MODEL 1
REMARK VINA RESULT:     -12.2      0.000      0.000
REMARK SMILES O=C(OCCOCCOC(=O)[C@@H]1C[C@@H]1C(=O)N1CCN(c2ncc(C(F)(F)F)cc2Cl)CC1)c1ccc(-c2c3nc(c(-c4c(F)c(F)c(F)c(F)c4F)c4ccc([nH]4)c(-c4c(F)c(F)c(F)c(F)c4F)c4nc(c(-c5c(F)c(F)c(F)c(F)c5F)c5ccc2[nH]5)C=C4)C=C3)cc1
REMARK SMILES IDX 7 1 6 2 5 3 4 4 3 5 2 6 1 7 34 8 35 9 96 10 36 11 95 12
REMARK SMILES IDX 37 13 38 14 39 15 89 16 40 17 94 18 88 19 90 20 41 21 93 22
REMARK SMILES IDX 87 23 86 24 42 26 74 27 54 28 73 29 55 30 58 31 72 32 91 33
REMARK SMILES IDX 56 34 57 35 71 37 92 38 59 39 43 40 44 41 52 42 45 43 46 44
REMARK SMILES IDX 50 45 53 46 47 47 48 48 51 49 49 50 75 51 76 52 84 53 77 54
REMARK SMILES IDX 78 55 82 56 85 57 79 58 80 59 83 60 81 61 60 62 61 63 69 64
REMARK SMILES IDX 62 65 63 66 67 67 70 68 64 69 65 70 68 71 66 72 8 73 9 74
REMARK SMILES IDX 10 75 11 76 12 77 13 78 14 79 15 80 16 81 17 82 18 83 33 84
REMARK SMILES IDX 19 85 32 86 20 87 21 88 22 89 30 90 23 91 29 92 31 93 24 94
REMARK SMILES IDX 25 95 26 96 27 97 28 98
REMARK H PARENT 90 25 58 36
REMARK Flexibility Score: inf
ROOT
ATOM      1  C   UNL A   1      33.139  29.701  26.175  1.00  0.00     0.202 C 
ENDROOT
BRANCH   1   2
ATOM      2  O   UNL A   1      32.036  30.268  26.898  1.00  0.00    -0.374 OA
BRANCH   2   3
ATOM      3  C   UNL A   1      31.335  31.322  26.230  1.00  0.00     0.202 C 
BRANCH   3   4
ATOM      4  C   UNL A   1      31.414  32.718  26.860  1.00  0.00     0.261 C 
BRANCH   4   5
ATOM      5  O   UNL A   1      32.773  33.177  26.958  1.00  0.00    -0.460 OA
BRANCH   5   6
ATOM      6  C   UNL A   1      33.416  33.650  28.050  1.00  0.00     0.338 C 
ATOM      7  O   UNL A   1      32.992  34.658  28.610  1.00  0.00    -0.246 OA
BRANCH   6   8
ATOM      8  C   UNL A   1      34.610  32.975  28.636  1.00  0.00     0.060 A 
ATOM      9  C   UNL A   1      34.654  31.631  29.002  1.00  0.00     0.016 A 
ATOM     10  C   UNL A   1      35.786  33.731  28.759  1.00  0.00     0.016 A 
ATOM     11  C   UNL A   1      35.781  31.067  29.567  1.00  0.00     0.010 A 
ATOM     12  C   UNL A   1      36.954  33.156  29.270  1.00  0.00     0.010 A 
ATOM     13  C   UNL A   1      36.939  31.825  29.696  1.00  0.00    -0.014 A 
BRANCH  13  14
ATOM     14  C   UNL A   1      38.087  31.187  30.357  1.00  0.00     0.031 A 
ATOM     15  C   UNL A   1      38.289  31.420  31.818  1.00  0.00     0.074 A 
ATOM     16  C   UNL A   1      38.814  30.290  29.670  1.00  0.00     0.049 A 
ATOM     17  N   UNL A   1      39.215  30.952  32.609  1.00  0.00    -0.248 NA
ATOM     18  C   UNL A   1      37.299  32.282  32.488  1.00  0.00     0.031 C 
ATOM     19  C   UNL A   1      38.585  29.916  28.272  1.00  0.00     0.029 A 
ATOM     20  N   UNL A   1      39.859  29.499  30.060  1.00  0.00    -0.354 N 
ATOM     21  C   UNL A   1      38.939  31.482  33.860  1.00  0.00     0.074 A 
ATOM     22  C   UNL A   1      37.758  32.307  33.729  1.00  0.00     0.031 C 
ATOM     23  C   UNL A   1      39.444  28.943  27.932  1.00  0.00     0.029 A 
ATOM     24  C   UNL A   1      40.324  28.677  29.063  1.00  0.00     0.049 A 
ATOM     25  H   UNL A   1      40.240  29.516  30.968  1.00  0.00     0.167 HD
ATOM     26  C   UNL A   1      39.626  31.297  35.010  1.00  0.00     0.037 A 
ATOM     27  C   UNL A   1      41.368  27.830  29.069  1.00  0.00     0.037 A 
ATOM     28  C   UNL A   1      40.800  30.473  35.101  1.00  0.00     0.049 A 
ATOM     29  C   UNL A   1      42.171  27.715  30.335  1.00  0.00     0.074 A 
ATOM     30  C   UNL A   1      41.630  30.258  36.185  1.00  0.00     0.029 A 
ATOM     31  N   UNL A   1      41.307  29.719  34.049  1.00  0.00    -0.354 N 
ATOM     32  N   UNL A   1      41.957  28.279  31.501  1.00  0.00    -0.248 NA
ATOM     33  C   UNL A   1      43.368  26.869  30.284  1.00  0.00     0.031 C 
ATOM     34  C   UNL A   1      42.663  29.407  35.775  1.00  0.00     0.029 A 
ATOM     35  C   UNL A   1      42.452  29.055  34.450  1.00  0.00     0.049 A 
ATOM     36  H   UNL A   1      40.910  29.667  33.149  1.00  0.00     0.167 HD
ATOM     37  C   UNL A   1      42.987  27.855  32.326  1.00  0.00     0.074 A 
ATOM     38  C   UNL A   1      43.811  26.964  31.531  1.00  0.00     0.031 C 
ATOM     39  C   UNL A   1      43.239  28.176  33.619  1.00  0.00     0.037 A 
BRANCH  26  40
ATOM     40  C   UNL A   1      39.160  32.067  36.209  1.00  0.00     0.064 A 
ATOM     41  C   UNL A   1      38.206  31.551  37.099  1.00  0.00     0.173 A 
ATOM     42  C   UNL A   1      39.639  33.366  36.438  1.00  0.00     0.173 A 
ATOM     43  F   UNL A   1      37.693  30.326  36.904  1.00  0.00    -0.203 F 
ATOM     44  C   UNL A   1      37.722  32.322  38.154  1.00  0.00     0.198 A 
ATOM     45  C   UNL A   1      39.172  34.123  37.508  1.00  0.00     0.198 A 
ATOM     46  F   UNL A   1      40.544  33.908  35.611  1.00  0.00    -0.203 F 
ATOM     47  F   UNL A   1      36.764  31.834  38.954  1.00  0.00    -0.200 F 
ATOM     48  C   UNL A   1      38.208  33.605  38.359  1.00  0.00     0.200 A 
ATOM     49  F   UNL A   1      39.641  35.363  37.704  1.00  0.00    -0.200 F 
ATOM     50  F   UNL A   1      37.731  34.351  39.365  1.00  0.00    -0.200 F 
ENDBRANCH  26  40
BRANCH  27  51
ATOM     51  C   UNL A   1      41.726  27.078  27.838  1.00  0.00     0.064 A 
ATOM     52  C   UNL A   1      42.492  27.665  26.823  1.00  0.00     0.173 A 
ATOM     53  C   UNL A   1      41.317  25.747  27.657  1.00  0.00     0.173 A 
ATOM     54  F   UNL A   1      42.890  28.942  26.935  1.00  0.00    -0.203 F 
ATOM     55  C   UNL A   1      42.829  26.954  25.671  1.00  0.00     0.198 A 
ATOM     56  C   UNL A   1      41.679  25.028  26.519  1.00  0.00     0.198 A 
ATOM     57  F   UNL A   1      40.579  25.137  28.595  1.00  0.00    -0.203 F 
ATOM     58  F   UNL A   1      43.530  27.551  24.698  1.00  0.00    -0.200 F 
ATOM     59  C   UNL A   1      42.429  25.634  25.524  1.00  0.00     0.200 A 
ATOM     60  F   UNL A   1      41.301  23.749  26.390  1.00  0.00    -0.200 F 
ATOM     61  F   UNL A   1      42.759  24.949  24.421  1.00  0.00    -0.200 F 
ENDBRANCH  27  51
BRANCH  39  62
ATOM     62  C   UNL A   1      44.446  27.546  34.244  1.00  0.00     0.064 A 
ATOM     63  C   UNL A   1      45.689  28.194  34.246  1.00  0.00     0.173 A 
ATOM     64  C   UNL A   1      44.343  26.304  34.886  1.00  0.00     0.173 A 
ATOM     65  F   UNL A   1      45.835  29.375  33.628  1.00  0.00    -0.203 F 
ATOM     66  C   UNL A   1      46.794  27.609  34.855  1.00  0.00     0.198 A 
ATOM     67  C   UNL A   1      45.443  25.735  35.517  1.00  0.00     0.198 A 
ATOM     68  F   UNL A   1      43.171  25.651  34.913  1.00  0.00    -0.203 F 
ATOM     69  F   UNL A   1      47.984  28.225  34.812  1.00  0.00    -0.200 F 
ATOM     70  C   UNL A   1      46.669  26.386  35.496  1.00  0.00     0.200 A 
ATOM     71  F   UNL A   1      45.319  24.558  36.146  1.00  0.00    -0.200 F 
ATOM     72  F   UNL A   1      47.732  25.828  36.090  1.00  0.00    -0.200 F 
ENDBRANCH  39  62
ENDBRANCH  13  14
ENDBRANCH   6   8
ENDBRANCH   5   6
ENDBRANCH   4   5
ENDBRANCH   3   4
ENDBRANCH   2   3
ENDBRANCH   1   2
BRANCH   1  73
ATOM     73  C   UNL A   1      32.735  28.384  25.496  1.00  0.00     0.261 C 
BRANCH  73  74
ATOM     74  O   UNL A   1      31.758  28.649  24.480  1.00  0.00    -0.463 OA
BRANCH  74  75
ATOM     75  C   UNL A   1      31.879  27.890  23.372  1.00  0.00     0.309 C 
ATOM     76  O   UNL A   1      32.890  27.777  22.692  1.00  0.00    -0.252 OA
BRANCH  75  77
ATOM     77  C   UNL A   1      30.677  27.078  23.061  1.00  0.00     0.112 C 
ATOM     78  C   UNL A   1      29.399  27.227  23.831  1.00  0.00     0.030 C 
ATOM     79  C   UNL A   1      30.131  25.897  23.840  1.00  0.00     0.094 C 
BRANCH  79  80
ATOM     80  C   UNL A   1      30.603  25.391  25.159  1.00  0.00     0.226 C 
ATOM     81  O   UNL A   1      30.182  25.838  26.216  1.00  0.00    -0.275 OA
ATOM     82  N   UNL A   1      31.540  24.393  25.127  1.00  0.00    -0.339 N 
ATOM     83  C   UNL A   1      31.599  23.459  26.256  1.00  0.00     0.141 C 
ATOM     84  C   UNL A   1      32.461  24.117  24.020  1.00  0.00     0.141 C 
ATOM     85  C   UNL A   1      31.378  22.025  25.741  1.00  0.00     0.139 C 
ATOM     86  C   UNL A   1      32.326  22.668  23.530  1.00  0.00     0.139 C 
ATOM     87  N   UNL A   1      32.366  21.776  24.690  1.00  0.00    -0.352 N 
BRANCH  87  88
ATOM     88  C   UNL A   1      32.880  20.511  24.554  1.00  0.00     0.147 A 
ATOM     89  N   UNL A   1      32.013  19.511  24.275  1.00  0.00    -0.237 NA
ATOM     90  C   UNL A   1      34.246  20.256  24.766  1.00  0.00     0.084 A 
ATOM     91  C   UNL A   1      32.495  18.251  24.195  1.00  0.00     0.126 A 
ATOM     92  C   UNL A   1      34.714  18.949  24.695  1.00  0.00     0.039 A 
ATOM     93  Cl  UNL A   1      35.368  21.496  25.214  1.00  0.00    -0.080 Cl
ATOM     94  C   UNL A   1      33.824  17.915  24.407  1.00  0.00     0.075 A 
BRANCH  94  95
ATOM     95  C   UNL A   1      34.254  16.486  24.328  1.00  0.00     0.417 C 
ATOM     96  F   UNL A   1      35.451  16.268  24.937  1.00  0.00    -0.166 F 
ATOM     97  F   UNL A   1      33.367  15.646  24.925  1.00  0.00    -0.166 F 
ATOM     98  F   UNL A   1      34.395  16.038  23.051  1.00  0.00    -0.166 F 
ENDBRANCH  94  95
ENDBRANCH  87  88
ENDBRANCH  79  80
ENDBRANCH  75  77
ENDBRANCH  74  75
ENDBRANCH  73  74
ENDBRANCH   1  73
TORSDOF 17
ENDMDL
MODEL 2
REMARK VINA RESULT:     -12.0      1.283      7.265
REMARK SMILES O=C(OCCOCCOC(=O)[C@@H]1C[C@@H]1C(=O)N1CCN(c2ncc(C(F)(F)F)cc2Cl)CC1)c1ccc(-c2c3nc(c(-c4c(F)c(F)c(F)c(F)c4F)c4ccc([nH]4)c(-c4c(F)c(F)c(F)c(F)c4F)c4nc(c(-c5c(F)c(F)c(F)c(F)c5F)c5ccc2[nH]5)C=C4)C=C3)cc1
REMARK SMILES IDX 7 1 6 2 5 3 4 4 3 5 2 6 1 7 34 8 35 9 96 10 36 11 95 12
REMARK SMILES IDX 37 13 38 14 39 15 89 16 40 17 94 18 88 19 90 20 41 21 93 22
REMARK SMILES IDX 87 23 86 24 42 26 74 27 54 28 73 29 55 30 58 31 72 32 91 33
REMARK SMILES IDX 56 34 57 35 71 37 92 38 59 39 43 40 44 41 52 42 45 43 46 44
REMARK SMILES IDX 50 45 53 46 47 47 48 48 51 49 49 50 75 51 76 52 84 53 77 54
REMARK SMILES IDX 78 55 82 56 85 57 79 58 80 59 83 60 81 61 60 62 61 63 69 64
REMARK SMILES IDX 62 65 63 66 67 67 70 68 64 69 65 70 68 71 66 72 8 73 9 74
REMARK SMILES IDX 10 75 11 76 12 77 13 78 14 79 15 80 16 81 17 82 18 83 33 84
REMARK SMILES IDX 19 85 32 86 20 87 21 88 22 89 30 90 23 91 29 92 31 93 24 94
REMARK SMILES IDX 25 95 26 96 27 97 28 98
REMARK H PARENT 90 25 58 36
REMARK Flexibility Score: inf
ROOT
ATOM      1  C   UNL A   1      32.294  30.253  25.960  1.00  0.00     0.202 C 
ENDROOT
BRANCH   1   2
ATOM      2  O   UNL A   1      31.409  30.888  26.896  1.00  0.00    -0.374 OA
BRANCH   2   3
ATOM      3  C   UNL A   1      31.363  32.317  26.830  1.00  0.00     0.202 C 
BRANCH   3   4
ATOM      4  C   UNL A   1      32.652  33.072  27.178  1.00  0.00     0.261 C 
BRANCH   4   5
ATOM      5  O   UNL A   1      32.379  34.252  27.953  1.00  0.00    -0.460 OA
BRANCH   5   6
ATOM      6  C   UNL A   1      33.167  34.838  28.884  1.00  0.00     0.338 C 
ATOM      7  O   UNL A   1      32.934  35.994  29.229  1.00  0.00    -0.246 OA
BRANCH   6   8
ATOM      8  C   UNL A   1      34.297  34.124  29.545  1.00  0.00     0.060 A 
ATOM      9  C   UNL A   1      34.144  33.096  30.473  1.00  0.00     0.016 A 
ATOM     10  C   UNL A   1      35.599  34.468  29.150  1.00  0.00     0.016 A 
ATOM     11  C   UNL A   1      35.230  32.491  31.075  1.00  0.00     0.010 A 
ATOM     12  C   UNL A   1      36.707  33.820  29.705  1.00  0.00     0.010 A 
ATOM     13  C   UNL A   1      36.517  32.844  30.687  1.00  0.00    -0.014 A 
BRANCH  13  14
ATOM     14  C   UNL A   1      37.631  32.207  31.405  1.00  0.00     0.031 A 
ATOM     15  C   UNL A   1      38.445  31.179  30.691  1.00  0.00     0.074 A 
ATOM     16  C   UNL A   1      37.982  32.686  32.611  1.00  0.00     0.049 A 
ATOM     17  N   UNL A   1      39.477  30.501  31.115  1.00  0.00    -0.248 NA
ATOM     18  C   UNL A   1      38.058  30.887  29.300  1.00  0.00     0.031 C 
ATOM     19  C   UNL A   1      37.308  33.783  33.309  1.00  0.00     0.029 A 
ATOM     20  N   UNL A   1      39.014  32.346  33.441  1.00  0.00    -0.354 N 
ATOM     21  C   UNL A   1      39.845  29.685  30.057  1.00  0.00     0.074 A 
ATOM     22  C   UNL A   1      38.931  29.948  28.968  1.00  0.00     0.031 C 
ATOM     23  C   UNL A   1      37.966  34.048  34.447  1.00  0.00     0.029 A 
ATOM     24  C   UNL A   1      39.060  33.095  34.590  1.00  0.00     0.049 A 
ATOM     25  H   UNL A   1      39.662  31.633  33.234  1.00  0.00     0.167 HD
ATOM     26  C   UNL A   1      40.857  28.788  30.015  1.00  0.00     0.037 A 
ATOM     27  C   UNL A   1      39.884  32.993  35.648  1.00  0.00     0.037 A 
ATOM     28  C   UNL A   1      41.743  28.549  31.120  1.00  0.00     0.049 A 
ATOM     29  C   UNL A   1      40.940  31.923  35.612  1.00  0.00     0.074 A 
ATOM     30  C   UNL A   1      42.759  27.619  31.235  1.00  0.00     0.029 A 
ATOM     31  N   UNL A   1      41.711  29.261  32.314  1.00  0.00    -0.354 N 
ATOM     32  N   UNL A   1      41.241  31.093  34.640  1.00  0.00    -0.248 NA
ATOM     33  C   UNL A   1      41.755  31.758  36.820  1.00  0.00     0.031 C 
ATOM     34  C   UNL A   1      43.315  27.743  32.514  1.00  0.00     0.029 A 
ATOM     35  C   UNL A   1      42.675  28.779  33.180  1.00  0.00     0.049 A 
ATOM     36  H   UNL A   1      41.091  30.001  32.514  1.00  0.00     0.167 HD
ATOM     37  C   UNL A   1      42.282  30.310  35.114  1.00  0.00     0.074 A 
ATOM     38  C   UNL A   1      42.577  30.784  36.453  1.00  0.00     0.031 C 
ATOM     39  C   UNL A   1      42.931  29.285  34.507  1.00  0.00     0.037 A 
BRANCH  26  40
ATOM     40  C   UNL A   1      40.980  27.965  28.769  1.00  0.00     0.064 A 
ATOM     41  C   UNL A   1      41.822  28.337  27.710  1.00  0.00     0.173 A 
ATOM     42  C   UNL A   1      40.197  26.810  28.610  1.00  0.00     0.173 A 
ATOM     43  F   UNL A   1      42.567  29.451  27.800  1.00  0.00    -0.203 F 
ATOM     44  C   UNL A   1      41.851  27.604  26.526  1.00  0.00     0.198 A 
ATOM     45  C   UNL A   1      40.247  26.067  27.435  1.00  0.00     0.198 A 
ATOM     46  F   UNL A   1      39.368  26.417  29.587  1.00  0.00    -0.203 F 
ATOM     47  F   UNL A   1      42.615  28.014  25.504  1.00  0.00    -0.200 F 
ATOM     48  C   UNL A   1      41.066  26.469  26.391  1.00  0.00     0.200 A 
ATOM     49  F   UNL A   1      39.487  24.970  27.305  1.00  0.00    -0.200 F 
ATOM     50  F   UNL A   1      41.083  25.773  25.246  1.00  0.00    -0.200 F 
ENDBRANCH  26  40
BRANCH  27  51
ATOM     51  C   UNL A   1      39.707  33.886  36.822  1.00  0.00     0.064 A 
ATOM     52  C   UNL A   1      38.901  33.513  37.906  1.00  0.00     0.173 A 
ATOM     53  C   UNL A   1      40.352  35.131  36.890  1.00  0.00     0.173 A 
ATOM     54  F   UNL A   1      38.244  32.343  37.882  1.00  0.00    -0.203 F 
ATOM     55  C   UNL A   1      38.741  34.354  39.007  1.00  0.00     0.198 A 
ATOM     56  C   UNL A   1      40.215  35.957  38.003  1.00  0.00     0.198 A 
ATOM     57  F   UNL A   1      41.132  35.539  35.878  1.00  0.00    -0.203 F 
ATOM     58  F   UNL A   1      37.935  33.990  40.013  1.00  0.00    -0.200 F 
ATOM     59  C   UNL A   1      39.405  35.570  39.059  1.00  0.00     0.200 A 
ATOM     60  F   UNL A   1      40.870  37.125  38.052  1.00  0.00    -0.200 F 
ATOM     61  F   UNL A   1      39.256  36.374  40.120  1.00  0.00    -0.200 F 
ENDBRANCH  27  51
BRANCH  39  62
ATOM     62  C   UNL A   1      44.027  28.629  35.288  1.00  0.00     0.064 A 
ATOM     63  C   UNL A   1      45.354  29.069  35.194  1.00  0.00     0.173 A 
ATOM     64  C   UNL A   1      43.735  27.582  36.175  1.00  0.00     0.173 A 
ATOM     65  F   UNL A   1      45.680  30.056  34.346  1.00  0.00    -0.203 F 
ATOM     66  C   UNL A   1      46.357  28.469  35.948  1.00  0.00     0.198 A 
ATOM     67  C   UNL A   1      44.736  27.003  36.947  1.00  0.00     0.198 A 
ATOM     68  F   UNL A   1      42.477  27.133  36.301  1.00  0.00    -0.203 F 
ATOM     69  F   UNL A   1      47.627  28.876  35.815  1.00  0.00    -0.200 F 
ATOM     70  C   UNL A   1      46.046  27.443  36.828  1.00  0.00     0.200 A 
ATOM     71  F   UNL A   1      44.433  26.020  37.805  1.00  0.00    -0.200 F 
ATOM     72  F   UNL A   1      47.012  26.872  37.560  1.00  0.00    -0.200 F 
ENDBRANCH  39  62
ENDBRANCH  13  14
ENDBRANCH   6   8
ENDBRANCH   5   6
ENDBRANCH   4   5
ENDBRANCH   3   4
ENDBRANCH   2   3
ENDBRANCH   1   2
BRANCH   1  73
ATOM     73  C   UNL A   1      31.514  29.661  24.777  1.00  0.00     0.261 C 
BRANCH  73  74
ATOM     74  O   UNL A   1      31.958  28.320  24.534  1.00  0.00    -0.463 OA
BRANCH  74  75
ATOM     75  C   UNL A   1      31.939  27.947  23.238  1.00  0.00     0.309 C 
ATOM     76  O   UNL A   1      32.831  28.151  22.425  1.00  0.00    -0.252 OA
BRANCH  75  77
ATOM     77  C   UNL A   1      30.750  27.147  22.855  1.00  0.00     0.112 C 
ATOM     78  C   UNL A   1      29.443  27.276  23.577  1.00  0.00     0.030 C 
ATOM     79  C   UNL A   1      30.173  25.945  23.577  1.00  0.00     0.094 C 
BRANCH  79  80
ATOM     80  C   UNL A   1      30.590  25.401  24.898  1.00  0.00     0.226 C 
ATOM     81  O   UNL A   1      30.130  25.821  25.951  1.00  0.00    -0.275 OA
ATOM     82  N   UNL A   1      31.522  24.397  24.876  1.00  0.00    -0.339 N 
ATOM     83  C   UNL A   1      31.533  23.433  25.980  1.00  0.00     0.141 C 
ATOM     84  C   UNL A   1      32.484  24.146  23.798  1.00  0.00     0.141 C 
ATOM     85  C   UNL A   1      31.324  22.015  25.417  1.00  0.00     0.139 C 
ATOM     86  C   UNL A   1      32.360  22.712  23.264  1.00  0.00     0.139 C 
ATOM     87  N   UNL A   1      32.350  21.789  24.399  1.00  0.00    -0.352 N 
BRANCH  87  88
ATOM     88  C   UNL A   1      32.863  20.525  24.248  1.00  0.00     0.147 A 
ATOM     89  N   UNL A   1      32.134  19.636  23.535  1.00  0.00    -0.237 NA
ATOM     90  C   UNL A   1      34.065  20.150  24.872  1.00  0.00     0.084 A 
ATOM     91  C   UNL A   1      32.597  18.370  23.426  1.00  0.00     0.126 A 
ATOM     92  C   UNL A   1      34.511  18.838  24.759  1.00  0.00     0.039 A 
ATOM     93  Cl  UNL A   1      34.977  21.234  25.866  1.00  0.00    -0.080 Cl
ATOM     94  C   UNL A   1      33.764  17.918  24.023  1.00  0.00     0.075 A 
BRANCH  94  95
ATOM     95  C   UNL A   1      34.175  16.490  23.870  1.00  0.00     0.417 C 
ATOM     96  F   UNL A   1      35.268  16.180  24.619  1.00  0.00    -0.166 F 
ATOM     97  F   UNL A   1      33.197  15.627  24.254  1.00  0.00    -0.166 F 
ATOM     98  F   UNL A   1      34.491  16.157  22.590  1.00  0.00    -0.166 F 
ENDBRANCH  94  95
ENDBRANCH  87  88
ENDBRANCH  79  80
ENDBRANCH  75  77
ENDBRANCH  74  75
ENDBRANCH  73  74
ENDBRANCH   1  73
TORSDOF 17
ENDMDL
MODEL 3
REMARK VINA RESULT:     -11.9      2.297      7.723
REMARK SMILES O=C(OCCOCCOC(=O)[C@@H]1C[C@@H]1C(=O)N1CCN(c2ncc(C(F)(F)F)cc2Cl)CC1)c1ccc(-c2c3nc(c(-c4c(F)c(F)c(F)c(F)c4F)c4ccc([nH]4)c(-c4c(F)c(F)c(F)c(F)c4F)c4nc(c(-c5c(F)c(F)c(F)c(F)c5F)c5ccc2[nH]5)C=C4)C=C3)cc1
REMARK SMILES IDX 7 1 6 2 5 3 4 4 3 5 2 6 1 7 34 8 35 9 96 10 36 11 95 12
REMARK SMILES IDX 37 13 38 14 39 15 89 16 40 17 94 18 88 19 90 20 41 21 93 22
REMARK SMILES IDX 87 23 86 24 42 26 74 27 54 28 73 29 55 30 58 31 72 32 91 33
REMARK SMILES IDX 56 34 57 35 71 37 92 38 59 39 43 40 44 41 52 42 45 43 46 44
REMARK SMILES IDX 50 45 53 46 47 47 48 48 51 49 49 50 75 51 76 52 84 53 77 54
REMARK SMILES IDX 78 55 82 56 85 57 79 58 80 59 83 60 81 61 60 62 61 63 69 64
REMARK SMILES IDX 62 65 63 66 67 67 70 68 64 69 65 70 68 71 66 72 8 73 9 74
REMARK SMILES IDX 10 75 11 76 12 77 13 78 14 79 15 80 16 81 17 82 18 83 33 84
REMARK SMILES IDX 19 85 32 86 20 87 21 88 22 89 30 90 23 91 29 92 31 93 24 94
REMARK SMILES IDX 25 95 26 96 27 97 28 98
REMARK H PARENT 90 25 58 36
REMARK Flexibility Score: inf
ROOT
ATOM      1  C   UNL A   1      30.795  28.314  22.894  1.00  0.00     0.202 C 
ENDROOT
BRANCH   1   2
ATOM      2  O   UNL A   1      30.842  29.255  23.979  1.00  0.00    -0.374 OA
BRANCH   2   3
ATOM      3  C   UNL A   1      31.636  28.862  25.102  1.00  0.00     0.202 C 
BRANCH   3   4
ATOM      4  C   UNL A   1      32.847  29.742  25.438  1.00  0.00     0.261 C 
BRANCH   4   5
ATOM      5  O   UNL A   1      32.616  30.530  26.619  1.00  0.00    -0.460 OA
BRANCH   5   6
ATOM      6  C   UNL A   1      33.451  31.418  27.204  1.00  0.00     0.338 C 
ATOM      7  O   UNL A   1      33.201  32.619  27.133  1.00  0.00    -0.246 OA
BRANCH   6   8
ATOM      8  C   UNL A   1      34.660  31.000  27.972  1.00  0.00     0.060 A 
ATOM      9  C   UNL A   1      34.892  29.704  28.429  1.00  0.00     0.016 A 
ATOM     10  C   UNL A   1      35.658  31.964  28.184  1.00  0.00     0.016 A 
ATOM     11  C   UNL A   1      36.018  29.382  29.162  1.00  0.00     0.010 A 
ATOM     12  C   UNL A   1      36.832  31.636  28.869  1.00  0.00     0.010 A 
ATOM     13  C   UNL A   1      36.997  30.344  29.377  1.00  0.00    -0.014 A 
BRANCH  13  14
ATOM     14  C   UNL A   1      38.144  29.957  30.213  1.00  0.00     0.031 A 
ATOM     15  C   UNL A   1      39.249  29.171  29.588  1.00  0.00     0.074 A 
ATOM     16  C   UNL A   1      38.240  30.461  31.455  1.00  0.00     0.049 A 
ATOM     17  N   UNL A   1      40.357  28.736  30.122  1.00  0.00    -0.248 NA
ATOM     18  C   UNL A   1      39.096  28.846  28.159  1.00  0.00     0.031 C 
ATOM     19  C   UNL A   1      37.255  31.348  32.080  1.00  0.00     0.029 A 
ATOM     20  N   UNL A   1      39.225  30.340  32.395  1.00  0.00    -0.354 N 
ATOM     21  C   UNL A   1      41.020  28.064  29.106  1.00  0.00     0.074 A 
ATOM     22  C   UNL A   1      40.194  28.147  27.921  1.00  0.00     0.031 C 
ATOM     23  C   UNL A   1      37.705  31.717  33.289  1.00  0.00     0.029 A 
ATOM     24  C   UNL A   1      38.969  31.039  33.548  1.00  0.00     0.049 A 
ATOM     25  H   UNL A   1      40.040  29.804  32.258  1.00  0.00     0.167 HD
ATOM     26  C   UNL A   1      42.211  27.427  29.172  1.00  0.00     0.037 A 
ATOM     27  C   UNL A   1      39.673  31.092  34.693  1.00  0.00     0.037 A 
ATOM     28  C   UNL A   1      43.003  27.361  30.370  1.00  0.00     0.049 A 
ATOM     29  C   UNL A   1      40.947  30.298  34.769  1.00  0.00     0.074 A 
ATOM     30  C   UNL A   1      44.189  26.688  30.592  1.00  0.00     0.029 A 
ATOM     31  N   UNL A   1      42.674  28.004  31.558  1.00  0.00    -0.354 N 
ATOM     32  N   UNL A   1      41.538  29.594  33.830  1.00  0.00    -0.248 NA
ATOM     33  C   UNL A   1      41.640  30.283  36.061  1.00  0.00     0.031 C 
ATOM     34  C   UNL A   1      44.557  26.892  31.928  1.00  0.00     0.029 A 
ATOM     35  C   UNL A   1      43.624  27.728  32.525  1.00  0.00     0.049 A 
ATOM     36  H   UNL A   1      41.881  28.572  31.692  1.00  0.00     0.167 HD
ATOM     37  C   UNL A   1      42.674  29.057  34.414  1.00  0.00     0.074 A 
ATOM     38  C   UNL A   1      42.702  29.539  35.782  1.00  0.00     0.031 C 
ATOM     39  C   UNL A   1      43.608  28.232  33.876  1.00  0.00     0.037 A 
BRANCH  26  40
ATOM     40  C   UNL A   1      42.659  26.699  27.941  1.00  0.00     0.064 A 
ATOM     41  C   UNL A   1      42.371  25.341  27.733  1.00  0.00     0.173 A 
ATOM     42  C   UNL A   1      43.437  27.360  26.978  1.00  0.00     0.173 A 
ATOM     43  F   UNL A   1      41.659  24.656  28.641  1.00  0.00    -0.203 F 
ATOM     44  C   UNL A   1      42.875  24.665  26.624  1.00  0.00     0.198 A 
ATOM     45  C   UNL A   1      43.918  26.687  25.859  1.00  0.00     0.198 A 
ATOM     46  F   UNL A   1      43.748  28.655  27.135  1.00  0.00    -0.203 F 
ATOM     47  F   UNL A   1      42.642  23.353  26.479  1.00  0.00    -0.200 F 
ATOM     48  C   UNL A   1      43.645  25.339  25.688  1.00  0.00     0.200 A 
ATOM     49  F   UNL A   1      44.662  27.340  24.956  1.00  0.00    -0.200 F 
ATOM     50  F   UNL A   1      44.141  24.683  24.630  1.00  0.00    -0.200 F 
ENDBRANCH  26  40
BRANCH  27  51
ATOM     51  C   UNL A   1      39.164  31.879  35.846  1.00  0.00     0.064 A 
ATOM     52  C   UNL A   1      38.252  31.329  36.756  1.00  0.00     0.173 A 
ATOM     53  C   UNL A   1      39.592  33.197  36.070  1.00  0.00     0.173 A 
ATOM     54  F   UNL A   1      37.794  30.081  36.576  1.00  0.00    -0.203 F 
ATOM     55  C   UNL A   1      37.780  32.071  37.840  1.00  0.00     0.198 A 
ATOM     56  C   UNL A   1      39.143  33.926  37.169  1.00  0.00     0.198 A 
ATOM     57  F   UNL A   1      40.462  33.773  35.228  1.00  0.00    -0.203 F 
ATOM     58  F   UNL A   1      36.879  31.535  38.674  1.00  0.00    -0.200 F 
ATOM     59  C   UNL A   1      38.233  33.364  38.050  1.00  0.00     0.200 A 
ATOM     60  F   UNL A   1      39.595  35.171  37.374  1.00  0.00    -0.200 F 
ATOM     61  F   UNL A   1      37.785  34.073  39.095  1.00  0.00    -0.200 F 
ENDBRANCH  27  51
BRANCH  39  62
ATOM     62  C   UNL A   1      44.734  27.820  34.773  1.00  0.00     0.064 A 
ATOM     63  C   UNL A   1      45.889  28.604  34.901  1.00  0.00     0.173 A 
ATOM     64  C   UNL A   1      44.633  26.654  35.545  1.00  0.00     0.173 A 
ATOM     65  F   UNL A   1      46.033  29.718  34.168  1.00  0.00    -0.203 F 
ATOM     66  C   UNL A   1      46.915  28.223  35.760  1.00  0.00     0.198 A 
ATOM     67  C   UNL A   1      45.649  26.291  36.422  1.00  0.00     0.198 A 
ATOM     68  F   UNL A   1      43.543  25.876  35.458  1.00  0.00    -0.203 F 
ATOM     69  F   UNL A   1      48.028  28.965  35.839  1.00  0.00    -0.200 F 
ATOM     70  C   UNL A   1      46.791  27.073  36.524  1.00  0.00     0.200 A 
ATOM     71  F   UNL A   1      45.524  25.186  37.169  1.00  0.00    -0.200 F 
ATOM     72  F   UNL A   1      47.776  26.713  37.358  1.00  0.00    -0.200 F 
ENDBRANCH  39  62
ENDBRANCH  13  14
ENDBRANCH   6   8
ENDBRANCH   5   6
ENDBRANCH   4   5
ENDBRANCH   3   4
ENDBRANCH   2   3
ENDBRANCH   1   2
BRANCH   1  73
ATOM     73  C   UNL A   1      31.601  27.050  23.225  1.00  0.00     0.261 C 
BRANCH  73  74
ATOM     74  O   UNL A   1      31.592  26.167  22.095  1.00  0.00    -0.463 OA
BRANCH  74  75
ATOM     75  C   UNL A   1      32.730  25.465  21.921  1.00  0.00     0.309 C 
ATOM     76  O   UNL A   1      33.846  25.943  21.769  1.00  0.00    -0.252 OA
BRANCH  75  77
ATOM     77  C   UNL A   1      32.557  23.995  22.025  1.00  0.00     0.112 C 
ATOM     78  C   UNL A   1      31.455  23.383  22.836  1.00  0.00     0.030 C 
ATOM     79  C   UNL A   1      32.901  23.105  23.203  1.00  0.00     0.094 C 
BRANCH  79  80
ATOM     80  C   UNL A   1      33.352  23.533  24.556  1.00  0.00     0.226 C 
ATOM     81  O   UNL A   1      32.571  23.938  25.405  1.00  0.00    -0.275 OA
ATOM     82  N   UNL A   1      34.697  23.450  24.803  1.00  0.00    -0.339 N 
ATOM     83  C   UNL A   1      35.139  23.256  26.186  1.00  0.00     0.141 C 
ATOM     84  C   UNL A   1      35.757  23.466  23.789  1.00  0.00     0.141 C 
ATOM     85  C   UNL A   1      35.966  21.960  26.278  1.00  0.00     0.139 C 
ATOM     86  C   UNL A   1      36.653  22.225  23.900  1.00  0.00     0.139 C 
ATOM     87  N   UNL A   1      37.049  22.057  25.298  1.00  0.00    -0.352 N 
BRANCH  87  88
ATOM     88  C   UNL A   1      38.261  21.484  25.596  1.00  0.00     0.147 A 
ATOM     89  N   UNL A   1      38.424  20.176  25.292  1.00  0.00    -0.237 NA
ATOM     90  C   UNL A   1      39.265  22.212  26.255  1.00  0.00     0.084 A 
ATOM     91  C   UNL A   1      39.591  19.582  25.630  1.00  0.00     0.126 A 
ATOM     92  C   UNL A   1      40.449  21.574  26.607  1.00  0.00     0.039 A 
ATOM     93  Cl  UNL A   1      39.057  23.861  26.740  1.00  0.00    -0.080 Cl
ATOM     94  C   UNL A   1      40.623  20.226  26.295  1.00  0.00     0.075 A 
BRANCH  94  95
ATOM     95  C   UNL A   1      41.863  19.473  26.654  1.00  0.00     0.417 C 
ATOM     96  F   UNL A   1      42.017  19.336  27.999  1.00  0.00    -0.166 F 
ATOM     97  F   UNL A   1      41.869  18.214  26.143  1.00  0.00    -0.166 F 
ATOM     98  F   UNL A   1      43.001  20.068  26.205  1.00  0.00    -0.166 F 
ENDBRANCH  94  95
ENDBRANCH  87  88
ENDBRANCH  79  80
ENDBRANCH  75  77
ENDBRANCH  74  75
ENDBRANCH  73  74
ENDBRANCH   1  73
TORSDOF 17
ENDMDL
