MODEL 1
REMARK VINA RESULT:     -10.6      0.000      0.000
REMARK SMILES CCOC(=O)c1sc(NC(=O)CCC(=O)OCCOCCOC(=O)c2ccc(-c3c4nc(c(-c5c(F)c(F)c(F)c(F)c5F)c5ccc([nH]5)c(-c5c(F)c(F)c(F)c(F)c5F)c5nc(c(-c6c(F)c(F)c(F)c(F)c6F)c6ccc3[nH]6)C=C5)C=C4)cc2)c(C#N)c1C
REMARK SMILES IDX 17 1 16 2 14 3 15 4 13 5 12 6 10 7 9 8 11 10 8 11 6 12 7 13
REMARK SMILES IDX 91 14 88 15 92 16 4 17 5 18 3 19 2 20 1 21 89 22 90 23 18 24
REMARK SMILES IDX 19 25 20 26 21 27 22 28 23 29 24 30 25 31 26 32 87 33 27 34
REMARK SMILES IDX 86 35 28 36 29 37 30 38 80 39 31 40 85 41 79 42 81 43 32 44
REMARK SMILES IDX 84 45 78 46 77 47 33 49 65 50 45 51 64 52 46 53 49 54 63 55
REMARK SMILES IDX 82 56 47 57 48 58 62 60 83 61 50 62 34 63 35 64 43 65 36 66
REMARK SMILES IDX 37 67 41 68 44 69 38 70 39 71 42 72 40 73 66 74 67 75 75 76
REMARK SMILES IDX 68 77 69 78 73 79 76 80 70 81 71 82 74 83 72 84 51 85 52 86
REMARK SMILES IDX 60 87 53 88 54 89 58 90 61 91 55 92 56 93 59 94 57 95
REMARK H PARENT 9 9 81 48 49 59
REMARK Flexibility Score: inf
ROOT
ATOM      1  C   UNL A   1      36.680  22.339  25.274  1.00  0.00     0.261 C 
ENDROOT
BRANCH   1   2
ATOM      2  O   UNL A   1      35.682  22.731  26.205  1.00  0.00    -0.463 OA
BRANCH   2   3
ATOM      3  C   UNL A   1      34.869  23.657  25.655  1.00  0.00     0.306 C 
ATOM      4  O   UNL A   1      35.057  24.170  24.557  1.00  0.00    -0.252 OA
BRANCH   3   5
ATOM      5  C   UNL A   1      33.661  23.908  26.509  1.00  0.00     0.132 C 
BRANCH   5   6
ATOM      6  C   UNL A   1      32.575  22.811  26.598  1.00  0.00     0.112 C 
BRANCH   6   7
ATOM      7  C   UNL A   1      31.088  23.225  26.601  1.00  0.00     0.225 C 
ATOM      8  N   UNL A   1      30.383  24.027  25.712  1.00  0.00    -0.317 N 
ATOM      9  H   UNL A   1      29.438  24.129  25.969  1.00  0.00     0.170 HD
ATOM     10  O   UNL A   1      30.420  22.814  27.570  1.00  0.00    -0.275 OA
BRANCH   8  11
ATOM     11  C   UNL A   1      30.692  24.727  24.539  1.00  0.00     0.114 A 
ATOM     12  C   UNL A   1      30.798  26.764  22.930  1.00  0.00     0.118 A 
ATOM     13  S   UNL A   1      30.118  26.228  24.375  1.00  0.00    -0.109 S 
ATOM     14  C   UNL A   1      31.454  25.655  22.420  1.00  0.00    -0.006 A 
ATOM     15  C   UNL A   1      31.391  24.473  23.367  1.00  0.00     0.091 A 
ATOM     16  C   UNL A   1      32.213  25.710  21.146  1.00  0.00     0.048 C 
BRANCH  12  17
ATOM     17  C   UNL A   1      30.679  28.226  22.613  1.00  0.00     0.348 C 
ATOM     18  O   UNL A   1      29.715  28.716  22.036  1.00  0.00    -0.245 OA
BRANCH  17  19
ATOM     19  O   UNL A   1      31.663  29.083  23.012  1.00  0.00    -0.462 OA
BRANCH  19  20
ATOM     20  C   UNL A   1      31.347  29.748  24.288  1.00  0.00     0.230 C 
ATOM     21  C   UNL A   1      31.862  29.163  25.628  1.00  0.00     0.049 C 
ENDBRANCH  19  20
ENDBRANCH  17  19
ENDBRANCH  12  17
BRANCH  15  22
ATOM     22  C   UNL A   1      32.040  23.225  23.160  1.00  0.00     0.103 C 
ATOM     23  N   UNL A   1      32.610  22.212  23.025  1.00  0.00    -0.192 NA
ENDBRANCH  15  22
ENDBRANCH   8  11
ENDBRANCH   6   7
ENDBRANCH   5   6
ENDBRANCH   3   5
ENDBRANCH   2   3
ENDBRANCH   1   2
BRANCH   1  24
ATOM     24  C   UNL A   1      38.138  22.540  25.847  1.00  0.00     0.202 C 
BRANCH  24  25
ATOM     25  O   UNL A   1      38.935  21.309  25.813  1.00  0.00    -0.374 OA
BRANCH  25  26
ATOM     26  C   UNL A   1      40.195  20.985  26.480  1.00  0.00     0.202 C 
BRANCH  26  27
ATOM     27  C   UNL A   1      41.289  19.733  26.158  1.00  0.00     0.261 C 
BRANCH  27  28
ATOM     28  O   UNL A   1      42.759  19.822  26.379  1.00  0.00    -0.460 OA
BRANCH  28  29
ATOM     29  C   UNL A   1      43.576  20.330  25.369  1.00  0.00     0.338 C 
ATOM     30  O   UNL A   1      43.956  19.702  24.390  1.00  0.00    -0.246 OA
BRANCH  29  31
ATOM     31  C   UNL A   1      43.866  21.815  25.489  1.00  0.00     0.060 A 
ATOM     32  C   UNL A   1      45.020  22.288  26.159  1.00  0.00     0.016 A 
ATOM     33  C   UNL A   1      42.976  22.755  24.970  1.00  0.00     0.016 A 
ATOM     34  C   UNL A   1      45.104  23.630  26.556  1.00  0.00     0.010 A 
ATOM     35  C   UNL A   1      43.066  24.089  25.349  1.00  0.00     0.010 A 
ATOM     36  C   UNL A   1      44.036  24.479  26.271  1.00  0.00    -0.014 A 
BRANCH  36  37
ATOM     37  C   UNL A   1      43.855  25.737  27.004  1.00  0.00     0.031 A 
ATOM     38  C   UNL A   1      44.833  26.808  26.675  1.00  0.00     0.074 A 
ATOM     39  C   UNL A   1      42.792  25.904  27.835  1.00  0.00     0.049 A 
ATOM     40  N   UNL A   1      45.720  27.324  27.462  1.00  0.00    -0.248 NA
ATOM     41  C   UNL A   1      44.938  27.276  25.284  1.00  0.00     0.031 C 
ATOM     42  C   UNL A   1      41.675  24.979  28.075  1.00  0.00     0.029 A 
ATOM     43  N   UNL A   1      42.438  26.984  28.609  1.00  0.00    -0.354 N 
ATOM     44  C   UNL A   1      46.350  28.327  26.728  1.00  0.00     0.074 A 
ATOM     45  C   UNL A   1      45.967  28.123  25.358  1.00  0.00     0.031 C 
ATOM     46  C   UNL A   1      40.672  25.614  28.726  1.00  0.00     0.029 A 
ATOM     47  C   UNL A   1      41.110  26.950  29.079  1.00  0.00     0.049 A 
ATOM     48  H   UNL A   1      43.060  27.717  28.819  1.00  0.00     0.167 HD
ATOM     49  C   UNL A   1      46.906  29.403  27.356  1.00  0.00     0.037 A 
ATOM     50  C   UNL A   1      40.434  27.973  29.679  1.00  0.00     0.037 A 
ATOM     51  C   UNL A   1      47.149  29.113  28.746  1.00  0.00     0.049 A 
ATOM     52  C   UNL A   1      41.461  28.904  30.222  1.00  0.00     0.074 A 
ATOM     53  C   UNL A   1      47.917  28.183  29.419  1.00  0.00     0.029 A 
ATOM     54  N   UNL A   1      46.225  29.563  29.657  1.00  0.00    -0.354 N 
ATOM     55  N   UNL A   1      42.271  28.571  31.191  1.00  0.00    -0.248 NA
ATOM     56  C   UNL A   1      41.942  29.935  29.312  1.00  0.00     0.031 C 
ATOM     57  C   UNL A   1      47.096  27.748  30.500  1.00  0.00     0.029 A 
ATOM     58  C   UNL A   1      45.939  28.524  30.505  1.00  0.00     0.049 A 
ATOM     59  H   UNL A   1      45.839  30.468  29.695  1.00  0.00     0.167 HD
ATOM     60  C   UNL A   1      43.515  28.994  30.754  1.00  0.00     0.074 A 
ATOM     61  C   UNL A   1      43.247  29.836  29.586  1.00  0.00     0.031 C 
ATOM     62  C   UNL A   1      44.663  28.380  31.164  1.00  0.00     0.037 A 
BRANCH  49  63
ATOM     63  C   UNL A   1      46.839  30.820  26.833  1.00  0.00     0.064 A 
ATOM     64  C   UNL A   1      47.995  31.627  26.874  1.00  0.00     0.173 A 
ATOM     65  C   UNL A   1      45.630  31.511  26.594  1.00  0.00     0.173 A 
ATOM     66  F   UNL A   1      49.197  31.086  27.122  1.00  0.00    -0.203 F 
ATOM     67  C   UNL A   1      47.931  33.020  26.760  1.00  0.00     0.198 A 
ATOM     68  C   UNL A   1      45.577  32.894  26.430  1.00  0.00     0.198 A 
ATOM     69  F   UNL A   1      44.441  30.902  26.624  1.00  0.00    -0.203 F 
ATOM     70  F   UNL A   1      49.039  33.754  26.933  1.00  0.00    -0.200 F 
ATOM     71  C   UNL A   1      46.721  33.653  26.544  1.00  0.00     0.200 A 
ATOM     72  F   UNL A   1      44.389  33.489  26.249  1.00  0.00    -0.200 F 
ATOM     73  F   UNL A   1      46.647  34.989  26.496  1.00  0.00    -0.200 F 
ENDBRANCH  49  63
BRANCH  50  74
ATOM     74  C   UNL A   1      39.024  28.410  29.443  1.00  0.00     0.064 A 
ATOM     75  C   UNL A   1      38.114  28.640  30.497  1.00  0.00     0.173 A 
ATOM     76  C   UNL A   1      38.630  28.895  28.181  1.00  0.00     0.173 A 
ATOM     77  F   UNL A   1      38.422  28.270  31.748  1.00  0.00    -0.203 F 
ATOM     78  C   UNL A   1      36.899  29.317  30.295  1.00  0.00     0.198 A 
ATOM     79  C   UNL A   1      37.422  29.571  27.983  1.00  0.00     0.198 A 
ATOM     80  F   UNL A   1      39.455  28.809  27.130  1.00  0.00    -0.203 F 
ATOM     81  F   UNL A   1      36.081  29.559  31.330  1.00  0.00    -0.200 F 
ATOM     82  C   UNL A   1      36.560  29.791  29.038  1.00  0.00     0.200 A 
ATOM     83  F   UNL A   1      37.131  30.062  26.769  1.00  0.00    -0.200 F 
ATOM     84  F   UNL A   1      35.430  30.489  28.853  1.00  0.00    -0.200 F 
ENDBRANCH  50  74
BRANCH  62  85
ATOM     85  C   UNL A   1      44.577  27.353  32.257  1.00  0.00     0.064 A 
ATOM     86  C   UNL A   1      44.406  25.973  32.044  1.00  0.00     0.173 A 
ATOM     87  C   UNL A   1      44.849  27.770  33.566  1.00  0.00     0.173 A 
ATOM     88  F   UNL A   1      44.244  25.480  30.809  1.00  0.00    -0.203 F 
ATOM     89  C   UNL A   1      44.469  25.064  33.102  1.00  0.00     0.198 A 
ATOM     90  C   UNL A   1      44.947  26.860  34.612  1.00  0.00     0.198 A 
ATOM     91  F   UNL A   1      45.081  29.067  33.819  1.00  0.00    -0.203 F 
ATOM     92  F   UNL A   1      44.304  23.751  32.875  1.00  0.00    -0.200 F 
ATOM     93  C   UNL A   1      44.746  25.508  34.384  1.00  0.00     0.200 A 
ATOM     94  F   UNL A   1      45.271  27.291  35.838  1.00  0.00    -0.200 F 
ATOM     95  F   UNL A   1      44.848  24.634  35.395  1.00  0.00    -0.200 F 
ENDBRANCH  62  85
ENDBRANCH  36  37
ENDBRANCH  29  31
ENDBRANCH  28  29
ENDBRANCH  27  28
ENDBRANCH  26  27
ENDBRANCH  25  26
ENDBRANCH  24  25
ENDBRANCH   1  24
TORSDOF 21
ENDMDL
MODEL 2
REMARK VINA RESULT:     -10.4      2.545      3.609
REMARK SMILES CCOC(=O)c1sc(NC(=O)CCC(=O)OCCOCCOC(=O)c2ccc(-c3c4nc(c(-c5c(F)c(F)c(F)c(F)c5F)c5ccc([nH]5)c(-c5c(F)c(F)c(F)c(F)c5F)c5nc(c(-c6c(F)c(F)c(F)c(F)c6F)c6ccc3[nH]6)C=C5)C=C4)cc2)c(C#N)c1C
REMARK SMILES IDX 17 1 16 2 14 3 15 4 13 5 12 6 10 7 9 8 11 10 8 11 6 12 7 13
REMARK SMILES IDX 91 14 88 15 92 16 4 17 5 18 3 19 2 20 1 21 89 22 90 23 18 24
REMARK SMILES IDX 19 25 20 26 21 27 22 28 23 29 24 30 25 31 26 32 87 33 27 34
REMARK SMILES IDX 86 35 28 36 29 37 30 38 80 39 31 40 85 41 79 42 81 43 32 44
REMARK SMILES IDX 84 45 78 46 77 47 33 49 65 50 45 51 64 52 46 53 49 54 63 55
REMARK SMILES IDX 82 56 47 57 48 58 62 60 83 61 50 62 34 63 35 64 43 65 36 66
REMARK SMILES IDX 37 67 41 68 44 69 38 70 39 71 42 72 40 73 66 74 67 75 75 76
REMARK SMILES IDX 68 77 69 78 73 79 76 80 70 81 71 82 74 83 72 84 51 85 52 86
REMARK SMILES IDX 60 87 53 88 54 89 58 90 61 91 55 92 56 93 59 94 57 95
REMARK H PARENT 9 9 81 48 49 59
REMARK Flexibility Score: inf
ROOT
ATOM      1  C   UNL A   1      36.375  22.138  25.137  1.00  0.00     0.261 C 
ENDROOT
BRANCH   1   2
ATOM      2  O   UNL A   1      35.130  22.770  24.874  1.00  0.00    -0.463 OA
BRANCH   2   3
ATOM      3  C   UNL A   1      34.454  22.965  26.026  1.00  0.00     0.306 C 
ATOM      4  O   UNL A   1      34.521  22.218  26.995  1.00  0.00    -0.252 OA
BRANCH   3   5
ATOM      5  C   UNL A   1      33.691  24.258  26.005  1.00  0.00     0.132 C 
BRANCH   5   6
ATOM      6  C   UNL A   1      32.349  24.337  26.767  1.00  0.00     0.112 C 
BRANCH   6   7
ATOM      7  C   UNL A   1      31.030  24.157  25.985  1.00  0.00     0.225 C 
ATOM      8  N   UNL A   1      30.312  25.071  25.225  1.00  0.00    -0.317 N 
ATOM      9  H   UNL A   1      29.493  24.680  24.843  1.00  0.00     0.170 HD
ATOM     10  O   UNL A   1      30.502  23.033  26.078  1.00  0.00    -0.275 OA
BRANCH   8  11
ATOM     11  C   UNL A   1      30.470  26.418  24.870  1.00  0.00     0.114 A 
ATOM     12  C   UNL A   1      30.296  28.528  23.365  1.00  0.00     0.118 A 
ATOM     13  S   UNL A   1      30.102  26.855  23.359  1.00  0.00    -0.109 S 
ATOM     14  C   UNL A   1      30.816  28.815  24.617  1.00  0.00    -0.006 A 
ATOM     15  C   UNL A   1      30.910  27.579  25.489  1.00  0.00     0.091 A 
ATOM     16  C   UNL A   1      31.118  30.204  25.041  1.00  0.00     0.048 C 
BRANCH  12  17
ATOM     17  C   UNL A   1      29.775  29.286  22.179  1.00  0.00     0.348 C 
ATOM     18  O   UNL A   1      30.498  29.863  21.375  1.00  0.00    -0.245 OA
BRANCH  17  19
ATOM     19  O   UNL A   1      28.432  29.317  21.937  1.00  0.00    -0.462 OA
BRANCH  19  20
ATOM     20  C   UNL A   1      27.666  29.839  23.084  1.00  0.00     0.230 C 
ATOM     21  C   UNL A   1      27.692  31.351  23.423  1.00  0.00     0.049 C 
ENDBRANCH  19  20
ENDBRANCH  17  19
ENDBRANCH  12  17
BRANCH  15  22
ATOM     22  C   UNL A   1      31.325  27.568  26.850  1.00  0.00     0.103 C 
ATOM     23  N   UNL A   1      31.694  27.604  27.960  1.00  0.00    -0.192 NA
ENDBRANCH  15  22
ENDBRANCH   8  11
ENDBRANCH   6   7
ENDBRANCH   5   6
ENDBRANCH   3   5
ENDBRANCH   2   3
ENDBRANCH   1   2
BRANCH   1  24
ATOM     24  C   UNL A   1      37.497  23.178  25.529  1.00  0.00     0.202 C 
BRANCH  24  25
ATOM     25  O   UNL A   1      38.629  22.556  26.223  1.00  0.00    -0.374 OA
BRANCH  25  26
ATOM     26  C   UNL A   1      39.336  21.307  25.941  1.00  0.00     0.202 C 
BRANCH  26  27
ATOM     27  C   UNL A   1      40.995  20.973  26.009  1.00  0.00     0.261 C 
BRANCH  27  28
ATOM     28  O   UNL A   1      42.015  21.890  26.588  1.00  0.00    -0.460 OA
BRANCH  28  29
ATOM     29  C   UNL A   1      42.221  23.142  26.007  1.00  0.00     0.338 C 
ATOM     30  O   UNL A   1      42.810  23.338  24.952  1.00  0.00    -0.246 OA
BRANCH  29  31
ATOM     31  C   UNL A   1      41.523  24.284  26.722  1.00  0.00     0.060 A 
ATOM     32  C   UNL A   1      40.825  25.286  26.006  1.00  0.00     0.016 A 
ATOM     33  C   UNL A   1      41.586  24.393  28.112  1.00  0.00     0.016 A 
ATOM     34  C   UNL A   1      40.483  26.493  26.631  1.00  0.00     0.010 A 
ATOM     35  C   UNL A   1      41.233  25.583  28.737  1.00  0.00     0.010 A 
ATOM     36  C   UNL A   1      40.840  26.676  27.966  1.00  0.00    -0.014 A 
BRANCH  36  37
ATOM     37  C   UNL A   1      40.910  28.020  28.551  1.00  0.00     0.031 A 
ATOM     38  C   UNL A   1      42.043  28.859  28.078  1.00  0.00     0.074 A 
ATOM     39  C   UNL A   1      39.928  28.463  29.380  1.00  0.00     0.049 A 
ATOM     40  N   UNL A   1      43.039  29.295  28.779  1.00  0.00    -0.248 NA
ATOM     41  C   UNL A   1      42.168  29.144  26.639  1.00  0.00     0.031 C 
ATOM     42  C   UNL A   1      38.680  27.781  29.752  1.00  0.00     0.029 A 
ATOM     43  N   UNL A   1      39.798  29.667  30.031  1.00  0.00    -0.354 N 
ATOM     44  C   UNL A   1      43.800  30.084  27.919  1.00  0.00     0.074 A 
ATOM     45  C   UNL A   1      43.329  29.800  26.591  1.00  0.00     0.031 C 
ATOM     46  C   UNL A   1      37.830  28.651  30.346  1.00  0.00     0.029 A 
ATOM     47  C   UNL A   1      38.506  29.919  30.531  1.00  0.00     0.049 A 
ATOM     48  H   UNL A   1      40.545  30.299  30.140  1.00  0.00     0.167 HD
ATOM     49  C   UNL A   1      44.559  31.108  28.404  1.00  0.00     0.037 A 
ATOM     50  C   UNL A   1      38.041  31.106  31.023  1.00  0.00     0.037 A 
ATOM     51  C   UNL A   1      44.806  30.937  29.813  1.00  0.00     0.049 A 
ATOM     52  C   UNL A   1      39.235  31.896  31.430  1.00  0.00     0.074 A 
ATOM     53  C   UNL A   1      45.431  29.967  30.573  1.00  0.00     0.029 A 
ATOM     54  N   UNL A   1      44.014  31.640  30.686  1.00  0.00    -0.354 N 
ATOM     55  N   UNL A   1      40.016  31.536  32.413  1.00  0.00    -0.248 NA
ATOM     56  C   UNL A   1      39.848  32.719  30.396  1.00  0.00     0.031 C 
ATOM     57  C   UNL A   1      44.594  29.806  31.716  1.00  0.00     0.029 A 
ATOM     58  C   UNL A   1      43.589  30.768  31.656  1.00  0.00     0.049 A 
ATOM     59  H   UNL A   1      43.791  32.598  30.627  1.00  0.00     0.167 HD
ATOM     60  C   UNL A   1      41.295  31.682  31.902  1.00  0.00     0.074 A 
ATOM     61  C   UNL A   1      41.126  32.423  30.649  1.00  0.00     0.031 C 
ATOM     62  C   UNL A   1      42.336  30.926  32.355  1.00  0.00     0.037 A 
BRANCH  49  63
ATOM     63  C   UNL A   1      44.714  32.449  27.722  1.00  0.00     0.064 A 
ATOM     64  C   UNL A   1      45.875  32.707  26.963  1.00  0.00     0.173 A 
ATOM     65  C   UNL A   1      43.935  33.584  28.036  1.00  0.00     0.173 A 
ATOM     66  F   UNL A   1      46.708  31.710  26.628  1.00  0.00    -0.203 F 
ATOM     67  C   UNL A   1      46.260  34.006  26.617  1.00  0.00     0.198 A 
ATOM     68  C   UNL A   1      44.296  34.872  27.645  1.00  0.00     0.198 A 
ATOM     69  F   UNL A   1      42.862  33.517  28.830  1.00  0.00    -0.203 F 
ATOM     70  F   UNL A   1      47.436  34.213  26.006  1.00  0.00    -0.200 F 
ATOM     71  C   UNL A   1      45.472  35.089  26.963  1.00  0.00     0.200 A 
ATOM     72  F   UNL A   1      43.532  35.910  28.017  1.00  0.00    -0.200 F 
ATOM     73  F   UNL A   1      45.868  36.338  26.688  1.00  0.00    -0.200 F 
ENDBRANCH  49  63
BRANCH  50  74
ATOM     74  C   UNL A   1      36.719  31.755  30.769  1.00  0.00     0.064 A 
ATOM     75  C   UNL A   1      35.850  32.141  31.811  1.00  0.00     0.173 A 
ATOM     76  C   UNL A   1      36.414  32.277  29.497  1.00  0.00     0.173 A 
ATOM     77  F   UNL A   1      36.088  31.746  33.070  1.00  0.00    -0.203 F 
ATOM     78  C   UNL A   1      34.757  32.997  31.590  1.00  0.00     0.198 A 
ATOM     79  C   UNL A   1      35.328  33.131  29.278  1.00  0.00     0.198 A 
ATOM     80  F   UNL A   1      37.221  32.047  28.453  1.00  0.00    -0.203 F 
ATOM     81  F   UNL A   1      33.981  33.379  32.614  1.00  0.00    -0.200 F 
ATOM     82  C   UNL A   1      34.505  33.499  30.324  1.00  0.00     0.200 A 
ATOM     83  F   UNL A   1      35.125  33.643  28.056  1.00  0.00    -0.200 F 
ATOM     84  F   UNL A   1      33.500  34.363  30.119  1.00  0.00    -0.200 F 
ENDBRANCH  50  74
BRANCH  62  85
ATOM     85  C   UNL A   1      42.121  30.057  33.562  1.00  0.00     0.064 A 
ATOM     86  C   UNL A   1      41.679  28.722  33.517  1.00  0.00     0.173 A 
ATOM     87  C   UNL A   1      42.544  30.550  34.803  1.00  0.00     0.173 A 
ATOM     88  F   UNL A   1      41.354  28.142  32.355  1.00  0.00    -0.203 F 
ATOM     89  C   UNL A   1      41.631  27.936  34.670  1.00  0.00     0.198 A 
ATOM     90  C   UNL A   1      42.528  29.756  35.943  1.00  0.00     0.198 A 
ATOM     91  F   UNL A   1      43.032  31.796  34.896  1.00  0.00    -0.203 F 
ATOM     92  F   UNL A   1      41.206  26.665  34.604  1.00  0.00    -0.200 F 
ATOM     93  C   UNL A   1      42.061  28.452  35.881  1.00  0.00     0.200 A 
ATOM     94  F   UNL A   1      42.999  30.243  37.098  1.00  0.00    -0.200 F 
ATOM     95  F   UNL A   1      42.054  27.688  36.982  1.00  0.00    -0.200 F 
ENDBRANCH  62  85
ENDBRANCH  36  37
ENDBRANCH  29  31
ENDBRANCH  28  29
ENDBRANCH  27  28
ENDBRANCH  26  27
ENDBRANCH  25  26
ENDBRANCH  24  25
ENDBRANCH   1  24
TORSDOF 21
ENDMDL
MODEL 3
REMARK VINA RESULT:     -10.4      2.798      4.161
REMARK SMILES CCOC(=O)c1sc(NC(=O)CCC(=O)OCCOCCOC(=O)c2ccc(-c3c4nc(c(-c5c(F)c(F)c(F)c(F)c5F)c5ccc([nH]5)c(-c5c(F)c(F)c(F)c(F)c5F)c5nc(c(-c6c(F)c(F)c(F)c(F)c6F)c6ccc3[nH]6)C=C5)C=C4)cc2)c(C#N)c1C
REMARK SMILES IDX 17 1 16 2 14 3 15 4 13 5 12 6 10 7 9 8 11 10 8 11 6 12 7 13
REMARK SMILES IDX 91 14 88 15 92 16 4 17 5 18 3 19 2 20 1 21 89 22 90 23 18 24
REMARK SMILES IDX 19 25 20 26 21 27 22 28 23 29 24 30 25 31 26 32 87 33 27 34
REMARK SMILES IDX 86 35 28 36 29 37 30 38 80 39 31 40 85 41 79 42 81 43 32 44
REMARK SMILES IDX 84 45 78 46 77 47 33 49 65 50 45 51 64 52 46 53 49 54 63 55
REMARK SMILES IDX 82 56 47 57 48 58 62 60 83 61 50 62 34 63 35 64 43 65 36 66
REMARK SMILES IDX 37 67 41 68 44 69 38 70 39 71 42 72 40 73 66 74 67 75 75 76
REMARK SMILES IDX 68 77 69 78 73 79 76 80 70 81 71 82 74 83 72 84 51 85 52 86
REMARK SMILES IDX 60 87 53 88 54 89 58 90 61 91 55 92 56 93 59 94 57 95
REMARK H PARENT 9 9 81 48 49 59
REMARK Flexibility Score: inf
ROOT
ATOM      1  C   UNL A   1      35.714  23.410  25.238  1.00  0.00     0.261 C 
ENDROOT
BRANCH   1   2
ATOM      2  O   UNL A   1      34.999  24.412  24.529  1.00  0.00    -0.463 OA
BRANCH   2   3
ATOM      3  C   UNL A   1      34.398  23.878  23.446  1.00  0.00     0.306 C 
ATOM      4  O   UNL A   1      34.996  23.303  22.543  1.00  0.00    -0.252 OA
BRANCH   3   5
ATOM      5  C   UNL A   1      32.904  23.990  23.532  1.00  0.00     0.132 C 
BRANCH   5   6
ATOM      6  C   UNL A   1      32.153  24.760  22.422  1.00  0.00     0.112 C 
BRANCH   6   7
ATOM      7  C   UNL A   1      32.884  25.890  21.666  1.00  0.00     0.225 C 
ATOM      8  N   UNL A   1      33.074  27.221  22.018  1.00  0.00    -0.317 N 
ATOM      9  H   UNL A   1      33.575  27.721  21.334  1.00  0.00     0.170 HD
ATOM     10  O   UNL A   1      33.341  25.580  20.549  1.00  0.00    -0.275 OA
BRANCH   8  11
ATOM     11  C   UNL A   1      32.724  28.024  23.112  1.00  0.00     0.114 A 
ATOM     12  C   UNL A   1      33.010  29.154  25.433  1.00  0.00     0.118 A 
ATOM     13  S   UNL A   1      33.676  27.988  24.417  1.00  0.00    -0.109 S 
ATOM     14  C   UNL A   1      31.852  29.560  24.788  1.00  0.00    -0.006 A 
ATOM     15  C   UNL A   1      31.696  28.899  23.433  1.00  0.00     0.091 A 
ATOM     16  C   UNL A   1      30.967  30.609  25.352  1.00  0.00     0.048 C 
BRANCH  12  17
ATOM     17  C   UNL A   1      33.814  29.565  26.632  1.00  0.00     0.348 C 
ATOM     18  O   UNL A   1      33.378  30.277  27.528  1.00  0.00    -0.245 OA
BRANCH  17  19
ATOM     19  O   UNL A   1      35.091  29.102  26.775  1.00  0.00    -0.462 OA
BRANCH  19  20
ATOM     20  C   UNL A   1      35.938  30.021  27.556  1.00  0.00     0.230 C 
ATOM     21  C   UNL A   1      37.477  30.019  27.372  1.00  0.00     0.049 C 
ENDBRANCH  19  20
ENDBRANCH  17  19
ENDBRANCH  12  17
BRANCH  15  22
ATOM     22  C   UNL A   1      30.657  29.176  22.503  1.00  0.00     0.103 C 
ATOM     23  N   UNL A   1      29.770  29.372  21.765  1.00  0.00    -0.192 NA
ENDBRANCH  15  22
ENDBRANCH   8  11
ENDBRANCH   6   7
ENDBRANCH   5   6
ENDBRANCH   3   5
ENDBRANCH   2   3
ENDBRANCH   1   2
BRANCH   1  24
ATOM     24  C   UNL A   1      37.068  23.958  25.838  1.00  0.00     0.202 C 
BRANCH  24  25
ATOM     25  O   UNL A   1      37.927  22.894  26.366  1.00  0.00    -0.374 OA
BRANCH  25  26
ATOM     26  C   UNL A   1      38.553  21.763  25.683  1.00  0.00     0.202 C 
BRANCH  26  27
ATOM     27  C   UNL A   1      40.162  21.237  25.731  1.00  0.00     0.261 C 
BRANCH  27  28
ATOM     28  O   UNL A   1      41.225  21.857  26.567  1.00  0.00    -0.460 OA
BRANCH  28  29
ATOM     29  C   UNL A   1      41.745  23.100  26.207  1.00  0.00     0.338 C 
ATOM     30  O   UNL A   1      42.533  23.294  25.291  1.00  0.00    -0.246 OA
BRANCH  29  31
ATOM     31  C   UNL A   1      41.144  24.271  26.963  1.00  0.00     0.060 A 
ATOM     32  C   UNL A   1      40.418  25.286  26.295  1.00  0.00     0.016 A 
ATOM     33  C   UNL A   1      41.327  24.392  28.341  1.00  0.00     0.016 A 
ATOM     34  C   UNL A   1      40.167  26.509  26.932  1.00  0.00     0.010 A 
ATOM     35  C   UNL A   1      41.063  25.598  28.979  1.00  0.00     0.010 A 
ATOM     36  C   UNL A   1      40.640  26.695  28.231  1.00  0.00    -0.014 A 
BRANCH  36  37
ATOM     37  C   UNL A   1      40.799  28.042  28.790  1.00  0.00     0.031 A 
ATOM     38  C   UNL A   1      41.923  28.835  28.225  1.00  0.00     0.074 A 
ATOM     39  C   UNL A   1      39.895  28.528  29.683  1.00  0.00     0.049 A 
ATOM     40  N   UNL A   1      42.981  29.243  28.846  1.00  0.00    -0.248 NA
ATOM     41  C   UNL A   1      41.952  29.100  26.777  1.00  0.00     0.031 C 
ATOM     42  C   UNL A   1      38.655  27.895  30.153  1.00  0.00     0.029 A 
ATOM     43  N   UNL A   1      39.855  29.743  30.325  1.00  0.00    -0.354 N 
ATOM     44  C   UNL A   1      43.704  29.995  27.923  1.00  0.00     0.074 A 
ATOM     45  C   UNL A   1      43.128  29.713  26.636  1.00  0.00     0.031 C 
ATOM     46  C   UNL A   1      37.881  28.801  30.796  1.00  0.00     0.029 A 
ATOM     47  C   UNL A   1      38.612  30.046  30.914  1.00  0.00     0.049 A 
ATOM     48  H   UNL A   1      40.630  30.349  30.371  1.00  0.00     0.167 HD
ATOM     49  C   UNL A   1      44.532  30.997  28.338  1.00  0.00     0.037 A 
ATOM     50  C   UNL A   1      38.226  31.254  31.422  1.00  0.00     0.037 A 
ATOM     51  C   UNL A   1      44.875  30.832  29.727  1.00  0.00     0.049 A 
ATOM     52  C   UNL A   1      39.473  32.006  31.731  1.00  0.00     0.074 A 
ATOM     53  C   UNL A   1      45.519  29.849  30.452  1.00  0.00     0.029 A 
ATOM     54  N   UNL A   1      44.173  31.572  30.646  1.00  0.00    -0.354 N 
ATOM     55  N   UNL A   1      40.310  31.629  32.660  1.00  0.00    -0.248 NA
ATOM     56  C   UNL A   1      40.037  32.795  30.644  1.00  0.00     0.031 C 
ATOM     57  C   UNL A   1      44.763  29.730  31.655  1.00  0.00     0.029 A 
ATOM     58  C   UNL A   1      43.790  30.727  31.655  1.00  0.00     0.049 A 
ATOM     59  H   UNL A   1      43.980  32.537  30.590  1.00  0.00     0.167 HD
ATOM     60  C   UNL A   1      41.553  31.724  32.055  1.00  0.00     0.074 A 
ATOM     61  C   UNL A   1      41.319  32.457  30.808  1.00  0.00     0.031 C 
ATOM     62  C   UNL A   1      42.598  30.936  32.441  1.00  0.00     0.037 A 
BRANCH  49  63
ATOM     63  C   UNL A   1      44.683  32.323  27.628  1.00  0.00     0.064 A 
ATOM     64  C   UNL A   1      45.846  32.572  26.870  1.00  0.00     0.173 A 
ATOM     65  C   UNL A   1      43.896  33.460  27.914  1.00  0.00     0.173 A 
ATOM     66  F   UNL A   1      46.687  31.573  26.561  1.00  0.00    -0.203 F 
ATOM     67  C   UNL A   1      46.225  33.866  26.499  1.00  0.00     0.198 A 
ATOM     68  C   UNL A   1      44.251  34.742  27.498  1.00  0.00     0.198 A 
ATOM     69  F   UNL A   1      42.818  33.404  28.703  1.00  0.00    -0.203 F 
ATOM     70  F   UNL A   1      47.404  34.067  25.891  1.00  0.00    -0.200 F 
ATOM     71  C   UNL A   1      45.430  34.951  26.818  1.00  0.00     0.200 A 
ATOM     72  F   UNL A   1      43.478  35.783  27.843  1.00  0.00    -0.200 F 
ATOM     73  F   UNL A   1      45.820  36.197  26.518  1.00  0.00    -0.200 F 
ENDBRANCH  49  63
BRANCH  50  74
ATOM     74  C   UNL A   1      36.912  31.947  31.256  1.00  0.00     0.064 A 
ATOM     75  C   UNL A   1      36.000  32.108  32.320  1.00  0.00     0.173 A 
ATOM     76  C   UNL A   1      36.656  32.725  30.111  1.00  0.00     0.173 A 
ATOM     77  F   UNL A   1      36.188  31.458  33.477  1.00  0.00    -0.203 F 
ATOM     78  C   UNL A   1      34.912  32.997  32.238  1.00  0.00     0.198 A 
ATOM     79  C   UNL A   1      35.576  33.610  30.032  1.00  0.00     0.198 A 
ATOM     80  F   UNL A   1      37.507  32.716  29.076  1.00  0.00    -0.203 F 
ATOM     81  F   UNL A   1      34.093  33.158  33.288  1.00  0.00    -0.200 F 
ATOM     82  C   UNL A   1      34.709  33.754  31.097  1.00  0.00     0.200 A 
ATOM     83  F   UNL A   1      35.421  34.368  28.937  1.00  0.00    -0.200 F 
ATOM     84  F   UNL A   1      33.709  34.645  31.037  1.00  0.00    -0.200 F 
ENDBRANCH  50  74
BRANCH  62  85
ATOM     85  C   UNL A   1      42.441  30.089  33.672  1.00  0.00     0.064 A 
ATOM     86  C   UNL A   1      41.954  28.770  33.677  1.00  0.00     0.173 A 
ATOM     87  C   UNL A   1      42.969  30.581  34.873  1.00  0.00     0.173 A 
ATOM     88  F   UNL A   1      41.527  28.188  32.549  1.00  0.00    -0.203 F 
ATOM     89  C   UNL A   1      41.963  27.999  34.841  1.00  0.00     0.198 A 
ATOM     90  C   UNL A   1      43.009  29.801  36.022  1.00  0.00     0.198 A 
ATOM     91  F   UNL A   1      43.503  31.812  34.914  1.00  0.00    -0.203 F 
ATOM     92  F   UNL A   1      41.493  26.742  34.823  1.00  0.00    -0.200 F 
ATOM     93  C   UNL A   1      42.496  28.513  36.011  1.00  0.00     0.200 A 
ATOM     94  F   UNL A   1      43.578  30.285  37.134  1.00  0.00    -0.200 F 
ATOM     95  F   UNL A   1      42.543  27.763  37.120  1.00  0.00    -0.200 F 
ENDBRANCH  62  85
ENDBRANCH  36  37
ENDBRANCH  29  31
ENDBRANCH  28  29
ENDBRANCH  27  28
ENDBRANCH  26  27
ENDBRANCH  25  26
ENDBRANCH  24  25
ENDBRANCH   1  24
TORSDOF 21
ENDMDL
