MODEL 1
REMARK VINA RESULT:     -11.0      0.000      0.000
REMARK SMILES Cc1ccc(C)c([C@@H](O)[C@@H](C)[C@@H](C)C(=O)OCCOCCOC(=O)c2ccc(-c3c4nc(c(-c5c(F)c(F)c(F)c(F)c5F)c5ccc([nH]5)c(-c5c(F)c(F)c(F)c(F)c5F)c5nc(c(-c6c(F)c(F)c(F)c(F)c6F)c6ccc3[nH]6)C=C5)C=C4)cc2)c1
REMARK SMILES IDX 18 1 17 2 16 3 14 4 15 5 12 6 13 7 10 8 11 9 8 10 7 11 1 12
REMARK SMILES IDX 2 13 3 14 88 15 4 16 5 17 6 18 9 19 19 21 20 22 21 23 22 24
REMARK SMILES IDX 23 25 24 26 25 27 26 28 87 29 27 30 86 31 28 32 29 33 30 34
REMARK SMILES IDX 80 35 31 36 85 37 79 38 81 39 32 40 84 41 78 42 77 43 33 45
REMARK SMILES IDX 65 46 45 47 64 48 46 49 49 50 63 51 82 52 47 53 48 54 62 56
REMARK SMILES IDX 83 57 50 58 34 59 35 60 43 61 36 62 37 63 41 64 44 65 38 66
REMARK SMILES IDX 39 67 42 68 40 69 66 70 67 71 75 72 68 73 69 74 73 75 76 76
REMARK SMILES IDX 70 77 71 78 74 79 72 80 51 81 52 82 60 83 53 84 54 85 58 86
REMARK SMILES IDX 61 87 55 88 56 89 59 90 57 91
REMARK H PARENT 9 20 81 44 49 55
REMARK Flexibility Score: inf
ROOT
ATOM      1  C   UNL A   1      31.737  29.695  25.009  1.00  0.00     0.202 C 
ENDROOT
BRANCH   1   2
ATOM      2  C   UNL A   1      31.564  28.313  24.347  1.00  0.00     0.261 C 
BRANCH   2   3
ATOM      3  O   UNL A   1      30.620  27.482  25.051  1.00  0.00    -0.463 OA
BRANCH   3   4
ATOM      4  C   UNL A   1      31.136  26.737  26.067  1.00  0.00     0.309 C 
ATOM      5  O   UNL A   1      31.191  27.051  27.227  1.00  0.00    -0.252 OA
BRANCH   4   6
ATOM      6  C   UNL A   1      31.500  25.335  25.623  1.00  0.00     0.102 C 
ATOM      7  C   UNL A   1      30.401  24.360  26.031  1.00  0.00     0.020 C 
BRANCH   6   8
ATOM      8  C   UNL A   1      32.922  25.123  26.132  1.00  0.00     0.033 C 
ATOM      9  C   UNL A   1      33.925  26.040  25.388  1.00  0.00     0.011 C 
BRANCH   8  10
ATOM     10  C   UNL A   1      33.418  23.674  26.088  1.00  0.00     0.148 C 
BRANCH  10  11
ATOM     11  C   UNL A   1      34.697  23.635  25.271  1.00  0.00    -0.016 A 
ATOM     12  C   UNL A   1      38.389  23.576  26.197  1.00  0.00     0.044 C 
ATOM     13  C   UNL A   1      37.127  23.489  25.396  1.00  0.00    -0.051 A 
ATOM     14  C   UNL A   1      37.158  23.103  24.055  1.00  0.00     0.004 A 
ATOM     15  C   UNL A   1      35.900  23.778  25.987  1.00  0.00     0.010 A 
ATOM     16  C   UNL A   1      35.978  23.004  23.317  1.00  0.00     0.004 A 
ATOM     17  C   UNL A   1      34.735  23.282  23.900  1.00  0.00    -0.045 A 
ATOM     18  C   UNL A   1      33.513  23.054  23.042  1.00  0.00     0.045 C 
ENDBRANCH  10  11
BRANCH  10  19
ATOM     19  O   UNL A   1      33.654  23.103  27.360  1.00  0.00    -0.388 OA
ATOM     20  H   UNL A   1      32.810  22.980  27.821  1.00  0.00     0.211 HD
ENDBRANCH  10  19
ENDBRANCH   8  10
ENDBRANCH   6   8
ENDBRANCH   4   6
ENDBRANCH   3   4
ENDBRANCH   2   3
ENDBRANCH   1   2
BRANCH   1  21
ATOM     21  O   UNL A   1      33.029  29.737  25.574  1.00  0.00    -0.374 OA
BRANCH  21  22
ATOM     22  C   UNL A   1      33.199  29.883  26.966  1.00  0.00     0.202 C 
BRANCH  22  23
ATOM     23  C   UNL A   1      33.199  31.346  27.394  1.00  0.00     0.261 C 
BRANCH  23  24
ATOM     24  O   UNL A   1      34.477  32.001  27.628  1.00  0.00    -0.460 OA
BRANCH  24  25
ATOM     25  C   UNL A   1      35.095  31.886  28.835  1.00  0.00     0.338 C 
ATOM     26  O   UNL A   1      34.613  32.265  29.890  1.00  0.00    -0.246 OA
BRANCH  25  27
ATOM     27  C   UNL A   1      36.410  31.191  28.726  1.00  0.00     0.060 A 
ATOM     28  C   UNL A   1      36.437  29.796  28.590  1.00  0.00     0.016 A 
ATOM     29  C   UNL A   1      37.579  31.887  29.045  1.00  0.00     0.016 A 
ATOM     30  C   UNL A   1      37.601  29.096  28.931  1.00  0.00     0.010 A 
ATOM     31  C   UNL A   1      38.696  31.183  29.481  1.00  0.00     0.010 A 
ATOM     32  C   UNL A   1      38.713  29.782  29.448  1.00  0.00    -0.014 A 
BRANCH  32  33
ATOM     33  C   UNL A   1      40.032  29.126  29.513  1.00  0.00     0.031 A 
ATOM     34  C   UNL A   1      40.442  29.054  30.914  1.00  0.00     0.074 A 
ATOM     35  C   UNL A   1      40.813  28.542  28.578  1.00  0.00     0.049 A 
ATOM     36  N   UNL A   1      41.330  29.824  31.443  1.00  0.00    -0.248 NA
ATOM     37  C   UNL A   1      39.659  28.256  31.866  1.00  0.00     0.031 C 
ATOM     38  C   UNL A   1      40.576  28.526  27.164  1.00  0.00     0.029 A 
ATOM     39  N   UNL A   1      41.976  27.813  28.650  1.00  0.00    -0.354 N 
ATOM     40  C   UNL A   1      41.400  29.399  32.749  1.00  0.00     0.074 A 
ATOM     41  C   UNL A   1      40.198  28.653  33.019  1.00  0.00     0.031 C 
ATOM     42  C   UNL A   1      41.313  27.610  26.516  1.00  0.00     0.029 A 
ATOM     43  C   UNL A   1      42.272  27.113  27.474  1.00  0.00     0.049 A 
ATOM     44  H   UNL A   1      42.546  27.785  29.452  1.00  0.00     0.167 HD
ATOM     45  C   UNL A   1      42.615  29.328  33.341  1.00  0.00     0.037 A 
ATOM     46  C   UNL A   1      43.333  26.339  27.144  1.00  0.00     0.037 A 
ATOM     47  C   UNL A   1      43.610  30.087  32.629  1.00  0.00     0.049 A 
ATOM     48  C   UNL A   1      44.456  26.808  27.971  1.00  0.00     0.074 A 
ATOM     49  C   UNL A   1      43.822  31.427  32.385  1.00  0.00     0.029 A 
ATOM     50  N   UNL A   1      44.316  29.384  31.684  1.00  0.00    -0.354 N 
ATOM     51  N   UNL A   1      45.037  27.965  27.799  1.00  0.00    -0.248 NA
ATOM     52  C   UNL A   1      44.689  26.172  29.260  1.00  0.00     0.031 C 
ATOM     53  C   UNL A   1      44.554  31.505  31.167  1.00  0.00     0.029 A 
ATOM     54  C   UNL A   1      44.800  30.213  30.704  1.00  0.00     0.049 A 
ATOM     55  H   UNL A   1      44.456  28.409  31.706  1.00  0.00     0.167 HD
ATOM     56  C   UNL A   1      45.299  28.394  29.085  1.00  0.00     0.074 A 
ATOM     57  C   UNL A   1      45.230  27.201  29.916  1.00  0.00     0.031 C 
ATOM     58  C   UNL A   1      45.216  29.716  29.409  1.00  0.00     0.037 A 
BRANCH  45  59
ATOM     59  C   UNL A   1      42.962  28.195  34.251  1.00  0.00     0.064 A 
ATOM     60  C   UNL A   1      43.278  28.461  35.586  1.00  0.00     0.173 A 
ATOM     61  C   UNL A   1      43.226  26.884  33.791  1.00  0.00     0.173 A 
ATOM     62  F   UNL A   1      43.140  29.699  36.081  1.00  0.00    -0.203 F 
ATOM     63  C   UNL A   1      43.807  27.470  36.413  1.00  0.00     0.198 A 
ATOM     64  C   UNL A   1      43.681  25.881  34.633  1.00  0.00     0.198 A 
ATOM     65  F   UNL A   1      43.161  26.562  32.492  1.00  0.00    -0.203 F 
ATOM     66  F   UNL A   1      44.188  27.781  37.658  1.00  0.00    -0.200 F 
ATOM     67  C   UNL A   1      43.990  26.179  35.942  1.00  0.00     0.200 A 
ATOM     68  F   UNL A   1      43.885  24.649  34.146  1.00  0.00    -0.200 F 
ATOM     69  F   UNL A   1      44.518  25.235  36.731  1.00  0.00    -0.200 F 
ENDBRANCH  45  59
BRANCH  46  70
ATOM     70  C   UNL A   1      43.396  25.198  26.196  1.00  0.00     0.064 A 
ATOM     71  C   UNL A   1      44.475  25.035  25.310  1.00  0.00     0.173 A 
ATOM     72  C   UNL A   1      42.529  24.093  26.326  1.00  0.00     0.173 A 
ATOM     73  F   UNL A   1      45.357  26.027  25.129  1.00  0.00    -0.203 F 
ATOM     74  C   UNL A   1      44.705  23.822  24.647  1.00  0.00     0.198 A 
ATOM     75  C   UNL A   1      42.757  22.886  25.661  1.00  0.00     0.198 A 
ATOM     76  F   UNL A   1      41.487  24.130  27.170  1.00  0.00    -0.203 F 
ATOM     77  F   UNL A   1      45.786  23.684  23.866  1.00  0.00    -0.200 F 
ATOM     78  C   UNL A   1      43.858  22.744  24.838  1.00  0.00     0.200 A 
ATOM     79  F   UNL A   1      41.940  21.844  25.870  1.00  0.00    -0.200 F 
ATOM     80  F   UNL A   1      44.122  21.562  24.263  1.00  0.00    -0.200 F 
ENDBRANCH  46  70
BRANCH  58  81
ATOM     81  C   UNL A   1      45.435  30.717  28.315  1.00  0.00     0.064 A 
ATOM     82  C   UNL A   1      44.436  31.210  27.462  1.00  0.00     0.173 A 
ATOM     83  C   UNL A   1      46.715  31.286  28.216  1.00  0.00     0.173 A 
ATOM     84  F   UNL A   1      43.177  30.756  27.536  1.00  0.00    -0.203 F 
ATOM     85  C   UNL A   1      44.717  32.225  26.544  1.00  0.00     0.198 A 
ATOM     86  C   UNL A   1      46.983  32.317  27.324  1.00  0.00     0.198 A 
ATOM     87  F   UNL A   1      47.698  30.869  29.030  1.00  0.00    -0.203 F 
ATOM     88  F   UNL A   1      43.752  32.684  25.734  1.00  0.00    -0.200 F 
ATOM     89  C   UNL A   1      45.985  32.784  26.485  1.00  0.00     0.200 A 
ATOM     90  F   UNL A   1      48.200  32.878  27.300  1.00  0.00    -0.200 F 
ATOM     91  F   UNL A   1      46.242  33.788  25.635  1.00  0.00    -0.200 F 
ENDBRANCH  58  81
ENDBRANCH  32  33
ENDBRANCH  25  27
ENDBRANCH  24  25
ENDBRANCH  23  24
ENDBRANCH  22  23
ENDBRANCH  21  22
ENDBRANCH   1  21
TORSDOF 18
ENDMDL
MODEL 2
REMARK VINA RESULT:     -10.9      1.211      2.269
REMARK SMILES Cc1ccc(C)c([C@@H](O)[C@@H](C)[C@@H](C)C(=O)OCCOCCOC(=O)c2ccc(-c3c4nc(c(-c5c(F)c(F)c(F)c(F)c5F)c5ccc([nH]5)c(-c5c(F)c(F)c(F)c(F)c5F)c5nc(c(-c6c(F)c(F)c(F)c(F)c6F)c6ccc3[nH]6)C=C5)C=C4)cc2)c1
REMARK SMILES IDX 18 1 17 2 16 3 14 4 15 5 12 6 13 7 10 8 11 9 8 10 7 11 1 12
REMARK SMILES IDX 2 13 3 14 88 15 4 16 5 17 6 18 9 19 19 21 20 22 21 23 22 24
REMARK SMILES IDX 23 25 24 26 25 27 26 28 87 29 27 30 86 31 28 32 29 33 30 34
REMARK SMILES IDX 80 35 31 36 85 37 79 38 81 39 32 40 84 41 78 42 77 43 33 45
REMARK SMILES IDX 65 46 45 47 64 48 46 49 49 50 63 51 82 52 47 53 48 54 62 56
REMARK SMILES IDX 83 57 50 58 34 59 35 60 43 61 36 62 37 63 41 64 44 65 38 66
REMARK SMILES IDX 39 67 42 68 40 69 66 70 67 71 75 72 68 73 69 74 73 75 76 76
REMARK SMILES IDX 70 77 71 78 74 79 72 80 51 81 52 82 60 83 53 84 54 85 58 86
REMARK SMILES IDX 61 87 55 88 56 89 59 90 57 91
REMARK H PARENT 9 20 81 44 49 55
REMARK Flexibility Score: inf
ROOT
ATOM      1  C   UNL A   1      33.727  26.774  26.018  1.00  0.00     0.202 C 
ENDROOT
BRANCH   1   2
ATOM      2  C   UNL A   1      32.485  26.024  25.495  1.00  0.00     0.261 C 
BRANCH   2   3
ATOM      3  O   UNL A   1      32.805  24.704  25.013  1.00  0.00    -0.463 OA
BRANCH   3   4
ATOM      4  C   UNL A   1      33.229  24.635  23.721  1.00  0.00     0.309 C 
ATOM      5  O   UNL A   1      33.146  25.506  22.895  1.00  0.00    -0.252 OA
BRANCH   4   6
ATOM      6  C   UNL A   1      34.010  23.368  23.438  1.00  0.00     0.102 C 
ATOM      7  C   UNL A   1      33.183  22.151  23.837  1.00  0.00     0.020 C 
BRANCH   6   8
ATOM      8  C   UNL A   1      35.373  23.599  24.083  1.00  0.00     0.033 C 
ATOM      9  C   UNL A   1      36.521  23.317  23.082  1.00  0.00     0.011 C 
BRANCH   8  10
ATOM     10  C   UNL A   1      35.617  22.821  25.380  1.00  0.00     0.148 C 
BRANCH  10  11
ATOM     11  C   UNL A   1      37.108  22.833  25.666  1.00  0.00    -0.016 A 
ATOM     12  C   UNL A   1      39.394  25.249  27.517  1.00  0.00     0.044 C 
ATOM     13  C   UNL A   1      38.897  24.022  26.819  1.00  0.00    -0.051 A 
ATOM     14  C   UNL A   1      39.696  22.881  26.723  1.00  0.00     0.004 A 
ATOM     15  C   UNL A   1      37.619  23.999  26.265  1.00  0.00     0.010 A 
ATOM     16  C   UNL A   1      39.222  21.734  26.087  1.00  0.00     0.004 A 
ATOM     17  C   UNL A   1      37.936  21.691  25.536  1.00  0.00    -0.045 A 
ATOM     18  C   UNL A   1      37.485  20.371  24.954  1.00  0.00     0.045 C 
ENDBRANCH  10  11
BRANCH  10  19
ATOM     19  O   UNL A   1      34.918  23.327  26.500  1.00  0.00    -0.388 OA
ATOM     20  H   UNL A   1      35.136  22.798  27.284  1.00  0.00     0.211 HD
ENDBRANCH  10  19
ENDBRANCH   8  10
ENDBRANCH   6   8
ENDBRANCH   4   6
ENDBRANCH   3   4
ENDBRANCH   2   3
ENDBRANCH   1   2
BRANCH   1  21
ATOM     21  O   UNL A   1      33.488  28.155  25.859  1.00  0.00    -0.374 OA
BRANCH  21  22
ATOM     22  C   UNL A   1      32.819  28.887  26.860  1.00  0.00     0.202 C 
BRANCH  22  23
ATOM     23  C   UNL A   1      33.329  30.321  26.961  1.00  0.00     0.261 C 
BRANCH  23  24
ATOM     24  O   UNL A   1      34.111  30.700  28.127  1.00  0.00    -0.460 OA
BRANCH  24  25
ATOM     25  C   UNL A   1      35.216  31.482  27.986  1.00  0.00     0.338 C 
ATOM     26  O   UNL A   1      35.194  32.629  27.570  1.00  0.00    -0.246 OA
BRANCH  25  27
ATOM     27  C   UNL A   1      36.453  30.792  28.452  1.00  0.00     0.060 A 
ATOM     28  C   UNL A   1      37.446  31.536  29.106  1.00  0.00     0.016 A 
ATOM     29  C   UNL A   1      36.734  29.505  27.987  1.00  0.00     0.016 A 
ATOM     30  C   UNL A   1      38.757  31.045  29.146  1.00  0.00     0.010 A 
ATOM     31  C   UNL A   1      38.053  29.069  27.937  1.00  0.00     0.010 A 
ATOM     32  C   UNL A   1      39.080  29.841  28.497  1.00  0.00    -0.014 A 
BRANCH  32  33
ATOM     33  C   UNL A   1      40.353  29.154  28.789  1.00  0.00     0.031 A 
ATOM     34  C   UNL A   1      40.447  28.955  30.235  1.00  0.00     0.074 A 
ATOM     35  C   UNL A   1      41.316  28.633  27.999  1.00  0.00     0.049 A 
ATOM     36  N   UNL A   1      41.200  29.659  31.008  1.00  0.00    -0.248 NA
ATOM     37  C   UNL A   1      39.473  28.097  30.921  1.00  0.00     0.031 C 
ATOM     38  C   UNL A   1      41.393  28.741  26.571  1.00  0.00     0.029 A 
ATOM     39  N   UNL A   1      42.433  27.875  28.258  1.00  0.00    -0.354 N 
ATOM     40  C   UNL A   1      40.982  29.124  32.256  1.00  0.00     0.074 A 
ATOM     41  C   UNL A   1      39.748  28.385  32.193  1.00  0.00     0.031 C 
ATOM     42  C   UNL A   1      42.251  27.867  26.022  1.00  0.00     0.029 A 
ATOM     43  C   UNL A   1      42.977  27.270  27.118  1.00  0.00     0.049 A 
ATOM     44  H   UNL A   1      42.815  27.768  29.159  1.00  0.00     0.167 HD
ATOM     45  C   UNL A   1      42.039  28.977  33.090  1.00  0.00     0.037 A 
ATOM     46  C   UNL A   1      44.082  26.504  26.960  1.00  0.00     0.037 A 
ATOM     47  C   UNL A   1      43.168  29.771  32.679  1.00  0.00     0.049 A 
ATOM     48  C   UNL A   1      44.999  26.877  28.049  1.00  0.00     0.074 A 
ATOM     49  C   UNL A   1      43.432  31.122  32.603  1.00  0.00     0.029 A 
ATOM     50  N   UNL A   1      44.060  29.135  31.852  1.00  0.00    -0.354 N 
ATOM     51  N   UNL A   1      45.607  28.032  28.107  1.00  0.00    -0.248 NA
ATOM     52  C   UNL A   1      44.943  26.130  29.297  1.00  0.00     0.031 C 
ATOM     53  C   UNL A   1      44.412  31.286  31.584  1.00  0.00     0.029 A 
ATOM     54  C   UNL A   1      44.749  30.033  31.076  1.00  0.00     0.049 A 
ATOM     55  H   UNL A   1      44.189  28.159  31.819  1.00  0.00     0.167 HD
ATOM     56  C   UNL A   1      45.583  28.346  29.452  1.00  0.00     0.074 A 
ATOM     57  C   UNL A   1      45.332  27.088  30.142  1.00  0.00     0.031 C 
ATOM     58  C   UNL A   1      45.436  29.637  29.864  1.00  0.00     0.037 A 
BRANCH  45  59
ATOM     59  C   UNL A   1      42.176  27.764  33.951  1.00  0.00     0.064 A 
ATOM     60  C   UNL A   1      41.795  27.832  35.294  1.00  0.00     0.173 A 
ATOM     61  C   UNL A   1      42.893  26.611  33.557  1.00  0.00     0.173 A 
ATOM     62  F   UNL A   1      41.188  28.927  35.771  1.00  0.00    -0.203 F 
ATOM     63  C   UNL A   1      42.096  26.799  36.182  1.00  0.00     0.198 A 
ATOM     64  C   UNL A   1      43.126  25.552  34.423  1.00  0.00     0.198 A 
ATOM     65  F   UNL A   1      43.488  26.519  32.360  1.00  0.00    -0.203 F 
ATOM     66  F   UNL A   1      41.802  26.936  37.481  1.00  0.00    -0.200 F 
ATOM     67  C   UNL A   1      42.744  25.654  35.743  1.00  0.00     0.200 A 
ATOM     68  F   UNL A   1      43.786  24.472  33.984  1.00  0.00    -0.200 F 
ATOM     69  F   UNL A   1      43.051  24.674  36.601  1.00  0.00    -0.200 F 
ENDBRANCH  45  59
BRANCH  46  70
ATOM     70  C   UNL A   1      44.347  25.446  25.953  1.00  0.00     0.064 A 
ATOM     71  C   UNL A   1      45.573  25.367  25.271  1.00  0.00     0.173 A 
ATOM     72  C   UNL A   1      43.499  24.324  25.834  1.00  0.00     0.173 A 
ATOM     73  F   UNL A   1      46.447  26.381  25.334  1.00  0.00    -0.203 F 
ATOM     74  C   UNL A   1      45.952  24.216  24.568  1.00  0.00     0.198 A 
ATOM     75  C   UNL A   1      43.876  23.178  25.129  1.00  0.00     0.198 A 
ATOM     76  F   UNL A   1      42.320  24.280  26.472  1.00  0.00    -0.203 F 
ATOM     77  F   UNL A   1      47.160  24.154  23.991  1.00  0.00    -0.200 F 
ATOM     78  C   UNL A   1      45.112  23.116  24.514  1.00  0.00     0.200 A 
ATOM     79  F   UNL A   1      43.061  22.113  25.102  1.00  0.00    -0.200 F 
ATOM     80  F   UNL A   1      45.507  21.989  23.907  1.00  0.00    -0.200 F 
ENDBRANCH  46  70
BRANCH  58  81
ATOM     81  C   UNL A   1      45.891  30.721  28.935  1.00  0.00     0.064 A 
ATOM     82  C   UNL A   1      47.212  31.179  28.816  1.00  0.00     0.173 A 
ATOM     83  C   UNL A   1      44.941  31.233  28.036  1.00  0.00     0.173 A 
ATOM     84  F   UNL A   1      48.185  30.694  29.601  1.00  0.00    -0.203 F 
ATOM     85  C   UNL A   1      47.559  32.117  27.842  1.00  0.00     0.198 A 
ATOM     86  C   UNL A   1      45.297  32.143  27.047  1.00  0.00     0.198 A 
ATOM     87  F   UNL A   1      43.670  30.805  28.089  1.00  0.00    -0.203 F 
ATOM     88  F   UNL A   1      48.826  32.546  27.742  1.00  0.00    -0.200 F 
ATOM     89  C   UNL A   1      46.604  32.588  26.952  1.00  0.00     0.200 A 
ATOM     90  F   UNL A   1      44.376  32.564  26.168  1.00  0.00    -0.200 F 
ATOM     91  F   UNL A   1      46.947  33.455  25.989  1.00  0.00    -0.200 F 
ENDBRANCH  58  81
ENDBRANCH  32  33
ENDBRANCH  25  27
ENDBRANCH  24  25
ENDBRANCH  23  24
ENDBRANCH  22  23
ENDBRANCH  21  22
ENDBRANCH   1  21
TORSDOF 18
ENDMDL
MODEL 3
REMARK VINA RESULT:     -10.9      1.161      1.702
REMARK SMILES Cc1ccc(C)c([C@@H](O)[C@@H](C)[C@@H](C)C(=O)OCCOCCOC(=O)c2ccc(-c3c4nc(c(-c5c(F)c(F)c(F)c(F)c5F)c5ccc([nH]5)c(-c5c(F)c(F)c(F)c(F)c5F)c5nc(c(-c6c(F)c(F)c(F)c(F)c6F)c6ccc3[nH]6)C=C5)C=C4)cc2)c1
REMARK SMILES IDX 18 1 17 2 16 3 14 4 15 5 12 6 13 7 10 8 11 9 8 10 7 11 1 12
REMARK SMILES IDX 2 13 3 14 88 15 4 16 5 17 6 18 9 19 19 21 20 22 21 23 22 24
REMARK SMILES IDX 23 25 24 26 25 27 26 28 87 29 27 30 86 31 28 32 29 33 30 34
REMARK SMILES IDX 80 35 31 36 85 37 79 38 81 39 32 40 84 41 78 42 77 43 33 45
REMARK SMILES IDX 65 46 45 47 64 48 46 49 49 50 63 51 82 52 47 53 48 54 62 56
REMARK SMILES IDX 83 57 50 58 34 59 35 60 43 61 36 62 37 63 41 64 44 65 38 66
REMARK SMILES IDX 39 67 42 68 40 69 66 70 67 71 75 72 68 73 69 74 73 75 76 76
REMARK SMILES IDX 70 77 71 78 74 79 72 80 51 81 52 82 60 83 53 84 54 85 58 86
REMARK SMILES IDX 61 87 55 88 56 89 59 90 57 91
REMARK H PARENT 9 20 81 44 49 55
REMARK Flexibility Score: inf
ROOT
ATOM      1  C   UNL A   1      31.288  29.124  25.289  1.00  0.00     0.202 C 
ENDROOT
BRANCH   1   2
ATOM      2  C   UNL A   1      30.962  28.484  23.924  1.00  0.00     0.261 C 
BRANCH   2   3
ATOM      3  O   UNL A   1      30.832  27.051  24.007  1.00  0.00    -0.463 OA
BRANCH   3   4
ATOM      4  C   UNL A   1      31.604  26.339  23.142  1.00  0.00     0.309 C 
ATOM      5  O   UNL A   1      31.242  25.834  22.111  1.00  0.00    -0.252 OA
BRANCH   4   6
ATOM      6  C   UNL A   1      33.072  26.378  23.515  1.00  0.00     0.102 C 
ATOM      7  C   UNL A   1      33.892  26.892  22.336  1.00  0.00     0.020 C 
BRANCH   6   8
ATOM      8  C   UNL A   1      33.365  24.997  24.092  1.00  0.00     0.033 C 
ATOM      9  C   UNL A   1      34.035  25.103  25.485  1.00  0.00     0.011 C 
BRANCH   8  10
ATOM     10  C   UNL A   1      34.194  24.079  23.190  1.00  0.00     0.148 C 
BRANCH  10  11
ATOM     11  C   UNL A   1      34.487  22.802  23.955  1.00  0.00    -0.016 A 
ATOM     12  C   UNL A   1      32.507  19.609  24.567  1.00  0.00     0.044 C 
ATOM     13  C   UNL A   1      33.641  20.584  24.512  1.00  0.00    -0.051 A 
ATOM     14  C   UNL A   1      34.932  20.200  24.879  1.00  0.00     0.004 A 
ATOM     15  C   UNL A   1      33.423  21.890  24.079  1.00  0.00     0.010 A 
ATOM     16  C   UNL A   1      35.989  21.107  24.809  1.00  0.00     0.004 A 
ATOM     17  C   UNL A   1      35.788  22.420  24.365  1.00  0.00    -0.045 A 
ATOM     18  C   UNL A   1      37.015  23.293  24.237  1.00  0.00     0.045 C 
ENDBRANCH  10  11
BRANCH  10  19
ATOM     19  O   UNL A   1      33.574  23.760  21.959  1.00  0.00    -0.388 OA
ATOM     20  H   UNL A   1      33.515  22.796  21.866  1.00  0.00     0.211 HD
ENDBRANCH  10  19
ENDBRANCH   8  10
ENDBRANCH   6   8
ENDBRANCH   4   6
ENDBRANCH   3   4
ENDBRANCH   2   3
ENDBRANCH   1   2
BRANCH   1  21
ATOM     21  O   UNL A   1      32.691  29.240  25.379  1.00  0.00    -0.374 OA
BRANCH  21  22
ATOM     22  C   UNL A   1      33.319  29.409  26.629  1.00  0.00     0.202 C 
BRANCH  22  23
ATOM     23  C   UNL A   1      33.184  30.835  27.152  1.00  0.00     0.261 C 
BRANCH  23  24
ATOM     24  O   UNL A   1      34.389  31.636  27.304  1.00  0.00    -0.460 OA
BRANCH  24  25
ATOM     25  C   UNL A   1      35.044  31.667  28.497  1.00  0.00     0.338 C 
ATOM     26  O   UNL A   1      34.574  32.130  29.524  1.00  0.00    -0.246 OA
BRANCH  25  27
ATOM     27  C   UNL A   1      36.385  31.021  28.416  1.00  0.00     0.060 A 
ATOM     28  C   UNL A   1      36.465  29.636  28.209  1.00  0.00     0.016 A 
ATOM     29  C   UNL A   1      37.514  31.733  28.828  1.00  0.00     0.016 A 
ATOM     30  C   UNL A   1      37.633  28.954  28.570  1.00  0.00     0.010 A 
ATOM     31  C   UNL A   1      38.631  31.042  29.281  1.00  0.00     0.010 A 
ATOM     32  C   UNL A   1      38.696  29.646  29.176  1.00  0.00    -0.014 A 
BRANCH  32  33
ATOM     33  C   UNL A   1      40.033  29.028  29.270  1.00  0.00     0.031 A 
ATOM     34  C   UNL A   1      40.405  28.952  30.682  1.00  0.00     0.074 A 
ATOM     35  C   UNL A   1      40.856  28.477  28.352  1.00  0.00     0.049 A 
ATOM     36  N   UNL A   1      41.255  29.742  31.243  1.00  0.00    -0.248 NA
ATOM     37  C   UNL A   1      39.621  28.122  31.604  1.00  0.00     0.031 C 
ATOM     38  C   UNL A   1      40.658  28.470  26.932  1.00  0.00     0.029 A 
ATOM     39  N   UNL A   1      42.037  27.781  28.449  1.00  0.00    -0.354 N 
ATOM     40  C   UNL A   1      41.302  29.305  32.546  1.00  0.00     0.074 A 
ATOM     41  C   UNL A   1      40.115  28.522  32.775  1.00  0.00     0.031 C 
ATOM     42  C   UNL A   1      41.439  27.583  26.295  1.00  0.00     0.029 A 
ATOM     43  C   UNL A   1      42.386  27.104  27.275  1.00  0.00     0.049 A 
ATOM     44  H   UNL A   1      42.585  27.762  29.266  1.00  0.00     0.167 HD
ATOM     45  C   UNL A   1      42.502  29.263  33.171  1.00  0.00     0.037 A 
ATOM     46  C   UNL A   1      43.478  26.365  26.966  1.00  0.00     0.037 A 
ATOM     47  C   UNL A   1      43.493  30.059  32.495  1.00  0.00     0.049 A 
ATOM     48  C   UNL A   1      44.564  26.857  27.829  1.00  0.00     0.074 A 
ATOM     49  C   UNL A   1      43.672  31.407  32.270  1.00  0.00     0.029 A 
ATOM     50  N   UNL A   1      44.245  29.387  31.562  1.00  0.00    -0.354 N 
ATOM     51  N   UNL A   1      45.114  28.032  27.685  1.00  0.00    -0.248 NA
ATOM     52  C   UNL A   1      44.779  26.214  29.118  1.00  0.00     0.031 C 
ATOM     53  C   UNL A   1      44.435  31.520  31.074  1.00  0.00     0.029 A 
ATOM     54  C   UNL A   1      44.732  30.241  30.605  1.00  0.00     0.049 A 
ATOM     55  H   UNL A   1      44.413  28.417  31.579  1.00  0.00     0.167 HD
ATOM     56  C   UNL A   1      45.328  28.455  28.982  1.00  0.00     0.074 A 
ATOM     57  C   UNL A   1      45.272  27.251  29.799  1.00  0.00     0.031 C 
ATOM     58  C   UNL A   1      45.197  29.770  29.317  1.00  0.00     0.037 A 
BRANCH  45  59
ATOM     59  C   UNL A   1      42.856  28.131  34.079  1.00  0.00     0.064 A 
ATOM     60  C   UNL A   1      43.088  28.386  35.434  1.00  0.00     0.173 A 
ATOM     61  C   UNL A   1      43.210  26.845  33.611  1.00  0.00     0.173 A 
ATOM     62  F   UNL A   1      42.862  29.606  35.941  1.00  0.00    -0.203 F 
ATOM     63  C   UNL A   1      43.621  27.406  36.271  1.00  0.00     0.198 A 
ATOM     64  C   UNL A   1      43.670  25.848  34.459  1.00  0.00     0.198 A 
ATOM     65  F   UNL A   1      43.230  26.545  32.305  1.00  0.00    -0.203 F 
ATOM     66  F   UNL A   1      43.920  27.711  37.540  1.00  0.00    -0.200 F 
ATOM     67  C   UNL A   1      43.894  26.135  35.788  1.00  0.00     0.200 A 
ATOM     68  F   UNL A   1      43.961  24.638  33.963  1.00  0.00    -0.200 F 
ATOM     69  F   UNL A   1      44.426  25.203  36.588  1.00  0.00    -0.200 F 
ENDBRANCH  45  59
BRANCH  46  70
ATOM     70  C   UNL A   1      43.601  25.237  26.009  1.00  0.00     0.064 A 
ATOM     71  C   UNL A   1      44.765  25.040  25.246  1.00  0.00     0.173 A 
ATOM     72  C   UNL A   1      42.680  24.168  26.020  1.00  0.00     0.173 A 
ATOM     73  F   UNL A   1      45.702  25.996  25.185  1.00  0.00    -0.203 F 
ATOM     74  C   UNL A   1      45.019  23.829  24.589  1.00  0.00     0.198 A 
ATOM     75  C   UNL A   1      42.932  22.962  25.360  1.00  0.00     0.198 A 
ATOM     76  F   UNL A   1      41.552  24.237  26.742  1.00  0.00    -0.203 F 
ATOM     77  F   UNL A   1      46.174  23.656  23.932  1.00  0.00    -0.200 F 
ATOM     78  C   UNL A   1      44.112  22.785  24.663  1.00  0.00     0.200 A 
ATOM     79  F   UNL A   1      42.054  21.953  25.456  1.00  0.00    -0.200 F 
ATOM     80  F   UNL A   1      44.390  21.602  24.098  1.00  0.00    -0.200 F 
ENDBRANCH  46  70
BRANCH  58  81
ATOM     81  C   UNL A   1      45.417  30.789  28.240  1.00  0.00     0.064 A 
ATOM     82  C   UNL A   1      44.427  31.265  27.367  1.00  0.00     0.173 A 
ATOM     83  C   UNL A   1      46.683  31.392  28.180  1.00  0.00     0.173 A 
ATOM     84  F   UNL A   1      43.179  30.777  27.405  1.00  0.00    -0.203 F 
ATOM     85  C   UNL A   1      44.703  32.297  26.468  1.00  0.00     0.198 A 
ATOM     86  C   UNL A   1      46.945  32.441  27.305  1.00  0.00     0.198 A 
ATOM     87  F   UNL A   1      47.657  30.993  29.014  1.00  0.00    -0.203 F 
ATOM     88  F   UNL A   1      43.746  32.740  25.639  1.00  0.00    -0.200 F 
ATOM     89  C   UNL A   1      45.957  32.890  26.447  1.00  0.00     0.200 A 
ATOM     90  F   UNL A   1      48.147  33.034  27.318  1.00  0.00    -0.200 F 
ATOM     91  F   UNL A   1      46.208  33.911  25.614  1.00  0.00    -0.200 F 
ENDBRANCH  58  81
ENDBRANCH  32  33
ENDBRANCH  25  27
ENDBRANCH  24  25
ENDBRANCH  23  24
ENDBRANCH  22  23
ENDBRANCH  21  22
ENDBRANCH   1  21
TORSDOF 18
ENDMDL
