MODEL 1
REMARK VINA RESULT:     -12.8      0.000      0.000
REMARK SMILES O=C(OCCOCCOC(=O)[C@H]1CC2=c3ccccc3=N[C@H]2[C@@H](c2ccccc2)[NH2+]1)c1ccc(-c2c3nc(c(-c4c(F)c(F)c(F)c(F)c4F)c4ccc([nH]4)c(-c4c(F)c(F)c(F)c(F)c4F)c4nc(c(-c5c(F)c(F)c(F)c(F)c5F)c5ccc2[nH]5)C=C4)C=C3)cc1
REMARK SMILES IDX 5 1 4 2 3 3 2 4 1 5 31 6 32 7 93 8 33 9 92 10 34 11 35 12
REMARK SMILES IDX 36 13 86 14 37 15 91 16 85 17 87 18 38 19 90 20 84 21 83 22
REMARK SMILES IDX 39 24 71 25 51 26 70 27 52 28 55 29 69 30 88 31 53 32 54 33
REMARK SMILES IDX 68 35 89 36 56 37 40 38 41 39 49 40 42 41 43 42 47 43 50 44
REMARK SMILES IDX 44 45 45 46 48 47 46 48 72 49 73 50 81 51 74 52 75 53 79 54
REMARK SMILES IDX 82 55 76 56 77 57 80 58 78 59 57 60 58 61 66 62 59 63 60 64
REMARK SMILES IDX 64 65 67 66 61 67 62 68 65 69 63 70 6 71 7 72 8 73 9 74
REMARK SMILES IDX 10 75 11 76 12 77 13 78 30 79 14 80 23 81 15 84 22 85 16 86
REMARK SMILES IDX 20 87 21 88 17 89 19 90 18 91 24 92 25 93 29 94 26 95 28 96
REMARK SMILES IDX 27 97
REMARK H PARENT 87 23 55 34 30 82 30 83
REMARK Flexibility Score: inf
ROOT
ATOM      1  C   UNL A   1      31.450  28.684  25.129  1.00  0.00     0.202 C 
ENDROOT
BRANCH   1   2
ATOM      2  C   UNL A   1      31.816  29.340  26.461  1.00  0.00     0.261 C 
BRANCH   2   3
ATOM      3  O   UNL A   1      32.588  30.535  26.242  1.00  0.00    -0.460 OA
BRANCH   3   4
ATOM      4  C   UNL A   1      33.283  31.295  27.119  1.00  0.00     0.338 C 
ATOM      5  O   UNL A   1      32.819  32.400  27.405  1.00  0.00    -0.246 OA
BRANCH   4   6
ATOM      6  C   UNL A   1      34.566  30.902  27.795  1.00  0.00     0.060 A 
ATOM      7  C   UNL A   1      35.520  31.927  27.972  1.00  0.00     0.016 A 
ATOM      8  C   UNL A   1      34.932  29.616  28.195  1.00  0.00     0.016 A 
ATOM      9  C   UNL A   1      36.780  31.671  28.526  1.00  0.00     0.010 A 
ATOM     10  C   UNL A   1      36.190  29.345  28.725  1.00  0.00     0.010 A 
ATOM     11  C   UNL A   1      37.116  30.370  28.905  1.00  0.00    -0.014 A 
BRANCH  11  12
ATOM     12  C   UNL A   1      38.354  30.045  29.632  1.00  0.00     0.031 A 
ATOM     13  C   UNL A   1      39.316  29.032  29.101  1.00  0.00     0.074 A 
ATOM     14  C   UNL A   1      38.487  30.569  30.864  1.00  0.00     0.049 A 
ATOM     15  N   UNL A   1      40.401  28.561  29.658  1.00  0.00    -0.248 NA
ATOM     16  C   UNL A   1      39.017  28.460  27.780  1.00  0.00     0.031 C 
ATOM     17  C   UNL A   1      37.543  31.505  31.480  1.00  0.00     0.029 A 
ATOM     18  N   UNL A   1      39.429  30.355  31.830  1.00  0.00    -0.354 N 
ATOM     19  C   UNL A   1      40.935  27.663  28.746  1.00  0.00     0.074 A 
ATOM     20  C   UNL A   1      40.027  27.612  27.619  1.00  0.00     0.031 C 
ATOM     21  C   UNL A   1      37.943  31.767  32.733  1.00  0.00     0.029 A 
ATOM     22  C   UNL A   1      39.163  31.017  33.003  1.00  0.00     0.049 A 
ATOM     23  H   UNL A   1      40.221  29.783  31.699  1.00  0.00     0.167 HD
ATOM     24  C   UNL A   1      42.092  26.967  28.845  1.00  0.00     0.037 A 
ATOM     25  C   UNL A   1      39.839  31.017  34.164  1.00  0.00     0.037 A 
ATOM     26  C   UNL A   1      42.952  27.004  30.002  1.00  0.00     0.049 A 
ATOM     27  C   UNL A   1      41.111  30.226  34.249  1.00  0.00     0.074 A 
ATOM     28  C   UNL A   1      44.153  26.350  30.211  1.00  0.00     0.029 A 
ATOM     29  N   UNL A   1      42.690  27.736  31.153  1.00  0.00    -0.354 N 
ATOM     30  N   UNL A   1      41.655  29.441  33.351  1.00  0.00    -0.248 NA
ATOM     31  C   UNL A   1      41.880  30.346  35.493  1.00  0.00     0.031 C 
ATOM     32  C   UNL A   1      44.604  26.663  31.499  1.00  0.00     0.029 A 
ATOM     33  C   UNL A   1      43.707  27.550  32.075  1.00  0.00     0.049 A 
ATOM     34  H   UNL A   1      41.897  28.303  31.293  1.00  0.00     0.167 HD
ATOM     35  C   UNL A   1      42.850  29.006  33.900  1.00  0.00     0.074 A 
ATOM     36  C   UNL A   1      42.951  29.617  35.211  1.00  0.00     0.031 C 
ATOM     37  C   UNL A   1      43.785  28.183  33.366  1.00  0.00     0.037 A 
BRANCH  24  38
ATOM     38  C   UNL A   1      42.522  26.137  27.670  1.00  0.00     0.064 A 
ATOM     39  C   UNL A   1      43.421  26.649  26.721  1.00  0.00     0.173 A 
ATOM     40  C   UNL A   1      42.128  24.797  27.542  1.00  0.00     0.173 A 
ATOM     41  F   UNL A   1      43.826  27.926  26.794  1.00  0.00    -0.203 F 
ATOM     42  C   UNL A   1      43.908  25.851  25.688  1.00  0.00     0.198 A 
ATOM     43  C   UNL A   1      42.635  23.995  26.521  1.00  0.00     0.198 A 
ATOM     44  F   UNL A   1      41.276  24.255  28.426  1.00  0.00    -0.203 F 
ATOM     45  F   UNL A   1      44.755  26.366  24.787  1.00  0.00    -0.200 F 
ATOM     46  C   UNL A   1      43.524  24.522  25.596  1.00  0.00     0.200 A 
ATOM     47  F   UNL A   1      42.274  22.706  26.442  1.00  0.00    -0.200 F 
ATOM     48  F   UNL A   1      44.013  23.748  24.617  1.00  0.00    -0.200 F 
ENDBRANCH  24  38
BRANCH  25  49
ATOM     49  C   UNL A   1      39.367  31.867  35.282  1.00  0.00     0.064 A 
ATOM     50  C   UNL A   1      39.709  33.225  35.331  1.00  0.00     0.173 A 
ATOM     51  C   UNL A   1      38.523  31.367  36.284  1.00  0.00     0.173 A 
ATOM     52  F   UNL A   1      40.518  33.744  34.397  1.00  0.00    -0.203 F 
ATOM     53  C   UNL A   1      39.237  34.049  36.349  1.00  0.00     0.198 A 
ATOM     54  C   UNL A   1      38.033  32.198  37.289  1.00  0.00     0.198 A 
ATOM     55  F   UNL A   1      38.152  30.077  36.268  1.00  0.00    -0.203 F 
ATOM     56  F   UNL A   1      39.601  35.339  36.386  1.00  0.00    -0.200 F 
ATOM     57  C   UNL A   1      38.393  33.536  37.324  1.00  0.00     0.200 A 
ATOM     58  F   UNL A   1      37.203  31.704  38.219  1.00  0.00    -0.200 F 
ATOM     59  F   UNL A   1      37.929  34.334  38.295  1.00  0.00    -0.200 F 
ENDBRANCH  25  49
BRANCH  37  60
ATOM     60  C   UNL A   1      45.016  27.941  34.183  1.00  0.00     0.064 A 
ATOM     61  C   UNL A   1      45.104  26.870  35.084  1.00  0.00     0.173 A 
ATOM     62  C   UNL A   1      46.131  28.779  34.041  1.00  0.00     0.173 A 
ATOM     63  F   UNL A   1      44.056  26.052  35.265  1.00  0.00    -0.203 F 
ATOM     64  C   UNL A   1      46.255  26.666  35.838  1.00  0.00     0.198 A 
ATOM     65  C   UNL A   1      47.292  28.555  34.776  1.00  0.00     0.198 A 
ATOM     66  F   UNL A   1      46.097  29.812  33.186  1.00  0.00    -0.203 F 
ATOM     67  F   UNL A   1      46.301  25.668  36.731  1.00  0.00    -0.200 F 
ATOM     68  C   UNL A   1      47.349  27.505  35.679  1.00  0.00     0.200 A 
ATOM     69  F   UNL A   1      48.351  29.359  34.614  1.00  0.00    -0.200 F 
ATOM     70  F   UNL A   1      48.458  27.305  36.405  1.00  0.00    -0.200 F 
ENDBRANCH  37  60
ENDBRANCH  11  12
ENDBRANCH   4   6
ENDBRANCH   3   4
ENDBRANCH   2   3
ENDBRANCH   1   2
BRANCH   1  71
ATOM     71  O   UNL A   1      30.805  27.431  25.342  1.00  0.00    -0.374 OA
BRANCH  71  72
ATOM     72  C   UNL A   1      31.686  26.320  25.473  1.00  0.00     0.202 C 
BRANCH  72  73
ATOM     73  C   UNL A   1      30.944  25.177  26.139  1.00  0.00     0.261 C 
BRANCH  73  74
ATOM     74  O   UNL A   1      31.691  23.958  26.038  1.00  0.00    -0.459 OA
BRANCH  74  75
ATOM     75  C   UNL A   1      30.962  22.819  25.847  1.00  0.00     0.365 C 
ATOM     76  O   UNL A   1      30.036  22.429  26.562  1.00  0.00    -0.245 OA
BRANCH  75  77
ATOM     77  C   UNL A   1      31.530  22.029  24.665  1.00  0.00     0.298 C 
ATOM     78  C   UNL A   1      32.670  22.787  23.913  1.00  0.00     0.111 C 
ATOM     79  N   UNL A   1      31.780  20.648  25.150  1.00  0.00    -0.326 N 
ATOM     80  C   UNL A   1      34.079  22.153  23.849  1.00  0.00    -0.024 C 
ATOM     81  C   UNL A   1      32.875  20.050  24.401  1.00  0.00     0.243 C 
ATOM     82  H   UNL A   1      30.938  20.087  25.023  1.00  0.00     0.347 HD
ATOM     83  H   UNL A   1      32.028  20.680  26.139  1.00  0.00     0.347 HD
ATOM     84  C   UNL A   1      35.112  22.901  24.253  1.00  0.00     0.002 A 
ATOM     85  C   UNL A   1      34.177  20.854  24.618  1.00  0.00     0.196 C 
ATOM     86  C   UNL A   1      36.442  22.996  23.691  1.00  0.00     0.010 A 
ATOM     87  C   UNL A   1      35.156  22.454  25.684  1.00  0.00     0.066 A 
ATOM     88  N   UNL A   1      34.510  21.361  26.003  1.00  0.00    -0.270 NA
ATOM     89  C   UNL A   1      37.405  23.482  24.494  1.00  0.00     0.001 A 
ATOM     90  C   UNL A   1      36.003  23.356  26.504  1.00  0.00     0.028 A 
ATOM     91  C   UNL A   1      37.077  23.869  25.866  1.00  0.00     0.002 A 
BRANCH  81  92
ATOM     92  C   UNL A   1      32.849  18.536  24.486  1.00  0.00     0.012 A 
ATOM     93  C   UNL A   1      33.413  17.828  23.401  1.00  0.00     0.010 A 
ATOM     94  C   UNL A   1      32.528  17.826  25.646  1.00  0.00     0.010 A 
ATOM     95  C   UNL A   1      33.741  16.480  23.506  1.00  0.00     0.001 A 
ATOM     96  C   UNL A   1      32.863  16.471  25.751  1.00  0.00     0.001 A 
ATOM     97  C   UNL A   1      33.492  15.808  24.696  1.00  0.00     0.000 A 
ENDBRANCH  81  92
ENDBRANCH  75  77
ENDBRANCH  74  75
ENDBRANCH  73  74
ENDBRANCH  72  73
ENDBRANCH  71  72
ENDBRANCH   1  71
TORSDOF 15
ENDMDL
MODEL 2
REMARK VINA RESULT:     -12.7      4.138      9.929
REMARK SMILES O=C(OCCOCCOC(=O)[C@H]1CC2=c3ccccc3=N[C@H]2[C@@H](c2ccccc2)[NH2+]1)c1ccc(-c2c3nc(c(-c4c(F)c(F)c(F)c(F)c4F)c4ccc([nH]4)c(-c4c(F)c(F)c(F)c(F)c4F)c4nc(c(-c5c(F)c(F)c(F)c(F)c5F)c5ccc2[nH]5)C=C4)C=C3)cc1
REMARK SMILES IDX 5 1 4 2 3 3 2 4 1 5 31 6 32 7 93 8 33 9 92 10 34 11 35 12
REMARK SMILES IDX 36 13 86 14 37 15 91 16 85 17 87 18 38 19 90 20 84 21 83 22
REMARK SMILES IDX 39 24 71 25 51 26 70 27 52 28 55 29 69 30 88 31 53 32 54 33
REMARK SMILES IDX 68 35 89 36 56 37 40 38 41 39 49 40 42 41 43 42 47 43 50 44
REMARK SMILES IDX 44 45 45 46 48 47 46 48 72 49 73 50 81 51 74 52 75 53 79 54
REMARK SMILES IDX 82 55 76 56 77 57 80 58 78 59 57 60 58 61 66 62 59 63 60 64
REMARK SMILES IDX 64 65 67 66 61 67 62 68 65 69 63 70 6 71 7 72 8 73 9 74
REMARK SMILES IDX 10 75 11 76 12 77 13 78 30 79 14 80 23 81 15 84 22 85 16 86
REMARK SMILES IDX 20 87 21 88 17 89 19 90 18 91 24 92 25 93 29 94 26 95 28 96
REMARK SMILES IDX 27 97
REMARK H PARENT 87 23 55 34 30 82 30 83
REMARK Flexibility Score: inf
ROOT
ATOM      1  C   UNL A   1      36.708  22.623  23.663  1.00  0.00     0.202 C 
ENDROOT
BRANCH   1   2
ATOM      2  C   UNL A   1      36.727  21.325  24.471  1.00  0.00     0.261 C 
BRANCH   2   3
ATOM      3  O   UNL A   1      37.354  21.535  25.751  1.00  0.00    -0.460 OA
BRANCH   3   4
ATOM      4  C   UNL A   1      38.662  21.668  26.068  1.00  0.00     0.338 C 
ATOM      5  O   UNL A   1      39.373  20.665  25.979  1.00  0.00    -0.246 OA
BRANCH   4   6
ATOM      6  C   UNL A   1      39.334  22.940  26.501  1.00  0.00     0.060 A 
ATOM      7  C   UNL A   1      40.362  22.810  27.459  1.00  0.00     0.016 A 
ATOM      8  C   UNL A   1      38.991  24.234  26.107  1.00  0.00     0.016 A 
ATOM      9  C   UNL A   1      41.016  23.927  27.991  1.00  0.00     0.010 A 
ATOM     10  C   UNL A   1      39.618  25.354  26.647  1.00  0.00     0.010 A 
ATOM     11  C   UNL A   1      40.640  25.208  27.582  1.00  0.00    -0.014 A 
BRANCH  11  12
ATOM     12  C   UNL A   1      41.377  26.420  27.976  1.00  0.00     0.031 A 
ATOM     13  C   UNL A   1      40.686  27.550  28.667  1.00  0.00     0.074 A 
ATOM     14  C   UNL A   1      42.642  26.530  27.532  1.00  0.00     0.049 A 
ATOM     15  N   UNL A   1      41.161  28.723  28.997  1.00  0.00    -0.248 NA
ATOM     16  C   UNL A   1      39.273  27.348  29.023  1.00  0.00     0.031 C 
ATOM     17  C   UNL A   1      43.356  25.496  26.780  1.00  0.00     0.029 A 
ATOM     18  N   UNL A   1      43.528  27.568  27.603  1.00  0.00    -0.354 N 
ATOM     19  C   UNL A   1      40.120  29.388  29.629  1.00  0.00     0.074 A 
ATOM     20  C   UNL A   1      38.969  28.511  29.589  1.00  0.00     0.031 C 
ATOM     21  C   UNL A   1      44.566  25.962  26.436  1.00  0.00     0.029 A 
ATOM     22  C   UNL A   1      44.705  27.322  26.943  1.00  0.00     0.049 A 
ATOM     23  H   UNL A   1      43.341  28.409  28.081  1.00  0.00     0.167 HD
ATOM     24  C   UNL A   1      40.145  30.614  30.204  1.00  0.00     0.037 A 
ATOM     25  C   UNL A   1      45.779  28.111  26.773  1.00  0.00     0.037 A 
ATOM     26  C   UNL A   1      41.296  31.483  30.186  1.00  0.00     0.049 A 
ATOM     27  C   UNL A   1      45.774  29.469  27.411  1.00  0.00     0.074 A 
ATOM     28  C   UNL A   1      41.442  32.741  30.745  1.00  0.00     0.029 A 
ATOM     29  N   UNL A   1      42.500  31.181  29.564  1.00  0.00    -0.354 N 
ATOM     30  N   UNL A   1      44.814  30.062  28.078  1.00  0.00    -0.248 NA
ATOM     31  C   UNL A   1      47.009  30.254  27.301  1.00  0.00     0.031 C 
ATOM     32  C   UNL A   1      42.724  33.211  30.436  1.00  0.00     0.029 A 
ATOM     33  C   UNL A   1      43.393  32.227  29.726  1.00  0.00     0.049 A 
ATOM     34  H   UNL A   1      42.691  30.345  29.079  1.00  0.00     0.167 HD
ATOM     35  C   UNL A   1      45.340  31.270  28.507  1.00  0.00     0.074 A 
ATOM     36  C   UNL A   1      46.705  31.324  28.023  1.00  0.00     0.031 C 
ATOM     37  C   UNL A   1      44.750  32.244  29.243  1.00  0.00     0.037 A 
BRANCH  24  38
ATOM     38  C   UNL A   1      38.919  31.079  30.933  1.00  0.00     0.064 A 
ATOM     39  C   UNL A   1      38.757  30.821  32.304  1.00  0.00     0.173 A 
ATOM     40  C   UNL A   1      37.953  31.874  30.299  1.00  0.00     0.173 A 
ATOM     41  F   UNL A   1      39.649  30.060  32.958  1.00  0.00    -0.203 F 
ATOM     42  C   UNL A   1      37.675  31.340  33.011  1.00  0.00     0.198 A 
ATOM     43  C   UNL A   1      36.884  32.411  31.015  1.00  0.00     0.198 A 
ATOM     44  F   UNL A   1      38.063  32.158  28.993  1.00  0.00    -0.203 F 
ATOM     45  F   UNL A   1      37.536  31.068  34.316  1.00  0.00    -0.200 F 
ATOM     46  C   UNL A   1      36.746  32.144  32.368  1.00  0.00     0.200 A 
ATOM     47  F   UNL A   1      35.995  33.200  30.395  1.00  0.00    -0.200 F 
ATOM     48  F   UNL A   1      35.720  32.664  33.055  1.00  0.00    -0.200 F 
ENDBRANCH  24  38
BRANCH  25  49
ATOM     49  C   UNL A   1      46.963  27.587  26.052  1.00  0.00     0.064 A 
ATOM     50  C   UNL A   1      47.065  27.732  24.662  1.00  0.00     0.173 A 
ATOM     51  C   UNL A   1      48.036  26.991  26.730  1.00  0.00     0.173 A 
ATOM     52  F   UNL A   1      46.060  28.291  23.973  1.00  0.00    -0.203 F 
ATOM     53  C   UNL A   1      48.190  27.287  23.974  1.00  0.00     0.198 A 
ATOM     54  C   UNL A   1      49.171  26.567  26.043  1.00  0.00     0.198 A 
ATOM     55  F   UNL A   1      47.992  26.849  28.063  1.00  0.00    -0.203 F 
ATOM     56  F   UNL A   1      48.251  27.414  22.640  1.00  0.00    -0.200 F 
ATOM     57  C   UNL A   1      49.246  26.711  24.665  1.00  0.00     0.200 A 
ATOM     58  F   UNL A   1      50.197  26.028  26.716  1.00  0.00    -0.200 F 
ATOM     59  F   UNL A   1      50.334  26.295  24.003  1.00  0.00    -0.200 F 
ENDBRANCH  25  49
BRANCH  37  60
ATOM     60  C   UNL A   1      45.600  33.422  29.607  1.00  0.00     0.064 A 
ATOM     61  C   UNL A   1      46.381  33.435  30.771  1.00  0.00     0.173 A 
ATOM     62  C   UNL A   1      45.651  34.541  28.763  1.00  0.00     0.173 A 
ATOM     63  F   UNL A   1      46.351  32.393  31.616  1.00  0.00    -0.203 F 
ATOM     64  C   UNL A   1      47.160  34.542  31.094  1.00  0.00     0.198 A 
ATOM     65  C   UNL A   1      46.453  35.635  29.075  1.00  0.00     0.198 A 
ATOM     66  F   UNL A   1      44.927  34.571  27.634  1.00  0.00    -0.203 F 
ATOM     67  F   UNL A   1      47.859  34.556  32.237  1.00  0.00    -0.200 F 
ATOM     68  C   UNL A   1      47.200  35.637  30.243  1.00  0.00     0.200 A 
ATOM     69  F   UNL A   1      46.499  36.687  28.248  1.00  0.00    -0.200 F 
ATOM     70  F   UNL A   1      47.952  36.702  30.555  1.00  0.00    -0.200 F 
ENDBRANCH  37  60
ENDBRANCH  11  12
ENDBRANCH   4   6
ENDBRANCH   3   4
ENDBRANCH   2   3
ENDBRANCH   1   2
BRANCH   1  71
ATOM     71  O   UNL A   1      35.375  22.972  23.298  1.00  0.00    -0.374 OA
BRANCH  71  72
ATOM     72  C   UNL A   1      34.474  23.113  24.392  1.00  0.00     0.202 C 
BRANCH  72  73
ATOM     73  C   UNL A   1      33.358  24.058  23.993  1.00  0.00     0.261 C 
BRANCH  73  74
ATOM     74  O   UNL A   1      33.827  25.412  23.957  1.00  0.00    -0.459 OA
BRANCH  74  75
ATOM     75  C   UNL A   1      33.655  26.078  22.778  1.00  0.00     0.365 C 
ATOM     76  O   UNL A   1      33.652  25.565  21.655  1.00  0.00    -0.245 OA
BRANCH  75  77
ATOM     77  C   UNL A   1      33.569  27.585  23.036  1.00  0.00     0.298 C 
ATOM     78  C   UNL A   1      32.343  28.257  22.340  1.00  0.00     0.111 C 
ATOM     79  N   UNL A   1      33.770  27.784  24.494  1.00  0.00    -0.326 N 
ATOM     80  C   UNL A   1      31.276  28.960  23.212  1.00  0.00    -0.024 C 
ATOM     81  C   UNL A   1      33.072  28.983  24.931  1.00  0.00     0.243 C 
ATOM     82  H   UNL A   1      34.767  27.885  24.688  1.00  0.00     0.347 HD
ATOM     83  H   UNL A   1      33.400  26.978  24.997  1.00  0.00     0.347 HD
ATOM     84  C   UNL A   1      30.001  28.596  23.041  1.00  0.00     0.002 A 
ATOM     85  C   UNL A   1      31.552  28.836  24.695  1.00  0.00     0.196 C 
ATOM     86  C   UNL A   1      28.812  29.421  23.044  1.00  0.00     0.010 A 
ATOM     87  C   UNL A   1      29.933  27.539  24.103  1.00  0.00     0.066 A 
ATOM     88  N   UNL A   1      30.880  27.517  25.006  1.00  0.00    -0.270 NA
ATOM     89  C   UNL A   1      27.641  28.794  23.263  1.00  0.00     0.001 A 
ATOM     90  C   UNL A   1      28.718  26.699  23.949  1.00  0.00     0.028 A 
ATOM     91  C   UNL A   1      27.625  27.351  23.496  1.00  0.00     0.002 A 
BRANCH  81  92
ATOM     92  C   UNL A   1      33.628  29.508  26.240  1.00  0.00     0.012 A 
ATOM     93  C   UNL A   1      34.779  28.863  26.747  1.00  0.00     0.010 A 
ATOM     94  C   UNL A   1      33.226  30.708  26.834  1.00  0.00     0.010 A 
ATOM     95  C   UNL A   1      35.560  29.446  27.741  1.00  0.00     0.001 A 
ATOM     96  C   UNL A   1      34.016  31.294  27.830  1.00  0.00     0.001 A 
ATOM     97  C   UNL A   1      35.192  30.680  28.262  1.00  0.00     0.000 A 
ENDBRANCH  81  92
ENDBRANCH  75  77
ENDBRANCH  74  75
ENDBRANCH  73  74
ENDBRANCH  72  73
ENDBRANCH  71  72
ENDBRANCH   1  71
TORSDOF 15
ENDMDL
MODEL 3
REMARK VINA RESULT:     -12.6      5.462      8.926
REMARK SMILES O=C(OCCOCCOC(=O)[C@H]1CC2=c3ccccc3=N[C@H]2[C@@H](c2ccccc2)[NH2+]1)c1ccc(-c2c3nc(c(-c4c(F)c(F)c(F)c(F)c4F)c4ccc([nH]4)c(-c4c(F)c(F)c(F)c(F)c4F)c4nc(c(-c5c(F)c(F)c(F)c(F)c5F)c5ccc2[nH]5)C=C4)C=C3)cc1
REMARK SMILES IDX 5 1 4 2 3 3 2 4 1 5 31 6 32 7 93 8 33 9 92 10 34 11 35 12
REMARK SMILES IDX 36 13 86 14 37 15 91 16 85 17 87 18 38 19 90 20 84 21 83 22
REMARK SMILES IDX 39 24 71 25 51 26 70 27 52 28 55 29 69 30 88 31 53 32 54 33
REMARK SMILES IDX 68 35 89 36 56 37 40 38 41 39 49 40 42 41 43 42 47 43 50 44
REMARK SMILES IDX 44 45 45 46 48 47 46 48 72 49 73 50 81 51 74 52 75 53 79 54
REMARK SMILES IDX 82 55 76 56 77 57 80 58 78 59 57 60 58 61 66 62 59 63 60 64
REMARK SMILES IDX 64 65 67 66 61 67 62 68 65 69 63 70 6 71 7 72 8 73 9 74
REMARK SMILES IDX 10 75 11 76 12 77 13 78 30 79 14 80 23 81 15 84 22 85 16 86
REMARK SMILES IDX 20 87 21 88 17 89 19 90 18 91 24 92 25 93 29 94 26 95 28 96
REMARK SMILES IDX 27 97
REMARK H PARENT 87 23 55 34 30 82 30 83
REMARK Flexibility Score: inf
ROOT
ATOM      1  C   UNL A   1      42.348  19.421  26.735  1.00  0.00     0.202 C 
ENDROOT
BRANCH   1   2
ATOM      2  C   UNL A   1      43.019  18.300  25.940  1.00  0.00     0.261 C 
BRANCH   2   3
ATOM      3  O   UNL A   1      43.541  18.803  24.697  1.00  0.00    -0.460 OA
BRANCH   3   4
ATOM      4  C   UNL A   1      44.631  19.568  24.457  1.00  0.00     0.338 C 
ATOM      5  O   UNL A   1      45.589  19.032  23.897  1.00  0.00    -0.246 OA
BRANCH   4   6
ATOM      6  C   UNL A   1      44.771  21.025  24.796  1.00  0.00     0.060 A 
ATOM      7  C   UNL A   1      45.177  21.324  26.114  1.00  0.00     0.016 A 
ATOM      8  C   UNL A   1      44.469  22.102  23.963  1.00  0.00     0.016 A 
ATOM      9  C   UNL A   1      45.277  22.644  26.570  1.00  0.00     0.010 A 
ATOM     10  C   UNL A   1      44.541  23.418  24.412  1.00  0.00     0.010 A 
ATOM     11  C   UNL A   1      44.957  23.697  25.712  1.00  0.00    -0.014 A 
BRANCH  11  12
ATOM     12  C   UNL A   1      45.182  25.110  26.063  1.00  0.00     0.031 A 
ATOM     13  C   UNL A   1      46.556  25.695  26.059  1.00  0.00     0.074 A 
ATOM     14  C   UNL A   1      44.126  25.787  26.548  1.00  0.00     0.049 A 
ATOM     15  N   UNL A   1      46.941  26.888  26.432  1.00  0.00    -0.248 NA
ATOM     16  C   UNL A   1      47.648  24.826  25.592  1.00  0.00     0.031 C 
ATOM     17  C   UNL A   1      42.766  25.251  26.655  1.00  0.00     0.029 A 
ATOM     18  N   UNL A   1      44.037  27.042  27.084  1.00  0.00    -0.354 N 
ATOM     19  C   UNL A   1      48.310  26.929  26.214  1.00  0.00     0.074 A 
ATOM     20  C   UNL A   1      48.702  25.623  25.728  1.00  0.00     0.031 C 
ATOM     21  C   UNL A   1      41.982  26.164  27.245  1.00  0.00     0.029 A 
ATOM     22  C   UNL A   1      42.784  27.341  27.556  1.00  0.00     0.049 A 
ATOM     23  H   UNL A   1      44.796  27.668  27.125  1.00  0.00     0.167 HD
ATOM     24  C   UNL A   1      49.148  27.978  26.390  1.00  0.00     0.037 A 
ATOM     25  C   UNL A   1      42.337  28.451  28.169  1.00  0.00     0.037 A 
ATOM     26  C   UNL A   1      48.734  29.253  26.921  1.00  0.00     0.049 A 
ATOM     27  C   UNL A   1      43.292  29.592  28.362  1.00  0.00     0.074 A 
ATOM     28  C   UNL A   1      49.492  30.392  27.133  1.00  0.00     0.029 A 
ATOM     29  N   UNL A   1      47.441  29.551  27.333  1.00  0.00    -0.354 N 
ATOM     30  N   UNL A   1      44.570  29.654  28.079  1.00  0.00    -0.248 NA
ATOM     31  C   UNL A   1      42.737  30.827  28.928  1.00  0.00     0.031 C 
ATOM     32  C   UNL A   1      48.664  31.369  27.699  1.00  0.00     0.029 A 
ATOM     33  C   UNL A   1      47.380  30.855  27.796  1.00  0.00     0.049 A 
ATOM     34  H   UNL A   1      46.680  28.927  27.300  1.00  0.00     0.167 HD
ATOM     35  C   UNL A   1      44.966  30.945  28.389  1.00  0.00     0.074 A 
ATOM     36  C   UNL A   1      43.789  31.632  28.883  1.00  0.00     0.031 C 
ATOM     37  C   UNL A   1      46.190  31.514  28.269  1.00  0.00     0.037 A 
BRANCH  24  38
ATOM     38  C   UNL A   1      50.581  27.816  25.975  1.00  0.00     0.064 A 
ATOM     39  C   UNL A   1      50.967  27.999  24.637  1.00  0.00     0.173 A 
ATOM     40  C   UNL A   1      51.591  27.586  26.921  1.00  0.00     0.173 A 
ATOM     41  F   UNL A   1      50.040  28.216  23.691  1.00  0.00    -0.203 F 
ATOM     42  C   UNL A   1      52.308  27.956  24.263  1.00  0.00     0.198 A 
ATOM     43  C   UNL A   1      52.934  27.567  26.546  1.00  0.00     0.198 A 
ATOM     44  F   UNL A   1      51.280  27.412  28.214  1.00  0.00    -0.203 F 
ATOM     45  F   UNL A   1      52.648  28.121  22.977  1.00  0.00    -0.200 F 
ATOM     46  C   UNL A   1      53.291  27.752  25.219  1.00  0.00     0.200 A 
ATOM     47  F   UNL A   1      53.884  27.384  27.474  1.00  0.00    -0.200 F 
ATOM     48  F   UNL A   1      54.582  27.737  24.861  1.00  0.00    -0.200 F 
ENDBRANCH  24  38
BRANCH  25  49
ATOM     49  C   UNL A   1      40.908  28.551  28.544  1.00  0.00     0.064 A 
ATOM     50  C   UNL A   1      40.489  28.203  29.835  1.00  0.00     0.173 A 
ATOM     51  C   UNL A   1      39.945  29.048  27.654  1.00  0.00     0.173 A 
ATOM     52  F   UNL A   1      41.375  27.718  30.716  1.00  0.00    -0.203 F 
ATOM     53  C   UNL A   1      39.157  28.335  30.219  1.00  0.00     0.198 A 
ATOM     54  C   UNL A   1      38.617  29.201  28.047  1.00  0.00     0.198 A 
ATOM     55  F   UNL A   1      40.301  29.413  26.413  1.00  0.00    -0.203 F 
ATOM     56  F   UNL A   1      38.779  27.970  31.452  1.00  0.00    -0.200 F 
ATOM     57  C   UNL A   1      38.223  28.840  29.326  1.00  0.00     0.200 A 
ATOM     58  F   UNL A   1      37.720  29.707  27.189  1.00  0.00    -0.200 F 
ATOM     59  F   UNL A   1      36.944  28.978  29.702  1.00  0.00    -0.200 F 
ENDBRANCH  25  49
BRANCH  37  60
ATOM     60  C   UNL A   1      46.299  32.963  28.632  1.00  0.00     0.064 A 
ATOM     61  C   UNL A   1      46.622  33.375  29.932  1.00  0.00     0.173 A 
ATOM     62  C   UNL A   1      46.101  33.950  27.655  1.00  0.00     0.173 A 
ATOM     63  F   UNL A   1      46.804  32.466  30.902  1.00  0.00    -0.203 F 
ATOM     64  C   UNL A   1      46.712  34.726  30.250  1.00  0.00     0.198 A 
ATOM     65  C   UNL A   1      46.220  35.300  27.970  1.00  0.00     0.198 A 
ATOM     66  F   UNL A   1      45.797  33.604  26.395  1.00  0.00    -0.203 F 
ATOM     67  F   UNL A   1      46.971  35.101  31.510  1.00  0.00    -0.200 F 
ATOM     68  C   UNL A   1      46.517  35.687  29.268  1.00  0.00     0.200 A 
ATOM     69  F   UNL A   1      46.041  36.226  27.018  1.00  0.00    -0.200 F 
ATOM     70  F   UNL A   1      46.606  36.988  29.575  1.00  0.00    -0.200 F 
ENDBRANCH  37  60
ENDBRANCH  11  12
ENDBRANCH   4   6
ENDBRANCH   3   4
ENDBRANCH   2   3
ENDBRANCH   1   2
BRANCH   1  71
ATOM     71  O   UNL A   1      41.311  20.032  25.970  1.00  0.00    -0.374 OA
BRANCH  71  72
ATOM     72  C   UNL A   1      40.205  20.504  26.734  1.00  0.00     0.202 C 
BRANCH  72  73
ATOM     73  C   UNL A   1      39.712  21.806  26.133  1.00  0.00     0.261 C 
BRANCH  73  74
ATOM     74  O   UNL A   1      38.494  21.602  25.405  1.00  0.00    -0.459 OA
BRANCH  74  75
ATOM     75  C   UNL A   1      37.540  22.568  25.542  1.00  0.00     0.365 C 
ATOM     76  O   UNL A   1      37.701  23.773  25.333  1.00  0.00    -0.245 OA
BRANCH  75  77
ATOM     77  C   UNL A   1      36.253  21.955  26.102  1.00  0.00     0.298 C 
ATOM     78  C   UNL A   1      35.239  23.027  26.616  1.00  0.00     0.111 C 
ATOM     79  N   UNL A   1      35.795  20.941  25.119  1.00  0.00    -0.326 N 
ATOM     80  C   UNL A   1      33.842  23.114  25.959  1.00  0.00    -0.024 C 
ATOM     81  C   UNL A   1      34.348  20.809  25.182  1.00  0.00     0.243 C 
ATOM     82  H   UNL A   1      36.226  20.042  25.334  1.00  0.00     0.347 HD
ATOM     83  H   UNL A   1      36.065  21.238  24.181  1.00  0.00     0.347 HD
ATOM     84  C   UNL A   1      33.449  24.308  25.499  1.00  0.00     0.002 A 
ATOM     85  C   UNL A   1      33.669  22.146  24.809  1.00  0.00     0.196 C 
ATOM     86  C   UNL A   1      32.138  24.917  25.553  1.00  0.00     0.010 A 
ATOM     87  C   UNL A   1      33.924  24.161  24.084  1.00  0.00     0.066 A 
ATOM     88  N   UNL A   1      34.218  22.959  23.659  1.00  0.00    -0.270 NA
ATOM     89  C   UNL A   1      31.896  25.912  24.680  1.00  0.00     0.001 A 
ATOM     90  C   UNL A   1      33.930  25.468  23.379  1.00  0.00     0.028 A 
ATOM     91  C   UNL A   1      32.936  26.313  23.733  1.00  0.00     0.002 A 
BRANCH  81  92
ATOM     92  C   UNL A   1      33.882  19.488  24.599  1.00  0.00     0.012 A 
ATOM     93  C   UNL A   1      32.672  19.505  23.870  1.00  0.00     0.010 A 
ATOM     94  C   UNL A   1      34.677  18.340  24.537  1.00  0.00     0.010 A 
ATOM     95  C   UNL A   1      32.317  18.456  23.027  1.00  0.00     0.001 A 
ATOM     96  C   UNL A   1      34.320  17.288  23.685  1.00  0.00     0.001 A 
ATOM     97  C   UNL A   1      33.159  17.358  22.913  1.00  0.00     0.000 A 
ENDBRANCH  81  92
ENDBRANCH  75  77
ENDBRANCH  74  75
ENDBRANCH  73  74
ENDBRANCH  72  73
ENDBRANCH  71  72
ENDBRANCH   1  71
TORSDOF 15
ENDMDL
