MODEL 1
REMARK VINA RESULT:     -11.8      0.000      0.000
REMARK SMILES CCC[N@@H+]1CC2(CC[NH+](c3nccnc3C)CC2)C[C@H]1C(=O)OCCOCCOC(=O)c1ccc(-c2c3nc(c(-c4c(F)c(F)c(F)c(F)c4F)c4ccc([nH]4)c(-c4c(F)c(F)c(F)c(F)c4F)c4nc(c(-c5c(F)c(F)c(F)c(F)c5F)c5ccc2[nH]5)C=C4)C=C3)cc1
REMARK SMILES IDX 26 1 25 2 24 3 23 4 21 5 22 6 20 7 4 8 5 9 6 11 19 12 7 13
REMARK SMILES IDX 18 14 8 15 17 16 9 17 3 19 2 20 1 21 10 22 11 23 15 24 12 25
REMARK SMILES IDX 14 26 16 27 13 28 27 29 28 30 29 31 30 32 31 33 32 34 33 35
REMARK SMILES IDX 94 36 34 37 93 38 35 39 36 40 37 41 87 42 38 43 92 44 86 45
REMARK SMILES IDX 88 46 39 47 91 48 85 49 84 50 40 52 72 53 52 54 71 55 53 56
REMARK SMILES IDX 56 57 70 58 89 59 54 60 55 61 69 63 90 64 57 65 41 66 42 67
REMARK SMILES IDX 50 68 43 69 44 70 48 71 51 72 45 73 46 74 49 75 47 76 73 77
REMARK SMILES IDX 74 78 82 79 75 80 76 81 80 82 83 83 77 84 78 85 81 86 79 87
REMARK SMILES IDX 58 88 59 89 67 90 60 91 61 92 65 93 68 94 62 95 63 96 66 97
REMARK SMILES IDX 64 98
REMARK H PARENT 4 10 9 18 88 51 56 62
REMARK Flexibility Score: inf
ROOT
ATOM      1  O   UNL A   1      36.437  19.934  25.008  1.00  0.00    -0.374 OA
ENDROOT
BRANCH   1   2
ATOM      2  C   UNL A   1      35.335  20.826  24.887  1.00  0.00     0.202 C 
BRANCH   2   3
ATOM      3  C   UNL A   1      35.488  22.227  25.490  1.00  0.00     0.261 C 
BRANCH   3   4
ATOM      4  O   UNL A   1      34.466  22.525  26.449  1.00  0.00    -0.459 OA
BRANCH   4   5
ATOM      5  C   UNL A   1      33.471  23.337  26.001  1.00  0.00     0.365 C 
ATOM      6  O   UNL A   1      32.324  23.333  26.442  1.00  0.00    -0.245 OA
BRANCH   5   7
ATOM      7  C   UNL A   1      33.872  24.258  24.840  1.00  0.00     0.295 C 
ATOM      8  N   UNL A   1      32.798  24.577  23.877  1.00  0.00    -0.323 N 
ATOM      9  C   UNL A   1      32.111  25.768  24.402  1.00  0.00     0.270 C 
ATOM     10  H   UNL A   1      32.186  23.762  23.824  1.00  0.00     0.348 HD
ATOM     11  C   UNL A   1      33.136  26.551  25.246  1.00  0.00     0.036 C 
ATOM     12  C   UNL A   1      34.331  25.587  25.403  1.00  0.00     0.091 C 
ATOM     13  C   UNL A   1      32.545  26.879  26.646  1.00  0.00     0.075 C 
ATOM     14  C   UNL A   1      33.633  27.820  24.501  1.00  0.00     0.075 C 
ATOM     15  C   UNL A   1      31.665  28.128  26.664  1.00  0.00     0.269 C 
ATOM     16  C   UNL A   1      32.672  29.006  24.595  1.00  0.00     0.269 C 
ATOM     17  N   UNL A   1      32.393  29.191  26.003  1.00  0.00    -0.284 N 
ATOM     18  H   UNL A   1      32.691  29.742  26.762  1.00  0.00     0.355 HD
BRANCH   8  19
ATOM     19  C   UNL A   1      33.162  24.698  22.453  1.00  0.00     0.262 C 
BRANCH  19  20
ATOM     20  C   UNL A   1      32.674  25.875  21.590  1.00  0.00     0.058 C 
ATOM     21  C   UNL A   1      32.526  25.542  20.110  1.00  0.00     0.010 C 
ENDBRANCH  19  20
ENDBRANCH   8  19
BRANCH  17  22
ATOM     22  C   UNL A   1      32.527  30.439  26.561  1.00  0.00     0.247 A 
ATOM     23  N   UNL A   1      31.545  31.338  26.320  1.00  0.00    -0.202 NA
ATOM     24  C   UNL A   1      33.667  30.825  27.303  1.00  0.00     0.119 A 
ATOM     25  C   UNL A   1      31.698  32.570  26.859  1.00  0.00     0.137 A 
ATOM     26  N   UNL A   1      33.808  32.065  27.849  1.00  0.00    -0.252 NA
ATOM     27  C   UNL A   1      34.846  29.914  27.481  1.00  0.00     0.075 C 
ATOM     28  C   UNL A   1      32.799  32.924  27.610  1.00  0.00     0.132 A 
ENDBRANCH  17  22
ENDBRANCH   5   7
ENDBRANCH   4   5
ENDBRANCH   3   4
ENDBRANCH   2   3
ENDBRANCH   1   2
BRANCH   1  29
ATOM     29  C   UNL A   1      37.754  20.486  24.962  1.00  0.00     0.202 C 
BRANCH  29  30
ATOM     30  C   UNL A   1      38.896  19.657  25.565  1.00  0.00     0.261 C 
BRANCH  30  31
ATOM     31  O   UNL A   1      40.107  20.414  25.753  1.00  0.00    -0.460 OA
BRANCH  31  32
ATOM     32  C   UNL A   1      40.547  20.483  27.031  1.00  0.00     0.338 C 
ATOM     33  O   UNL A   1      40.841  19.557  27.772  1.00  0.00    -0.246 OA
BRANCH  32  34
ATOM     34  C   UNL A   1      40.802  21.886  27.396  1.00  0.00     0.060 A 
ATOM     35  C   UNL A   1      40.165  22.887  26.650  1.00  0.00     0.016 A 
ATOM     36  C   UNL A   1      41.729  22.217  28.386  1.00  0.00     0.016 A 
ATOM     37  C   UNL A   1      40.474  24.227  26.874  1.00  0.00     0.010 A 
ATOM     38  C   UNL A   1      42.047  23.562  28.600  1.00  0.00     0.010 A 
ATOM     39  C   UNL A   1      41.440  24.570  27.828  1.00  0.00    -0.014 A 
BRANCH  39  40
ATOM     40  C   UNL A   1      41.905  25.974  27.938  1.00  0.00     0.031 A 
ATOM     41  C   UNL A   1      43.245  26.349  27.375  1.00  0.00     0.074 A 
ATOM     42  C   UNL A   1      41.134  26.902  28.531  1.00  0.00     0.049 A 
ATOM     43  N   UNL A   1      43.875  27.495  27.422  1.00  0.00    -0.248 NA
ATOM     44  C   UNL A   1      43.976  25.289  26.661  1.00  0.00     0.031 C 
ATOM     45  C   UNL A   1      39.800  26.667  29.075  1.00  0.00     0.029 A 
ATOM     46  N   UNL A   1      41.375  28.230  28.784  1.00  0.00    -0.354 N 
ATOM     47  C   UNL A   1      45.075  27.295  26.753  1.00  0.00     0.074 A 
ATOM     48  C   UNL A   1      45.097  25.912  26.327  1.00  0.00     0.031 C 
ATOM     49  C   UNL A   1      39.344  27.810  29.618  1.00  0.00     0.029 A 
ATOM     50  C   UNL A   1      40.370  28.843  29.488  1.00  0.00     0.049 A 
ATOM     51  H   UNL A   1      42.190  28.697  28.488  1.00  0.00     0.167 HD
ATOM     52  C   UNL A   1      46.064  28.188  26.511  1.00  0.00     0.037 A 
ATOM     53  C   UNL A   1      40.301  30.089  29.996  1.00  0.00     0.037 A 
ATOM     54  C   UNL A   1      46.038  29.562  26.934  1.00  0.00     0.049 A 
ATOM     55  C   UNL A   1      41.452  31.038  29.786  1.00  0.00     0.074 A 
ATOM     56  C   UNL A   1      46.978  30.553  26.710  1.00  0.00     0.029 A 
ATOM     57  N   UNL A   1      45.020  30.138  27.679  1.00  0.00    -0.354 N 
ATOM     58  N   UNL A   1      42.570  30.850  29.127  1.00  0.00    -0.248 NA
ATOM     59  C   UNL A   1      41.333  32.372  30.394  1.00  0.00     0.031 C 
ATOM     60  C   UNL A   1      46.553  31.715  27.364  1.00  0.00     0.029 A 
ATOM     61  C   UNL A   1      45.324  31.462  27.952  1.00  0.00     0.049 A 
ATOM     62  H   UNL A   1      44.201  29.675  27.970  1.00  0.00     0.167 HD
ATOM     63  C   UNL A   1      43.275  32.043  29.222  1.00  0.00     0.074 A 
ATOM     64  C   UNL A   1      42.453  32.954  29.991  1.00  0.00     0.031 C 
ATOM     65  C   UNL A   1      44.494  32.355  28.718  1.00  0.00     0.037 A 
BRANCH  52  66
ATOM     66  C   UNL A   1      47.275  27.699  25.773  1.00  0.00     0.064 A 
ATOM     67  C   UNL A   1      47.341  27.715  24.372  1.00  0.00     0.173 A 
ATOM     68  C   UNL A   1      48.401  27.249  26.479  1.00  0.00     0.173 A 
ATOM     69  F   UNL A   1      46.286  28.124  23.652  1.00  0.00    -0.203 F 
ATOM     70  C   UNL A   1      48.483  27.280  23.704  1.00  0.00     0.198 A 
ATOM     71  C   UNL A   1      49.551  26.838  25.809  1.00  0.00     0.198 A 
ATOM     72  F   UNL A   1      48.390  27.218  27.820  1.00  0.00    -0.203 F 
ATOM     73  F   UNL A   1      48.511  27.268  22.364  1.00  0.00    -0.200 F 
ATOM     74  C   UNL A   1      49.588  26.849  24.423  1.00  0.00     0.200 A 
ATOM     75  F   UNL A   1      50.621  26.433  26.505  1.00  0.00    -0.200 F 
ATOM     76  F   UNL A   1      50.689  26.438  23.779  1.00  0.00    -0.200 F 
ENDBRANCH  52  66
BRANCH  53  77
ATOM     77  C   UNL A   1      39.109  30.505  30.779  1.00  0.00     0.064 A 
ATOM     78  C   UNL A   1      39.035  30.278  32.161  1.00  0.00     0.173 A 
ATOM     79  C   UNL A   1      38.011  31.122  30.160  1.00  0.00     0.173 A 
ATOM     80  F   UNL A   1      40.048  29.668  32.793  1.00  0.00    -0.203 F 
ATOM     81  C   UNL A   1      37.903  30.639  32.889  1.00  0.00     0.198 A 
ATOM     82  C   UNL A   1      36.892  31.505  30.893  1.00  0.00     0.198 A 
ATOM     83  F   UNL A   1      38.031  31.357  28.839  1.00  0.00    -0.203 F 
ATOM     84  F   UNL A   1      37.841  30.371  34.200  1.00  0.00    -0.200 F 
ATOM     85  C   UNL A   1      36.835  31.257  32.256  1.00  0.00     0.200 A 
ATOM     86  F   UNL A   1      35.866  32.110  30.279  1.00  0.00    -0.200 F 
ATOM     87  F   UNL A   1      35.748  31.604  32.958  1.00  0.00    -0.200 F 
ENDBRANCH  53  77
BRANCH  65  88
ATOM     88  C   UNL A   1      45.006  33.746  28.960  1.00  0.00     0.064 A 
ATOM     89  C   UNL A   1      44.713  34.798  28.082  1.00  0.00     0.173 A 
ATOM     90  C   UNL A   1      45.751  34.038  30.113  1.00  0.00     0.173 A 
ATOM     91  F   UNL A   1      44.017  34.566  26.959  1.00  0.00    -0.203 F 
ATOM     92  C   UNL A   1      45.163  36.091  28.339  1.00  0.00     0.198 A 
ATOM     93  C   UNL A   1      46.176  35.336  30.381  1.00  0.00     0.198 A 
ATOM     94  F   UNL A   1      46.053  33.067  30.988  1.00  0.00    -0.203 F 
ATOM     95  F   UNL A   1      44.903  37.075  27.467  1.00  0.00    -0.200 F 
ATOM     96  C   UNL A   1      45.886  36.360  29.492  1.00  0.00     0.200 A 
ATOM     97  F   UNL A   1      46.864  35.597  31.501  1.00  0.00    -0.200 F 
ATOM     98  F   UNL A   1      46.308  37.607  29.743  1.00  0.00    -0.200 F 
ENDBRANCH  65  88
ENDBRANCH  39  40
ENDBRANCH  32  34
ENDBRANCH  31  32
ENDBRANCH  30  31
ENDBRANCH  29  30
ENDBRANCH   1  29
TORSDOF 17
ENDMDL
MODEL 2
REMARK VINA RESULT:     -11.8      4.586      8.243
REMARK SMILES CCC[N@@H+]1CC2(CC[NH+](c3nccnc3C)CC2)C[C@H]1C(=O)OCCOCCOC(=O)c1ccc(-c2c3nc(c(-c4c(F)c(F)c(F)c(F)c4F)c4ccc([nH]4)c(-c4c(F)c(F)c(F)c(F)c4F)c4nc(c(-c5c(F)c(F)c(F)c(F)c5F)c5ccc2[nH]5)C=C4)C=C3)cc1
REMARK SMILES IDX 26 1 25 2 24 3 23 4 21 5 22 6 20 7 4 8 5 9 6 11 19 12 7 13
REMARK SMILES IDX 18 14 8 15 17 16 9 17 3 19 2 20 1 21 10 22 11 23 15 24 12 25
REMARK SMILES IDX 14 26 16 27 13 28 27 29 28 30 29 31 30 32 31 33 32 34 33 35
REMARK SMILES IDX 94 36 34 37 93 38 35 39 36 40 37 41 87 42 38 43 92 44 86 45
REMARK SMILES IDX 88 46 39 47 91 48 85 49 84 50 40 52 72 53 52 54 71 55 53 56
REMARK SMILES IDX 56 57 70 58 89 59 54 60 55 61 69 63 90 64 57 65 41 66 42 67
REMARK SMILES IDX 50 68 43 69 44 70 48 71 51 72 45 73 46 74 49 75 47 76 73 77
REMARK SMILES IDX 74 78 82 79 75 80 76 81 80 82 83 83 77 84 78 85 81 86 79 87
REMARK SMILES IDX 58 88 59 89 67 90 60 91 61 92 65 93 68 94 62 95 63 96 66 97
REMARK SMILES IDX 64 98
REMARK H PARENT 4 10 9 18 88 51 56 62
REMARK Flexibility Score: inf
ROOT
ATOM      1  O   UNL A   1      31.827  29.061  24.430  1.00  0.00    -0.374 OA
ENDROOT
BRANCH   1   2
ATOM      2  C   UNL A   1      32.479  29.009  23.165  1.00  0.00     0.202 C 
BRANCH   2   3
ATOM      3  C   UNL A   1      33.757  28.170  23.061  1.00  0.00     0.261 C 
BRANCH   3   4
ATOM      4  O   UNL A   1      33.687  27.193  22.015  1.00  0.00    -0.459 OA
BRANCH   4   5
ATOM      5  C   UNL A   1      32.784  26.196  22.213  1.00  0.00     0.365 C 
ATOM      6  O   UNL A   1      32.158  25.641  21.311  1.00  0.00    -0.245 OA
BRANCH   5   7
ATOM      7  C   UNL A   1      32.553  25.825  23.684  1.00  0.00     0.295 C 
ATOM      8  N   UNL A   1      31.162  25.483  24.047  1.00  0.00    -0.323 N 
ATOM      9  C   UNL A   1      31.014  24.039  23.803  1.00  0.00     0.270 C 
ATOM     10  H   UNL A   1      30.547  26.045  23.457  1.00  0.00     0.348 HD
ATOM     11  C   UNL A   1      32.410  23.404  23.966  1.00  0.00     0.036 C 
ATOM     12  C   UNL A   1      33.381  24.602  24.018  1.00  0.00     0.091 C 
ATOM     13  C   UNL A   1      32.746  22.515  22.735  1.00  0.00     0.075 C 
ATOM     14  C   UNL A   1      32.528  22.627  25.306  1.00  0.00     0.075 C 
ATOM     15  C   UNL A   1      32.161  21.106  22.816  1.00  0.00     0.269 C 
ATOM     16  C   UNL A   1      31.912  21.228  25.263  1.00  0.00     0.269 C 
ATOM     17  N   UNL A   1      32.493  20.564  24.117  1.00  0.00    -0.284 N 
ATOM     18  H   UNL A   1      33.221  19.937  23.900  1.00  0.00     0.355 HD
BRANCH   8  19
ATOM     19  C   UNL A   1      30.673  25.901  25.373  1.00  0.00     0.262 C 
BRANCH  19  20
ATOM     20  C   UNL A   1      31.615  26.016  26.584  1.00  0.00     0.058 C 
ATOM     21  C   UNL A   1      31.844  27.445  27.061  1.00  0.00     0.010 C 
ENDBRANCH  19  20
ENDBRANCH   8  19
BRANCH  17  22
ATOM     22  C   UNL A   1      33.045  19.314  24.266  1.00  0.00     0.247 A 
ATOM     23  N   UNL A   1      32.212  18.251  24.171  1.00  0.00    -0.202 NA
ATOM     24  C   UNL A   1      34.409  19.113  24.577  1.00  0.00     0.119 A 
ATOM     25  C   UNL A   1      32.762  17.027  24.339  1.00  0.00     0.137 A 
ATOM     26  N   UNL A   1      34.955  17.876  24.735  1.00  0.00    -0.252 NA
ATOM     27  C   UNL A   1      35.343  20.259  24.830  1.00  0.00     0.075 C 
ATOM     28  C   UNL A   1      34.102  16.842  24.608  1.00  0.00     0.132 A 
ENDBRANCH  17  22
ENDBRANCH   5   7
ENDBRANCH   4   5
ENDBRANCH   3   4
ENDBRANCH   2   3
ENDBRANCH   1   2
BRANCH   1  29
ATOM     29  C   UNL A   1      31.073  30.233  24.747  1.00  0.00     0.202 C 
BRANCH  29  30
ATOM     30  C   UNL A   1      31.422  30.974  26.045  1.00  0.00     0.261 C 
BRANCH  30  31
ATOM     31  O   UNL A   1      32.798  30.811  26.437  1.00  0.00    -0.460 OA
BRANCH  31  32
ATOM     32  C   UNL A   1      33.299  31.811  27.201  1.00  0.00     0.338 C 
ATOM     33  O   UNL A   1      32.736  32.837  27.553  1.00  0.00    -0.246 OA
BRANCH  32  34
ATOM     34  C   UNL A   1      34.620  31.426  27.723  1.00  0.00     0.060 A 
ATOM     35  C   UNL A   1      34.821  30.088  28.084  1.00  0.00     0.016 A 
ATOM     36  C   UNL A   1      35.611  32.382  27.953  1.00  0.00     0.016 A 
ATOM     37  C   UNL A   1      36.010  29.703  28.702  1.00  0.00     0.010 A 
ATOM     38  C   UNL A   1      36.798  31.997  28.585  1.00  0.00     0.010 A 
ATOM     39  C   UNL A   1      36.991  30.661  28.985  1.00  0.00    -0.014 A 
BRANCH  39  40
ATOM     40  C   UNL A   1      38.169  30.293  29.806  1.00  0.00     0.031 A 
ATOM     41  C   UNL A   1      39.175  29.324  29.253  1.00  0.00     0.074 A 
ATOM     42  C   UNL A   1      38.340  30.822  31.030  1.00  0.00     0.049 A 
ATOM     43  N   UNL A   1      40.236  28.812  29.823  1.00  0.00    -0.248 NA
ATOM     44  C   UNL A   1      38.955  28.870  27.870  1.00  0.00     0.031 C 
ATOM     45  C   UNL A   1      37.456  31.804  31.653  1.00  0.00     0.029 A 
ATOM     46  N   UNL A   1      39.313  30.595  31.971  1.00  0.00    -0.354 N 
ATOM     47  C   UNL A   1      40.806  27.973  28.875  1.00  0.00     0.074 A 
ATOM     48  C   UNL A   1      39.964  28.027  27.699  1.00  0.00     0.031 C 
ATOM     49  C   UNL A   1      37.916  32.081  32.886  1.00  0.00     0.029 A 
ATOM     50  C   UNL A   1      39.105  31.271  33.147  1.00  0.00     0.049 A 
ATOM     51  H   UNL A   1      40.085  30.004  31.817  1.00  0.00     0.167 HD
ATOM     52  C   UNL A   1      41.935  27.232  28.976  1.00  0.00     0.037 A 
ATOM     53  C   UNL A   1      39.781  31.218  34.310  1.00  0.00     0.037 A 
ATOM     54  C   UNL A   1      42.771  27.183  30.145  1.00  0.00     0.049 A 
ATOM     55  C   UNL A   1      40.986  30.319  34.425  1.00  0.00     0.074 A 
ATOM     56  C   UNL A   1      43.952  26.486  30.334  1.00  0.00     0.029 A 
ATOM     57  N   UNL A   1      42.508  27.852  31.332  1.00  0.00    -0.354 N 
ATOM     58  N   UNL A   1      41.536  29.552  33.515  1.00  0.00    -0.248 NA
ATOM     59  C   UNL A   1      41.662  30.277  35.731  1.00  0.00     0.031 C 
ATOM     60  C   UNL A   1      44.377  26.692  31.651  1.00  0.00     0.029 A 
ATOM     61  C   UNL A   1      43.486  27.558  32.267  1.00  0.00     0.049 A 
ATOM     62  H   UNL A   1      41.740  28.448  31.485  1.00  0.00     0.167 HD
ATOM     63  C   UNL A   1      42.630  28.956  34.127  1.00  0.00     0.074 A 
ATOM     64  C   UNL A   1      42.675  29.459  35.484  1.00  0.00     0.031 C 
ATOM     65  C   UNL A   1      43.517  28.069  33.613  1.00  0.00     0.037 A 
BRANCH  52  66
ATOM     66  C   UNL A   1      42.320  26.391  27.796  1.00  0.00     0.064 A 
ATOM     67  C   UNL A   1      43.248  26.837  26.843  1.00  0.00     0.173 A 
ATOM     68  C   UNL A   1      41.787  25.102  27.640  1.00  0.00     0.173 A 
ATOM     69  F   UNL A   1      43.777  28.066  26.942  1.00  0.00    -0.203 F 
ATOM     70  C   UNL A   1      43.613  26.033  25.767  1.00  0.00     0.198 A 
ATOM     71  C   UNL A   1      42.173  24.290  26.576  1.00  0.00     0.198 A 
ATOM     72  F   UNL A   1      40.899  24.627  28.525  1.00  0.00    -0.203 F 
ATOM     73  F   UNL A   1      44.473  26.494  24.848  1.00  0.00    -0.200 F 
ATOM     74  C   UNL A   1      43.080  24.758  25.638  1.00  0.00     0.200 A 
ATOM     75  F   UNL A   1      41.665  23.055  26.460  1.00  0.00    -0.200 F 
ATOM     76  F   UNL A   1      43.439  23.983  24.606  1.00  0.00    -0.200 F 
ENDBRANCH  52  66
BRANCH  53  77
ATOM     77  C   UNL A   1      39.320  32.018  35.474  1.00  0.00     0.064 A 
ATOM     78  C   UNL A   1      39.748  33.340  35.659  1.00  0.00     0.173 A 
ATOM     79  C   UNL A   1      38.456  31.471  36.435  1.00  0.00     0.173 A 
ATOM     80  F   UNL A   1      40.595  33.897  34.782  1.00  0.00    -0.203 F 
ATOM     81  C   UNL A   1      39.340  34.079  36.769  1.00  0.00     0.198 A 
ATOM     82  C   UNL A   1      38.029  32.219  37.529  1.00  0.00     0.198 A 
ATOM     83  F   UNL A   1      38.021  30.208  36.305  1.00  0.00    -0.203 F 
ATOM     84  F   UNL A   1      39.799  35.325  36.944  1.00  0.00    -0.200 F 
ATOM     85  C   UNL A   1      38.478  33.520  37.699  1.00  0.00     0.200 A 
ATOM     86  F   UNL A   1      37.188  31.677  38.420  1.00  0.00    -0.200 F 
ATOM     87  F   UNL A   1      38.086  34.231  38.764  1.00  0.00    -0.200 F 
ENDBRANCH  53  77
BRANCH  65  88
ATOM     88  C   UNL A   1      44.627  27.603  34.510  1.00  0.00     0.064 A 
ATOM     89  C   UNL A   1      45.810  28.341  34.656  1.00  0.00     0.173 A 
ATOM     90  C   UNL A   1      44.481  26.435  35.272  1.00  0.00     0.173 A 
ATOM     91  F   UNL A   1      46.003  29.457  33.937  1.00  0.00    -0.203 F 
ATOM     92  C   UNL A   1      46.816  27.916  35.521  1.00  0.00     0.198 A 
ATOM     93  C   UNL A   1      45.477  26.027  36.157  1.00  0.00     0.198 A 
ATOM     94  F   UNL A   1      43.366  25.696  35.173  1.00  0.00    -0.203 F 
ATOM     95  F   UNL A   1      47.954  28.616  35.617  1.00  0.00    -0.200 F 
ATOM     96  C   UNL A   1      46.645  26.765  36.277  1.00  0.00     0.200 A 
ATOM     97  F   UNL A   1      45.305  24.922  36.895  1.00  0.00    -0.200 F 
ATOM     98  F   UNL A   1      47.609  26.364  37.116  1.00  0.00    -0.200 F 
ENDBRANCH  65  88
ENDBRANCH  39  40
ENDBRANCH  32  34
ENDBRANCH  31  32
ENDBRANCH  30  31
ENDBRANCH  29  30
ENDBRANCH   1  29
TORSDOF 17
ENDMDL
MODEL 3
REMARK VINA RESULT:     -11.7      4.453     10.310
REMARK SMILES CCC[N@@H+]1CC2(CC[NH+](c3nccnc3C)CC2)C[C@H]1C(=O)OCCOCCOC(=O)c1ccc(-c2c3nc(c(-c4c(F)c(F)c(F)c(F)c4F)c4ccc([nH]4)c(-c4c(F)c(F)c(F)c(F)c4F)c4nc(c(-c5c(F)c(F)c(F)c(F)c5F)c5ccc2[nH]5)C=C4)C=C3)cc1
REMARK SMILES IDX 26 1 25 2 24 3 23 4 21 5 22 6 20 7 4 8 5 9 6 11 19 12 7 13
REMARK SMILES IDX 18 14 8 15 17 16 9 17 3 19 2 20 1 21 10 22 11 23 15 24 12 25
REMARK SMILES IDX 14 26 16 27 13 28 27 29 28 30 29 31 30 32 31 33 32 34 33 35
REMARK SMILES IDX 94 36 34 37 93 38 35 39 36 40 37 41 87 42 38 43 92 44 86 45
REMARK SMILES IDX 88 46 39 47 91 48 85 49 84 50 40 52 72 53 52 54 71 55 53 56
REMARK SMILES IDX 56 57 70 58 89 59 54 60 55 61 69 63 90 64 57 65 41 66 42 67
REMARK SMILES IDX 50 68 43 69 44 70 48 71 51 72 45 73 46 74 49 75 47 76 73 77
REMARK SMILES IDX 74 78 82 79 75 80 76 81 80 82 83 83 77 84 78 85 81 86 79 87
REMARK SMILES IDX 58 88 59 89 67 90 60 91 61 92 65 93 68 94 62 95 63 96 66 97
REMARK SMILES IDX 64 98
REMARK H PARENT 4 10 9 18 88 51 56 62
REMARK Flexibility Score: inf
ROOT
ATOM      1  O   UNL A   1      30.403  29.996  24.251  1.00  0.00    -0.374 OA
ENDROOT
BRANCH   1   2
ATOM      2  C   UNL A   1      30.585  29.281  23.034  1.00  0.00     0.202 C 
BRANCH   2   3
ATOM      3  C   UNL A   1      31.993  28.765  22.719  1.00  0.00     0.261 C 
BRANCH   3   4
ATOM      4  O   UNL A   1      31.974  27.532  21.990  1.00  0.00    -0.459 OA
BRANCH   4   5
ATOM      5  C   UNL A   1      32.802  26.564  22.467  1.00  0.00     0.365 C 
ATOM      6  O   UNL A   1      33.684  26.021  21.805  1.00  0.00    -0.245 OA
BRANCH   5   7
ATOM      7  C   UNL A   1      32.526  26.146  23.918  1.00  0.00     0.295 C 
ATOM      8  N   UNL A   1      31.124  25.798  24.228  1.00  0.00    -0.323 N 
ATOM      9  C   UNL A   1      30.978  24.364  23.933  1.00  0.00     0.270 C 
ATOM     10  H   UNL A   1      30.529  26.383  23.640  1.00  0.00     0.348 HD
ATOM     11  C   UNL A   1      32.366  23.717  24.115  1.00  0.00     0.036 C 
ATOM     12  C   UNL A   1      33.339  24.908  24.235  1.00  0.00     0.091 C 
ATOM     13  C   UNL A   1      32.734  22.869  22.865  1.00  0.00     0.075 C 
ATOM     14  C   UNL A   1      32.441  22.896  25.431  1.00  0.00     0.075 C 
ATOM     15  C   UNL A   1      32.142  21.460  22.882  1.00  0.00     0.269 C 
ATOM     16  C   UNL A   1      31.822  21.502  25.324  1.00  0.00     0.269 C 
ATOM     17  N   UNL A   1      32.434  20.874  24.173  1.00  0.00    -0.284 N 
ATOM     18  H   UNL A   1      33.165  20.251  23.957  1.00  0.00     0.355 HD
BRANCH   8  19
ATOM     19  C   UNL A   1      30.597  26.174  25.553  1.00  0.00     0.262 C 
BRANCH  19  20
ATOM     20  C   UNL A   1      31.504  26.243  26.795  1.00  0.00     0.058 C 
ATOM     21  C   UNL A   1      31.777  27.658  27.289  1.00  0.00     0.010 C 
ENDBRANCH  19  20
ENDBRANCH   8  19
BRANCH  17  22
ATOM     22  C   UNL A   1      32.976  19.617  24.296  1.00  0.00     0.247 A 
ATOM     23  N   UNL A   1      32.133  18.562  24.191  1.00  0.00    -0.202 NA
ATOM     24  C   UNL A   1      34.341  19.400  24.592  1.00  0.00     0.119 A 
ATOM     25  C   UNL A   1      32.675  17.331  24.333  1.00  0.00     0.137 A 
ATOM     26  N   UNL A   1      34.878  18.155  24.725  1.00  0.00    -0.252 NA
ATOM     27  C   UNL A   1      35.287  20.533  24.857  1.00  0.00     0.075 C 
ATOM     28  C   UNL A   1      34.016  17.130  24.588  1.00  0.00     0.132 A 
ENDBRANCH  17  22
ENDBRANCH   5   7
ENDBRANCH   4   5
ENDBRANCH   3   4
ENDBRANCH   2   3
ENDBRANCH   1   2
BRANCH   1  29
ATOM     29  C   UNL A   1      31.509  30.072  25.154  1.00  0.00     0.202 C 
BRANCH  29  30
ATOM     30  C   UNL A   1      31.556  31.261  26.123  1.00  0.00     0.261 C 
BRANCH  30  31
ATOM     31  O   UNL A   1      32.487  31.071  27.206  1.00  0.00    -0.460 OA
BRANCH  31  32
ATOM     32  C   UNL A   1      33.308  32.119  27.448  1.00  0.00     0.338 C 
ATOM     33  O   UNL A   1      33.025  33.308  27.437  1.00  0.00    -0.246 OA
BRANCH  32  34
ATOM     34  C   UNL A   1      34.618  31.632  27.908  1.00  0.00     0.060 A 
ATOM     35  C   UNL A   1      34.776  30.254  28.104  1.00  0.00     0.016 A 
ATOM     36  C   UNL A   1      35.642  32.521  28.242  1.00  0.00     0.016 A 
ATOM     37  C   UNL A   1      35.955  29.759  28.660  1.00  0.00     0.010 A 
ATOM     38  C   UNL A   1      36.818  32.023  28.813  1.00  0.00     0.010 A 
ATOM     39  C   UNL A   1      36.969  30.644  29.048  1.00  0.00    -0.014 A 
BRANCH  39  40
ATOM     40  C   UNL A   1      38.138  30.142  29.808  1.00  0.00     0.031 A 
ATOM     41  C   UNL A   1      38.367  30.629  31.209  1.00  0.00     0.074 A 
ATOM     42  C   UNL A   1      38.983  29.256  29.251  1.00  0.00     0.049 A 
ATOM     43  N   UNL A   1      39.358  30.377  32.026  1.00  0.00    -0.248 NA
ATOM     44  C   UNL A   1      37.340  31.523  31.768  1.00  0.00     0.031 C 
ATOM     45  C   UNL A   1      38.840  28.679  27.917  1.00  0.00     0.029 A 
ATOM     46  N   UNL A   1      40.138  28.699  29.740  1.00  0.00    -0.354 N 
ATOM     47  C   UNL A   1      39.080  31.082  33.188  1.00  0.00     0.074 A 
ATOM     48  C   UNL A   1      37.838  31.792  32.967  1.00  0.00     0.031 C 
ATOM     49  C   UNL A   1      39.881  27.861  27.684  1.00  0.00     0.029 A 
ATOM     50  C   UNL A   1      40.778  27.887  28.838  1.00  0.00     0.049 A 
ATOM     51  H   UNL A   1      40.474  28.865  30.651  1.00  0.00     0.167 HD
ATOM     52  C   UNL A   1      39.793  31.127  34.339  1.00  0.00     0.037 A 
ATOM     53  C   UNL A   1      41.967  27.260  28.926  1.00  0.00     0.037 A 
ATOM     54  C   UNL A   1      41.026  30.419  34.556  1.00  0.00     0.049 A 
ATOM     55  C   UNL A   1      42.783  27.395  30.185  1.00  0.00     0.074 A 
ATOM     56  C   UNL A   1      41.808  30.376  35.698  1.00  0.00     0.029 A 
ATOM     57  N   UNL A   1      41.664  29.636  33.605  1.00  0.00    -0.354 N 
ATOM     58  N   UNL A   1      42.499  28.039  31.291  1.00  0.00    -0.248 NA
ATOM     59  C   UNL A   1      44.088  26.716  30.207  1.00  0.00     0.031 C 
ATOM     60  C   UNL A   1      42.945  29.608  35.421  1.00  0.00     0.029 A 
ATOM     61  C   UNL A   1      42.846  29.133  34.123  1.00  0.00     0.049 A 
ATOM     62  H   UNL A   1      41.326  29.463  32.697  1.00  0.00     0.167 HD
ATOM     63  C   UNL A   1      43.574  27.827  32.144  1.00  0.00     0.074 A 
ATOM     64  C   UNL A   1      44.512  26.983  31.434  1.00  0.00     0.031 C 
ATOM     65  C   UNL A   1      43.767  28.292  33.403  1.00  0.00     0.037 A 
BRANCH  52  66
ATOM     66  C   UNL A   1      39.271  31.992  35.446  1.00  0.00     0.064 A 
ATOM     67  C   UNL A   1      38.439  31.480  36.452  1.00  0.00     0.173 A 
ATOM     68  C   UNL A   1      39.643  33.343  35.526  1.00  0.00     0.173 A 
ATOM     69  F   UNL A   1      38.045  30.198  36.414  1.00  0.00    -0.203 F 
ATOM     70  C   UNL A   1      37.982  32.293  37.487  1.00  0.00     0.198 A 
ATOM     71  C   UNL A   1      39.205  34.147  36.576  1.00  0.00     0.198 A 
ATOM     72  F   UNL A   1      40.440  33.881  34.591  1.00  0.00    -0.203 F 
ATOM     73  F   UNL A   1      37.158  31.791  38.417  1.00  0.00    -0.200 F 
ATOM     74  C   UNL A   1      38.371  33.623  37.552  1.00  0.00     0.200 A 
ATOM     75  F   UNL A   1      39.591  35.428  36.642  1.00  0.00    -0.200 F 
ATOM     76  F   UNL A   1      37.938  34.400  38.552  1.00  0.00    -0.200 F 
ENDBRANCH  52  66
BRANCH  53  77
ATOM     77  C   UNL A   1      42.475  26.470  27.775  1.00  0.00     0.064 A 
ATOM     78  C   UNL A   1      43.369  27.028  26.851  1.00  0.00     0.173 A 
ATOM     79  C   UNL A   1      42.062  25.145  27.564  1.00  0.00     0.173 A 
ATOM     80  F   UNL A   1      43.771  28.299  26.994  1.00  0.00    -0.203 F 
ATOM     81  C   UNL A   1      43.818  26.297  25.753  1.00  0.00     0.198 A 
ATOM     82  C   UNL A   1      42.532  24.407  26.482  1.00  0.00     0.198 A 
ATOM     83  F   UNL A   1      41.204  24.566  28.418  1.00  0.00    -0.203 F 
ATOM     84  F   UNL A   1      44.638  26.870  24.861  1.00  0.00    -0.200 F 
ATOM     85  C   UNL A   1      43.404  24.986  25.572  1.00  0.00     0.200 A 
ATOM     86  F   UNL A   1      42.137  23.138  26.316  1.00  0.00    -0.200 F 
ATOM     87  F   UNL A   1      43.839  24.284  24.517  1.00  0.00    -0.200 F 
ENDBRANCH  53  77
BRANCH  65  88
ATOM     88  C   UNL A   1      45.029  27.880  34.105  1.00  0.00     0.064 A 
ATOM     89  C   UNL A   1      45.103  26.689  34.841  1.00  0.00     0.173 A 
ATOM     90  C   UNL A   1      46.191  28.658  33.994  1.00  0.00     0.173 A 
ATOM     91  F   UNL A   1      44.015  25.919  34.989  1.00  0.00    -0.203 F 
ATOM     92  C   UNL A   1      46.291  26.301  35.455  1.00  0.00     0.198 A 
ATOM     93  C   UNL A   1      47.384  28.253  34.586  1.00  0.00     0.198 A 
ATOM     94  F   UNL A   1      46.174  29.804  33.296  1.00  0.00    -0.203 F 
ATOM     95  F   UNL A   1      46.329  25.177  36.185  1.00  0.00    -0.200 F 
ATOM     96  C   UNL A   1      47.432  27.077  35.320  1.00  0.00     0.200 A 
ATOM     97  F   UNL A   1      48.488  28.999  34.444  1.00  0.00    -0.200 F 
ATOM     98  F   UNL A   1      48.576  26.697  35.903  1.00  0.00    -0.200 F 
ENDBRANCH  65  88
ENDBRANCH  39  40
ENDBRANCH  32  34
ENDBRANCH  31  32
ENDBRANCH  30  31
ENDBRANCH  29  30
ENDBRANCH   1  29
TORSDOF 17
ENDMDL
