MODEL 1
REMARK VINA RESULT:     -11.1      0.000      0.000
REMARK SMILES CN(C)c1cccc(C(C)(C)C(=O)OCCOCCOC(=O)c2ccc(-c3c4nc(c(-c5c(F)c(F)c(F)c(F)c5F)c5ccc([nH]5)c(-c5c(F)c(F)c(F)c(F)c5F)c5nc(c(-c6c(F)c(F)c(F)c(F)c6F)c6ccc3[nH]6)C=C5)C=C4)cc2)c1
REMARK SMILES IDX 17 1 16 2 15 3 14 4 12 5 13 6 9 7 10 8 11 9 8 10 4 11 5 12
REMARK SMILES IDX 86 13 6 14 7 15 2 16 1 17 3 18 18 19 19 20 20 21 21 22 22 23
REMARK SMILES IDX 23 24 24 25 85 26 25 27 84 28 26 29 27 30 28 31 78 32 29 33
REMARK SMILES IDX 83 34 77 35 79 36 30 37 82 38 76 39 75 40 31 42 63 43 43 44
REMARK SMILES IDX 62 45 44 46 47 47 61 48 80 49 45 50 46 51 60 53 81 54 48 55
REMARK SMILES IDX 32 56 33 57 41 58 34 59 35 60 39 61 42 62 36 63 37 64 40 65
REMARK SMILES IDX 38 66 64 67 65 68 73 69 66 70 67 71 71 72 74 73 68 74 69 75
REMARK SMILES IDX 72 76 70 77 49 78 50 79 58 80 51 81 52 82 56 83 59 84 53 85
REMARK SMILES IDX 54 86 57 87 55 88
REMARK H PARENT 79 41 47 52
REMARK Flexibility Score: inf
ROOT
ATOM      1  O   UNL A   1      42.177  21.258  26.791  1.00  0.00    -0.374 OA
ENDROOT
BRANCH   1   2
ATOM      2  C   UNL A   1      40.780  20.989  26.677  1.00  0.00     0.202 C 
BRANCH   2   3
ATOM      3  C   UNL A   1      39.860  22.204  26.537  1.00  0.00     0.261 C 
BRANCH   3   4
ATOM      4  O   UNL A   1      38.635  21.855  25.873  1.00  0.00    -0.463 OA
BRANCH   4   5
ATOM      5  C   UNL A   1      37.726  22.862  25.754  1.00  0.00     0.316 C 
ATOM      6  O   UNL A   1      37.881  23.977  26.245  1.00  0.00    -0.251 OA
BRANCH   5   7
ATOM      7  C   UNL A   1      36.496  22.470  24.905  1.00  0.00     0.087 C 
ATOM      8  C   UNL A   1      36.439  20.930  25.032  1.00  0.00     0.028 C 
ATOM      9  C   UNL A   1      36.655  22.801  23.405  1.00  0.00     0.028 C 
BRANCH   7  10
ATOM     10  C   UNL A   1      35.197  23.134  25.420  1.00  0.00    -0.029 A 
ATOM     11  C   UNL A   1      33.575  25.009  25.408  1.00  0.00     0.036 A 
ATOM     12  C   UNL A   1      32.847  24.343  26.399  1.00  0.00     0.026 A 
ATOM     13  C   UNL A   1      34.739  24.379  24.927  1.00  0.00     0.030 A 
ATOM     14  C   UNL A   1      33.247  23.096  26.877  1.00  0.00     0.002 A 
ATOM     15  C   UNL A   1      34.407  22.495  26.390  1.00  0.00     0.005 A 
BRANCH  11  16
ATOM     16  N   UNL A   1      33.149  26.254  24.950  1.00  0.00    -0.378 N 
ATOM     17  C   UNL A   1      33.299  26.610  23.547  1.00  0.00     0.143 C 
ATOM     18  C   UNL A   1      33.167  27.338  25.926  1.00  0.00     0.143 C 
ENDBRANCH  11  16
ENDBRANCH   7  10
ENDBRANCH   5   7
ENDBRANCH   4   5
ENDBRANCH   3   4
ENDBRANCH   2   3
ENDBRANCH   1   2
BRANCH   1  19
ATOM     19  C   UNL A   1      42.998  20.964  25.659  1.00  0.00     0.202 C 
BRANCH  19  20
ATOM     20  C   UNL A   1      43.908  22.083  25.141  1.00  0.00     0.261 C 
BRANCH  20  21
ATOM     21  O   UNL A   1      43.182  23.290  24.843  1.00  0.00    -0.460 OA
BRANCH  21  22
ATOM     22  C   UNL A   1      43.866  24.433  25.076  1.00  0.00     0.338 C 
ATOM     23  O   UNL A   1      44.910  24.797  24.546  1.00  0.00    -0.246 OA
BRANCH  22  24
ATOM     24  C   UNL A   1      43.092  25.323  25.956  1.00  0.00     0.060 A 
ATOM     25  C   UNL A   1      43.618  26.597  26.208  1.00  0.00     0.016 A 
ATOM     26  C   UNL A   1      41.932  24.893  26.602  1.00  0.00     0.016 A 
ATOM     27  C   UNL A   1      43.017  27.427  27.148  1.00  0.00     0.010 A 
ATOM     28  C   UNL A   1      41.335  25.725  27.557  1.00  0.00     0.010 A 
ATOM     29  C   UNL A   1      41.898  26.978  27.861  1.00  0.00    -0.014 A 
BRANCH  29  30
ATOM     30  C   UNL A   1      41.428  27.752  29.035  1.00  0.00     0.031 A 
ATOM     31  C   UNL A   1      42.183  27.638  30.329  1.00  0.00     0.074 A 
ATOM     32  C   UNL A   1      40.374  28.579  28.937  1.00  0.00     0.049 A 
ATOM     33  N   UNL A   1      41.954  28.215  31.482  1.00  0.00    -0.248 NA
ATOM     34  C   UNL A   1      43.360  26.752  30.325  1.00  0.00     0.031 C 
ATOM     35  C   UNL A   1      39.592  28.808  27.724  1.00  0.00     0.029 A 
ATOM     36  N   UNL A   1      39.780  29.381  29.880  1.00  0.00    -0.354 N 
ATOM     37  C   UNL A   1      42.949  27.760  32.337  1.00  0.00     0.074 A 
ATOM     38  C   UNL A   1      43.769  26.838  31.582  1.00  0.00     0.031 C 
ATOM     39  C   UNL A   1      38.615  29.691  27.997  1.00  0.00     0.029 A 
ATOM     40  C   UNL A   1      38.687  30.064  29.409  1.00  0.00     0.049 A 
ATOM     41  H   UNL A   1      40.108  29.459  30.804  1.00  0.00     0.167 HD
ATOM     42  C   UNL A   1      43.164  28.090  33.633  1.00  0.00     0.037 A 
ATOM     43  C   UNL A   1      37.834  30.884  30.053  1.00  0.00     0.037 A 
ATOM     44  C   UNL A   1      42.350  29.012  34.380  1.00  0.00     0.049 A 
ATOM     45  C   UNL A   1      38.052  31.176  31.515  1.00  0.00     0.074 A 
ATOM     46  C   UNL A   1      42.502  29.432  35.690  1.00  0.00     0.029 A 
ATOM     47  N   UNL A   1      41.224  29.651  33.882  1.00  0.00    -0.354 N 
ATOM     48  N   UNL A   1      39.012  30.766  32.309  1.00  0.00    -0.248 NA
ATOM     49  C   UNL A   1      37.066  32.048  32.170  1.00  0.00     0.031 C 
ATOM     50  C   UNL A   1      41.438  30.287  35.999  1.00  0.00     0.029 A 
ATOM     51  C   UNL A   1      40.653  30.439  34.868  1.00  0.00     0.049 A 
ATOM     52  H   UNL A   1      40.881  29.557  32.964  1.00  0.00     0.167 HD
ATOM     53  C   UNL A   1      38.765  31.351  33.544  1.00  0.00     0.074 A 
ATOM     54  C   UNL A   1      37.568  32.153  33.392  1.00  0.00     0.031 C 
ATOM     55  C   UNL A   1      39.466  31.238  34.698  1.00  0.00     0.037 A 
BRANCH  42  56
ATOM     56  C   UNL A   1      44.311  27.424  34.334  1.00  0.00     0.064 A 
ATOM     57  C   UNL A   1      44.176  26.168  34.943  1.00  0.00     0.173 A 
ATOM     58  C   UNL A   1      45.572  28.040  34.370  1.00  0.00     0.173 A 
ATOM     59  F   UNL A   1      42.988  25.545  34.948  1.00  0.00    -0.203 F 
ATOM     60  C   UNL A   1      45.253  25.566  35.587  1.00  0.00     0.198 A 
ATOM     61  C   UNL A   1      46.653  27.422  34.992  1.00  0.00     0.198 A 
ATOM     62  F   UNL A   1      45.755  29.239  33.799  1.00  0.00    -0.203 F 
ATOM     63  F   UNL A   1      45.088  24.386  36.203  1.00  0.00    -0.200 F 
ATOM     64  C   UNL A   1      46.492  26.189  35.605  1.00  0.00     0.200 A 
ATOM     65  F   UNL A   1      47.852  28.022  35.000  1.00  0.00    -0.200 F 
ATOM     66  F   UNL A   1      47.529  25.606  36.222  1.00  0.00    -0.200 F 
ENDBRANCH  42  56
BRANCH  43  67
ATOM     67  C   UNL A   1      36.687  31.484  29.323  1.00  0.00     0.064 A 
ATOM     68  C   UNL A   1      36.663  32.852  29.017  1.00  0.00     0.173 A 
ATOM     69  C   UNL A   1      35.588  30.708  28.932  1.00  0.00     0.173 A 
ATOM     70  F   UNL A   1      37.680  33.641  29.395  1.00  0.00    -0.203 F 
ATOM     71  C   UNL A   1      35.574  33.422  28.361  1.00  0.00     0.198 A 
ATOM     72  C   UNL A   1      34.511  31.274  28.252  1.00  0.00     0.198 A 
ATOM     73  F   UNL A   1      35.562  29.395  29.204  1.00  0.00    -0.203 F 
ATOM     74  F   UNL A   1      35.555  34.741  28.120  1.00  0.00    -0.200 F 
ATOM     75  C   UNL A   1      34.501  32.632  27.975  1.00  0.00     0.200 A 
ATOM     76  F   UNL A   1      33.482  30.505  27.872  1.00  0.00    -0.200 F 
ATOM     77  F   UNL A   1      33.455  33.181  27.342  1.00  0.00    -0.200 F 
ENDBRANCH  43  67
BRANCH  55  78
ATOM     78  C   UNL A   1      38.980  32.024  35.881  1.00  0.00     0.064 A 
ATOM     79  C   UNL A   1      38.178  31.443  36.873  1.00  0.00     0.173 A 
ATOM     80  C   UNL A   1      39.359  33.366  36.045  1.00  0.00     0.173 A 
ATOM     81  F   UNL A   1      37.777  30.168  36.755  1.00  0.00    -0.203 F 
ATOM     82  C   UNL A   1      37.753  32.181  37.973  1.00  0.00     0.198 A 
ATOM     83  C   UNL A   1      38.957  34.093  37.160  1.00  0.00     0.198 A 
ATOM     84  F   UNL A   1      40.132  33.966  35.127  1.00  0.00    -0.203 F 
ATOM     85  F   UNL A   1      36.951  31.618  38.887  1.00  0.00    -0.200 F 
ATOM     86  C   UNL A   1      38.149  33.503  38.120  1.00  0.00     0.200 A 
ATOM     87  F   UNL A   1      39.350  35.366  37.306  1.00  0.00    -0.200 F 
ATOM     88  F   UNL A   1      37.745  34.211  39.185  1.00  0.00    -0.200 F 
ENDBRANCH  55  78
ENDBRANCH  29  30
ENDBRANCH  22  24
ENDBRANCH  21  22
ENDBRANCH  20  21
ENDBRANCH  19  20
ENDBRANCH   1  19
TORSDOF 16
ENDMDL
MODEL 2
REMARK VINA RESULT:     -10.9      5.073      9.233
REMARK SMILES CN(C)c1cccc(C(C)(C)C(=O)OCCOCCOC(=O)c2ccc(-c3c4nc(c(-c5c(F)c(F)c(F)c(F)c5F)c5ccc([nH]5)c(-c5c(F)c(F)c(F)c(F)c5F)c5nc(c(-c6c(F)c(F)c(F)c(F)c6F)c6ccc3[nH]6)C=C5)C=C4)cc2)c1
REMARK SMILES IDX 17 1 16 2 15 3 14 4 12 5 13 6 9 7 10 8 11 9 8 10 4 11 5 12
REMARK SMILES IDX 86 13 6 14 7 15 2 16 1 17 3 18 18 19 19 20 20 21 21 22 22 23
REMARK SMILES IDX 23 24 24 25 85 26 25 27 84 28 26 29 27 30 28 31 78 32 29 33
REMARK SMILES IDX 83 34 77 35 79 36 30 37 82 38 76 39 75 40 31 42 63 43 43 44
REMARK SMILES IDX 62 45 44 46 47 47 61 48 80 49 45 50 46 51 60 53 81 54 48 55
REMARK SMILES IDX 32 56 33 57 41 58 34 59 35 60 39 61 42 62 36 63 37 64 40 65
REMARK SMILES IDX 38 66 64 67 65 68 73 69 66 70 67 71 71 72 74 73 68 74 69 75
REMARK SMILES IDX 72 76 70 77 49 78 50 79 58 80 51 81 52 82 56 83 59 84 53 85
REMARK SMILES IDX 54 86 57 87 55 88
REMARK H PARENT 79 41 47 52
REMARK Flexibility Score: inf
ROOT
ATOM      1  O   UNL A   1      37.274  21.284  25.441  1.00  0.00    -0.374 OA
ENDROOT
BRANCH   1   2
ATOM      2  C   UNL A   1      37.276  22.449  24.616  1.00  0.00     0.202 C 
BRANCH   2   3
ATOM      3  C   UNL A   1      35.923  23.131  24.395  1.00  0.00     0.261 C 
BRANCH   3   4
ATOM      4  O   UNL A   1      34.907  22.174  24.058  1.00  0.00    -0.463 OA
BRANCH   4   5
ATOM      5  C   UNL A   1      33.966  21.958  25.019  1.00  0.00     0.316 C 
ATOM      6  O   UNL A   1      34.158  22.162  26.214  1.00  0.00    -0.251 OA
BRANCH   5   7
ATOM      7  C   UNL A   1      32.618  21.466  24.445  1.00  0.00     0.087 C 
ATOM      8  C   UNL A   1      32.362  22.412  23.249  1.00  0.00     0.028 C 
ATOM      9  C   UNL A   1      31.436  21.635  25.425  1.00  0.00     0.028 C 
BRANCH   7  10
ATOM     10  C   UNL A   1      32.679  19.986  24.000  1.00  0.00    -0.029 A 
ATOM     11  C   UNL A   1      33.201  17.608  24.466  1.00  0.00     0.036 A 
ATOM     12  C   UNL A   1      32.818  17.301  23.156  1.00  0.00     0.026 A 
ATOM     13  C   UNL A   1      33.112  18.955  24.867  1.00  0.00     0.030 A 
ATOM     14  C   UNL A   1      32.348  18.286  22.289  1.00  0.00     0.002 A 
ATOM     15  C   UNL A   1      32.274  19.614  22.708  1.00  0.00     0.005 A 
BRANCH  11  16
ATOM     16  N   UNL A   1      33.668  16.601  25.308  1.00  0.00    -0.378 N 
ATOM     17  C   UNL A   1      35.060  16.181  25.249  1.00  0.00     0.143 C 
ATOM     18  C   UNL A   1      32.683  15.612  25.735  1.00  0.00     0.143 C 
ENDBRANCH  11  16
ENDBRANCH   7  10
ENDBRANCH   5   7
ENDBRANCH   4   5
ENDBRANCH   3   4
ENDBRANCH   2   3
ENDBRANCH   1   2
BRANCH   1  19
ATOM     19  C   UNL A   1      37.829  20.088  24.891  1.00  0.00     0.202 C 
BRANCH  19  20
ATOM     20  C   UNL A   1      39.102  19.539  25.545  1.00  0.00     0.261 C 
BRANCH  20  21
ATOM     21  O   UNL A   1      40.066  20.571  25.827  1.00  0.00    -0.460 OA
BRANCH  21  22
ATOM     22  C   UNL A   1      40.517  20.591  27.102  1.00  0.00     0.338 C 
ATOM     23  O   UNL A   1      40.773  19.628  27.816  1.00  0.00    -0.246 OA
BRANCH  22  24
ATOM     24  C   UNL A   1      40.848  21.966  27.507  1.00  0.00     0.060 A 
ATOM     25  C   UNL A   1      40.259  23.011  26.782  1.00  0.00     0.016 A 
ATOM     26  C   UNL A   1      41.789  22.235  28.503  1.00  0.00     0.016 A 
ATOM     27  C   UNL A   1      40.648  24.327  27.013  1.00  0.00     0.010 A 
ATOM     28  C   UNL A   1      42.187  23.557  28.726  1.00  0.00     0.010 A 
ATOM     29  C   UNL A   1      41.647  24.603  27.955  1.00  0.00    -0.014 A 
BRANCH  29  30
ATOM     30  C   UNL A   1      42.237  25.963  28.006  1.00  0.00     0.031 A 
ATOM     31  C   UNL A   1      41.487  27.053  28.718  1.00  0.00     0.074 A 
ATOM     32  C   UNL A   1      43.442  26.210  27.466  1.00  0.00     0.049 A 
ATOM     33  N   UNL A   1      41.805  28.312  28.884  1.00  0.00    -0.248 NA
ATOM     34  C   UNL A   1      40.202  26.673  29.329  1.00  0.00     0.031 C 
ATOM     35  C   UNL A   1      44.282  25.225  26.791  1.00  0.00     0.029 A 
ATOM     36  N   UNL A   1      44.166  27.375  27.402  1.00  0.00    -0.354 N 
ATOM     37  C   UNL A   1      40.762  28.873  29.610  1.00  0.00     0.074 A 
ATOM     38  C   UNL A   1      39.788  27.827  29.830  1.00  0.00     0.031 C 
ATOM     39  C   UNL A   1      45.410  25.827  26.375  1.00  0.00     0.029 A 
ATOM     40  C   UNL A   1      45.355  27.244  26.729  1.00  0.00     0.049 A 
ATOM     41  H   UNL A   1      43.862  28.221  27.801  1.00  0.00     0.167 HD
ATOM     42  C   UNL A   1      40.635  30.144  30.060  1.00  0.00     0.037 A 
ATOM     43  C   UNL A   1      46.284  28.171  26.423  1.00  0.00     0.037 A 
ATOM     44  C   UNL A   1      41.608  31.182  29.844  1.00  0.00     0.049 A 
ATOM     45  C   UNL A   1      46.082  29.596  26.871  1.00  0.00     0.074 A 
ATOM     46  C   UNL A   1      41.584  32.493  30.283  1.00  0.00     0.029 A 
ATOM     47  N   UNL A   1      42.781  31.023  29.120  1.00  0.00    -0.354 N 
ATOM     48  N   UNL A   1      45.109  30.112  27.582  1.00  0.00    -0.248 NA
ATOM     49  C   UNL A   1      47.111  30.567  26.473  1.00  0.00     0.031 C 
ATOM     50  C   UNL A   1      42.717  33.142  29.780  1.00  0.00     0.029 A 
ATOM     51  C   UNL A   1      43.473  32.222  29.072  1.00  0.00     0.049 A 
ATOM     52  H   UNL A   1      43.076  30.182  28.700  1.00  0.00     0.167 HD
ATOM     53  C   UNL A   1      45.421  31.455  27.743  1.00  0.00     0.074 A 
ATOM     54  C   UNL A   1      46.681  31.674  27.062  1.00  0.00     0.031 C 
ATOM     55  C   UNL A   1      44.730  32.420  28.397  1.00  0.00     0.037 A 
BRANCH  42  56
ATOM     56  C   UNL A   1      39.380  30.490  30.806  1.00  0.00     0.064 A 
ATOM     57  C   UNL A   1      38.241  30.979  30.150  1.00  0.00     0.173 A 
ATOM     58  C   UNL A   1      39.308  30.301  32.195  1.00  0.00     0.173 A 
ATOM     59  F   UNL A   1      38.264  31.190  28.825  1.00  0.00    -0.203 F 
ATOM     60  C   UNL A   1      37.086  31.292  30.861  1.00  0.00     0.198 A 
ATOM     61  C   UNL A   1      38.142  30.590  32.898  1.00  0.00     0.198 A 
ATOM     62  F   UNL A   1      40.368  29.832  32.869  1.00  0.00    -0.203 F 
ATOM     63  F   UNL A   1      36.025  31.802  30.219  1.00  0.00    -0.200 F 
ATOM     64  C   UNL A   1      37.035  31.092  32.232  1.00  0.00     0.200 A 
ATOM     65  F   UNL A   1      38.092  30.386  34.222  1.00  0.00    -0.200 F 
ATOM     66  F   UNL A   1      35.920  31.390  32.914  1.00  0.00    -0.200 F 
ENDBRANCH  42  56
BRANCH  43  67
ATOM     67  C   UNL A   1      47.489  27.786  25.644  1.00  0.00     0.064 A 
ATOM     68  C   UNL A   1      48.688  27.451  26.287  1.00  0.00     0.173 A 
ATOM     69  C   UNL A   1      47.470  27.759  24.242  1.00  0.00     0.173 A 
ATOM     70  F   UNL A   1      48.762  27.487  27.625  1.00  0.00    -0.203 F 
ATOM     71  C   UNL A   1      49.828  27.121  25.556  1.00  0.00     0.198 A 
ATOM     72  C   UNL A   1      48.603  27.403  23.513  1.00  0.00     0.198 A 
ATOM     73  F   UNL A   1      46.348  28.075  23.579  1.00  0.00    -0.203 F 
ATOM     74  F   UNL A   1      50.974  26.848  26.195  1.00  0.00    -0.200 F 
ATOM     75  C   UNL A   1      49.782  27.092  24.170  1.00  0.00     0.200 A 
ATOM     76  F   UNL A   1      48.552  27.367  22.174  1.00  0.00    -0.200 F 
ATOM     77  F   UNL A   1      50.879  26.772  23.469  1.00  0.00    -0.200 F 
ENDBRANCH  43  67
BRANCH  55  78
ATOM     78  C   UNL A   1      45.335  33.793  28.440  1.00  0.00     0.064 A 
ATOM     79  C   UNL A   1      46.262  34.159  29.426  1.00  0.00     0.173 A 
ATOM     80  C   UNL A   1      45.013  34.741  27.456  1.00  0.00     0.173 A 
ATOM     81  F   UNL A   1      46.592  33.293  30.396  1.00  0.00    -0.203 F 
ATOM     82  C   UNL A   1      46.828  35.430  29.439  1.00  0.00     0.198 A 
ATOM     83  C   UNL A   1      45.602  36.002  27.455  1.00  0.00     0.198 A 
ATOM     84  F   UNL A   1      44.135  34.438  26.487  1.00  0.00    -0.203 F 
ATOM     85  F   UNL A   1      47.680  35.773  30.415  1.00  0.00    -0.200 F 
ATOM     86  C   UNL A   1      46.504  36.348  28.450  1.00  0.00     0.200 A 
ATOM     87  F   UNL A   1      45.296  36.883  26.493  1.00  0.00    -0.200 F 
ATOM     88  F   UNL A   1      47.056  37.570  28.460  1.00  0.00    -0.200 F 
ENDBRANCH  55  78
ENDBRANCH  29  30
ENDBRANCH  22  24
ENDBRANCH  21  22
ENDBRANCH  20  21
ENDBRANCH  19  20
ENDBRANCH   1  19
TORSDOF 16
ENDMDL
MODEL 3
REMARK VINA RESULT:     -10.9      4.901      7.404
REMARK SMILES CN(C)c1cccc(C(C)(C)C(=O)OCCOCCOC(=O)c2ccc(-c3c4nc(c(-c5c(F)c(F)c(F)c(F)c5F)c5ccc([nH]5)c(-c5c(F)c(F)c(F)c(F)c5F)c5nc(c(-c6c(F)c(F)c(F)c(F)c6F)c6ccc3[nH]6)C=C5)C=C4)cc2)c1
REMARK SMILES IDX 17 1 16 2 15 3 14 4 12 5 13 6 9 7 10 8 11 9 8 10 4 11 5 12
REMARK SMILES IDX 86 13 6 14 7 15 2 16 1 17 3 18 18 19 19 20 20 21 21 22 22 23
REMARK SMILES IDX 23 24 24 25 85 26 25 27 84 28 26 29 27 30 28 31 78 32 29 33
REMARK SMILES IDX 83 34 77 35 79 36 30 37 82 38 76 39 75 40 31 42 63 43 43 44
REMARK SMILES IDX 62 45 44 46 47 47 61 48 80 49 45 50 46 51 60 53 81 54 48 55
REMARK SMILES IDX 32 56 33 57 41 58 34 59 35 60 39 61 42 62 36 63 37 64 40 65
REMARK SMILES IDX 38 66 64 67 65 68 73 69 66 70 67 71 71 72 74 73 68 74 69 75
REMARK SMILES IDX 72 76 70 77 49 78 50 79 58 80 51 81 52 82 56 83 59 84 53 85
REMARK SMILES IDX 54 86 57 87 55 88
REMARK H PARENT 79 41 47 52
REMARK Flexibility Score: inf
ROOT
ATOM      1  O   UNL A   1      37.882  21.361  24.947  1.00  0.00    -0.374 OA
ENDROOT
BRANCH   1   2
ATOM      2  C   UNL A   1      36.772  21.840  24.188  1.00  0.00     0.202 C 
BRANCH   2   3
ATOM      3  C   UNL A   1      36.013  23.037  24.769  1.00  0.00     0.261 C 
BRANCH   3   4
ATOM      4  O   UNL A   1      34.612  22.961  24.464  1.00  0.00    -0.463 OA
BRANCH   4   5
ATOM      5  C   UNL A   1      33.882  22.141  25.270  1.00  0.00     0.316 C 
ATOM      6  O   UNL A   1      34.227  21.823  26.405  1.00  0.00    -0.251 OA
BRANCH   5   7
ATOM      7  C   UNL A   1      32.556  21.681  24.624  1.00  0.00     0.087 C 
ATOM      8  C   UNL A   1      32.340  22.691  23.473  1.00  0.00     0.028 C 
ATOM      9  C   UNL A   1      31.340  21.795  25.569  1.00  0.00     0.028 C 
BRANCH   7  10
ATOM     10  C   UNL A   1      32.636  20.228  24.100  1.00  0.00    -0.029 A 
ATOM     11  C   UNL A   1      33.161  17.829  24.447  1.00  0.00     0.036 A 
ATOM     12  C   UNL A   1      32.811  17.593  23.114  1.00  0.00     0.026 A 
ATOM     13  C   UNL A   1      33.055  19.152  24.919  1.00  0.00     0.030 A 
ATOM     14  C   UNL A   1      32.354  18.621  22.292  1.00  0.00     0.002 A 
ATOM     15  C   UNL A   1      32.263  19.924  22.780  1.00  0.00     0.005 A 
BRANCH  11  16
ATOM     16  N   UNL A   1      33.614  16.780  25.245  1.00  0.00    -0.378 N 
ATOM     17  C   UNL A   1      34.956  16.247  25.063  1.00  0.00     0.143 C 
ATOM     18  C   UNL A   1      32.591  15.873  25.754  1.00  0.00     0.143 C 
ENDBRANCH  11  16
ENDBRANCH   7  10
ENDBRANCH   5   7
ENDBRANCH   4   5
ENDBRANCH   3   4
ENDBRANCH   2   3
ENDBRANCH   1   2
BRANCH   1  19
ATOM     19  C   UNL A   1      38.076  19.947  25.005  1.00  0.00     0.202 C 
BRANCH  19  20
ATOM     20  C   UNL A   1      39.331  19.439  25.725  1.00  0.00     0.261 C 
BRANCH  20  21
ATOM     21  O   UNL A   1      40.342  20.456  25.853  1.00  0.00    -0.460 OA
BRANCH  21  22
ATOM     22  C   UNL A   1      40.968  20.483  27.051  1.00  0.00     0.338 C 
ATOM     23  O   UNL A   1      41.484  19.542  27.643  1.00  0.00    -0.246 OA
BRANCH  22  24
ATOM     24  C   UNL A   1      41.123  21.870  27.517  1.00  0.00     0.060 A 
ATOM     25  C   UNL A   1      40.456  22.870  26.797  1.00  0.00     0.016 A 
ATOM     26  C   UNL A   1      41.979  22.203  28.569  1.00  0.00     0.016 A 
ATOM     27  C   UNL A   1      40.683  24.211  27.091  1.00  0.00     0.010 A 
ATOM     28  C   UNL A   1      42.215  23.552  28.855  1.00  0.00     0.010 A 
ATOM     29  C   UNL A   1      41.599  24.561  28.092  1.00  0.00    -0.014 A 
BRANCH  29  30
ATOM     30  C   UNL A   1      42.029  25.974  28.217  1.00  0.00     0.031 A 
ATOM     31  C   UNL A   1      43.348  26.386  27.625  1.00  0.00     0.074 A 
ATOM     32  C   UNL A   1      41.238  26.884  28.809  1.00  0.00     0.049 A 
ATOM     33  N   UNL A   1      43.927  27.560  27.619  1.00  0.00    -0.248 NA
ATOM     34  C   UNL A   1      44.119  25.332  26.946  1.00  0.00     0.031 C 
ATOM     35  C   UNL A   1      39.920  26.613  29.378  1.00  0.00     0.029 A 
ATOM     36  N   UNL A   1      41.432  28.226  29.027  1.00  0.00    -0.354 N 
ATOM     37  C   UNL A   1      45.128  27.385  26.944  1.00  0.00     0.074 A 
ATOM     38  C   UNL A   1      45.210  25.988  26.579  1.00  0.00     0.031 C 
ATOM     39  C   UNL A   1      39.423  27.755  29.887  1.00  0.00     0.029 A 
ATOM     40  C   UNL A   1      40.401  28.826  29.705  1.00  0.00     0.049 A 
ATOM     41  H   UNL A   1      42.235  28.710  28.727  1.00  0.00     0.167 HD
ATOM     42  C   UNL A   1      46.073  28.309  26.648  1.00  0.00     0.037 A 
ATOM     43  C   UNL A   1      40.273  30.094  30.140  1.00  0.00     0.037 A 
ATOM     44  C   UNL A   1      45.987  29.700  27.007  1.00  0.00     0.049 A 
ATOM     45  C   UNL A   1      41.372  31.086  29.862  1.00  0.00     0.074 A 
ATOM     46  C   UNL A   1      46.879  30.720  26.729  1.00  0.00     0.029 A 
ATOM     47  N   UNL A   1      44.947  30.263  27.732  1.00  0.00    -0.354 N 
ATOM     48  N   UNL A   1      42.491  30.920  29.198  1.00  0.00    -0.248 NA
ATOM     49  C   UNL A   1      41.190  32.444  30.396  1.00  0.00     0.031 C 
ATOM     50  C   UNL A   1      46.403  31.891  27.330  1.00  0.00     0.029 A 
ATOM     51  C   UNL A   1      45.190  31.611  27.938  1.00  0.00     0.049 A 
ATOM     52  H   UNL A   1      44.153  29.776  28.054  1.00  0.00     0.167 HD
ATOM     53  C   UNL A   1      43.129  32.154  29.207  1.00  0.00     0.074 A 
ATOM     54  C   UNL A   1      42.268  33.063  29.936  1.00  0.00     0.031 C 
ATOM     55  C   UNL A   1      44.318  32.504  28.659  1.00  0.00     0.037 A 
BRANCH  42  56
ATOM     56  C   UNL A   1      47.298  27.837  25.922  1.00  0.00     0.064 A 
ATOM     57  C   UNL A   1      48.462  27.458  26.606  1.00  0.00     0.173 A 
ATOM     58  C   UNL A   1      47.296  27.734  24.522  1.00  0.00     0.173 A 
ATOM     59  F   UNL A   1      48.519  27.551  27.943  1.00  0.00    -0.203 F 
ATOM     60  C   UNL A   1      49.588  27.020  25.914  1.00  0.00     0.198 A 
ATOM     61  C   UNL A   1      48.414  27.270  23.835  1.00  0.00     0.198 A 
ATOM     62  F   UNL A   1      46.206  28.080  23.821  1.00  0.00    -0.203 F 
ATOM     63  F   UNL A   1      50.705  26.707  26.586  1.00  0.00    -0.200 F 
ATOM     64  C   UNL A   1      49.561  26.920  24.531  1.00  0.00     0.200 A 
ATOM     65  F   UNL A   1      48.383  27.165  22.499  1.00  0.00    -0.200 F 
ATOM     66  F   UNL A   1      50.645  26.494  23.867  1.00  0.00    -0.200 F 
ENDBRANCH  42  56
BRANCH  43  67
ATOM     67  C   UNL A   1      39.058  30.501  30.893  1.00  0.00     0.064 A 
ATOM     68  C   UNL A   1      37.917  30.967  30.225  1.00  0.00     0.173 A 
ATOM     69  C   UNL A   1      39.018  30.448  32.293  1.00  0.00     0.173 A 
ATOM     70  F   UNL A   1      37.916  31.061  28.887  1.00  0.00    -0.203 F 
ATOM     71  C   UNL A   1      36.789  31.380  30.931  1.00  0.00     0.198 A 
ATOM     72  C   UNL A   1      37.881  30.836  32.998  1.00  0.00     0.198 A 
ATOM     73  F   UNL A   1      40.086  30.013  32.979  1.00  0.00    -0.203 F 
ATOM     74  F   UNL A   1      35.727  31.863  30.271  1.00  0.00    -0.200 F 
ATOM     75  C   UNL A   1      36.770  31.308  32.316  1.00  0.00     0.200 A 
ATOM     76  F   UNL A   1      37.863  30.756  34.335  1.00  0.00    -0.200 F 
ATOM     77  F   UNL A   1      35.683  31.703  32.995  1.00  0.00    -0.200 F 
ENDBRANCH  43  67
BRANCH  55  78
ATOM     78  C   UNL A   1      44.745  33.936  28.794  1.00  0.00     0.064 A 
ATOM     79  C   UNL A   1      44.437  34.892  27.816  1.00  0.00     0.173 A 
ATOM     80  C   UNL A   1      45.436  34.365  29.938  1.00  0.00     0.173 A 
ATOM     81  F   UNL A   1      43.792  34.529  26.697  1.00  0.00    -0.203 F 
ATOM     82  C   UNL A   1      44.824  36.220  27.967  1.00  0.00     0.198 A 
ATOM     83  C   UNL A   1      45.796  35.700  30.100  1.00  0.00     0.198 A 
ATOM     84  F   UNL A   1      45.748  33.491  30.907  1.00  0.00    -0.203 F 
ATOM     85  F   UNL A   1      44.557  37.109  26.999  1.00  0.00    -0.200 F 
ATOM     86  C   UNL A   1      45.496  36.625  29.111  1.00  0.00     0.200 A 
ATOM     87  F   UNL A   1      46.434  36.090  31.211  1.00  0.00    -0.200 F 
ATOM     88  F   UNL A   1      45.861  37.906  29.258  1.00  0.00    -0.200 F 
ENDBRANCH  55  78
ENDBRANCH  29  30
ENDBRANCH  22  24
ENDBRANCH  21  22
ENDBRANCH  20  21
ENDBRANCH  19  20
ENDBRANCH   1  19
TORSDOF 16
ENDMDL
