MODEL 1
REMARK VINA RESULT:     -11.9      0.000      0.000
REMARK SMILES COc1ccc(/C=C/C(=O)OCCOCCOC(=O)c2ccc(-c3c4nc(c(-c5c(F)c(F)c(F)c(F)c5F)c5ccc([nH]5)c(-c5c(F)c(F)c(F)c(F)c5F)c5nc(c(-c6c(F)c(F)c(F)c(F)c6F)c6ccc3[nH]6)C=C5)C=C4)cc2)cc1S(=O)(=O)Nc1ccc(F)cc1F
REMARK SMILES IDX 13 1 12 2 11 3 9 4 10 5 8 6 7 7 6 8 3 9 4 10 84 11 5 12
REMARK SMILES IDX 83 13 2 14 1 15 85 16 86 17 87 18 88 19 89 21 90 22 95 23
REMARK SMILES IDX 91 24 94 25 96 26 92 27 93 28 14 29 15 30 16 31 17 32 18 33
REMARK SMILES IDX 19 34 20 35 21 36 82 37 22 38 81 39 23 40 24 41 25 42 75 43
REMARK SMILES IDX 26 44 80 45 74 46 76 47 27 48 79 49 73 50 72 51 28 53 60 54
REMARK SMILES IDX 40 55 59 56 41 57 44 58 58 59 77 60 42 61 43 62 57 64 78 65
REMARK SMILES IDX 45 66 29 67 30 68 38 69 31 70 32 71 36 72 39 73 33 74 34 75
REMARK SMILES IDX 37 76 35 77 61 78 62 79 70 80 63 81 64 82 68 83 71 84 65 85
REMARK SMILES IDX 66 86 69 87 67 88 46 89 47 90 55 91 48 92 49 93 53 94 56 95
REMARK SMILES IDX 50 96 51 97 54 98 52 99
REMARK H PARENT 88 20 76 52 44 63
REMARK Flexibility Score: inf
ROOT
ATOM      1  C   UNL A   1      42.335  20.683  26.897  1.00  0.00     0.202 C 
ENDROOT
BRANCH   1   2
ATOM      2  C   UNL A   1      40.912  21.082  27.290  1.00  0.00     0.261 C 
BRANCH   2   3
ATOM      3  O   UNL A   1      40.151  21.557  26.167  1.00  0.00    -0.460 OA
BRANCH   3   4
ATOM      4  C   UNL A   1      39.350  20.618  25.615  1.00  0.00     0.330 C 
ATOM      5  O   UNL A   1      39.580  19.419  25.534  1.00  0.00    -0.247 OA
BRANCH   4   6
ATOM      6  C   UNL A   1      38.067  21.153  25.133  1.00  0.00     0.094 C 
ATOM      7  C   UNL A   1      37.135  21.891  25.761  1.00  0.00     0.015 C 
BRANCH   7   8
ATOM      8  C   UNL A   1      35.950  22.308  24.987  1.00  0.00    -0.024 A 
ATOM      9  C   UNL A   1      33.872  23.730  23.785  1.00  0.00     0.139 A 
ATOM     10  C   UNL A   1      35.085  23.575  23.117  1.00  0.00     0.048 A 
ATOM     11  C   UNL A   1      33.596  22.944  24.898  1.00  0.00     0.130 A 
ATOM     12  C   UNL A   1      36.107  22.837  23.699  1.00  0.00     0.012 A 
ATOM     13  C   UNL A   1      34.662  22.270  25.534  1.00  0.00     0.034 A 
BRANCH   9  14
ATOM     14  O   UNL A   1      33.054  24.684  23.260  1.00  0.00    -0.495 OA
ATOM     15  C   UNL A   1      32.842  24.462  21.864  1.00  0.00     0.278 C 
ENDBRANCH   9  14
BRANCH  11  16
ATOM     16  S   UNL A   1      31.975  22.622  25.554  1.00  0.00     0.265 S 
ATOM     17  O   UNL A   1      31.947  23.152  26.901  1.00  0.00    -0.201 OA
ATOM     18  O   UNL A   1      31.054  23.137  24.557  1.00  0.00    -0.201 OA
BRANCH  16  19
ATOM     19  N   UNL A   1      31.612  20.989  25.623  1.00  0.00    -0.277 N 
ATOM     20  H   UNL A   1      30.882  20.724  26.228  1.00  0.00     0.180 HD
BRANCH  19  21
ATOM     21  C   UNL A   1      32.255  19.945  24.895  1.00  0.00     0.085 A 
ATOM     22  C   UNL A   1      32.770  18.894  25.671  1.00  0.00     0.033 A 
ATOM     23  C   UNL A   1      32.291  19.833  23.498  1.00  0.00     0.150 A 
ATOM     24  C   UNL A   1      33.163  17.698  25.067  1.00  0.00     0.041 A 
ATOM     25  C   UNL A   1      32.686  18.642  22.891  1.00  0.00     0.080 A 
ATOM     26  F   UNL A   1      31.840  20.817  22.711  1.00  0.00    -0.205 F 
ATOM     27  C   UNL A   1      33.088  17.575  23.685  1.00  0.00     0.126 A 
ATOM     28  F   UNL A   1      33.387  16.402  23.115  1.00  0.00    -0.207 F 
ENDBRANCH  19  21
ENDBRANCH  16  19
ENDBRANCH  11  16
ENDBRANCH   7   8
ENDBRANCH   4   6
ENDBRANCH   3   4
ENDBRANCH   2   3
ENDBRANCH   1   2
BRANCH   1  29
ATOM     29  O   UNL A   1      42.673  20.775  25.517  1.00  0.00    -0.374 OA
BRANCH  29  30
ATOM     30  C   UNL A   1      44.002  21.176  25.180  1.00  0.00     0.202 C 
BRANCH  30  31
ATOM     31  C   UNL A   1      44.150  22.393  24.256  1.00  0.00     0.261 C 
BRANCH  31  32
ATOM     32  O   UNL A   1      43.387  23.526  24.711  1.00  0.00    -0.460 OA
BRANCH  32  33
ATOM     33  C   UNL A   1      44.123  24.600  25.080  1.00  0.00     0.338 C 
ATOM     34  O   UNL A   1      45.191  24.969  24.607  1.00  0.00    -0.246 OA
BRANCH  33  35
ATOM     35  C   UNL A   1      43.369  25.424  26.039  1.00  0.00     0.060 A 
ATOM     36  C   UNL A   1      43.699  26.783  26.134  1.00  0.00     0.016 A 
ATOM     37  C   UNL A   1      42.416  24.863  26.890  1.00  0.00     0.016 A 
ATOM     38  C   UNL A   1      43.105  27.579  27.110  1.00  0.00     0.010 A 
ATOM     39  C   UNL A   1      41.828  25.661  27.878  1.00  0.00     0.010 A 
ATOM     40  C   UNL A   1      42.196  27.013  28.013  1.00  0.00    -0.014 A 
BRANCH  40  41
ATOM     41  C   UNL A   1      41.734  27.802  29.179  1.00  0.00     0.031 A 
ATOM     42  C   UNL A   1      42.448  27.652  30.492  1.00  0.00     0.074 A 
ATOM     43  C   UNL A   1      40.698  28.651  29.067  1.00  0.00     0.049 A 
ATOM     44  N   UNL A   1      42.193  28.214  31.647  1.00  0.00    -0.248 NA
ATOM     45  C   UNL A   1      43.602  26.741  30.507  1.00  0.00     0.031 C 
ATOM     46  C   UNL A   1      39.941  28.896  27.842  1.00  0.00     0.029 A 
ATOM     47  N   UNL A   1      40.096  29.450  30.005  1.00  0.00    -0.354 N 
ATOM     48  C   UNL A   1      43.146  27.716  32.526  1.00  0.00     0.074 A 
ATOM     49  C   UNL A   1      43.966  26.786  31.780  1.00  0.00     0.031 C 
ATOM     50  C   UNL A   1      38.956  29.770  28.109  1.00  0.00     0.029 A 
ATOM     51  C   UNL A   1      38.999  30.122  29.528  1.00  0.00     0.049 A 
ATOM     52  H   UNL A   1      40.419  29.533  30.932  1.00  0.00     0.167 HD
ATOM     53  C   UNL A   1      43.324  28.013  33.836  1.00  0.00     0.037 A 
ATOM     54  C   UNL A   1      38.116  30.910  30.169  1.00  0.00     0.037 A 
ATOM     55  C   UNL A   1      42.506  28.940  34.574  1.00  0.00     0.049 A 
ATOM     56  C   UNL A   1      38.304  31.194  31.636  1.00  0.00     0.074 A 
ATOM     57  C   UNL A   1      42.633  29.346  35.891  1.00  0.00     0.029 A 
ATOM     58  N   UNL A   1      41.397  29.597  34.060  1.00  0.00    -0.354 N 
ATOM     59  N   UNL A   1      39.237  30.759  32.450  1.00  0.00    -0.248 NA
ATOM     60  C   UNL A   1      37.323  32.084  32.271  1.00  0.00     0.031 C 
ATOM     61  C   UNL A   1      41.569  30.204  36.190  1.00  0.00     0.029 A 
ATOM     62  C   UNL A   1      40.811  30.379  35.042  1.00  0.00     0.049 A 
ATOM     63  H   UNL A   1      41.075  29.520  33.132  1.00  0.00     0.167 HD
ATOM     64  C   UNL A   1      38.968  31.336  33.684  1.00  0.00     0.074 A 
ATOM     65  C   UNL A   1      37.793  32.165  33.509  1.00  0.00     0.031 C 
ATOM     66  C   UNL A   1      39.636  31.194  34.856  1.00  0.00     0.037 A 
BRANCH  53  67
ATOM     67  C   UNL A   1      44.426  27.298  34.561  1.00  0.00     0.064 A 
ATOM     68  C   UNL A   1      45.724  27.824  34.642  1.00  0.00     0.173 A 
ATOM     69  C   UNL A   1      44.177  26.070  35.192  1.00  0.00     0.173 A 
ATOM     70  F   UNL A   1      46.019  28.990  34.046  1.00  0.00    -0.203 F 
ATOM     71  C   UNL A   1      46.739  27.131  35.298  1.00  0.00     0.198 A 
ATOM     72  C   UNL A   1      45.187  25.393  35.872  1.00  0.00     0.198 A 
ATOM     73  F   UNL A   1      42.952  25.523  35.150  1.00  0.00    -0.203 F 
ATOM     74  F   UNL A   1      47.985  27.627  35.314  1.00  0.00    -0.200 F 
ATOM     75  C   UNL A   1      46.469  25.920  35.915  1.00  0.00     0.200 A 
ATOM     76  F   UNL A   1      44.921  24.229  36.478  1.00  0.00    -0.200 F 
ATOM     77  F   UNL A   1      47.447  25.254  36.544  1.00  0.00    -0.200 F 
ENDBRANCH  53  67
BRANCH  54  78
ATOM     78  C   UNL A   1      36.960  31.470  29.423  1.00  0.00     0.064 A 
ATOM     79  C   UNL A   1      35.877  30.665  29.046  1.00  0.00     0.173 A 
ATOM     80  C   UNL A   1      36.910  32.832  29.089  1.00  0.00     0.173 A 
ATOM     81  F   UNL A   1      35.892  29.353  29.323  1.00  0.00    -0.203 F 
ATOM     82  C   UNL A   1      34.792  31.199  28.355  1.00  0.00     0.198 A 
ATOM     83  C   UNL A   1      35.812  33.370  28.420  1.00  0.00     0.198 A 
ATOM     84  F   UNL A   1      37.922  33.644  29.427  1.00  0.00    -0.203 F 
ATOM     85  F   UNL A   1      33.785  30.401  27.976  1.00  0.00    -0.200 F 
ATOM     86  C   UNL A   1      34.756  32.552  28.051  1.00  0.00     0.200 A 
ATOM     87  F   UNL A   1      35.777  34.679  28.140  1.00  0.00    -0.200 F 
ATOM     88  F   UNL A   1      33.706  33.066  27.396  1.00  0.00    -0.200 F 
ENDBRANCH  54  78
BRANCH  66  89
ATOM     89  C   UNL A   1      39.128  31.968  36.038  1.00  0.00     0.064 A 
ATOM     90  C   UNL A   1      39.521  33.293  36.276  1.00  0.00     0.173 A 
ATOM     91  C   UNL A   1      38.200  31.391  36.919  1.00  0.00     0.173 A 
ATOM     92  F   UNL A   1      40.416  33.886  35.472  1.00  0.00    -0.203 F 
ATOM     93  C   UNL A   1      39.023  34.003  37.366  1.00  0.00     0.198 A 
ATOM     94  C   UNL A   1      37.681  32.113  37.990  1.00  0.00     0.198 A 
ATOM     95  F   UNL A   1      37.785  30.128  36.733  1.00  0.00    -0.203 F 
ATOM     96  F   UNL A   1      39.447  35.252  37.599  1.00  0.00    -0.200 F 
ATOM     97  C   UNL A   1      38.098  33.416  38.216  1.00  0.00     0.200 A 
ATOM     98  F   UNL A   1      36.778  31.549  38.803  1.00  0.00    -0.200 F 
ATOM     99  F   UNL A   1      37.613  34.104  39.260  1.00  0.00    -0.200 F 
ENDBRANCH  66  89
ENDBRANCH  40  41
ENDBRANCH  33  35
ENDBRANCH  32  33
ENDBRANCH  31  32
ENDBRANCH  30  31
ENDBRANCH  29  30
ENDBRANCH   1  29
TORSDOF 19
ENDMDL
MODEL 2
REMARK VINA RESULT:     -11.9      4.525      7.663
REMARK SMILES COc1ccc(/C=C/C(=O)OCCOCCOC(=O)c2ccc(-c3c4nc(c(-c5c(F)c(F)c(F)c(F)c5F)c5ccc([nH]5)c(-c5c(F)c(F)c(F)c(F)c5F)c5nc(c(-c6c(F)c(F)c(F)c(F)c6F)c6ccc3[nH]6)C=C5)C=C4)cc2)cc1S(=O)(=O)Nc1ccc(F)cc1F
REMARK SMILES IDX 13 1 12 2 11 3 9 4 10 5 8 6 7 7 6 8 3 9 4 10 84 11 5 12
REMARK SMILES IDX 83 13 2 14 1 15 85 16 86 17 87 18 88 19 89 21 90 22 95 23
REMARK SMILES IDX 91 24 94 25 96 26 92 27 93 28 14 29 15 30 16 31 17 32 18 33
REMARK SMILES IDX 19 34 20 35 21 36 82 37 22 38 81 39 23 40 24 41 25 42 75 43
REMARK SMILES IDX 26 44 80 45 74 46 76 47 27 48 79 49 73 50 72 51 28 53 60 54
REMARK SMILES IDX 40 55 59 56 41 57 44 58 58 59 77 60 42 61 43 62 57 64 78 65
REMARK SMILES IDX 45 66 29 67 30 68 38 69 31 70 32 71 36 72 39 73 33 74 34 75
REMARK SMILES IDX 37 76 35 77 61 78 62 79 70 80 63 81 64 82 68 83 71 84 65 85
REMARK SMILES IDX 66 86 69 87 67 88 46 89 47 90 55 91 48 92 49 93 53 94 56 95
REMARK SMILES IDX 50 96 51 97 54 98 52 99
REMARK H PARENT 88 20 76 52 44 63
REMARK Flexibility Score: inf
ROOT
ATOM      1  C   UNL A   1      36.644  21.503  24.572  1.00  0.00     0.202 C 
ENDROOT
BRANCH   1   2
ATOM      2  C   UNL A   1      35.412  21.240  25.438  1.00  0.00     0.261 C 
BRANCH   2   3
ATOM      3  O   UNL A   1      34.660  20.103  24.984  1.00  0.00    -0.460 OA
BRANCH   3   4
ATOM      4  C   UNL A   1      33.335  20.339  24.857  1.00  0.00     0.330 C 
ATOM      5  O   UNL A   1      32.428  19.559  25.114  1.00  0.00    -0.247 OA
BRANCH   4   6
ATOM      6  C   UNL A   1      33.023  21.706  24.415  1.00  0.00     0.094 C 
ATOM      7  C   UNL A   1      32.722  22.184  23.195  1.00  0.00     0.015 C 
BRANCH   7   8
ATOM      8  C   UNL A   1      32.421  23.624  23.074  1.00  0.00    -0.024 A 
ATOM      9  C   UNL A   1      32.483  26.412  23.151  1.00  0.00     0.139 A 
ATOM     10  C   UNL A   1      32.972  25.737  22.035  1.00  0.00     0.048 A 
ATOM     11  C   UNL A   1      31.709  25.729  24.082  1.00  0.00     0.130 A 
ATOM     12  C   UNL A   1      32.908  24.351  21.981  1.00  0.00     0.012 A 
ATOM     13  C   UNL A   1      31.724  24.316  24.072  1.00  0.00     0.034 A 
BRANCH   9  14
ATOM     14  O   UNL A   1      32.840  27.724  23.221  1.00  0.00    -0.495 OA
ATOM     15  C   UNL A   1      33.780  28.052  22.195  1.00  0.00     0.278 C 
ENDBRANCH   9  14
BRANCH  11  16
ATOM     16  S   UNL A   1      30.599  26.483  25.249  1.00  0.00     0.265 S 
ATOM     17  O   UNL A   1      29.945  27.581  24.568  1.00  0.00    -0.201 OA
ATOM     18  O   UNL A   1      29.806  25.388  25.779  1.00  0.00    -0.201 OA
BRANCH  16  19
ATOM     19  N   UNL A   1      31.385  27.092  26.595  1.00  0.00    -0.277 N 
ATOM     20  H   UNL A   1      31.143  26.699  27.465  1.00  0.00     0.180 HD
BRANCH  19  21
ATOM     21  C   UNL A   1      32.370  28.124  26.608  1.00  0.00     0.085 A 
ATOM     22  C   UNL A   1      31.900  29.405  26.945  1.00  0.00     0.033 A 
ATOM     23  C   UNL A   1      33.748  27.933  26.445  1.00  0.00     0.150 A 
ATOM     24  C   UNL A   1      32.799  30.424  27.263  1.00  0.00     0.041 A 
ATOM     25  C   UNL A   1      34.649  28.950  26.759  1.00  0.00     0.080 A 
ATOM     26  F   UNL A   1      34.247  26.740  26.097  1.00  0.00    -0.205 F 
ATOM     27  C   UNL A   1      34.164  30.176  27.196  1.00  0.00     0.126 A 
ATOM     28  F   UNL A   1      35.022  31.128  27.580  1.00  0.00    -0.207 F 
ENDBRANCH  19  21
ENDBRANCH  16  19
ENDBRANCH  11  16
ENDBRANCH   7   8
ENDBRANCH   4   6
ENDBRANCH   3   4
ENDBRANCH   2   3
ENDBRANCH   1   2
BRANCH   1  29
ATOM     29  O   UNL A   1      37.902  21.090  25.096  1.00  0.00    -0.374 OA
BRANCH  29  30
ATOM     30  C   UNL A   1      38.268  19.717  24.952  1.00  0.00     0.202 C 
BRANCH  30  31
ATOM     31  C   UNL A   1      39.563  19.263  25.639  1.00  0.00     0.261 C 
BRANCH  31  32
ATOM     32  O   UNL A   1      39.847  20.017  26.832  1.00  0.00    -0.460 OA
BRANCH  32  33
ATOM     33  C   UNL A   1      41.153  20.318  27.020  1.00  0.00     0.338 C 
ATOM     34  O   UNL A   1      42.123  19.606  26.790  1.00  0.00    -0.246 OA
BRANCH  33  35
ATOM     35  C   UNL A   1      41.297  21.738  27.383  1.00  0.00     0.060 A 
ATOM     36  C   UNL A   1      40.759  22.693  26.508  1.00  0.00     0.016 A 
ATOM     37  C   UNL A   1      42.015  22.133  28.512  1.00  0.00     0.016 A 
ATOM     38  C   UNL A   1      40.975  24.049  26.738  1.00  0.00     0.010 A 
ATOM     39  C   UNL A   1      42.240  23.496  28.736  1.00  0.00     0.010 A 
ATOM     40  C   UNL A   1      41.750  24.457  27.831  1.00  0.00    -0.014 A 
BRANCH  40  41
ATOM     41  C   UNL A   1      42.159  25.876  27.951  1.00  0.00     0.031 A 
ATOM     42  C   UNL A   1      43.488  26.303  27.395  1.00  0.00     0.074 A 
ATOM     43  C   UNL A   1      41.351  26.775  28.538  1.00  0.00     0.049 A 
ATOM     44  N   UNL A   1      44.060  27.480  27.421  1.00  0.00    -0.248 NA
ATOM     45  C   UNL A   1      44.279  25.262  26.725  1.00  0.00     0.031 C 
ATOM     46  C   UNL A   1      40.034  26.485  29.096  1.00  0.00     0.029 A 
ATOM     47  N   UNL A   1      41.535  28.114  28.776  1.00  0.00    -0.354 N 
ATOM     48  C   UNL A   1      45.283  27.317  26.782  1.00  0.00     0.074 A 
ATOM     49  C   UNL A   1      45.382  25.923  26.405  1.00  0.00     0.031 C 
ATOM     50  C   UNL A   1      39.533  27.608  29.635  1.00  0.00     0.029 A 
ATOM     51  C   UNL A   1      40.508  28.688  29.484  1.00  0.00     0.049 A 
ATOM     52  H   UNL A   1      42.325  28.614  28.470  1.00  0.00     0.167 HD
ATOM     53  C   UNL A   1      46.234  28.248  26.528  1.00  0.00     0.037 A 
ATOM     54  C   UNL A   1      40.383  29.935  29.975  1.00  0.00     0.037 A 
ATOM     55  C   UNL A   1      46.131  29.634  26.904  1.00  0.00     0.049 A 
ATOM     56  C   UNL A   1      41.471  30.945  29.720  1.00  0.00     0.074 A 
ATOM     57  C   UNL A   1      47.018  30.666  26.652  1.00  0.00     0.029 A 
ATOM     58  N   UNL A   1      45.080  30.179  27.628  1.00  0.00    -0.354 N 
ATOM     59  N   UNL A   1      42.601  30.797  29.072  1.00  0.00    -0.248 NA
ATOM     60  C   UNL A   1      41.261  32.296  30.258  1.00  0.00     0.031 C 
ATOM     61  C   UNL A   1      46.531  31.823  27.270  1.00  0.00     0.029 A 
ATOM     62  C   UNL A   1      45.311  31.525  27.860  1.00  0.00     0.049 A 
ATOM     63  H   UNL A   1      44.286  29.682  27.931  1.00  0.00     0.167 HD
ATOM     64  C   UNL A   1      43.227  32.037  29.106  1.00  0.00     0.074 A 
ATOM     65  C   UNL A   1      42.343  32.931  29.826  1.00  0.00     0.031 C 
ATOM     66  C   UNL A   1      44.425  32.402  28.585  1.00  0.00     0.037 A 
BRANCH  53  67
ATOM     67  C   UNL A   1      47.485  27.785  25.840  1.00  0.00     0.064 A 
ATOM     68  C   UNL A   1      48.643  27.446  26.556  1.00  0.00     0.173 A 
ATOM     69  C   UNL A   1      47.522  27.672  24.442  1.00  0.00     0.173 A 
ATOM     70  F   UNL A   1      48.664  27.549  27.894  1.00  0.00    -0.203 F 
ATOM     71  C   UNL A   1      49.802  27.043  25.896  1.00  0.00     0.198 A 
ATOM     72  C   UNL A   1      48.673  27.241  23.787  1.00  0.00     0.198 A 
ATOM     73  F   UNL A   1      46.441  27.979  23.709  1.00  0.00    -0.203 F 
ATOM     74  F   UNL A   1      50.913  26.779  26.597  1.00  0.00    -0.200 F 
ATOM     75  C   UNL A   1      49.815  26.937  24.513  1.00  0.00     0.200 A 
ATOM     76  F   UNL A   1      48.679  27.126  22.452  1.00  0.00    -0.200 F 
ATOM     77  F   UNL A   1      50.930  26.551  23.880  1.00  0.00    -0.200 F 
ENDBRANCH  53  67
BRANCH  54  78
ATOM     78  C   UNL A   1      39.183  30.288  30.776  1.00  0.00     0.064 A 
ATOM     79  C   UNL A   1      39.156  30.109  32.165  1.00  0.00     0.173 A 
ATOM     80  C   UNL A   1      38.043  30.832  30.164  1.00  0.00     0.173 A 
ATOM     81  F   UNL A   1      40.213  29.570  32.790  1.00  0.00    -0.203 F 
ATOM     82  C   UNL A   1      38.030  30.451  32.911  1.00  0.00     0.198 A 
ATOM     83  C   UNL A   1      36.928  31.197  30.915  1.00  0.00     0.198 A 
ATOM     84  F   UNL A   1      38.019  31.023  28.837  1.00  0.00    -0.203 F 
ATOM     85  F   UNL A   1      38.016  30.237  34.234  1.00  0.00    -0.200 F 
ATOM     86  C   UNL A   1      36.921  31.003  32.287  1.00  0.00     0.200 A 
ATOM     87  F   UNL A   1      35.864  31.742  30.310  1.00  0.00    -0.200 F 
ATOM     88  F   UNL A   1      35.844  31.342  33.008  1.00  0.00    -0.200 F 
ENDBRANCH  54  78
BRANCH  66  89
ATOM     89  C   UNL A   1      44.844  33.834  28.755  1.00  0.00     0.064 A 
ATOM     90  C   UNL A   1      45.665  34.241  29.817  1.00  0.00     0.173 A 
ATOM     91  C   UNL A   1      44.457  34.804  27.817  1.00  0.00     0.173 A 
ATOM     92  F   UNL A   1      46.051  33.356  30.748  1.00  0.00    -0.203 F 
ATOM     93  C   UNL A   1      46.062  35.570  29.947  1.00  0.00     0.198 A 
ATOM     94  C   UNL A   1      44.880  36.125  27.933  1.00  0.00     0.198 A 
ATOM     95  F   UNL A   1      43.677  34.466  26.777  1.00  0.00    -0.203 F 
ATOM     96  F   UNL A   1      46.808  35.945  30.995  1.00  0.00    -0.200 F 
ATOM     97  C   UNL A   1      45.676  36.508  29.001  1.00  0.00     0.200 A 
ATOM     98  F   UNL A   1      44.517  37.027  27.011  1.00  0.00    -0.200 F 
ATOM     99  F   UNL A   1      46.066  37.785  29.124  1.00  0.00    -0.200 F 
ENDBRANCH  66  89
ENDBRANCH  40  41
ENDBRANCH  33  35
ENDBRANCH  32  33
ENDBRANCH  31  32
ENDBRANCH  30  31
ENDBRANCH  29  30
ENDBRANCH   1  29
TORSDOF 19
ENDMDL
MODEL 3
REMARK VINA RESULT:     -11.9      5.079      8.149
REMARK SMILES COc1ccc(/C=C/C(=O)OCCOCCOC(=O)c2ccc(-c3c4nc(c(-c5c(F)c(F)c(F)c(F)c5F)c5ccc([nH]5)c(-c5c(F)c(F)c(F)c(F)c5F)c5nc(c(-c6c(F)c(F)c(F)c(F)c6F)c6ccc3[nH]6)C=C5)C=C4)cc2)cc1S(=O)(=O)Nc1ccc(F)cc1F
REMARK SMILES IDX 13 1 12 2 11 3 9 4 10 5 8 6 7 7 6 8 3 9 4 10 84 11 5 12
REMARK SMILES IDX 83 13 2 14 1 15 85 16 86 17 87 18 88 19 89 21 90 22 95 23
REMARK SMILES IDX 91 24 94 25 96 26 92 27 93 28 14 29 15 30 16 31 17 32 18 33
REMARK SMILES IDX 19 34 20 35 21 36 82 37 22 38 81 39 23 40 24 41 25 42 75 43
REMARK SMILES IDX 26 44 80 45 74 46 76 47 27 48 79 49 73 50 72 51 28 53 60 54
REMARK SMILES IDX 40 55 59 56 41 57 44 58 58 59 77 60 42 61 43 62 57 64 78 65
REMARK SMILES IDX 45 66 29 67 30 68 38 69 31 70 32 71 36 72 39 73 33 74 34 75
REMARK SMILES IDX 37 76 35 77 61 78 62 79 70 80 63 81 64 82 68 83 71 84 65 85
REMARK SMILES IDX 66 86 69 87 67 88 46 89 47 90 55 91 48 92 49 93 53 94 56 95
REMARK SMILES IDX 50 96 51 97 54 98 52 99
REMARK H PARENT 88 20 76 52 44 63
REMARK Flexibility Score: inf
ROOT
ATOM      1  C   UNL A   1      36.372  21.706  25.048  1.00  0.00     0.202 C 
ENDROOT
BRANCH   1   2
ATOM      2  C   UNL A   1      35.254  22.412  25.816  1.00  0.00     0.261 C 
BRANCH   2   3
ATOM      3  O   UNL A   1      34.188  21.515  26.171  1.00  0.00    -0.460 OA
BRANCH   3   4
ATOM      4  C   UNL A   1      33.003  21.821  25.599  1.00  0.00     0.330 C 
ATOM      5  O   UNL A   1      32.077  21.051  25.381  1.00  0.00    -0.247 OA
BRANCH   4   6
ATOM      6  C   UNL A   1      32.857  23.250  25.280  1.00  0.00     0.094 C 
ATOM      7  C   UNL A   1      32.696  24.314  26.087  1.00  0.00     0.015 C 
BRANCH   7   8
ATOM      8  C   UNL A   1      32.611  25.647  25.459  1.00  0.00    -0.024 A 
ATOM      9  C   UNL A   1      32.198  28.350  24.905  1.00  0.00     0.139 A 
ATOM     10  C   UNL A   1      33.429  27.922  25.398  1.00  0.00     0.048 A 
ATOM     11  C   UNL A   1      31.291  27.416  24.418  1.00  0.00     0.130 A 
ATOM     12  C   UNL A   1      33.647  26.573  25.639  1.00  0.00     0.012 A 
ATOM     13  C   UNL A   1      31.476  26.055  24.748  1.00  0.00     0.034 A 
BRANCH   9  14
ATOM     14  O   UNL A   1      32.001  29.696  24.965  1.00  0.00    -0.495 OA
ATOM     15  C   UNL A   1      31.805  30.122  26.316  1.00  0.00     0.278 C 
ENDBRANCH   9  14
BRANCH  11  16
ATOM     16  S   UNL A   1      29.943  27.769  23.314  1.00  0.00     0.265 S 
ATOM     17  O   UNL A   1      30.509  27.948  21.993  1.00  0.00    -0.201 OA
ATOM     18  O   UNL A   1      28.976  26.711  23.546  1.00  0.00    -0.201 OA
BRANCH  16  19
ATOM     19  N   UNL A   1      29.112  29.163  23.724  1.00  0.00    -0.277 N 
ATOM     20  H   UNL A   1      28.707  29.188  24.621  1.00  0.00     0.180 HD
BRANCH  19  21
ATOM     21  C   UNL A   1      28.934  30.317  22.905  1.00  0.00     0.085 A 
ATOM     22  C   UNL A   1      28.461  30.069  21.606  1.00  0.00     0.033 A 
ATOM     23  C   UNL A   1      29.067  31.644  23.333  1.00  0.00     0.150 A 
ATOM     24  C   UNL A   1      27.984  31.118  20.818  1.00  0.00     0.041 A 
ATOM     25  C   UNL A   1      28.595  32.695  22.547  1.00  0.00     0.080 A 
ATOM     26  F   UNL A   1      29.540  31.937  24.551  1.00  0.00    -0.205 F 
ATOM     27  C   UNL A   1      28.029  32.416  21.310  1.00  0.00     0.126 A 
ATOM     28  F   UNL A   1      27.497  33.409  20.586  1.00  0.00    -0.207 F 
ENDBRANCH  19  21
ENDBRANCH  16  19
ENDBRANCH  11  16
ENDBRANCH   7   8
ENDBRANCH   4   6
ENDBRANCH   3   4
ENDBRANCH   2   3
ENDBRANCH   1   2
BRANCH   1  29
ATOM     29  O   UNL A   1      36.604  20.336  25.361  1.00  0.00    -0.374 OA
BRANCH  29  30
ATOM     30  C   UNL A   1      37.690  19.677  24.708  1.00  0.00     0.202 C 
BRANCH  30  31
ATOM     31  C   UNL A   1      38.944  19.398  25.547  1.00  0.00     0.261 C 
BRANCH  31  32
ATOM     32  O   UNL A   1      39.729  20.583  25.774  1.00  0.00    -0.460 OA
BRANCH  32  33
ATOM     33  C   UNL A   1      40.426  20.593  26.934  1.00  0.00     0.338 C 
ATOM     34  O   UNL A   1      40.926  19.636  27.512  1.00  0.00    -0.246 OA
BRANCH  33  35
ATOM     35  C   UNL A   1      40.686  21.980  27.355  1.00  0.00     0.060 A 
ATOM     36  C   UNL A   1      40.029  23.007  26.662  1.00  0.00     0.016 A 
ATOM     37  C   UNL A   1      41.618  22.278  28.350  1.00  0.00     0.016 A 
ATOM     38  C   UNL A   1      40.333  24.338  26.935  1.00  0.00     0.010 A 
ATOM     39  C   UNL A   1      41.930  23.615  28.615  1.00  0.00     0.010 A 
ATOM     40  C   UNL A   1      41.314  24.649  27.885  1.00  0.00    -0.014 A 
BRANCH  40  41
ATOM     41  C   UNL A   1      41.789  26.046  28.017  1.00  0.00     0.031 A 
ATOM     42  C   UNL A   1      43.136  26.416  27.465  1.00  0.00     0.074 A 
ATOM     43  C   UNL A   1      41.024  26.978  28.612  1.00  0.00     0.049 A 
ATOM     44  N   UNL A   1      43.763  27.564  27.501  1.00  0.00    -0.248 NA
ATOM     45  C   UNL A   1      43.879  25.344  26.786  1.00  0.00     0.031 C 
ATOM     46  C   UNL A   1      39.694  26.744  29.167  1.00  0.00     0.029 A 
ATOM     47  N   UNL A   1      41.269  28.304  28.861  1.00  0.00    -0.354 N 
ATOM     48  C   UNL A   1      44.977  27.349  26.861  1.00  0.00     0.074 A 
ATOM     49  C   UNL A   1      45.011  25.956  26.472  1.00  0.00     0.031 C 
ATOM     50  C   UNL A   1      39.246  27.886  29.715  1.00  0.00     0.029 A 
ATOM     51  C   UNL A   1      40.271  28.920  29.573  1.00  0.00     0.049 A 
ATOM     52  H   UNL A   1      42.083  28.770  28.559  1.00  0.00     0.167 HD
ATOM     53  C   UNL A   1      45.971  28.237  26.615  1.00  0.00     0.037 A 
ATOM     54  C   UNL A   1      40.204  30.167  30.075  1.00  0.00     0.037 A 
ATOM     55  C   UNL A   1      45.933  29.623  27.003  1.00  0.00     0.049 A 
ATOM     56  C   UNL A   1      41.338  31.127  29.829  1.00  0.00     0.074 A 
ATOM     57  C   UNL A   1      46.867  30.615  26.760  1.00  0.00     0.029 A 
ATOM     58  N   UNL A   1      44.908  30.211  27.731  1.00  0.00    -0.354 N 
ATOM     59  N   UNL A   1      42.461  30.932  29.181  1.00  0.00    -0.248 NA
ATOM     60  C   UNL A   1      41.191  32.482  30.378  1.00  0.00     0.031 C 
ATOM     61  C   UNL A   1      46.435  31.788  27.388  1.00  0.00     0.029 A 
ATOM     62  C   UNL A   1      45.203  31.543  27.975  1.00  0.00     0.049 A 
ATOM     63  H   UNL A   1      44.091  29.749  28.030  1.00  0.00     0.167 HD
ATOM     64  C   UNL A   1      43.144  32.140  29.225  1.00  0.00     0.074 A 
ATOM     65  C   UNL A   1      42.302  33.068  29.953  1.00  0.00     0.031 C 
ATOM     66  C   UNL A   1      44.358  32.453  28.707  1.00  0.00     0.037 A 
BRANCH  53  67
ATOM     67  C   UNL A   1      47.199  27.722  25.923  1.00  0.00     0.064 A 
ATOM     68  C   UNL A   1      47.303  27.687  24.524  1.00  0.00     0.173 A 
ATOM     69  C   UNL A   1      48.293  27.263  26.673  1.00  0.00     0.173 A 
ATOM     70  F   UNL A   1      46.280  28.103  23.761  1.00  0.00    -0.203 F 
ATOM     71  C   UNL A   1      48.442  27.180  23.902  1.00  0.00     0.198 A 
ATOM     72  C   UNL A   1      49.442  26.785  26.048  1.00  0.00     0.198 A 
ATOM     73  F   UNL A   1      48.249  27.279  28.014  1.00  0.00    -0.203 F 
ATOM     74  F   UNL A   1      48.495  27.105  22.565  1.00  0.00    -0.200 F 
ATOM     75  C   UNL A   1      49.511  26.734  24.663  1.00  0.00     0.200 A 
ATOM     76  F   UNL A   1      50.479  26.366  26.785  1.00  0.00    -0.200 F 
ATOM     77  F   UNL A   1      50.605  26.246  24.063  1.00  0.00    -0.200 F 
ENDBRANCH  53  67
BRANCH  54  78
ATOM     78  C   UNL A   1      39.021  30.569  30.878  1.00  0.00     0.064 A 
ATOM     79  C   UNL A   1      37.875  31.099  30.271  1.00  0.00     0.173 A 
ATOM     80  C   UNL A   1      39.008  30.411  32.272  1.00  0.00     0.173 A 
ATOM     81  F   UNL A   1      37.849  31.290  28.944  1.00  0.00    -0.203 F 
ATOM     82  C   UNL A   1      36.764  31.465  31.029  1.00  0.00     0.198 A 
ATOM     83  C   UNL A   1      37.887  30.753  33.026  1.00  0.00     0.198 A 
ATOM     84  F   UNL A   1      40.080  29.908  32.901  1.00  0.00    -0.203 F 
ATOM     85  F   UNL A   1      35.694  32.001  30.428  1.00  0.00    -0.200 F 
ATOM     86  C   UNL A   1      36.768  31.283  32.404  1.00  0.00     0.200 A 
ATOM     87  F   UNL A   1      37.891  30.564  34.353  1.00  0.00    -0.200 F 
ATOM     88  F   UNL A   1      35.695  31.624  33.129  1.00  0.00    -0.200 F 
ENDBRANCH  54  78
BRANCH  66  89
ATOM     89  C   UNL A   1      44.843  33.863  28.889  1.00  0.00     0.064 A 
ATOM     90  C   UNL A   1      45.646  34.231  29.979  1.00  0.00     0.173 A 
ATOM     91  C   UNL A   1      44.539  34.848  27.937  1.00  0.00     0.173 A 
ATOM     92  F   UNL A   1      45.954  33.331  30.924  1.00  0.00    -0.203 F 
ATOM     93  C   UNL A   1      46.106  35.538  30.121  1.00  0.00     0.198 A 
ATOM     94  C   UNL A   1      45.025  36.146  28.066  1.00  0.00     0.198 A 
ATOM     95  F   UNL A   1      43.780  34.547  26.872  1.00  0.00    -0.203 F 
ATOM     96  F   UNL A   1      46.833  35.878  31.193  1.00  0.00    -0.200 F 
ATOM     97  C   UNL A   1      45.802  36.492  29.161  1.00  0.00     0.200 A 
ATOM     98  F   UNL A   1      44.741  37.062  27.131  1.00  0.00    -0.200 F 
ATOM     99  F   UNL A   1      46.252  37.747  29.295  1.00  0.00    -0.200 F 
ENDBRANCH  66  89
ENDBRANCH  40  41
ENDBRANCH  33  35
ENDBRANCH  32  33
ENDBRANCH  31  32
ENDBRANCH  30  31
ENDBRANCH  29  30
ENDBRANCH   1  29
TORSDOF 19
ENDMDL
