MODEL 1
REMARK VINA RESULT:     -12.2      0.000      0.000
REMARK SMILES Nc1nccc(N2CCC[C@@](Cc3ccc(F)cc3F)(C(=O)OCCOCCOC(=O)c3ccc(-c4c5nc(c(-c6c(F)c(F)c(F)c(F)c6F)c6ccc([nH]6)c(-c6c(F)c(F)c(F)c(F)c6F)c6nc(c(-c7c(F)c(F)c(F)c(F)c7F)c7ccc4[nH]7)C=C6)C=C5)cc3)C2)n1
REMARK SMILES IDX 26 1 25 2 24 3 23 4 21 5 22 6 11 7 7 8 8 9 95 10 9 11 10 12
REMARK SMILES IDX 6 13 2 14 3 15 96 16 4 17 5 18 1 19 12 22 13 23 14 24 19 25
REMARK SMILES IDX 15 26 18 27 20 28 16 29 17 30 27 31 28 32 29 33 30 34 31 35
REMARK SMILES IDX 32 36 33 37 94 38 34 39 93 40 35 41 36 42 37 43 87 44 38 45
REMARK SMILES IDX 92 46 86 47 88 48 39 49 91 50 85 51 84 52 40 54 72 55 52 56
REMARK SMILES IDX 71 57 53 58 56 59 70 60 89 61 54 62 55 63 69 65 90 66 57 67
REMARK SMILES IDX 41 68 42 69 50 70 43 71 44 72 48 73 51 74 45 75 46 76 49 77
REMARK SMILES IDX 47 78 73 79 74 80 82 81 75 82 76 83 80 84 83 85 77 86 78 87
REMARK SMILES IDX 81 88 79 89 58 90 59 91 67 92 60 93 61 94 65 95 68 96 62 97
REMARK SMILES IDX 63 98 66 99 64 100
REMARK H PARENT 1 20 1 21 88 53 56 64
REMARK Flexibility Score: inf
ROOT
ATOM      1  O   UNL A   1      31.652  30.872  25.965  1.00  0.00    -0.374 OA
ENDROOT
BRANCH   1   2
ATOM      2  C   UNL A   1      32.510  29.964  26.642  1.00  0.00     0.202 C 
BRANCH   2   3
ATOM      3  C   UNL A   1      33.606  29.276  25.820  1.00  0.00     0.261 C 
BRANCH   3   4
ATOM      4  O   UNL A   1      33.550  27.840  25.842  1.00  0.00    -0.463 OA
BRANCH   4   5
ATOM      5  C   UNL A   1      33.186  27.264  24.662  1.00  0.00     0.314 C 
ATOM      6  O   UNL A   1      33.748  27.482  23.594  1.00  0.00    -0.252 OA
BRANCH   5   7
ATOM      7  C   UNL A   1      31.948  26.376  24.766  1.00  0.00     0.090 C 
ATOM      8  N   UNL A   1      31.424  24.002  25.070  1.00  0.00    -0.355 N 
ATOM      9  C   UNL A   1      30.573  24.157  26.239  1.00  0.00     0.118 C 
ATOM     10  C   UNL A   1      32.527  24.953  24.945  1.00  0.00     0.137 C 
ATOM     11  C   UNL A   1      29.971  25.566  26.218  1.00  0.00     0.023 C 
ATOM     12  C   UNL A   1      31.026  26.661  25.982  1.00  0.00     0.023 C 
BRANCH   8  13
ATOM     13  C   UNL A   1      31.736  22.705  24.676  1.00  0.00     0.134 A 
ATOM     14  C   UNL A   1      32.531  20.614  25.154  1.00  0.00     0.221 A 
ATOM     15  N   UNL A   1      32.629  20.265  23.869  1.00  0.00    -0.222 NA
ATOM     16  N   UNL A   1      32.109  21.802  25.597  1.00  0.00    -0.196 NA
ATOM     17  C   UNL A   1      32.249  21.190  22.974  1.00  0.00     0.119 A 
ATOM     18  C   UNL A   1      31.775  22.428  23.325  1.00  0.00     0.067 A 
BRANCH  14  19
ATOM     19  N   UNL A   1      32.915  19.692  26.083  1.00  0.00    -0.368 N 
ATOM     20  H   UNL A   1      33.254  18.813  25.794  1.00  0.00     0.159 HD
ATOM     21  H   UNL A   1      32.853  19.902  27.042  1.00  0.00     0.159 HD
ENDBRANCH  14  19
ENDBRANCH   8  13
BRANCH   7  22
ATOM     22  C   UNL A   1      31.201  26.461  23.400  1.00  0.00     0.059 C 
BRANCH  22  23
ATOM     23  C   UNL A   1      30.197  27.585  23.273  1.00  0.00    -0.011 A 
ATOM     24  C   UNL A   1      30.618  28.908  23.072  1.00  0.00     0.010 A 
ATOM     25  C   UNL A   1      28.821  27.331  23.365  1.00  0.00     0.129 A 
ATOM     26  C   UNL A   1      29.685  29.944  23.024  1.00  0.00     0.040 A 
ATOM     27  C   UNL A   1      27.886  28.355  23.306  1.00  0.00     0.078 A 
ATOM     28  F   UNL A   1      28.381  26.073  23.517  1.00  0.00    -0.207 F 
ATOM     29  C   UNL A   1      28.330  29.659  23.148  1.00  0.00     0.126 A 
ATOM     30  F   UNL A   1      27.442  30.659  23.108  1.00  0.00    -0.207 F 
ENDBRANCH  22  23
ENDBRANCH   7  22
ENDBRANCH   5   7
ENDBRANCH   4   5
ENDBRANCH   3   4
ENDBRANCH   2   3
ENDBRANCH   1   2
BRANCH   1  31
ATOM     31  C   UNL A   1      31.159  31.995  26.695  1.00  0.00     0.202 C 
BRANCH  31  32
ATOM     32  C   UNL A   1      32.074  33.223  26.810  1.00  0.00     0.261 C 
BRANCH  32  33
ATOM     33  O   UNL A   1      32.752  33.302  28.081  1.00  0.00    -0.460 OA
BRANCH  33  34
ATOM     34  C   UNL A   1      33.889  34.040  28.067  1.00  0.00     0.338 C 
ATOM     35  O   UNL A   1      33.982  35.255  27.967  1.00  0.00    -0.246 OA
BRANCH  34  36
ATOM     36  C   UNL A   1      35.070  33.203  28.340  1.00  0.00     0.060 A 
ATOM     37  C   UNL A   1      34.855  31.900  28.806  1.00  0.00     0.016 A 
ATOM     38  C   UNL A   1      36.356  33.744  28.312  1.00  0.00     0.016 A 
ATOM     39  C   UNL A   1      35.925  31.148  29.292  1.00  0.00     0.010 A 
ATOM     40  C   UNL A   1      37.427  32.991  28.809  1.00  0.00     0.010 A 
ATOM     41  C   UNL A   1      37.211  31.705  29.337  1.00  0.00    -0.014 A 
BRANCH  41  42
ATOM     42  C   UNL A   1      38.295  30.990  30.057  1.00  0.00     0.031 A 
ATOM     43  C   UNL A   1      38.541  31.292  31.511  1.00  0.00     0.074 A 
ATOM     44  C   UNL A   1      39.025  30.048  29.435  1.00  0.00     0.049 A 
ATOM     45  N   UNL A   1      39.448  30.802  32.319  1.00  0.00    -0.248 NA
ATOM     46  C   UNL A   1      37.642  32.273  32.141  1.00  0.00     0.031 C 
ATOM     47  C   UNL A   1      38.854  29.627  28.047  1.00  0.00     0.029 A 
ATOM     48  N   UNL A   1      40.060  29.271  29.898  1.00  0.00    -0.354 N 
ATOM     49  C   UNL A   1      39.229  31.410  33.548  1.00  0.00     0.074 A 
ATOM     50  C   UNL A   1      38.118  32.322  33.377  1.00  0.00     0.031 C 
ATOM     51  C   UNL A   1      39.753  28.668  27.768  1.00  0.00     0.029 A 
ATOM     52  C   UNL A   1      40.583  28.430  28.948  1.00  0.00     0.049 A 
ATOM     53  H   UNL A   1      40.395  29.315  30.822  1.00  0.00     0.167 HD
ATOM     54  C   UNL A   1      39.889  31.218  34.714  1.00  0.00     0.037 A 
ATOM     55  C   UNL A   1      41.624  27.578  29.018  1.00  0.00     0.037 A 
ATOM     56  C   UNL A   1      40.993  30.313  34.890  1.00  0.00     0.049 A 
ATOM     57  C   UNL A   1      42.391  27.441  30.308  1.00  0.00     0.074 A 
ATOM     58  C   UNL A   1      41.727  30.060  36.036  1.00  0.00     0.029 A 
ATOM     59  N   UNL A   1      41.520  29.510  33.890  1.00  0.00    -0.354 N 
ATOM     60  N   UNL A   1      42.178  28.023  31.463  1.00  0.00    -0.248 NA
ATOM     61  C   UNL A   1      43.546  26.530  30.302  1.00  0.00     0.031 C 
ATOM     62  C   UNL A   1      42.722  29.130  35.721  1.00  0.00     0.029 A 
ATOM     63  C   UNL A   1      42.582  28.774  34.391  1.00  0.00     0.049 A 
ATOM     64  H   UNL A   1      41.190  29.469  32.963  1.00  0.00     0.167 HD
ATOM     65  C   UNL A   1      43.152  27.533  32.323  1.00  0.00     0.074 A 
ATOM     66  C   UNL A   1      43.953  26.599  31.563  1.00  0.00     0.031 C 
ATOM     67  C   UNL A   1      43.362  27.834  33.627  1.00  0.00     0.037 A 
BRANCH  54  68
ATOM     68  C   UNL A   1      39.445  32.009  35.907  1.00  0.00     0.064 A 
ATOM     69  C   UNL A   1      38.442  31.516  36.755  1.00  0.00     0.173 A 
ATOM     70  C   UNL A   1      39.949  33.292  36.160  1.00  0.00     0.173 A 
ATOM     71  F   UNL A   1      37.924  30.295  36.550  1.00  0.00    -0.203 F 
ATOM     72  C   UNL A   1      37.948  32.287  37.803  1.00  0.00     0.198 A 
ATOM     73  C   UNL A   1      39.467  34.053  37.222  1.00  0.00     0.198 A 
ATOM     74  F   UNL A   1      40.916  33.802  35.383  1.00  0.00    -0.203 F 
ATOM     75  F   UNL A   1      36.968  31.808  38.582  1.00  0.00    -0.200 F 
ATOM     76  C   UNL A   1      38.461  33.554  38.036  1.00  0.00     0.200 A 
ATOM     77  F   UNL A   1      39.974  35.271  37.456  1.00  0.00    -0.200 F 
ATOM     78  F   UNL A   1      37.984  34.295  39.046  1.00  0.00    -0.200 F 
ENDBRANCH  54  68
BRANCH  55  79
ATOM     79  C   UNL A   1      42.010  26.783  27.825  1.00  0.00     0.064 A 
ATOM     80  C   UNL A   1      42.941  27.271  26.896  1.00  0.00     0.173 A 
ATOM     81  C   UNL A   1      41.463  25.513  27.596  1.00  0.00     0.173 A 
ATOM     82  F   UNL A   1      43.500  28.477  27.076  1.00  0.00    -0.203 F 
ATOM     83  C   UNL A   1      43.298  26.525  25.775  1.00  0.00     0.198 A 
ATOM     84  C   UNL A   1      41.840  24.757  26.488  1.00  0.00     0.198 A 
ATOM     85  F   UNL A   1      40.591  24.994  28.472  1.00  0.00    -0.203 F 
ATOM     86  F   UNL A   1      44.174  27.023  24.892  1.00  0.00    -0.200 F 
ATOM     87  C   UNL A   1      42.751  25.266  25.575  1.00  0.00     0.200 A 
ATOM     88  F   UNL A   1      41.330  23.530  26.313  1.00  0.00    -0.200 F 
ATOM     89  F   UNL A   1      43.109  24.540  24.508  1.00  0.00    -0.200 F 
ENDBRANCH  55  79
BRANCH  67  90
ATOM     90  C   UNL A   1      44.480  27.131  34.335  1.00  0.00     0.064 A 
ATOM     91  C   UNL A   1      45.771  27.683  34.348  1.00  0.00     0.173 A 
ATOM     92  C   UNL A   1      44.294  25.876  34.933  1.00  0.00     0.173 A 
ATOM     93  F   UNL A   1      46.002  28.876  33.781  1.00  0.00    -0.203 F 
ATOM     94  C   UNL A   1      46.837  26.997  34.925  1.00  0.00     0.198 A 
ATOM     95  C   UNL A   1      45.357  25.205  35.529  1.00  0.00     0.198 A 
ATOM     96  F   UNL A   1      43.076  25.315  34.955  1.00  0.00    -0.203 F 
ATOM     97  F   UNL A   1      48.066  27.530  34.901  1.00  0.00    -0.200 F 
ATOM     98  C   UNL A   1      46.628  25.760  35.517  1.00  0.00     0.200 A 
ATOM     99  F   UNL A   1      45.152  24.019  36.119  1.00  0.00    -0.200 F 
ATOM    100  F   UNL A   1      47.654  25.104  36.079  1.00  0.00    -0.200 F 
ENDBRANCH  67  90
ENDBRANCH  41  42
ENDBRANCH  34  36
ENDBRANCH  33  34
ENDBRANCH  32  33
ENDBRANCH  31  32
ENDBRANCH   1  31
TORSDOF 18
ENDMDL
MODEL 2
REMARK VINA RESULT:     -12.2      1.285      2.455
REMARK SMILES Nc1nccc(N2CCC[C@@](Cc3ccc(F)cc3F)(C(=O)OCCOCCOC(=O)c3ccc(-c4c5nc(c(-c6c(F)c(F)c(F)c(F)c6F)c6ccc([nH]6)c(-c6c(F)c(F)c(F)c(F)c6F)c6nc(c(-c7c(F)c(F)c(F)c(F)c7F)c7ccc4[nH]7)C=C6)C=C5)cc3)C2)n1
REMARK SMILES IDX 26 1 25 2 24 3 23 4 21 5 22 6 11 7 7 8 8 9 95 10 9 11 10 12
REMARK SMILES IDX 6 13 2 14 3 15 96 16 4 17 5 18 1 19 12 22 13 23 14 24 19 25
REMARK SMILES IDX 15 26 18 27 20 28 16 29 17 30 27 31 28 32 29 33 30 34 31 35
REMARK SMILES IDX 32 36 33 37 94 38 34 39 93 40 35 41 36 42 37 43 87 44 38 45
REMARK SMILES IDX 92 46 86 47 88 48 39 49 91 50 85 51 84 52 40 54 72 55 52 56
REMARK SMILES IDX 71 57 53 58 56 59 70 60 89 61 54 62 55 63 69 65 90 66 57 67
REMARK SMILES IDX 41 68 42 69 50 70 43 71 44 72 48 73 51 74 45 75 46 76 49 77
REMARK SMILES IDX 47 78 73 79 74 80 82 81 75 82 76 83 80 84 83 85 77 86 78 87
REMARK SMILES IDX 81 88 79 89 58 90 59 91 67 92 60 93 61 94 65 95 68 96 62 97
REMARK SMILES IDX 63 98 66 99 64 100
REMARK H PARENT 1 20 1 21 88 53 56 64
REMARK Flexibility Score: inf
ROOT
ATOM      1  O   UNL A   1      31.777  30.694  25.751  1.00  0.00    -0.374 OA
ENDROOT
BRANCH   1   2
ATOM      2  C   UNL A   1      32.957  29.906  25.847  1.00  0.00     0.202 C 
BRANCH   2   3
ATOM      3  C   UNL A   1      33.003  28.824  26.930  1.00  0.00     0.261 C 
BRANCH   3   4
ATOM      4  O   UNL A   1      33.031  27.479  26.424  1.00  0.00    -0.463 OA
BRANCH   4   5
ATOM      5  C   UNL A   1      31.860  26.794  26.555  1.00  0.00     0.314 C 
ATOM      6  O   UNL A   1      30.929  27.164  27.263  1.00  0.00    -0.252 OA
BRANCH   5   7
ATOM      7  C   UNL A   1      31.835  25.467  25.801  1.00  0.00     0.090 C 
ATOM      8  N   UNL A   1      33.260  23.492  25.534  1.00  0.00    -0.355 N 
ATOM      9  C   UNL A   1      32.268  22.504  25.932  1.00  0.00     0.118 C 
ATOM     10  C   UNL A   1      33.171  24.794  26.191  1.00  0.00     0.137 C 
ATOM     11  C   UNL A   1      30.875  23.073  25.649  1.00  0.00     0.023 C 
ATOM     12  C   UNL A   1      30.689  24.498  26.201  1.00  0.00     0.023 C 
BRANCH   8  13
ATOM     13  C   UNL A   1      34.558  23.042  25.321  1.00  0.00     0.134 A 
ATOM     14  C   UNL A   1      36.078  21.337  25.177  1.00  0.00     0.221 A 
ATOM     15  N   UNL A   1      37.129  22.160  25.204  1.00  0.00    -0.222 NA
ATOM     16  N   UNL A   1      34.800  21.723  25.243  1.00  0.00    -0.196 NA
ATOM     17  C   UNL A   1      36.853  23.471  25.283  1.00  0.00     0.119 A 
ATOM     18  C   UNL A   1      35.577  23.971  25.326  1.00  0.00     0.067 A 
BRANCH  14  19
ATOM     19  N   UNL A   1      36.333  20.000  25.102  1.00  0.00    -0.368 N 
ATOM     20  H   UNL A   1      36.549  19.492  25.918  1.00  0.00     0.159 HD
ATOM     21  H   UNL A   1      36.303  19.540  24.232  1.00  0.00     0.159 HD
ENDBRANCH  14  19
ENDBRANCH   8  13
BRANCH   7  22
ATOM     22  C   UNL A   1      31.850  25.798  24.278  1.00  0.00     0.059 C 
BRANCH  22  23
ATOM     23  C   UNL A   1      30.808  26.793  23.815  1.00  0.00    -0.011 A 
ATOM     24  C   UNL A   1      29.440  26.533  23.980  1.00  0.00     0.010 A 
ATOM     25  C   UNL A   1      31.190  27.993  23.199  1.00  0.00     0.129 A 
ATOM     26  C   UNL A   1      28.490  27.429  23.488  1.00  0.00     0.040 A 
ATOM     27  C   UNL A   1      30.250  28.895  22.716  1.00  0.00     0.078 A 
ATOM     28  F   UNL A   1      32.489  28.292  23.059  1.00  0.00    -0.207 F 
ATOM     29  C   UNL A   1      28.903  28.596  22.856  1.00  0.00     0.126 A 
ATOM     30  F   UNL A   1      27.985  29.446  22.381  1.00  0.00    -0.207 F 
ENDBRANCH  22  23
ENDBRANCH   7  22
ENDBRANCH   5   7
ENDBRANCH   4   5
ENDBRANCH   3   4
ENDBRANCH   2   3
ENDBRANCH   1   2
BRANCH   1  31
ATOM     31  C   UNL A   1      31.456  31.551  26.846  1.00  0.00     0.202 C 
BRANCH  31  32
ATOM     32  C   UNL A   1      32.013  32.981  26.815  1.00  0.00     0.261 C 
BRANCH  32  33
ATOM     33  O   UNL A   1      32.517  33.416  28.095  1.00  0.00    -0.460 OA
BRANCH  33  34
ATOM     34  C   UNL A   1      33.667  34.132  28.033  1.00  0.00     0.338 C 
ATOM     35  O   UNL A   1      33.781  35.339  27.882  1.00  0.00    -0.246 OA
BRANCH  34  36
ATOM     36  C   UNL A   1      34.837  33.283  28.321  1.00  0.00     0.060 A 
ATOM     37  C   UNL A   1      34.608  32.022  28.886  1.00  0.00     0.016 A 
ATOM     38  C   UNL A   1      36.134  33.786  28.207  1.00  0.00     0.016 A 
ATOM     39  C   UNL A   1      35.677  31.277  29.385  1.00  0.00     0.010 A 
ATOM     40  C   UNL A   1      37.204  33.041  28.717  1.00  0.00     0.010 A 
ATOM     41  C   UNL A   1      36.977  31.801  29.343  1.00  0.00    -0.014 A 
BRANCH  41  42
ATOM     42  C   UNL A   1      38.070  31.109  30.072  1.00  0.00     0.031 A 
ATOM     43  C   UNL A   1      38.304  31.422  31.524  1.00  0.00     0.074 A 
ATOM     44  C   UNL A   1      38.820  30.177  29.458  1.00  0.00     0.049 A 
ATOM     45  N   UNL A   1      39.215  30.953  32.339  1.00  0.00    -0.248 NA
ATOM     46  C   UNL A   1      37.384  32.390  32.146  1.00  0.00     0.031 C 
ATOM     47  C   UNL A   1      38.662  29.747  28.071  1.00  0.00     0.029 A 
ATOM     48  N   UNL A   1      39.866  29.421  29.929  1.00  0.00    -0.354 N 
ATOM     49  C   UNL A   1      38.979  31.563  33.564  1.00  0.00     0.074 A 
ATOM     50  C   UNL A   1      37.854  32.454  33.384  1.00  0.00     0.031 C 
ATOM     51  C   UNL A   1      39.580  28.802  27.800  1.00  0.00     0.029 A 
ATOM     52  C   UNL A   1      40.408  28.584  28.986  1.00  0.00     0.049 A 
ATOM     53  H   UNL A   1      40.195  29.476  30.854  1.00  0.00     0.167 HD
ATOM     54  C   UNL A   1      39.637  31.388  34.734  1.00  0.00     0.037 A 
ATOM     55  C   UNL A   1      41.464  27.751  29.065  1.00  0.00     0.037 A 
ATOM     56  C   UNL A   1      40.756  30.503  34.920  1.00  0.00     0.049 A 
ATOM     57  C   UNL A   1      42.226  27.635  30.359  1.00  0.00     0.074 A 
ATOM     58  C   UNL A   1      41.490  30.270  36.070  1.00  0.00     0.029 A 
ATOM     59  N   UNL A   1      41.302  29.705  33.927  1.00  0.00    -0.354 N 
ATOM     60  N   UNL A   1      41.998  28.218  31.510  1.00  0.00    -0.248 NA
ATOM     61  C   UNL A   1      43.398  26.744  30.363  1.00  0.00     0.031 C 
ATOM     62  C   UNL A   1      42.502  29.355  35.765  1.00  0.00     0.029 A 
ATOM     63  C   UNL A   1      42.375  28.990  34.436  1.00  0.00     0.049 A 
ATOM     64  H   UNL A   1      40.978  29.654  32.999  1.00  0.00     0.167 HD
ATOM     65  C   UNL A   1      42.976  27.750  32.377  1.00  0.00     0.074 A 
ATOM     66  C   UNL A   1      43.797  26.826  31.626  1.00  0.00     0.031 C 
ATOM     67  C   UNL A   1      43.175  28.061  33.680  1.00  0.00     0.037 A 
BRANCH  54  68
ATOM     68  C   UNL A   1      39.174  32.177  35.922  1.00  0.00     0.064 A 
ATOM     69  C   UNL A   1      39.703  33.450  36.180  1.00  0.00     0.173 A 
ATOM     70  C   UNL A   1      38.275  31.635  36.851  1.00  0.00     0.173 A 
ATOM     71  F   UNL A   1      40.571  34.008  35.323  1.00  0.00    -0.203 F 
ATOM     72  C   UNL A   1      39.359  34.146  37.336  1.00  0.00     0.198 A 
ATOM     73  C   UNL A   1      37.918  32.342  37.995  1.00  0.00     0.198 A 
ATOM     74  F   UNL A   1      37.736  30.425  36.641  1.00  0.00    -0.203 F 
ATOM     75  F   UNL A   1      39.900  35.348  37.578  1.00  0.00    -0.200 F 
ATOM     76  C   UNL A   1      38.468  33.592  38.242  1.00  0.00     0.200 A 
ATOM     77  F   UNL A   1      37.044  31.814  38.863  1.00  0.00    -0.200 F 
ATOM     78  F   UNL A   1      38.138  34.264  39.354  1.00  0.00    -0.200 F 
ENDBRANCH  54  68
BRANCH  55  79
ATOM     79  C   UNL A   1      41.870  26.957  27.877  1.00  0.00     0.064 A 
ATOM     80  C   UNL A   1      41.386  25.657  27.672  1.00  0.00     0.173 A 
ATOM     81  C   UNL A   1      42.741  27.490  26.917  1.00  0.00     0.173 A 
ATOM     82  F   UNL A   1      40.542  25.107  28.557  1.00  0.00    -0.203 F 
ATOM     83  C   UNL A   1      41.772  24.914  26.559  1.00  0.00     0.198 A 
ATOM     84  C   UNL A   1      43.107  26.754  25.792  1.00  0.00     0.198 A 
ATOM     85  F   UNL A   1      43.206  28.740  27.057  1.00  0.00    -0.203 F 
ATOM     86  F   UNL A   1      41.312  23.666  26.397  1.00  0.00    -0.200 F 
ATOM     87  C   UNL A   1      42.628  25.465  25.617  1.00  0.00     0.200 A 
ATOM     88  F   UNL A   1      43.912  27.301  24.870  1.00  0.00    -0.200 F 
ATOM     89  F   UNL A   1      42.984  24.757  24.537  1.00  0.00    -0.200 F 
ENDBRANCH  55  79
BRANCH  67  90
ATOM     90  C   UNL A   1      44.302  27.381  34.397  1.00  0.00     0.064 A 
ATOM     91  C   UNL A   1      44.096  26.149  35.037  1.00  0.00     0.173 A 
ATOM     92  C   UNL A   1      45.563  27.982  34.515  1.00  0.00     0.173 A 
ATOM     93  F   UNL A   1      42.904  25.539  34.961  1.00  0.00    -0.203 F 
ATOM     94  C   UNL A   1      45.109  25.550  35.780  1.00  0.00     0.198 A 
ATOM     95  C   UNL A   1      46.581  27.368  35.239  1.00  0.00     0.198 A 
ATOM     96  F   UNL A   1      45.811  29.153  33.911  1.00  0.00    -0.203 F 
ATOM     97  F   UNL A   1      44.881  24.388  36.407  1.00  0.00    -0.200 F 
ATOM     98  C   UNL A   1      46.352  26.159  35.878  1.00  0.00     0.200 A 
ATOM     99  F   UNL A   1      47.788  27.947  35.318  1.00  0.00    -0.200 F 
ATOM    100  F   UNL A   1      47.330  25.577  36.588  1.00  0.00    -0.200 F 
ENDBRANCH  67  90
ENDBRANCH  41  42
ENDBRANCH  34  36
ENDBRANCH  33  34
ENDBRANCH  32  33
ENDBRANCH  31  32
ENDBRANCH   1  31
TORSDOF 18
ENDMDL
MODEL 3
REMARK VINA RESULT:     -11.9      4.767     10.374
REMARK SMILES Nc1nccc(N2CCC[C@@](Cc3ccc(F)cc3F)(C(=O)OCCOCCOC(=O)c3ccc(-c4c5nc(c(-c6c(F)c(F)c(F)c(F)c6F)c6ccc([nH]6)c(-c6c(F)c(F)c(F)c(F)c6F)c6nc(c(-c7c(F)c(F)c(F)c(F)c7F)c7ccc4[nH]7)C=C6)C=C5)cc3)C2)n1
REMARK SMILES IDX 26 1 25 2 24 3 23 4 21 5 22 6 11 7 7 8 8 9 95 10 9 11 10 12
REMARK SMILES IDX 6 13 2 14 3 15 96 16 4 17 5 18 1 19 12 22 13 23 14 24 19 25
REMARK SMILES IDX 15 26 18 27 20 28 16 29 17 30 27 31 28 32 29 33 30 34 31 35
REMARK SMILES IDX 32 36 33 37 94 38 34 39 93 40 35 41 36 42 37 43 87 44 38 45
REMARK SMILES IDX 92 46 86 47 88 48 39 49 91 50 85 51 84 52 40 54 72 55 52 56
REMARK SMILES IDX 71 57 53 58 56 59 70 60 89 61 54 62 55 63 69 65 90 66 57 67
REMARK SMILES IDX 41 68 42 69 50 70 43 71 44 72 48 73 51 74 45 75 46 76 49 77
REMARK SMILES IDX 47 78 73 79 74 80 82 81 75 82 76 83 80 84 83 85 77 86 78 87
REMARK SMILES IDX 81 88 79 89 58 90 59 91 67 92 60 93 61 94 65 95 68 96 62 97
REMARK SMILES IDX 63 98 66 99 64 100
REMARK H PARENT 1 20 1 21 88 53 56 64
REMARK Flexibility Score: inf
ROOT
ATOM      1  O   UNL A   1      37.635  21.041  24.891  1.00  0.00    -0.374 OA
ENDROOT
BRANCH   1   2
ATOM      2  C   UNL A   1      36.268  21.399  25.043  1.00  0.00     0.202 C 
BRANCH   2   3
ATOM      3  C   UNL A   1      35.950  22.658  25.855  1.00  0.00     0.261 C 
BRANCH   3   4
ATOM      4  O   UNL A   1      35.470  23.764  25.071  1.00  0.00    -0.463 OA
BRANCH   4   5
ATOM      5  C   UNL A   1      34.173  24.111  25.306  1.00  0.00     0.314 C 
ATOM      6  O   UNL A   1      33.730  24.382  26.418  1.00  0.00    -0.252 OA
BRANCH   5   7
ATOM      7  C   UNL A   1      33.285  24.050  24.066  1.00  0.00     0.090 C 
ATOM      8  N   UNL A   1      31.936  25.582  22.711  1.00  0.00    -0.355 N 
ATOM      9  C   UNL A   1      32.570  25.294  21.434  1.00  0.00     0.118 C 
ATOM     10  C   UNL A   1      32.796  25.507  23.889  1.00  0.00     0.137 C 
ATOM     11  C   UNL A   1      33.157  23.880  21.492  1.00  0.00     0.023 C 
ATOM     12  C   UNL A   1      34.003  23.637  22.753  1.00  0.00     0.023 C 
BRANCH   8  13
ATOM     13  C   UNL A   1      31.006  26.616  22.742  1.00  0.00     0.134 A 
ATOM     14  C   UNL A   1      30.446  28.804  22.372  1.00  0.00     0.221 A 
ATOM     15  N   UNL A   1      29.310  28.718  23.068  1.00  0.00    -0.222 NA
ATOM     16  N   UNL A   1      31.314  27.804  22.195  1.00  0.00    -0.196 NA
ATOM     17  C   UNL A   1      29.032  27.519  23.603  1.00  0.00     0.119 A 
ATOM     18  C   UNL A   1      29.841  26.422  23.455  1.00  0.00     0.067 A 
BRANCH  14  19
ATOM     19  N   UNL A   1      30.753  30.014  21.823  1.00  0.00    -0.368 N 
ATOM     20  H   UNL A   1      30.706  30.139  20.847  1.00  0.00     0.159 HD
ATOM     21  H   UNL A   1      31.023  30.763  22.401  1.00  0.00     0.159 HD
ENDBRANCH  14  19
ENDBRANCH   8  13
BRANCH   7  22
ATOM     22  C   UNL A   1      32.069  23.137  24.411  1.00  0.00     0.059 C 
BRANCH  22  23
ATOM     23  C   UNL A   1      32.332  21.648  24.350  1.00  0.00    -0.011 A 
ATOM     24  C   UNL A   1      32.213  20.945  23.143  1.00  0.00     0.010 A 
ATOM     25  C   UNL A   1      32.689  20.937  25.504  1.00  0.00     0.129 A 
ATOM     26  C   UNL A   1      32.392  19.561  23.113  1.00  0.00     0.040 A 
ATOM     27  C   UNL A   1      32.880  19.561  25.481  1.00  0.00     0.078 A 
ATOM     28  F   UNL A   1      32.849  21.584  26.667  1.00  0.00    -0.207 F 
ATOM     29  C   UNL A   1      32.717  18.883  24.283  1.00  0.00     0.126 A 
ATOM     30  F   UNL A   1      32.880  17.555  24.248  1.00  0.00    -0.207 F 
ENDBRANCH  22  23
ENDBRANCH   7  22
ENDBRANCH   5   7
ENDBRANCH   4   5
ENDBRANCH   3   4
ENDBRANCH   2   3
ENDBRANCH   1   2
BRANCH   1  31
ATOM     31  C   UNL A   1      37.980  19.660  24.997  1.00  0.00     0.202 C 
BRANCH  31  32
ATOM     32  C   UNL A   1      39.284  19.309  25.729  1.00  0.00     0.261 C 
BRANCH  32  33
ATOM     33  O   UNL A   1      40.169  20.439  25.874  1.00  0.00    -0.460 OA
BRANCH  33  34
ATOM     34  C   UNL A   1      40.838  20.481  27.053  1.00  0.00     0.338 C 
ATOM     35  O   UNL A   1      41.379  19.551  27.631  1.00  0.00    -0.246 OA
BRANCH  34  36
ATOM     36  C   UNL A   1      40.979  21.867  27.534  1.00  0.00     0.060 A 
ATOM     37  C   UNL A   1      40.313  22.876  26.828  1.00  0.00     0.016 A 
ATOM     38  C   UNL A   1      41.889  22.187  28.542  1.00  0.00     0.016 A 
ATOM     39  C   UNL A   1      40.592  24.217  27.098  1.00  0.00     0.010 A 
ATOM     40  C   UNL A   1      42.175  23.533  28.805  1.00  0.00     0.010 A 
ATOM     41  C   UNL A   1      41.556  24.553  28.058  1.00  0.00    -0.014 A 
BRANCH  41  42
ATOM     42  C   UNL A   1      42.008  25.962  28.181  1.00  0.00     0.031 A 
ATOM     43  C   UNL A   1      43.338  26.365  27.604  1.00  0.00     0.074 A 
ATOM     44  C   UNL A   1      41.222  26.885  28.763  1.00  0.00     0.049 A 
ATOM     45  N   UNL A   1      43.932  27.532  27.622  1.00  0.00    -0.248 NA
ATOM     46  C   UNL A   1      44.099  25.315  26.907  1.00  0.00     0.031 C 
ATOM     47  C   UNL A   1      39.894  26.634  29.316  1.00  0.00     0.029 A 
ATOM     48  N   UNL A   1      41.431  28.225  28.982  1.00  0.00    -0.354 N 
ATOM     49  C   UNL A   1      45.129  27.358  26.942  1.00  0.00     0.074 A 
ATOM     50  C   UNL A   1      45.192  25.969  26.540  1.00  0.00     0.031 C 
ATOM     51  C   UNL A   1      39.405  27.783  29.813  1.00  0.00     0.029 A 
ATOM     52  C   UNL A   1      40.398  28.843  29.640  1.00  0.00     0.049 A 
ATOM     53  H   UNL A   1      42.246  28.696  28.695  1.00  0.00     0.167 HD
ATOM     54  C   UNL A   1      46.086  28.277  26.669  1.00  0.00     0.037 A 
ATOM     55  C   UNL A   1      40.275  30.114  30.070  1.00  0.00     0.037 A 
ATOM     56  C   UNL A   1      46.029  29.659  27.064  1.00  0.00     0.049 A 
ATOM     57  C   UNL A   1      41.390  31.096  29.821  1.00  0.00     0.074 A 
ATOM     58  C   UNL A   1      46.958  30.660  26.837  1.00  0.00     0.029 A 
ATOM     59  N   UNL A   1      44.983  30.235  27.768  1.00  0.00    -0.354 N 
ATOM     60  N   UNL A   1      42.519  30.921  29.180  1.00  0.00    -0.248 NA
ATOM     61  C   UNL A   1      41.212  32.454  30.360  1.00  0.00     0.031 C 
ATOM     62  C   UNL A   1      46.491  31.834  27.434  1.00  0.00     0.029 A 
ATOM     63  C   UNL A   1      45.253  31.574  27.997  1.00  0.00     0.049 A 
ATOM     64  H   UNL A   1      44.171  29.763  28.061  1.00  0.00     0.167 HD
ATOM     65  C   UNL A   1      43.173  32.146  29.216  1.00  0.00     0.074 A 
ATOM     66  C   UNL A   1      42.313  33.061  29.934  1.00  0.00     0.031 C 
ATOM     67  C   UNL A   1      44.381  32.479  28.701  1.00  0.00     0.037 A 
BRANCH  54  68
ATOM     68  C   UNL A   1      47.294  27.823  25.907  1.00  0.00     0.064 A 
ATOM     69  C   UNL A   1      47.277  27.782  24.505  1.00  0.00     0.173 A 
ATOM     70  C   UNL A   1      48.435  27.345  26.567  1.00  0.00     0.173 A 
ATOM     71  F   UNL A   1      46.206  28.224  23.829  1.00  0.00    -0.203 F 
ATOM     72  C   UNL A   1      48.354  27.264  23.792  1.00  0.00     0.198 A 
ATOM     73  C   UNL A   1      49.518  26.846  25.849  1.00  0.00     0.198 A 
ATOM     74  F   UNL A   1      48.501  27.373  27.906  1.00  0.00    -0.203 F 
ATOM     75  F   UNL A   1      48.304  27.206  22.453  1.00  0.00    -0.200 F 
ATOM     76  C   UNL A   1      49.473  26.796  24.463  1.00  0.00     0.200 A 
ATOM     77  F   UNL A   1      50.606  26.409  26.498  1.00  0.00    -0.200 F 
ATOM     78  F   UNL A   1      50.509  26.297  23.775  1.00  0.00    -0.200 F 
ENDBRANCH  54  68
BRANCH  55  79
ATOM     79  C   UNL A   1      39.046  30.535  30.789  1.00  0.00     0.064 A 
ATOM     80  C   UNL A   1      37.930  31.026  30.095  1.00  0.00     0.173 A 
ATOM     81  C   UNL A   1      38.959  30.444  32.185  1.00  0.00     0.173 A 
ATOM     82  F   UNL A   1      37.961  31.123  28.757  1.00  0.00    -0.203 F 
ATOM     83  C   UNL A   1      36.780  31.425  30.771  1.00  0.00     0.198 A 
ATOM     84  C   UNL A   1      37.799  30.820  32.858  1.00  0.00     0.198 A 
ATOM     85  F   UNL A   1      39.990  29.954  32.888  1.00  0.00    -0.203 F 
ATOM     86  F   UNL A   1      35.736  31.910  30.086  1.00  0.00    -0.200 F 
ATOM     87  C   UNL A   1      36.713  31.316  32.153  1.00  0.00     0.200 A 
ATOM     88  F   UNL A   1      37.728  30.687  34.190  1.00  0.00    -0.200 F 
ATOM     89  F   UNL A   1      35.600  31.681  32.802  1.00  0.00    -0.200 F 
ENDBRANCH  55  79
BRANCH  67  90
ATOM     90  C   UNL A   1      44.841  33.897  28.860  1.00  0.00     0.064 A 
ATOM     91  C   UNL A   1      44.532  34.858  27.885  1.00  0.00     0.173 A 
ATOM     92  C   UNL A   1      45.651  34.287  29.936  1.00  0.00     0.173 A 
ATOM     93  F   UNL A   1      43.768  34.531  26.833  1.00  0.00    -0.203 F 
ATOM     94  C   UNL A   1      45.027  36.155  27.976  1.00  0.00     0.198 A 
ATOM     95  C   UNL A   1      46.125  35.592  30.036  1.00  0.00     0.198 A 
ATOM     96  F   UNL A   1      45.963  33.406  30.899  1.00  0.00    -0.203 F 
ATOM     97  F   UNL A   1      44.743  37.049  27.019  1.00  0.00    -0.200 F 
ATOM     98  C   UNL A   1      45.821  36.522  29.053  1.00  0.00     0.200 A 
ATOM     99  F   UNL A   1      46.876  35.951  31.087  1.00  0.00    -0.200 F 
ATOM    100  F   UNL A   1      46.291  37.774  29.144  1.00  0.00    -0.200 F 
ENDBRANCH  67  90
ENDBRANCH  41  42
ENDBRANCH  34  36
ENDBRANCH  33  34
ENDBRANCH  32  33
ENDBRANCH  31  32
ENDBRANCH   1  31
TORSDOF 18
ENDMDL
