MODEL 1
REMARK VINA RESULT:     -11.9      0.000      0.000
REMARK SMILES C=Cc1cncc(-c2ccc([C@@H](C)C(=O)OCCOCCOC(=O)c3ccc(-c4c5nc(c(-c6c(F)c(F)c(F)c(F)c6F)c6ccc([nH]6)c(-c6c(F)c(F)c(F)c(F)c6F)c6nc(c(-c7c(F)c(F)c(F)c(F)c7F)c7ccc4[nH]7)C=C6)C=C5)cc3)cc2)c1
REMARK SMILES IDX 18 1 17 2 16 3 14 4 15 5 12 6 13 7 11 8 8 9 9 10 89 11 10 12
REMARK SMILES IDX 88 13 7 14 3 15 4 16 90 17 5 18 6 19 2 20 1 21 19 22 20 23
REMARK SMILES IDX 21 24 22 25 23 26 24 27 25 28 26 29 87 30 27 31 86 32 28 33
REMARK SMILES IDX 29 34 30 35 80 36 31 37 85 38 79 39 81 40 32 41 84 42 78 43
REMARK SMILES IDX 77 44 33 46 65 47 45 48 64 49 46 50 49 51 63 52 82 53 47 54
REMARK SMILES IDX 48 55 62 57 83 58 50 59 34 60 35 61 43 62 36 63 37 64 41 65
REMARK SMILES IDX 44 66 38 67 39 68 42 69 40 70 66 71 67 72 75 73 68 74 69 75
REMARK SMILES IDX 73 76 76 77 70 78 71 79 74 80 72 81 51 82 52 83 60 84 53 85
REMARK SMILES IDX 54 86 58 87 61 88 55 89 56 90 59 91 57 92
REMARK H PARENT 81 45 49 56
REMARK Flexibility Score: inf
ROOT
ATOM      1  C   UNL A   1      39.658  21.529  26.159  1.00  0.00     0.202 C 
ENDROOT
BRANCH   1   2
ATOM      2  C   UNL A   1      38.303  21.044  25.642  1.00  0.00     0.261 C 
BRANCH   2   3
ATOM      3  O   UNL A   1      37.399  22.147  25.448  1.00  0.00    -0.463 OA
BRANCH   3   4
ATOM      4  C   UNL A   1      36.101  21.819  25.217  1.00  0.00     0.313 C 
ATOM      5  O   UNL A   1      35.458  21.022  25.894  1.00  0.00    -0.252 OA
BRANCH   4   6
ATOM      6  C   UNL A   1      35.504  22.493  23.992  1.00  0.00     0.126 C 
ATOM      7  C   UNL A   1      36.628  22.842  23.018  1.00  0.00     0.025 C 
BRANCH   6   8
ATOM      8  C   UNL A   1      34.558  23.669  24.213  1.00  0.00    -0.034 A 
ATOM      9  C   UNL A   1      32.866  25.959  24.365  1.00  0.00    -0.017 A 
ATOM     10  C   UNL A   1      34.049  25.875  25.116  1.00  0.00     0.009 A 
ATOM     11  C   UNL A   1      32.517  24.854  23.577  1.00  0.00     0.009 A 
ATOM     12  C   UNL A   1      34.882  24.750  25.043  1.00  0.00     0.005 A 
ATOM     13  C   UNL A   1      33.349  23.729  23.500  1.00  0.00     0.005 A 
BRANCH   9  14
ATOM     14  C   UNL A   1      32.064  27.192  24.345  1.00  0.00     0.001 A 
ATOM     15  C   UNL A   1      30.144  28.508  23.623  1.00  0.00    -0.007 A 
ATOM     16  C   UNL A   1      30.691  29.581  24.323  1.00  0.00     0.119 A 
ATOM     17  C   UNL A   1      30.860  27.303  23.634  1.00  0.00     0.020 A 
ATOM     18  N   UNL A   1      31.844  29.525  25.024  1.00  0.00    -0.263 NA
ATOM     19  C   UNL A   1      32.496  28.339  25.015  1.00  0.00     0.119 A 
BRANCH  15  20
ATOM     20  C   UNL A   1      28.898  28.695  22.873  1.00  0.00     0.002 C 
ATOM     21  C   UNL A   1      28.156  29.808  22.918  1.00  0.00     0.009 C 
ENDBRANCH  15  20
ENDBRANCH   9  14
ENDBRANCH   6   8
ENDBRANCH   4   6
ENDBRANCH   3   4
ENDBRANCH   2   3
ENDBRANCH   1   2
BRANCH   1  22
ATOM     22  O   UNL A   1      40.715  20.572  26.122  1.00  0.00    -0.374 OA
BRANCH  22  23
ATOM     23  C   UNL A   1      41.957  20.942  26.721  1.00  0.00     0.202 C 
BRANCH  23  24
ATOM     24  C   UNL A   1      43.005  21.546  25.779  1.00  0.00     0.261 C 
BRANCH  24  25
ATOM     25  O   UNL A   1      42.511  22.711  25.096  1.00  0.00    -0.460 OA
BRANCH  25  26
ATOM     26  C   UNL A   1      43.302  23.804  25.173  1.00  0.00     0.338 C 
ATOM     27  O   UNL A   1      44.348  24.010  24.574  1.00  0.00    -0.246 OA
BRANCH  26  28
ATOM     28  C   UNL A   1      42.645  24.842  25.987  1.00  0.00     0.060 A 
ATOM     29  C   UNL A   1      43.198  26.130  25.975  1.00  0.00     0.016 A 
ATOM     30  C   UNL A   1      41.561  24.542  26.814  1.00  0.00     0.016 A 
ATOM     31  C   UNL A   1      42.703  27.113  26.830  1.00  0.00     0.010 A 
ATOM     32  C   UNL A   1      41.074  25.523  27.681  1.00  0.00     0.010 A 
ATOM     33  C   UNL A   1      41.668  26.799  27.720  1.00  0.00    -0.014 A 
BRANCH  33  34
ATOM     34  C   UNL A   1      41.322  27.730  28.820  1.00  0.00     0.031 A 
ATOM     35  C   UNL A   1      42.135  27.677  30.084  1.00  0.00     0.074 A 
ATOM     36  C   UNL A   1      40.298  28.593  28.708  1.00  0.00     0.049 A 
ATOM     37  N   UNL A   1      41.934  28.274  31.230  1.00  0.00    -0.248 NA
ATOM     38  C   UNL A   1      43.337  26.829  30.048  1.00  0.00     0.031 C 
ATOM     39  C   UNL A   1      39.480  28.784  27.514  1.00  0.00     0.029 A 
ATOM     40  N   UNL A   1      39.762  29.458  29.629  1.00  0.00    -0.354 N 
ATOM     41  C   UNL A   1      42.968  27.858  32.056  1.00  0.00     0.074 A 
ATOM     42  C   UNL A   1      43.791  26.950  31.287  1.00  0.00     0.031 C 
ATOM     43  C   UNL A   1      38.524  29.690  27.783  1.00  0.00     0.029 A 
ATOM     44  C   UNL A   1      38.639  30.107  29.180  1.00  0.00     0.049 A 
ATOM     45  H   UNL A   1      40.145  29.600  30.525  1.00  0.00     0.167 HD
ATOM     46  C   UNL A   1      43.208  28.203  33.343  1.00  0.00     0.037 A 
ATOM     47  C   UNL A   1      37.781  30.912  29.837  1.00  0.00     0.037 A 
ATOM     48  C   UNL A   1      42.392  29.112  34.100  1.00  0.00     0.049 A 
ATOM     49  C   UNL A   1      38.022  31.220  31.293  1.00  0.00     0.074 A 
ATOM     50  C   UNL A   1      42.553  29.533  35.408  1.00  0.00     0.029 A 
ATOM     51  N   UNL A   1      41.253  29.737  33.614  1.00  0.00    -0.354 N 
ATOM     52  N   UNL A   1      38.999  30.823  32.073  1.00  0.00    -0.248 NA
ATOM     53  C   UNL A   1      37.037  32.080  31.965  1.00  0.00     0.031 C 
ATOM     54  C   UNL A   1      41.487  30.380  35.728  1.00  0.00     0.029 A 
ATOM     55  C   UNL A   1      40.691  30.525  34.603  1.00  0.00     0.049 A 
ATOM     56  H   UNL A   1      40.897  29.635  32.702  1.00  0.00     0.167 HD
ATOM     57  C   UNL A   1      38.768  31.412  33.308  1.00  0.00     0.074 A 
ATOM     58  C   UNL A   1      37.557  32.192  33.180  1.00  0.00     0.031 C 
ATOM     59  C   UNL A   1      39.499  31.319  34.447  1.00  0.00     0.037 A 
BRANCH  46  60
ATOM     60  C   UNL A   1      44.384  27.569  34.023  1.00  0.00     0.064 A 
ATOM     61  C   UNL A   1      45.642  28.187  34.053  1.00  0.00     0.173 A 
ATOM     62  C   UNL A   1      44.240  26.338  34.682  1.00  0.00     0.173 A 
ATOM     63  F   UNL A   1      45.834  29.357  33.425  1.00  0.00    -0.203 F 
ATOM     64  C   UNL A   1      46.719  27.586  34.701  1.00  0.00     0.198 A 
ATOM     65  C   UNL A   1      45.311  25.754  35.350  1.00  0.00     0.198 A 
ATOM     66  F   UNL A   1      43.055  25.707  34.684  1.00  0.00    -0.203 F 
ATOM     67  F   UNL A   1      47.923  28.174  34.681  1.00  0.00    -0.200 F 
ATOM     68  C   UNL A   1      46.551  26.374  35.353  1.00  0.00     0.200 A 
ATOM     69  F   UNL A   1      45.144  24.588  35.990  1.00  0.00    -0.200 F 
ATOM     70  F   UNL A   1      47.586  25.801  35.982  1.00  0.00    -0.200 F 
ENDBRANCH  46  60
BRANCH  47  71
ATOM     71  C   UNL A   1      36.594  31.463  29.133  1.00  0.00     0.064 A 
ATOM     72  C   UNL A   1      36.517  32.823  28.803  1.00  0.00     0.173 A 
ATOM     73  C   UNL A   1      35.507  30.645  28.790  1.00  0.00     0.173 A 
ATOM     74  F   UNL A   1      37.518  33.650  29.136  1.00  0.00    -0.203 F 
ATOM     75  C   UNL A   1      35.392  33.346  28.167  1.00  0.00     0.198 A 
ATOM     76  C   UNL A   1      34.395  31.164  28.131  1.00  0.00     0.198 A 
ATOM     77  F   UNL A   1      35.530  29.337  29.087  1.00  0.00    -0.203 F 
ATOM     78  F   UNL A   1      35.326  34.658  27.901  1.00  0.00    -0.200 F 
ATOM     79  C   UNL A   1      34.335  32.516  27.826  1.00  0.00     0.200 A 
ATOM     80  F   UNL A   1      33.380  30.356  27.793  1.00  0.00    -0.200 F 
ATOM     81  F   UNL A   1      33.256  33.019  27.212  1.00  0.00    -0.200 F 
ENDBRANCH  47  71
BRANCH  59  82
ATOM     82  C   UNL A   1      39.052  32.123  35.632  1.00  0.00     0.064 A 
ATOM     83  C   UNL A   1      38.264  31.564  36.647  1.00  0.00     0.173 A 
ATOM     84  C   UNL A   1      39.495  33.445  35.791  1.00  0.00     0.173 A 
ATOM     85  F   UNL A   1      37.806  30.308  36.533  1.00  0.00    -0.203 F 
ATOM     86  C   UNL A   1      37.928  32.304  37.777  1.00  0.00     0.198 A 
ATOM     87  C   UNL A   1      39.178  34.173  36.934  1.00  0.00     0.198 A 
ATOM     88  F   UNL A   1      40.258  34.021  34.850  1.00  0.00    -0.203 F 
ATOM     89  F   UNL A   1      37.154  31.760  38.726  1.00  0.00    -0.200 F 
ATOM     90  C   UNL A   1      38.394  33.603  37.925  1.00  0.00     0.200 A 
ATOM     91  F   UNL A   1      39.641  35.422  37.081  1.00  0.00    -0.200 F 
ATOM     92  F   UNL A   1      38.086  34.306  39.024  1.00  0.00    -0.200 F 
ENDBRANCH  59  82
ENDBRANCH  33  34
ENDBRANCH  26  28
ENDBRANCH  25  26
ENDBRANCH  24  25
ENDBRANCH  23  24
ENDBRANCH  22  23
ENDBRANCH   1  22
TORSDOF 17
ENDMDL
MODEL 2
REMARK VINA RESULT:     -11.2      4.541      8.697
REMARK SMILES C=Cc1cncc(-c2ccc([C@@H](C)C(=O)OCCOCCOC(=O)c3ccc(-c4c5nc(c(-c6c(F)c(F)c(F)c(F)c6F)c6ccc([nH]6)c(-c6c(F)c(F)c(F)c(F)c6F)c6nc(c(-c7c(F)c(F)c(F)c(F)c7F)c7ccc4[nH]7)C=C6)C=C5)cc3)cc2)c1
REMARK SMILES IDX 18 1 17 2 16 3 14 4 15 5 12 6 13 7 11 8 8 9 9 10 89 11 10 12
REMARK SMILES IDX 88 13 7 14 3 15 4 16 90 17 5 18 6 19 2 20 1 21 19 22 20 23
REMARK SMILES IDX 21 24 22 25 23 26 24 27 25 28 26 29 87 30 27 31 86 32 28 33
REMARK SMILES IDX 29 34 30 35 80 36 31 37 85 38 79 39 81 40 32 41 84 42 78 43
REMARK SMILES IDX 77 44 33 46 65 47 45 48 64 49 46 50 49 51 63 52 82 53 47 54
REMARK SMILES IDX 48 55 62 57 83 58 50 59 34 60 35 61 43 62 36 63 37 64 41 65
REMARK SMILES IDX 44 66 38 67 39 68 42 69 40 70 66 71 67 72 75 73 68 74 69 75
REMARK SMILES IDX 73 76 76 77 70 78 71 79 74 80 72 81 51 82 52 83 60 84 53 85
REMARK SMILES IDX 54 86 58 87 61 88 55 89 56 90 59 91 57 92
REMARK H PARENT 81 45 49 56
REMARK Flexibility Score: inf
ROOT
ATOM      1  C   UNL A   1      33.566  20.112  25.390  1.00  0.00     0.202 C 
ENDROOT
BRANCH   1   2
ATOM      2  C   UNL A   1      33.236  20.524  23.955  1.00  0.00     0.261 C 
BRANCH   2   3
ATOM      3  O   UNL A   1      32.071  21.369  23.916  1.00  0.00    -0.463 OA
BRANCH   3   4
ATOM      4  C   UNL A   1      32.286  22.663  23.564  1.00  0.00     0.313 C 
ATOM      5  O   UNL A   1      33.209  23.041  22.848  1.00  0.00    -0.252 OA
BRANCH   4   6
ATOM      6  C   UNL A   1      31.300  23.642  24.181  1.00  0.00     0.126 C 
ATOM      7  C   UNL A   1      30.281  24.056  23.121  1.00  0.00     0.025 C 
BRANCH   6   8
ATOM      8  C   UNL A   1      31.862  24.845  24.931  1.00  0.00    -0.034 A 
ATOM      9  C   UNL A   1      32.786  27.259  26.135  1.00  0.00    -0.017 A 
ATOM     10  C   UNL A   1      33.661  26.409  25.440  1.00  0.00     0.009 A 
ATOM     11  C   UNL A   1      31.450  26.854  26.262  1.00  0.00     0.009 A 
ATOM     12  C   UNL A   1      33.209  25.221  24.848  1.00  0.00     0.005 A 
ATOM     13  C   UNL A   1      30.995  25.668  25.669  1.00  0.00     0.005 A 
BRANCH   9  14
ATOM     14  C   UNL A   1      33.237  28.564  26.642  1.00  0.00     0.001 A 
ATOM     15  C   UNL A   1      34.920  30.044  27.600  1.00  0.00    -0.007 A 
ATOM     16  C   UNL A   1      33.941  31.034  27.641  1.00  0.00     0.119 A 
ATOM     17  C   UNL A   1      34.543  28.790  27.100  1.00  0.00     0.020 A 
ATOM     18  N   UNL A   1      32.671  30.868  27.210  1.00  0.00    -0.263 NA
ATOM     19  C   UNL A   1      32.356  29.645  26.726  1.00  0.00     0.119 A 
BRANCH  15  20
ATOM     20  C   UNL A   1      36.259  30.332  28.123  1.00  0.00     0.002 C 
ATOM     21  C   UNL A   1      37.384  29.791  27.638  1.00  0.00     0.009 C 
ENDBRANCH  15  20
ENDBRANCH   9  14
ENDBRANCH   6   8
ENDBRANCH   4   6
ENDBRANCH   3   4
ENDBRANCH   2   3
ENDBRANCH   1   2
BRANCH   1  22
ATOM     22  O   UNL A   1      34.645  20.814  26.005  1.00  0.00    -0.374 OA
BRANCH  22  23
ATOM     23  C   UNL A   1      35.589  21.452  25.144  1.00  0.00     0.202 C 
BRANCH  23  24
ATOM     24  C   UNL A   1      37.024  20.918  25.206  1.00  0.00     0.261 C 
BRANCH  24  25
ATOM     25  O   UNL A   1      37.983  21.970  25.410  1.00  0.00    -0.460 OA
BRANCH  25  26
ATOM     26  C   UNL A   1      39.076  21.623  26.125  1.00  0.00     0.338 C 
ATOM     27  O   UNL A   1      39.630  20.534  26.161  1.00  0.00    -0.246 OA
BRANCH  26  28
ATOM     28  C   UNL A   1      39.650  22.818  26.774  1.00  0.00     0.060 A 
ATOM     29  C   UNL A   1      39.190  24.074  26.355  1.00  0.00     0.016 A 
ATOM     30  C   UNL A   1      40.678  22.713  27.712  1.00  0.00     0.016 A 
ATOM     31  C   UNL A   1      39.794  25.235  26.832  1.00  0.00     0.010 A 
ATOM     32  C   UNL A   1      41.292  23.878  28.180  1.00  0.00     0.010 A 
ATOM     33  C   UNL A   1      40.879  25.140  27.713  1.00  0.00    -0.014 A 
BRANCH  33  34
ATOM     34  C   UNL A   1      41.708  26.333  28.008  1.00  0.00     0.031 A 
ATOM     35  C   UNL A   1      41.101  27.441  28.821  1.00  0.00     0.074 A 
ATOM     36  C   UNL A   1      42.967  26.438  27.550  1.00  0.00     0.049 A 
ATOM     37  N   UNL A   1      41.565  28.637  29.078  1.00  0.00    -0.248 NA
ATOM     38  C   UNL A   1      39.787  27.162  29.423  1.00  0.00     0.031 C 
ATOM     39  C   UNL A   1      43.686  25.406  26.810  1.00  0.00     0.029 A 
ATOM     40  N   UNL A   1      43.855  27.482  27.628  1.00  0.00    -0.354 N 
ATOM     41  C   UNL A   1      40.594  29.259  29.850  1.00  0.00     0.074 A 
ATOM     42  C   UNL A   1      39.509  28.315  30.012  1.00  0.00     0.031 C 
ATOM     43  C   UNL A   1      44.900  25.878  26.475  1.00  0.00     0.029 A 
ATOM     44  C   UNL A   1      45.022  27.259  26.940  1.00  0.00     0.049 A 
ATOM     45  H   UNL A   1      43.674  28.310  28.129  1.00  0.00     0.167 HD
ATOM     46  C   UNL A   1      40.606  30.507  30.374  1.00  0.00     0.037 A 
ATOM     47  C   UNL A   1      46.049  28.092  26.682  1.00  0.00     0.037 A 
ATOM     48  C   UNL A   1      41.690  31.437  30.215  1.00  0.00     0.049 A 
ATOM     49  C   UNL A   1      46.007  29.504  27.208  1.00  0.00     0.074 A 
ATOM     50  C   UNL A   1      41.804  32.723  30.712  1.00  0.00     0.029 A 
ATOM     51  N   UNL A   1      42.849  31.179  29.497  1.00  0.00    -0.354 N 
ATOM     52  N   UNL A   1      45.086  30.090  27.935  1.00  0.00    -0.248 NA
ATOM     53  C   UNL A   1      47.143  30.375  26.870  1.00  0.00     0.031 C 
ATOM     54  C   UNL A   1      43.013  33.260  30.259  1.00  0.00     0.029 A 
ATOM     55  C   UNL A   1      43.674  32.290  29.522  1.00  0.00     0.049 A 
ATOM     56  H   UNL A   1      43.053  30.333  29.038  1.00  0.00     0.167 HD
ATOM     57  C   UNL A   1      45.546  31.378  28.172  1.00  0.00     0.074 A 
ATOM     58  C   UNL A   1      46.828  31.494  27.510  1.00  0.00     0.031 C 
ATOM     59  C   UNL A   1      44.961  32.375  28.881  1.00  0.00     0.037 A 
BRANCH  46  60
ATOM     60  C   UNL A   1      39.397  30.949  31.141  1.00  0.00     0.064 A 
ATOM     61  C   UNL A   1      38.427  31.787  30.573  1.00  0.00     0.173 A 
ATOM     62  C   UNL A   1      39.189  30.499  32.455  1.00  0.00     0.173 A 
ATOM     63  F   UNL A   1      38.587  32.255  29.326  1.00  0.00    -0.203 F 
ATOM     64  C   UNL A   1      37.304  32.176  31.299  1.00  0.00     0.198 A 
ATOM     65  C   UNL A   1      38.053  30.869  33.167  1.00  0.00     0.198 A 
ATOM     66  F   UNL A   1      40.087  29.693  33.043  1.00  0.00    -0.203 F 
ATOM     67  F   UNL A   1      36.411  33.012  30.750  1.00  0.00    -0.200 F 
ATOM     68  C   UNL A   1      37.115  31.713  32.592  1.00  0.00     0.200 A 
ATOM     69  F   UNL A   1      37.867  30.411  34.413  1.00  0.00    -0.200 F 
ATOM     70  F   UNL A   1      36.031  32.083  33.286  1.00  0.00    -0.200 F 
ENDBRANCH  46  60
BRANCH  47  71
ATOM     71  C   UNL A   1      47.195  27.623  25.861  1.00  0.00     0.064 A 
ATOM     72  C   UNL A   1      48.305  27.007  26.455  1.00  0.00     0.173 A 
ATOM     73  C   UNL A   1      47.211  27.795  24.469  1.00  0.00     0.173 A 
ATOM     74  F   UNL A   1      48.349  26.846  27.785  1.00  0.00    -0.203 F 
ATOM     75  C   UNL A   1      49.393  26.591  25.689  1.00  0.00     0.198 A 
ATOM     76  C   UNL A   1      48.287  27.356  23.701  1.00  0.00     0.198 A 
ATOM     77  F   UNL A   1      46.175  28.382  23.852  1.00  0.00    -0.203 F 
ATOM     78  F   UNL A   1      50.460  26.044  26.287  1.00  0.00    -0.200 F 
ATOM     79  C   UNL A   1      49.381  26.761  24.312  1.00  0.00     0.200 A 
ATOM     80  F   UNL A   1      48.267  27.511  22.370  1.00  0.00    -0.200 F 
ATOM     81  F   UNL A   1      50.426  26.358  23.576  1.00  0.00    -0.200 F 
ENDBRANCH  47  71
BRANCH  59  82
ATOM     82  C   UNL A   1      45.718  33.661  29.035  1.00  0.00     0.064 A 
ATOM     83  C   UNL A   1      46.646  33.852  30.067  1.00  0.00     0.173 A 
ATOM     84  C   UNL A   1      45.571  34.681  28.082  1.00  0.00     0.173 A 
ATOM     85  F   UNL A   1      46.811  32.911  31.009  1.00  0.00    -0.203 F 
ATOM     86  C   UNL A   1      47.396  35.022  30.144  1.00  0.00     0.198 A 
ATOM     87  C   UNL A   1      46.341  35.838  28.147  1.00  0.00     0.198 A 
ATOM     88  F   UNL A   1      44.701  34.541  27.070  1.00  0.00    -0.203 F 
ATOM     89  F   UNL A   1      48.262  35.196  31.152  1.00  0.00    -0.200 F 
ATOM     90  C   UNL A   1      47.252  36.009  29.179  1.00  0.00     0.200 A 
ATOM     91  F   UNL A   1      46.210  36.783  27.206  1.00  0.00    -0.200 F 
ATOM     92  F   UNL A   1      47.990  37.125  29.244  1.00  0.00    -0.200 F 
ENDBRANCH  59  82
ENDBRANCH  33  34
ENDBRANCH  26  28
ENDBRANCH  25  26
ENDBRANCH  24  25
ENDBRANCH  23  24
ENDBRANCH  22  23
ENDBRANCH   1  22
TORSDOF 17
ENDMDL
MODEL 3
REMARK VINA RESULT:     -11.2      4.449      8.535
REMARK SMILES C=Cc1cncc(-c2ccc([C@@H](C)C(=O)OCCOCCOC(=O)c3ccc(-c4c5nc(c(-c6c(F)c(F)c(F)c(F)c6F)c6ccc([nH]6)c(-c6c(F)c(F)c(F)c(F)c6F)c6nc(c(-c7c(F)c(F)c(F)c(F)c7F)c7ccc4[nH]7)C=C6)C=C5)cc3)cc2)c1
REMARK SMILES IDX 18 1 17 2 16 3 14 4 15 5 12 6 13 7 11 8 8 9 9 10 89 11 10 12
REMARK SMILES IDX 88 13 7 14 3 15 4 16 90 17 5 18 6 19 2 20 1 21 19 22 20 23
REMARK SMILES IDX 21 24 22 25 23 26 24 27 25 28 26 29 87 30 27 31 86 32 28 33
REMARK SMILES IDX 29 34 30 35 80 36 31 37 85 38 79 39 81 40 32 41 84 42 78 43
REMARK SMILES IDX 77 44 33 46 65 47 45 48 64 49 46 50 49 51 63 52 82 53 47 54
REMARK SMILES IDX 48 55 62 57 83 58 50 59 34 60 35 61 43 62 36 63 37 64 41 65
REMARK SMILES IDX 44 66 38 67 39 68 42 69 40 70 66 71 67 72 75 73 68 74 69 75
REMARK SMILES IDX 73 76 76 77 70 78 71 79 74 80 72 81 51 82 52 83 60 84 53 85
REMARK SMILES IDX 54 86 58 87 61 88 55 89 56 90 59 91 57 92
REMARK H PARENT 81 45 49 56
REMARK Flexibility Score: inf
ROOT
ATOM      1  C   UNL A   1      33.674  20.213  24.561  1.00  0.00     0.202 C 
ENDROOT
BRANCH   1   2
ATOM      2  C   UNL A   1      32.868  21.476  24.252  1.00  0.00     0.261 C 
BRANCH   2   3
ATOM      3  O   UNL A   1      32.320  22.045  25.455  1.00  0.00    -0.463 OA
BRANCH   3   4
ATOM      4  C   UNL A   1      32.921  23.178  25.903  1.00  0.00     0.313 C 
ATOM      5  O   UNL A   1      33.052  23.469  27.089  1.00  0.00    -0.252 OA
BRANCH   4   6
ATOM      6  C   UNL A   1      33.387  24.109  24.795  1.00  0.00     0.126 C 
ATOM      7  C   UNL A   1      34.813  24.566  25.097  1.00  0.00     0.025 C 
BRANCH   6   8
ATOM      8  C   UNL A   1      32.484  25.277  24.415  1.00  0.00    -0.034 A 
ATOM      9  C   UNL A   1      30.580  27.319  23.833  1.00  0.00    -0.017 A 
ATOM     10  C   UNL A   1      31.071  26.471  22.827  1.00  0.00     0.009 A 
ATOM     11  C   UNL A   1      31.099  27.162  25.125  1.00  0.00     0.009 A 
ATOM     12  C   UNL A   1      32.007  25.466  23.111  1.00  0.00     0.005 A 
ATOM     13  C   UNL A   1      32.033  26.158  25.412  1.00  0.00     0.005 A 
BRANCH   9  14
ATOM     14  C   UNL A   1      29.505  28.283  23.556  1.00  0.00     0.001 A 
ATOM     15  C   UNL A   1      28.640  30.553  23.349  1.00  0.00    -0.007 A 
ATOM     16  C   UNL A   1      27.392  29.990  23.094  1.00  0.00     0.119 A 
ATOM     17  C   UNL A   1      29.703  29.672  23.593  1.00  0.00     0.020 A 
ATOM     18  N   UNL A   1      27.149  28.662  23.045  1.00  0.00    -0.263 NA
ATOM     19  C   UNL A   1      28.207  27.850  23.277  1.00  0.00     0.119 A 
BRANCH  15  20
ATOM     20  C   UNL A   1      28.777  32.011  23.405  1.00  0.00     0.002 C 
ATOM     21  C   UNL A   1      28.969  32.787  22.331  1.00  0.00     0.009 C 
ENDBRANCH  15  20
ENDBRANCH   9  14
ENDBRANCH   6   8
ENDBRANCH   4   6
ENDBRANCH   3   4
ENDBRANCH   2   3
ENDBRANCH   1   2
BRANCH   1  22
ATOM     22  O   UNL A   1      34.915  20.418  25.235  1.00  0.00    -0.374 OA
BRANCH  22  23
ATOM     23  C   UNL A   1      35.959  21.063  24.506  1.00  0.00     0.202 C 
BRANCH  23  24
ATOM     24  C   UNL A   1      37.390  20.730  24.944  1.00  0.00     0.261 C 
BRANCH  24  25
ATOM     25  O   UNL A   1      37.915  21.705  25.862  1.00  0.00    -0.460 OA
BRANCH  25  26
ATOM     26  C   UNL A   1      39.199  21.513  26.235  1.00  0.00     0.338 C 
ATOM     27  O   UNL A   1      39.913  20.554  25.984  1.00  0.00    -0.246 OA
BRANCH  26  28
ATOM     28  C   UNL A   1      39.720  22.731  26.884  1.00  0.00     0.060 A 
ATOM     29  C   UNL A   1      39.187  23.964  26.484  1.00  0.00     0.016 A 
ATOM     30  C   UNL A   1      40.769  22.675  27.804  1.00  0.00     0.016 A 
ATOM     31  C   UNL A   1      39.736  25.152  26.961  1.00  0.00     0.010 A 
ATOM     32  C   UNL A   1      41.328  23.867  28.271  1.00  0.00     0.010 A 
ATOM     33  C   UNL A   1      40.840  25.108  27.822  1.00  0.00    -0.014 A 
BRANCH  33  34
ATOM     34  C   UNL A   1      41.609  26.341  28.112  1.00  0.00     0.031 A 
ATOM     35  C   UNL A   1      40.920  27.457  28.847  1.00  0.00     0.074 A 
ATOM     36  C   UNL A   1      42.888  26.475  27.719  1.00  0.00     0.049 A 
ATOM     37  N   UNL A   1      41.328  28.678  29.080  1.00  0.00    -0.248 NA
ATOM     38  C   UNL A   1      39.586  27.153  29.388  1.00  0.00     0.031 C 
ATOM     39  C   UNL A   1      43.682  25.443  27.061  1.00  0.00     0.029 A 
ATOM     40  N   UNL A   1      43.733  27.554  27.803  1.00  0.00    -0.354 N 
ATOM     41  C   UNL A   1      40.294  29.293  29.773  1.00  0.00     0.074 A 
ATOM     42  C   UNL A   1      39.235  28.317  29.915  1.00  0.00     0.031 C 
ATOM     43  C   UNL A   1      44.895  25.947  26.773  1.00  0.00     0.029 A 
ATOM     44  C   UNL A   1      44.943  27.348  27.188  1.00  0.00     0.049 A 
ATOM     45  H   UNL A   1      43.496  28.393  28.259  1.00  0.00     0.167 HD
ATOM     46  C   UNL A   1      40.235  30.559  30.247  1.00  0.00     0.037 A 
ATOM     47  C   UNL A   1      45.953  28.208  26.952  1.00  0.00     0.037 A 
ATOM     48  C   UNL A   1      41.292  31.522  30.109  1.00  0.00     0.049 A 
ATOM     49  C   UNL A   1      45.833  29.637  27.418  1.00  0.00     0.074 A 
ATOM     50  C   UNL A   1      41.334  32.830  30.560  1.00  0.00     0.029 A 
ATOM     51  N   UNL A   1      42.497  31.280  29.465  1.00  0.00    -0.354 N 
ATOM     52  N   UNL A   1      44.854  30.216  28.070  1.00  0.00    -0.248 NA
ATOM     53  C   UNL A   1      46.954  30.536  27.107  1.00  0.00     0.031 C 
ATOM     54  C   UNL A   1      42.547  33.393  30.151  1.00  0.00     0.029 A 
ATOM     55  C   UNL A   1      43.281  32.421  29.490  1.00  0.00     0.049 A 
ATOM     56  H   UNL A   1      42.756  30.425  29.052  1.00  0.00     0.167 HD
ATOM     57  C   UNL A   1      45.255  31.528  28.280  1.00  0.00     0.074 A 
ATOM     58  C   UNL A   1      46.566  31.666  27.683  1.00  0.00     0.031 C 
ATOM     59  C   UNL A   1      44.597  32.529  28.916  1.00  0.00     0.037 A 
BRANCH  46  60
ATOM     60  C   UNL A   1      38.970  30.985  30.929  1.00  0.00     0.064 A 
ATOM     61  C   UNL A   1      38.812  30.891  32.319  1.00  0.00     0.173 A 
ATOM     62  C   UNL A   1      37.912  31.527  30.182  1.00  0.00     0.173 A 
ATOM     63  F   UNL A   1      39.788  30.366  33.075  1.00  0.00    -0.203 F 
ATOM     64  C   UNL A   1      37.633  31.303  32.935  1.00  0.00     0.198 A 
ATOM     65  C   UNL A   1      36.746  31.963  30.804  1.00  0.00     0.198 A 
ATOM     66  F   UNL A   1      38.014  31.642  28.849  1.00  0.00    -0.203 F 
ATOM     67  F   UNL A   1      37.488  31.164  34.260  1.00  0.00    -0.200 F 
ATOM     68  C   UNL A   1      36.604  31.844  32.178  1.00  0.00     0.200 A 
ATOM     69  F   UNL A   1      35.757  32.496  30.073  1.00  0.00    -0.200 F 
ATOM     70  F   UNL A   1      35.474  32.247  32.774  1.00  0.00    -0.200 F 
ENDBRANCH  46  60
BRANCH  47  71
ATOM     71  C   UNL A   1      47.159  27.751  26.213  1.00  0.00     0.064 A 
ATOM     72  C   UNL A   1      48.283  27.267  26.895  1.00  0.00     0.173 A 
ATOM     73  C   UNL A   1      47.216  27.802  24.812  1.00  0.00     0.173 A 
ATOM     74  F   UNL A   1      48.287  27.225  28.235  1.00  0.00    -0.203 F 
ATOM     75  C   UNL A   1      49.425  26.864  26.204  1.00  0.00     0.198 A 
ATOM     76  C   UNL A   1      48.348  27.374  24.122  1.00  0.00     0.198 A 
ATOM     77  F   UNL A   1      46.167  28.260  24.113  1.00  0.00    -0.203 F 
ATOM     78  F   UNL A   1      50.503  26.446  26.883  1.00  0.00    -0.200 F 
ATOM     79  C   UNL A   1      49.454  26.912  24.819  1.00  0.00     0.200 A 
ATOM     80  F   UNL A   1      48.367  27.412  22.782  1.00  0.00    -0.200 F 
ATOM     81  F   UNL A   1      50.551  26.521  24.155  1.00  0.00    -0.200 F 
ENDBRANCH  47  71
BRANCH  59  82
ATOM     82  C   UNL A   1      45.299  33.847  29.058  1.00  0.00     0.064 A 
ATOM     83  C   UNL A   1      45.129  34.878  28.124  1.00  0.00     0.173 A 
ATOM     84  C   UNL A   1      46.084  34.106  30.192  1.00  0.00     0.173 A 
ATOM     85  F   UNL A   1      44.399  34.674  27.018  1.00  0.00    -0.203 F 
ATOM     86  C   UNL A   1      45.726  36.121  28.318  1.00  0.00     0.198 A 
ATOM     87  C   UNL A   1      46.658  35.357  30.395  1.00  0.00     0.198 A 
ATOM     88  F   UNL A   1      46.270  33.153  31.118  1.00  0.00    -0.203 F 
ATOM     89  F   UNL A   1      45.571  37.087  27.402  1.00  0.00    -0.200 F 
ATOM     90  C   UNL A   1      46.481  36.363  29.458  1.00  0.00     0.200 A 
ATOM     91  F   UNL A   1      47.374  35.592  31.503  1.00  0.00    -0.200 F 
ATOM     92  F   UNL A   1      47.037  37.566  29.651  1.00  0.00    -0.200 F 
ENDBRANCH  59  82
ENDBRANCH  33  34
ENDBRANCH  26  28
ENDBRANCH  25  26
ENDBRANCH  24  25
ENDBRANCH  23  24
ENDBRANCH  22  23
ENDBRANCH   1  22
TORSDOF 17
ENDMDL
