MODEL 1
REMARK VINA RESULT:     -10.1      0.000      0.000
REMARK SMILES O=C(OCCOCCOC(=O)[C@@H](F)Sc1ccccc1O)c1ccc(-c2c3nc(c(-c4c(F)c(F)c(F)c(F)c4F)c4ccc([nH]4)c(-c4c(F)c(F)c(F)c(F)c4F)c4nc(c(-c5c(F)c(F)c(F)c(F)c5F)c5ccc2[nH]5)C=C4)C=C3)cc1
REMARK SMILES IDX 7 1 6 2 5 3 4 4 3 5 2 6 1 7 22 8 23 9 84 10 24 11 83 12
REMARK SMILES IDX 25 13 26 14 27 15 77 16 28 17 82 18 76 19 78 20 29 21 81 22
REMARK SMILES IDX 75 23 74 24 30 26 62 27 42 28 61 29 43 30 46 31 60 32 79 33
REMARK SMILES IDX 44 34 45 35 59 37 80 38 47 39 31 40 32 41 40 42 33 43 34 44
REMARK SMILES IDX 38 45 41 46 35 47 36 48 39 49 37 50 63 51 64 52 72 53 65 54
REMARK SMILES IDX 66 55 70 56 73 57 67 58 68 59 71 60 69 61 48 62 49 63 57 64
REMARK SMILES IDX 50 65 51 66 55 67 58 68 52 69 53 70 56 71 54 72 8 73 9 74
REMARK SMILES IDX 10 75 11 76 12 77 13 78 14 79 15 80 16 81 20 82 17 83 19 84
REMARK SMILES IDX 18 85 21 86
REMARK H PARENT 78 25 46 36 21 87
REMARK Flexibility Score: inf
ROOT
ATOM      1  C   UNL A   1      42.271  19.098  26.194  1.00  0.00     0.202 C 
ENDROOT
BRANCH   1   2
ATOM      2  O   UNL A   1      42.059  20.389  25.606  1.00  0.00    -0.374 OA
BRANCH   2   3
ATOM      3  C   UNL A   1      41.931  21.471  26.532  1.00  0.00     0.202 C 
BRANCH   3   4
ATOM      4  C   UNL A   1      40.714  21.374  27.466  1.00  0.00     0.261 C 
BRANCH   4   5
ATOM      5  O   UNL A   1      39.484  21.613  26.755  1.00  0.00    -0.460 OA
BRANCH   5   6
ATOM      6  C   UNL A   1      38.917  22.791  26.406  1.00  0.00     0.338 C 
ATOM      7  O   UNL A   1      38.006  22.780  25.580  1.00  0.00    -0.246 OA
BRANCH   6   8
ATOM      8  C   UNL A   1      39.361  24.124  26.926  1.00  0.00     0.060 A 
ATOM      9  C   UNL A   1      39.270  24.531  28.256  1.00  0.00     0.016 A 
ATOM     10  C   UNL A   1      40.027  24.977  26.027  1.00  0.00     0.016 A 
ATOM     11  C   UNL A   1      39.837  25.705  28.706  1.00  0.00     0.010 A 
ATOM     12  C   UNL A   1      40.604  26.174  26.467  1.00  0.00     0.010 A 
ATOM     13  C   UNL A   1      40.518  26.522  27.817  1.00  0.00    -0.014 A 
BRANCH  13  14
ATOM     14  C   UNL A   1      41.031  27.781  28.363  1.00  0.00     0.031 A 
ATOM     15  C   UNL A   1      42.502  28.015  28.306  1.00  0.00     0.074 A 
ATOM     16  C   UNL A   1      40.156  28.744  28.702  1.00  0.00     0.049 A 
ATOM     17  N   UNL A   1      43.191  29.038  28.729  1.00  0.00    -0.248 NA
ATOM     18  C   UNL A   1      43.310  26.966  27.658  1.00  0.00     0.031 C 
ATOM     19  C   UNL A   1      38.696  28.628  28.603  1.00  0.00     0.029 A 
ATOM     20  N   UNL A   1      40.359  30.015  29.160  1.00  0.00    -0.354 N 
ATOM     21  C   UNL A   1      44.512  28.741  28.431  1.00  0.00     0.074 A 
ATOM     22  C   UNL A   1      44.534  27.455  27.774  1.00  0.00     0.031 C 
ATOM     23  C   UNL A   1      38.138  29.786  28.993  1.00  0.00     0.029 A 
ATOM     24  C   UNL A   1      39.193  30.688  29.437  1.00  0.00     0.049 A 
ATOM     25  H   UNL A   1      41.252  30.410  29.280  1.00  0.00     0.167 HD
ATOM     26  C   UNL A   1      45.602  29.486  28.713  1.00  0.00     0.037 A 
ATOM     27  C   UNL A   1      39.020  31.879  30.035  1.00  0.00     0.037 A 
ATOM     28  C   UNL A   1      45.525  30.763  29.366  1.00  0.00     0.049 A 
ATOM     29  C   UNL A   1      40.261  32.629  30.448  1.00  0.00     0.074 A 
ATOM     30  C   UNL A   1      46.552  31.598  29.758  1.00  0.00     0.029 A 
ATOM     31  N   UNL A   1      44.335  31.383  29.728  1.00  0.00    -0.354 N 
ATOM     32  N   UNL A   1      41.521  32.327  30.229  1.00  0.00    -0.248 NA
ATOM     33  C   UNL A   1      40.065  33.869  31.207  1.00  0.00     0.031 C 
ATOM     34  C   UNL A   1      45.986  32.696  30.413  1.00  0.00     0.029 A 
ATOM     35  C   UNL A   1      44.603  32.576  30.373  1.00  0.00     0.049 A 
ATOM     36  H   UNL A   1      43.435  31.027  29.550  1.00  0.00     0.167 HD
ATOM     37  C   UNL A   1      42.265  33.342  30.809  1.00  0.00     0.074 A 
ATOM     38  C   UNL A   1      41.313  34.286  31.362  1.00  0.00     0.031 C 
ATOM     39  C   UNL A   1      43.611  33.484  30.895  1.00  0.00     0.037 A 
BRANCH  26  40
ATOM     40  C   UNL A   1      46.943  28.894  28.409  1.00  0.00     0.064 A 
ATOM     41  C   UNL A   1      47.560  29.032  27.158  1.00  0.00     0.173 A 
ATOM     42  C   UNL A   1      47.622  28.171  29.401  1.00  0.00     0.173 A 
ATOM     43  F   UNL A   1      46.937  29.684  26.164  1.00  0.00    -0.203 F 
ATOM     44  C   UNL A   1      48.805  28.459  26.909  1.00  0.00     0.198 A 
ATOM     45  C   UNL A   1      48.876  27.620  29.157  1.00  0.00     0.198 A 
ATOM     46  F   UNL A   1      47.065  27.994  30.609  1.00  0.00    -0.203 F 
ATOM     47  F   UNL A   1      49.360  28.565  25.694  1.00  0.00    -0.200 F 
ATOM     48  C   UNL A   1      49.465  27.761  27.911  1.00  0.00     0.200 A 
ATOM     49  F   UNL A   1      49.510  26.947  30.127  1.00  0.00    -0.200 F 
ATOM     50  F   UNL A   1      50.665  27.215  27.671  1.00  0.00    -0.200 F 
ENDBRANCH  26  40
BRANCH  27  51
ATOM     51  C   UNL A   1      37.659  32.381  30.372  1.00  0.00     0.064 A 
ATOM     52  C   UNL A   1      36.946  33.216  29.501  1.00  0.00     0.173 A 
ATOM     53  C   UNL A   1      37.065  32.087  31.611  1.00  0.00     0.173 A 
ATOM     54  F   UNL A   1      37.471  33.548  28.312  1.00  0.00    -0.203 F 
ATOM     55  C   UNL A   1      35.719  33.768  29.870  1.00  0.00     0.198 A 
ATOM     56  C   UNL A   1      35.820  32.606  31.963  1.00  0.00     0.198 A 
ATOM     57  F   UNL A   1      37.697  31.297  32.492  1.00  0.00    -0.203 F 
ATOM     58  F   UNL A   1      35.097  34.623  29.046  1.00  0.00    -0.200 F 
ATOM     59  C   UNL A   1      35.156  33.461  31.099  1.00  0.00     0.200 A 
ATOM     60  F   UNL A   1      35.277  32.293  33.148  1.00  0.00    -0.200 F 
ATOM     61  F   UNL A   1      33.983  34.001  31.458  1.00  0.00    -0.200 F 
ENDBRANCH  27  51
BRANCH  39  62
ATOM     62  C   UNL A   1      44.116  34.713  31.587  1.00  0.00     0.064 A 
ATOM     63  C   UNL A   1      44.456  34.699  32.948  1.00  0.00     0.173 A 
ATOM     64  C   UNL A   1      44.313  35.899  30.866  1.00  0.00     0.173 A 
ATOM     65  F   UNL A   1      44.269  33.591  33.680  1.00  0.00    -0.203 F 
ATOM     66  C   UNL A   1      44.955  35.840  33.566  1.00  0.00     0.198 A 
ATOM     67  C   UNL A   1      44.847  37.026  31.480  1.00  0.00     0.198 A 
ATOM     68  F   UNL A   1      44.010  35.955  29.560  1.00  0.00    -0.203 F 
ATOM     69  F   UNL A   1      45.227  35.821  34.878  1.00  0.00    -0.200 F 
ATOM     70  C   UNL A   1      45.160  36.998  32.830  1.00  0.00     0.200 A 
ATOM     71  F   UNL A   1      45.063  38.137  30.763  1.00  0.00    -0.200 F 
ATOM     72  F   UNL A   1      45.656  38.091  33.426  1.00  0.00    -0.200 F 
ENDBRANCH  39  62
ENDBRANCH  13  14
ENDBRANCH   6   8
ENDBRANCH   5   6
ENDBRANCH   4   5
ENDBRANCH   3   4
ENDBRANCH   2   3
ENDBRANCH   1   2
BRANCH   1  73
ATOM     73  C   UNL A   1      43.589  18.551  25.684  1.00  0.00     0.261 C 
BRANCH  73  74
ATOM     74  O   UNL A   1      43.855  19.272  24.481  1.00  0.00    -0.460 OA
BRANCH  74  75
ATOM     75  C   UNL A   1      45.151  19.361  24.065  1.00  0.00     0.351 C 
ATOM     76  O   UNL A   1      45.693  18.596  23.282  1.00  0.00    -0.248 OA
BRANCH  75  77
ATOM     77  C   UNL A   1      45.802  20.596  24.670  1.00  0.00     0.338 C 
ATOM     78  F   UNL A   1      47.126  20.704  24.328  1.00  0.00    -0.222 F 
BRANCH  77  79
ATOM     79  S   UNL A   1      44.941  22.136  24.217  1.00  0.00    -0.073 SA
BRANCH  79  80
ATOM     80  C   UNL A   1      45.737  23.265  25.357  1.00  0.00     0.052 A 
ATOM     81  C   UNL A   1      45.411  23.218  26.717  1.00  0.00     0.019 A 
ATOM     82  C   UNL A   1      46.746  24.146  24.932  1.00  0.00     0.129 A 
ATOM     83  C   UNL A   1      46.089  24.026  27.634  1.00  0.00     0.001 A 
ATOM     84  C   UNL A   1      47.427  24.951  25.846  1.00  0.00     0.047 A 
ATOM     85  C   UNL A   1      47.097  24.888  27.199  1.00  0.00     0.004 A 
BRANCH  82  86
ATOM     86  O   UNL A   1      47.126  24.149  23.616  1.00  0.00    -0.507 OA
ATOM     87  H   UNL A   1      47.958  24.504  23.370  1.00  0.00     0.293 HD
ENDBRANCH  82  86
ENDBRANCH  79  80
ENDBRANCH  77  79
ENDBRANCH  75  77
ENDBRANCH  74  75
ENDBRANCH  73  74
ENDBRANCH   1  73
TORSDOF 17
ENDMDL
MODEL 2
REMARK VINA RESULT:      -9.9      6.142     11.690
REMARK SMILES O=C(OCCOCCOC(=O)[C@@H](F)Sc1ccccc1O)c1ccc(-c2c3nc(c(-c4c(F)c(F)c(F)c(F)c4F)c4ccc([nH]4)c(-c4c(F)c(F)c(F)c(F)c4F)c4nc(c(-c5c(F)c(F)c(F)c(F)c5F)c5ccc2[nH]5)C=C4)C=C3)cc1
REMARK SMILES IDX 7 1 6 2 5 3 4 4 3 5 2 6 1 7 22 8 23 9 84 10 24 11 83 12
REMARK SMILES IDX 25 13 26 14 27 15 77 16 28 17 82 18 76 19 78 20 29 21 81 22
REMARK SMILES IDX 75 23 74 24 30 26 62 27 42 28 61 29 43 30 46 31 60 32 79 33
REMARK SMILES IDX 44 34 45 35 59 37 80 38 47 39 31 40 32 41 40 42 33 43 34 44
REMARK SMILES IDX 38 45 41 46 35 47 36 48 39 49 37 50 63 51 64 52 72 53 65 54
REMARK SMILES IDX 66 55 70 56 73 57 67 58 68 59 71 60 69 61 48 62 49 63 57 64
REMARK SMILES IDX 50 65 51 66 55 67 58 68 52 69 53 70 56 71 54 72 8 73 9 74
REMARK SMILES IDX 10 75 11 76 12 77 13 78 14 79 15 80 16 81 20 82 17 83 19 84
REMARK SMILES IDX 18 85 21 86
REMARK H PARENT 78 25 46 36 21 87
REMARK Flexibility Score: inf
ROOT
ATOM      1  C   UNL A   1      34.086  29.951  27.056  1.00  0.00     0.202 C 
ENDROOT
BRANCH   1   2
ATOM      2  O   UNL A   1      33.049  30.681  26.386  1.00  0.00    -0.374 OA
BRANCH   2   3
ATOM      3  C   UNL A   1      32.214  31.476  27.232  1.00  0.00     0.202 C 
BRANCH   3   4
ATOM      4  C   UNL A   1      32.133  32.960  26.841  1.00  0.00     0.261 C 
BRANCH   4   5
ATOM      5  O   UNL A   1      32.190  33.814  27.998  1.00  0.00    -0.460 OA
BRANCH   5   6
ATOM      6  C   UNL A   1      33.248  34.484  28.512  1.00  0.00     0.338 C 
ATOM      7  O   UNL A   1      33.286  35.706  28.382  1.00  0.00    -0.246 OA
BRANCH   6   8
ATOM      8  C   UNL A   1      34.411  33.826  29.188  1.00  0.00     0.060 A 
ATOM      9  C   UNL A   1      34.322  32.711  30.020  1.00  0.00     0.016 A 
ATOM     10  C   UNL A   1      35.697  34.295  28.863  1.00  0.00     0.016 A 
ATOM     11  C   UNL A   1      35.440  32.051  30.488  1.00  0.00     0.010 A 
ATOM     12  C   UNL A   1      36.841  33.641  29.334  1.00  0.00     0.010 A 
ATOM     13  C   UNL A   1      36.701  32.505  30.135  1.00  0.00    -0.014 A 
BRANCH  13  14
ATOM     14  C   UNL A   1      37.832  31.790  30.731  1.00  0.00     0.031 A 
ATOM     15  C   UNL A   1      38.145  32.055  32.164  1.00  0.00     0.074 A 
ATOM     16  C   UNL A   1      38.405  30.791  30.036  1.00  0.00     0.049 A 
ATOM     17  N   UNL A   1      39.094  31.557  32.906  1.00  0.00    -0.248 NA
ATOM     18  C   UNL A   1      37.250  32.991  32.870  1.00  0.00     0.031 C 
ATOM     19  C   UNL A   1      38.010  30.369  28.687  1.00  0.00     0.029 A 
ATOM     20  N   UNL A   1      39.409  29.929  30.374  1.00  0.00    -0.354 N 
ATOM     21  C   UNL A   1      38.932  32.142  34.153  1.00  0.00     0.074 A 
ATOM     22  C   UNL A   1      37.786  33.018  34.080  1.00  0.00     0.031 C 
ATOM     23  C   UNL A   1      38.770  29.325  28.315  1.00  0.00     0.029 A 
ATOM     24  C   UNL A   1      39.747  29.061  29.364  1.00  0.00     0.049 A 
ATOM     25  H   UNL A   1      39.848  29.928  31.256  1.00  0.00     0.167 HD
ATOM     26  C   UNL A   1      39.703  31.965  35.247  1.00  0.00     0.037 A 
ATOM     27  C   UNL A   1      40.773  28.195  29.293  1.00  0.00     0.037 A 
ATOM     28  C   UNL A   1      40.832  31.077  35.268  1.00  0.00     0.049 A 
ATOM     29  C   UNL A   1      41.688  28.113  30.488  1.00  0.00     0.074 A 
ATOM     30  C   UNL A   1      41.729  30.842  36.291  1.00  0.00     0.029 A 
ATOM     31  N   UNL A   1      41.217  30.279  34.198  1.00  0.00    -0.354 N 
ATOM     32  N   UNL A   1      41.583  28.712  31.653  1.00  0.00    -0.248 NA
ATOM     33  C   UNL A   1      42.872  27.258  30.360  1.00  0.00     0.031 C 
ATOM     34  C   UNL A   1      42.694  29.947  35.818  1.00  0.00     0.029 A 
ATOM     35  C   UNL A   1      42.362  29.576  34.521  1.00  0.00     0.049 A 
ATOM     36  H   UNL A   1      40.744  30.221  33.336  1.00  0.00     0.167 HD
ATOM     37  C   UNL A   1      42.675  28.298  32.398  1.00  0.00     0.074 A 
ATOM     38  C   UNL A   1      43.414  27.369  31.564  1.00  0.00     0.031 C 
ATOM     39  C   UNL A   1      43.050  28.654  33.652  1.00  0.00     0.037 A 
BRANCH  26  40
ATOM     40  C   UNL A   1      39.408  32.810  36.447  1.00  0.00     0.064 A 
ATOM     41  C   UNL A   1      40.053  34.032  36.682  1.00  0.00     0.173 A 
ATOM     42  C   UNL A   1      38.456  32.377  37.382  1.00  0.00     0.173 A 
ATOM     43  F   UNL A   1      40.997  34.473  35.837  1.00  0.00    -0.203 F 
ATOM     44  C   UNL A   1      39.759  34.786  37.816  1.00  0.00     0.198 A 
ATOM     45  C   UNL A   1      38.148  33.145  38.500  1.00  0.00     0.198 A 
ATOM     46  F   UNL A   1      37.826  31.205  37.211  1.00  0.00    -0.203 F 
ATOM     47  F   UNL A   1      40.416  35.932  38.046  1.00  0.00    -0.200 F 
ATOM     48  C   UNL A   1      38.802  34.347  38.719  1.00  0.00     0.200 A 
ATOM     49  F   UNL A   1      37.223  32.716  39.371  1.00  0.00    -0.200 F 
ATOM     50  F   UNL A   1      38.518  35.077  39.807  1.00  0.00    -0.200 F 
ENDBRANCH  26  40
BRANCH  27  51
ATOM     51  C   UNL A   1      41.053  27.434  28.045  1.00  0.00     0.064 A 
ATOM     52  C   UNL A   1      40.614  26.113  27.874  1.00  0.00     0.173 A 
ATOM     53  C   UNL A   1      41.829  27.992  27.015  1.00  0.00     0.173 A 
ATOM     54  F   UNL A   1      39.888  25.520  28.833  1.00  0.00    -0.203 F 
ATOM     55  C   UNL A   1      40.972  25.372  26.748  1.00  0.00     0.198 A 
ATOM     56  C   UNL A   1      42.153  27.264  25.871  1.00  0.00     0.198 A 
ATOM     57  F   UNL A   1      42.284  29.250  27.118  1.00  0.00    -0.203 F 
ATOM     58  F   UNL A   1      40.601  24.088  26.648  1.00  0.00    -0.200 F 
ATOM     59  C   UNL A   1      41.739  25.948  25.746  1.00  0.00     0.200 A 
ATOM     60  F   UNL A   1      42.882  27.833  24.901  1.00  0.00    -0.200 F 
ATOM     61  F   UNL A   1      42.092  25.231  24.671  1.00  0.00    -0.200 F 
ENDBRANCH  27  51
BRANCH  39  62
ATOM     62  C   UNL A   1      44.295  28.017  34.189  1.00  0.00     0.064 A 
ATOM     63  C   UNL A   1      45.543  28.649  34.092  1.00  0.00     0.173 A 
ATOM     64  C   UNL A   1      44.225  26.786  34.858  1.00  0.00     0.173 A 
ATOM     65  F   UNL A   1      45.658  29.820  33.447  1.00  0.00    -0.203 F 
ATOM     66  C   UNL A   1      46.682  28.058  34.627  1.00  0.00     0.198 A 
ATOM     67  C   UNL A   1      45.360  26.217  35.423  1.00  0.00     0.198 A 
ATOM     68  F   UNL A   1      43.050  26.149  34.983  1.00  0.00    -0.203 F 
ATOM     69  F   UNL A   1      47.873  28.654  34.480  1.00  0.00    -0.200 F 
ATOM     70  C   UNL A   1      46.588  26.849  35.301  1.00  0.00     0.200 A 
ATOM     71  F   UNL A   1      45.264  25.059  36.090  1.00  0.00    -0.200 F 
ATOM     72  F   UNL A   1      47.685  26.289  35.828  1.00  0.00    -0.200 F 
ENDBRANCH  39  62
ENDBRANCH  13  14
ENDBRANCH   6   8
ENDBRANCH   5   6
ENDBRANCH   4   5
ENDBRANCH   3   4
ENDBRANCH   2   3
ENDBRANCH   1   2
BRANCH   1  73
ATOM     73  C   UNL A   1      34.087  28.530  26.530  1.00  0.00     0.261 C 
BRANCH  73  74
ATOM     74  O   UNL A   1      33.551  28.617  25.209  1.00  0.00    -0.460 OA
BRANCH  74  75
ATOM     75  C   UNL A   1      33.079  27.473  24.637  1.00  0.00     0.351 C 
ATOM     76  O   UNL A   1      33.756  26.497  24.351  1.00  0.00    -0.248 OA
BRANCH  75  77
ATOM     77  C   UNL A   1      31.569  27.566  24.469  1.00  0.00     0.338 C 
ATOM     78  F   UNL A   1      31.083  28.796  24.834  1.00  0.00    -0.222 F 
BRANCH  77  79
ATOM     79  S   UNL A   1      31.027  27.190  22.771  1.00  0.00    -0.073 SA
BRANCH  79  80
ATOM     80  C   UNL A   1      29.703  28.386  22.613  1.00  0.00     0.052 A 
ATOM     81  C   UNL A   1      28.438  28.087  23.131  1.00  0.00     0.019 A 
ATOM     82  C   UNL A   1      29.924  29.654  22.053  1.00  0.00     0.129 A 
ATOM     83  C   UNL A   1      27.419  29.044  23.099  1.00  0.00     0.001 A 
ATOM     84  C   UNL A   1      28.910  30.613  22.024  1.00  0.00     0.047 A 
ATOM     85  C   UNL A   1      27.656  30.304  22.550  1.00  0.00     0.004 A 
BRANCH  82  86
ATOM     86  O   UNL A   1      31.177  29.986  21.609  1.00  0.00    -0.507 OA
ATOM     87  H   UNL A   1      31.923  29.508  21.913  1.00  0.00     0.293 HD
ENDBRANCH  82  86
ENDBRANCH  79  80
ENDBRANCH  77  79
ENDBRANCH  75  77
ENDBRANCH  74  75
ENDBRANCH  73  74
ENDBRANCH   1  73
TORSDOF 17
ENDMDL
MODEL 3
REMARK VINA RESULT:      -9.8      1.578      2.468
REMARK SMILES O=C(OCCOCCOC(=O)[C@@H](F)Sc1ccccc1O)c1ccc(-c2c3nc(c(-c4c(F)c(F)c(F)c(F)c4F)c4ccc([nH]4)c(-c4c(F)c(F)c(F)c(F)c4F)c4nc(c(-c5c(F)c(F)c(F)c(F)c5F)c5ccc2[nH]5)C=C4)C=C3)cc1
REMARK SMILES IDX 7 1 6 2 5 3 4 4 3 5 2 6 1 7 22 8 23 9 84 10 24 11 83 12
REMARK SMILES IDX 25 13 26 14 27 15 77 16 28 17 82 18 76 19 78 20 29 21 81 22
REMARK SMILES IDX 75 23 74 24 30 26 62 27 42 28 61 29 43 30 46 31 60 32 79 33
REMARK SMILES IDX 44 34 45 35 59 37 80 38 47 39 31 40 32 41 40 42 33 43 34 44
REMARK SMILES IDX 38 45 41 46 35 47 36 48 39 49 37 50 63 51 64 52 72 53 65 54
REMARK SMILES IDX 66 55 70 56 73 57 67 58 68 59 71 60 69 61 48 62 49 63 57 64
REMARK SMILES IDX 50 65 51 66 55 67 58 68 52 69 53 70 56 71 54 72 8 73 9 74
REMARK SMILES IDX 10 75 11 76 12 77 13 78 14 79 15 80 16 81 20 82 17 83 19 84
REMARK SMILES IDX 18 85 21 86
REMARK H PARENT 78 25 46 36 21 87
REMARK Flexibility Score: inf
ROOT
ATOM      1  C   UNL A   1      41.982  18.572  25.976  1.00  0.00     0.202 C 
ENDROOT
BRANCH   1   2
ATOM      2  O   UNL A   1      41.310  19.834  26.092  1.00  0.00    -0.374 OA
BRANCH   2   3
ATOM      3  C   UNL A   1      41.075  20.282  27.431  1.00  0.00     0.202 C 
BRANCH   3   4
ATOM      4  C   UNL A   1      40.645  21.752  27.547  1.00  0.00     0.261 C 
BRANCH   4   5
ATOM      5  O   UNL A   1      39.752  22.126  26.480  1.00  0.00    -0.460 OA
BRANCH   5   6
ATOM      6  C   UNL A   1      39.013  23.251  26.342  1.00  0.00     0.338 C 
ATOM      7  O   UNL A   1      38.050  23.229  25.577  1.00  0.00    -0.246 OA
BRANCH   6   8
ATOM      8  C   UNL A   1      39.320  24.547  27.027  1.00  0.00     0.060 A 
ATOM      9  C   UNL A   1      39.015  24.839  28.355  1.00  0.00     0.016 A 
ATOM     10  C   UNL A   1      40.079  25.491  26.310  1.00  0.00     0.016 A 
ATOM     11  C   UNL A   1      39.462  25.986  28.978  1.00  0.00     0.010 A 
ATOM     12  C   UNL A   1      40.536  26.662  26.926  1.00  0.00     0.010 A 
ATOM     13  C   UNL A   1      40.235  26.893  28.270  1.00  0.00    -0.014 A 
BRANCH  13  14
ATOM     14  C   UNL A   1      40.610  28.115  28.985  1.00  0.00     0.031 A 
ATOM     15  C   UNL A   1      42.046  28.298  29.344  1.00  0.00     0.074 A 
ATOM     16  C   UNL A   1      39.701  29.098  29.109  1.00  0.00     0.049 A 
ATOM     17  N   UNL A   1      42.617  29.282  29.980  1.00  0.00    -0.248 NA
ATOM     18  C   UNL A   1      42.973  27.241  28.901  1.00  0.00     0.031 C 
ATOM     19  C   UNL A   1      38.322  29.038  28.608  1.00  0.00     0.029 A 
ATOM     20  N   UNL A   1      39.802  30.346  29.655  1.00  0.00    -0.354 N 
ATOM     21  C   UNL A   1      43.961  28.947  30.044  1.00  0.00     0.074 A 
ATOM     22  C   UNL A   1      44.130  27.682  29.368  1.00  0.00     0.031 C 
ATOM     23  C   UNL A   1      37.708  30.203  28.875  1.00  0.00     0.029 A 
ATOM     24  C   UNL A   1      38.624  31.052  29.627  1.00  0.00     0.049 A 
ATOM     25  H   UNL A   1      40.638  30.705  30.031  1.00  0.00     0.167 HD
ATOM     26  C   UNL A   1      44.950  29.643  30.644  1.00  0.00     0.037 A 
ATOM     27  C   UNL A   1      38.323  32.230  30.202  1.00  0.00     0.037 A 
ATOM     28  C   UNL A   1      44.729  30.901  31.301  1.00  0.00     0.049 A 
ATOM     29  C   UNL A   1      39.421  32.921  30.968  1.00  0.00     0.074 A 
ATOM     30  C   UNL A   1      45.630  31.687  31.992  1.00  0.00     0.029 A 
ATOM     31  N   UNL A   1      43.502  31.553  31.346  1.00  0.00    -0.354 N 
ATOM     32  N   UNL A   1      40.684  32.581  31.092  1.00  0.00    -0.248 NA
ATOM     33  C   UNL A   1      39.056  34.143  31.693  1.00  0.00     0.031 C 
ATOM     34  C   UNL A   1      44.933  32.783  32.510  1.00  0.00     0.029 A 
ATOM     35  C   UNL A   1      43.612  32.715  32.087  1.00  0.00     0.049 A 
ATOM     36  H   UNL A   1      42.677  31.235  30.914  1.00  0.00     0.167 HD
ATOM     37  C   UNL A   1      41.266  33.550  31.894  1.00  0.00     0.074 A 
ATOM     38  C   UNL A   1      40.223  34.510  32.201  1.00  0.00     0.031 C 
ATOM     39  C   UNL A   1      42.540  33.641  32.352  1.00  0.00     0.037 A 
BRANCH  26  40
ATOM     40  C   UNL A   1      46.307  29.014  30.697  1.00  0.00     0.064 A 
ATOM     41  C   UNL A   1      46.675  28.103  31.696  1.00  0.00     0.173 A 
ATOM     42  C   UNL A   1      47.260  29.337  29.718  1.00  0.00     0.173 A 
ATOM     43  F   UNL A   1      45.813  27.788  32.675  1.00  0.00    -0.203 F 
ATOM     44  C   UNL A   1      47.952  27.546  31.719  1.00  0.00     0.198 A 
ATOM     45  C   UNL A   1      48.525  28.760  29.730  1.00  0.00     0.198 A 
ATOM     46  F   UNL A   1      46.962  30.218  28.751  1.00  0.00    -0.203 F 
ATOM     47  F   UNL A   1      48.299  26.709  32.707  1.00  0.00    -0.200 F 
ATOM     48  C   UNL A   1      48.872  27.868  30.731  1.00  0.00     0.200 A 
ATOM     49  F   UNL A   1      49.412  29.074  28.774  1.00  0.00    -0.200 F 
ATOM     50  F   UNL A   1      50.098  27.326  30.752  1.00  0.00    -0.200 F 
ENDBRANCH  26  40
BRANCH  27  51
ATOM     51  C   UNL A   1      36.936  32.769  30.171  1.00  0.00     0.064 A 
ATOM     52  C   UNL A   1      36.477  33.560  29.109  1.00  0.00     0.173 A 
ATOM     53  C   UNL A   1      36.053  32.558  31.245  1.00  0.00     0.173 A 
ATOM     54  F   UNL A   1      37.281  33.813  28.066  1.00  0.00    -0.203 F 
ATOM     55  C   UNL A   1      35.212  34.150  29.139  1.00  0.00     0.198 A 
ATOM     56  C   UNL A   1      34.775  33.115  31.256  1.00  0.00     0.198 A 
ATOM     57  F   UNL A   1      36.433  31.814  32.294  1.00  0.00    -0.203 F 
ATOM     58  F   UNL A   1      34.831  34.962  28.144  1.00  0.00    -0.200 F 
ATOM     59  C   UNL A   1      34.362  33.925  30.211  1.00  0.00     0.200 A 
ATOM     60  F   UNL A   1      33.954  32.881  32.289  1.00  0.00    -0.200 F 
ATOM     61  F   UNL A   1      33.153  34.502  30.246  1.00  0.00    -0.200 F 
ENDBRANCH  27  51
BRANCH  39  62
ATOM     62  C   UNL A   1      42.865  34.829  33.204  1.00  0.00     0.064 A 
ATOM     63  C   UNL A   1      43.280  36.044  32.640  1.00  0.00     0.173 A 
ATOM     64  C   UNL A   1      42.705  34.764  34.595  1.00  0.00     0.173 A 
ATOM     65  F   UNL A   1      43.463  36.145  31.315  1.00  0.00    -0.203 F 
ATOM     66  C   UNL A   1      43.546  37.146  33.444  1.00  0.00     0.198 A 
ATOM     67  C   UNL A   1      42.935  35.880  35.392  1.00  0.00     0.198 A 
ATOM     68  F   UNL A   1      42.300  33.625  35.178  1.00  0.00    -0.203 F 
ATOM     69  F   UNL A   1      43.990  38.283  32.891  1.00  0.00    -0.200 F 
ATOM     70  C   UNL A   1      43.363  37.067  34.817  1.00  0.00     0.200 A 
ATOM     71  F   UNL A   1      42.739  35.807  36.716  1.00  0.00    -0.200 F 
ATOM     72  F   UNL A   1      43.605  38.136  35.588  1.00  0.00    -0.200 F 
ENDBRANCH  39  62
ENDBRANCH  13  14
ENDBRANCH   6   8
ENDBRANCH   5   6
ENDBRANCH   4   5
ENDBRANCH   3   4
ENDBRANCH   2   3
ENDBRANCH   1   2
BRANCH   1  73
ATOM     73  C   UNL A   1      43.474  18.829  25.906  1.00  0.00     0.261 C 
BRANCH  73  74
ATOM     74  O   UNL A   1      43.670  19.590  24.713  1.00  0.00    -0.460 OA
BRANCH  74  75
ATOM     75  C   UNL A   1      44.879  19.496  24.090  1.00  0.00     0.351 C 
ATOM     76  O   UNL A   1      45.093  18.883  23.055  1.00  0.00    -0.248 OA
BRANCH  75  77
ATOM     77  C   UNL A   1      45.910  20.329  24.839  1.00  0.00     0.338 C 
ATOM     78  F   UNL A   1      47.178  19.821  24.711  1.00  0.00    -0.222 F 
BRANCH  77  79
ATOM     79  S   UNL A   1      45.911  22.075  24.322  1.00  0.00    -0.073 SA
BRANCH  79  80
ATOM     80  C   UNL A   1      45.088  22.802  25.737  1.00  0.00     0.052 A 
ATOM     81  C   UNL A   1      45.850  23.281  26.808  1.00  0.00     0.019 A 
ATOM     82  C   UNL A   1      43.695  22.979  25.765  1.00  0.00     0.129 A 
ATOM     83  C   UNL A   1      45.231  23.935  27.878  1.00  0.00     0.001 A 
ATOM     84  C   UNL A   1      43.075  23.635  26.829  1.00  0.00     0.047 A 
ATOM     85  C   UNL A   1      43.848  24.114  27.886  1.00  0.00     0.004 A 
BRANCH  82  86
ATOM     86  O   UNL A   1      42.944  22.582  24.689  1.00  0.00    -0.507 OA
ATOM     87  H   UNL A   1      42.082  22.928  24.566  1.00  0.00     0.293 HD
ENDBRANCH  82  86
ENDBRANCH  79  80
ENDBRANCH  77  79
ENDBRANCH  75  77
ENDBRANCH  74  75
ENDBRANCH  73  74
ENDBRANCH   1  73
TORSDOF 17
ENDMDL
