MODEL 1
REMARK VINA RESULT:     -11.4      0.000      0.000
REMARK SMILES CC[C@@](C)(NC(=O)Nc1c(C)cccc1Cl)C(=O)OCCOCCOC(=O)c1ccc(-c2c3nc(c(-c4c(F)c(F)c(F)c(F)c4F)c4ccc([nH]4)c(-c4c(F)c(F)c(F)c(F)c4F)c4nc(c(-c5c(F)c(F)c(F)c(F)c5F)c5ccc2[nH]5)C=C4)C=C3)cc1
REMARK SMILES IDX 22 1 21 2 20 3 19 4 17 5 18 6 3 7 4 8 2 9 1 10 5 11 6 12
REMARK SMILES IDX 7 14 8 15 9 17 10 18 15 19 11 20 12 21 14 22 16 23 13 24
REMARK SMILES IDX 23 25 24 26 25 27 26 28 27 29 28 30 29 31 90 32 30 33 89 34
REMARK SMILES IDX 31 35 32 36 33 37 83 38 34 39 88 40 82 41 84 42 35 43 87 44
REMARK SMILES IDX 81 45 80 46 36 48 68 49 48 50 67 51 49 52 52 53 66 54 85 55
REMARK SMILES IDX 50 56 51 57 65 59 86 60 53 61 37 62 38 63 46 64 39 65 40 66
REMARK SMILES IDX 44 67 47 68 41 69 42 70 45 71 43 72 69 73 70 74 78 75 71 76
REMARK SMILES IDX 72 77 76 78 79 79 73 80 74 81 77 82 75 83 54 84 55 85 63 86
REMARK SMILES IDX 56 87 57 88 61 89 64 90 58 91 59 92 62 93 60 94
REMARK H PARENT 5 13 8 16 84 47 52 58
REMARK Flexibility Score: inf
ROOT
ATOM      1  O   UNL A   1      31.805  29.097  23.824  1.00  0.00    -0.374 OA
ENDROOT
BRANCH   1   2
ATOM      2  C   UNL A   1      32.023  28.039  22.914  1.00  0.00     0.202 C 
BRANCH   2   3
ATOM      3  C   UNL A   1      33.319  27.275  23.407  1.00  0.00     0.261 C 
BRANCH   3   4
ATOM      4  O   UNL A   1      33.047  25.876  23.828  1.00  0.00    -0.462 OA
BRANCH   4   5
ATOM      5  C   UNL A   1      32.278  25.273  24.816  1.00  0.00     0.331 C 
ATOM      6  O   UNL A   1      32.261  25.674  25.977  1.00  0.00    -0.249 OA
BRANCH   5   7
ATOM      7  C   UNL A   1      31.392  23.970  24.290  1.00  0.00     0.136 C 
ATOM      8  C   UNL A   1      30.470  24.530  23.182  1.00  0.00     0.047 C 
BRANCH   7   9
ATOM      9  C   UNL A   1      31.610  22.457  23.836  1.00  0.00     0.037 C 
ATOM     10  C   UNL A   1      32.226  21.987  22.541  1.00  0.00     0.007 C 
ENDBRANCH   7   9
BRANCH   7  11
ATOM     11  N   UNL A   1      30.758  23.756  25.561  1.00  0.00    -0.322 N 
ATOM     12  C   UNL A   1      31.395  23.107  26.564  1.00  0.00     0.320 C 
ATOM     13  H   UNL A   1      29.842  24.088  25.707  1.00  0.00     0.166 HD
ATOM     14  O   UNL A   1      30.762  22.932  27.605  1.00  0.00    -0.248 OA
ATOM     15  N   UNL A   1      32.643  22.546  26.441  1.00  0.00    -0.306 N 
ATOM     16  H   UNL A   1      32.714  21.961  27.229  1.00  0.00     0.171 HD
BRANCH  15  17
ATOM     17  C   UNL A   1      33.934  22.358  25.748  1.00  0.00     0.064 A 
ATOM     18  C   UNL A   1      35.113  23.145  25.390  1.00  0.00    -0.026 A 
ATOM     19  C   UNL A   1      34.079  20.954  25.479  1.00  0.00     0.064 A 
ATOM     20  C   UNL A   1      35.594  24.584  25.532  1.00  0.00     0.046 C 
ATOM     21  C   UNL A   1      36.245  22.474  24.819  1.00  0.00     0.005 A 
ATOM     22  C   UNL A   1      35.257  20.345  25.037  1.00  0.00     0.023 A 
ATOM     23  Cl  UNL A   1      32.738  19.847  25.696  1.00  0.00    -0.082 Cl
ATOM     24  C   UNL A   1      36.347  21.107  24.706  1.00  0.00     0.002 A 
ENDBRANCH  15  17
ENDBRANCH   7  11
ENDBRANCH   5   7
ENDBRANCH   4   5
ENDBRANCH   3   4
ENDBRANCH   2   3
ENDBRANCH   1   2
BRANCH   1  25
ATOM     25  C   UNL A   1      32.620  29.328  24.970  1.00  0.00     0.202 C 
BRANCH  25  26
ATOM     26  C   UNL A   1      31.801  30.333  25.825  1.00  0.00     0.261 C 
BRANCH  26  27
ATOM     27  O   UNL A   1      32.405  30.460  27.136  1.00  0.00    -0.460 OA
BRANCH  27  28
ATOM     28  C   UNL A   1      33.116  31.594  27.256  1.00  0.00     0.338 C 
ATOM     29  O   UNL A   1      32.628  32.735  27.251  1.00  0.00    -0.246 OA
BRANCH  28  30
ATOM     30  C   UNL A   1      34.486  31.335  27.751  1.00  0.00     0.060 A 
ATOM     31  C   UNL A   1      34.815  29.992  28.003  1.00  0.00     0.016 A 
ATOM     32  C   UNL A   1      35.440  32.332  27.962  1.00  0.00     0.016 A 
ATOM     33  C   UNL A   1      36.052  29.646  28.538  1.00  0.00     0.010 A 
ATOM     34  C   UNL A   1      36.676  31.987  28.539  1.00  0.00     0.010 A 
ATOM     35  C   UNL A   1      36.968  30.649  28.873  1.00  0.00    -0.014 A 
BRANCH  35  36
ATOM     36  C   UNL A   1      38.102  30.308  29.772  1.00  0.00     0.031 A 
ATOM     37  C   UNL A   1      39.151  29.356  29.261  1.00  0.00     0.074 A 
ATOM     38  C   UNL A   1      38.255  30.871  30.985  1.00  0.00     0.049 A 
ATOM     39  N   UNL A   1      40.209  28.877  29.867  1.00  0.00    -0.248 NA
ATOM     40  C   UNL A   1      38.991  28.889  27.874  1.00  0.00     0.031 C 
ATOM     41  C   UNL A   1      37.370  31.869  31.577  1.00  0.00     0.029 A 
ATOM     42  N   UNL A   1      39.223  30.666  31.941  1.00  0.00    -0.354 N 
ATOM     43  C   UNL A   1      40.831  28.049  28.943  1.00  0.00     0.074 A 
ATOM     44  C   UNL A   1      40.032  28.081  27.737  1.00  0.00     0.031 C 
ATOM     45  C   UNL A   1      37.820  32.171  32.809  1.00  0.00     0.029 A 
ATOM     46  C   UNL A   1      39.001  31.358  33.106  1.00  0.00     0.049 A 
ATOM     47  H   UNL A   1      40.002  30.079  31.803  1.00  0.00     0.167 HD
ATOM     48  C   UNL A   1      41.965  27.324  29.084  1.00  0.00     0.037 A 
ATOM     49  C   UNL A   1      39.652  31.310  34.288  1.00  0.00     0.037 A 
ATOM     50  C   UNL A   1      42.774  27.289  30.273  1.00  0.00     0.049 A 
ATOM     51  C   UNL A   1      40.851  30.404  34.453  1.00  0.00     0.074 A 
ATOM     52  C   UNL A   1      43.959  26.604  30.484  1.00  0.00     0.029 A 
ATOM     53  N   UNL A   1      42.477  27.951  31.452  1.00  0.00    -0.354 N 
ATOM     54  N   UNL A   1      41.450  29.647  33.567  1.00  0.00    -0.248 NA
ATOM     55  C   UNL A   1      41.460  30.342  35.793  1.00  0.00     0.031 C 
ATOM     56  C   UNL A   1      44.343  26.797  31.814  1.00  0.00     0.029 A 
ATOM     57  C   UNL A   1      43.433  27.652  32.411  1.00  0.00     0.049 A 
ATOM     58  H   UNL A   1      41.704  28.545  31.589  1.00  0.00     0.167 HD
ATOM     59  C   UNL A   1      42.512  29.043  34.233  1.00  0.00     0.074 A 
ATOM     60  C   UNL A   1      42.494  29.539  35.590  1.00  0.00     0.031 C 
ATOM     61  C   UNL A   1      43.416  28.151  33.760  1.00  0.00     0.037 A 
BRANCH  48  62
ATOM     62  C   UNL A   1      42.395  26.466  27.932  1.00  0.00     0.064 A 
ATOM     63  C   UNL A   1      41.847  25.195  27.712  1.00  0.00     0.173 A 
ATOM     64  C   UNL A   1      43.303  26.967  26.987  1.00  0.00     0.173 A 
ATOM     65  F   UNL A   1      40.984  24.669  28.594  1.00  0.00    -0.203 F 
ATOM     66  C   UNL A   1      42.196  24.454  26.586  1.00  0.00     0.198 A 
ATOM     67  C   UNL A   1      43.629  26.236  25.850  1.00  0.00     0.198 A 
ATOM     68  F   UNL A   1      43.849  28.181  27.153  1.00  0.00    -0.203 F 
ATOM     69  F   UNL A   1      41.678  23.232  26.403  1.00  0.00    -0.200 F 
ATOM     70  C   UNL A   1      43.076  24.980  25.652  1.00  0.00     0.200 A 
ATOM     71  F   UNL A   1      44.466  26.752  24.941  1.00  0.00    -0.200 F 
ATOM     72  F   UNL A   1      43.392  24.275  24.555  1.00  0.00    -0.200 F 
ENDBRANCH  48  62
BRANCH  49  73
ATOM     73  C   UNL A   1      39.152  32.091  35.453  1.00  0.00     0.064 A 
ATOM     74  C   UNL A   1      39.546  33.421  35.662  1.00  0.00     0.173 A 
ATOM     75  C   UNL A   1      38.342  31.492  36.430  1.00  0.00     0.173 A 
ATOM     76  F   UNL A   1      40.350  34.028  34.777  1.00  0.00    -0.203 F 
ATOM     77  C   UNL A   1      39.176  34.109  36.817  1.00  0.00     0.198 A 
ATOM     78  C   UNL A   1      37.944  32.192  37.566  1.00  0.00     0.198 A 
ATOM     79  F   UNL A   1      37.950  30.217  36.289  1.00  0.00    -0.203 F 
ATOM     80  F   UNL A   1      39.628  35.352  37.028  1.00  0.00    -0.200 F 
ATOM     81  C   UNL A   1      38.373  33.495  37.766  1.00  0.00     0.200 A 
ATOM     82  F   UNL A   1      37.162  31.596  38.478  1.00  0.00    -0.200 F 
ATOM     83  F   UNL A   1      38.027  34.152  38.882  1.00  0.00    -0.200 F 
ENDBRANCH  49  73
BRANCH  61  84
ATOM     84  C   UNL A   1      44.481  27.663  34.704  1.00  0.00     0.064 A 
ATOM     85  C   UNL A   1      45.682  28.366  34.884  1.00  0.00     0.173 A 
ATOM     86  C   UNL A   1      44.278  26.508  35.475  1.00  0.00     0.173 A 
ATOM     87  F   UNL A   1      45.934  29.468  34.163  1.00  0.00    -0.203 F 
ATOM     88  C   UNL A   1      46.647  27.919  35.784  1.00  0.00     0.198 A 
ATOM     89  C   UNL A   1      45.232  26.082  36.398  1.00  0.00     0.198 A 
ATOM     90  F   UNL A   1      43.145  25.801  35.351  1.00  0.00    -0.203 F 
ATOM     91  F   UNL A   1      47.805  28.583  35.906  1.00  0.00    -0.200 F 
ATOM     92  C   UNL A   1      46.418  26.784  36.546  1.00  0.00     0.200 A 
ATOM     93  F   UNL A   1      45.000  24.994  37.145  1.00  0.00    -0.200 F 
ATOM     94  F   UNL A   1      47.344  26.361  37.419  1.00  0.00    -0.200 F 
ENDBRANCH  61  84
ENDBRANCH  35  36
ENDBRANCH  28  30
ENDBRANCH  27  28
ENDBRANCH  26  27
ENDBRANCH  25  26
ENDBRANCH   1  25
TORSDOF 17
ENDMDL
MODEL 2
REMARK VINA RESULT:     -11.4      4.384      9.746
REMARK SMILES CC[C@@](C)(NC(=O)Nc1c(C)cccc1Cl)C(=O)OCCOCCOC(=O)c1ccc(-c2c3nc(c(-c4c(F)c(F)c(F)c(F)c4F)c4ccc([nH]4)c(-c4c(F)c(F)c(F)c(F)c4F)c4nc(c(-c5c(F)c(F)c(F)c(F)c5F)c5ccc2[nH]5)C=C4)C=C3)cc1
REMARK SMILES IDX 22 1 21 2 20 3 19 4 17 5 18 6 3 7 4 8 2 9 1 10 5 11 6 12
REMARK SMILES IDX 7 14 8 15 9 17 10 18 15 19 11 20 12 21 14 22 16 23 13 24
REMARK SMILES IDX 23 25 24 26 25 27 26 28 27 29 28 30 29 31 90 32 30 33 89 34
REMARK SMILES IDX 31 35 32 36 33 37 83 38 34 39 88 40 82 41 84 42 35 43 87 44
REMARK SMILES IDX 81 45 80 46 36 48 68 49 48 50 67 51 49 52 52 53 66 54 85 55
REMARK SMILES IDX 50 56 51 57 65 59 86 60 53 61 37 62 38 63 46 64 39 65 40 66
REMARK SMILES IDX 44 67 47 68 41 69 42 70 45 71 43 72 69 73 70 74 78 75 71 76
REMARK SMILES IDX 72 77 76 78 79 79 73 80 74 81 77 82 75 83 54 84 55 85 63 86
REMARK SMILES IDX 56 87 57 88 61 89 64 90 58 91 59 92 62 93 60 94
REMARK H PARENT 5 13 8 16 84 47 52 58
REMARK Flexibility Score: inf
ROOT
ATOM      1  O   UNL A   1      35.627  21.241  26.035  1.00  0.00    -0.374 OA
ENDROOT
BRANCH   1   2
ATOM      2  C   UNL A   1      34.384  21.586  26.608  1.00  0.00     0.202 C 
BRANCH   2   3
ATOM      3  C   UNL A   1      33.331  21.616  25.426  1.00  0.00     0.261 C 
BRANCH   3   4
ATOM      4  O   UNL A   1      33.099  22.980  24.885  1.00  0.00    -0.462 OA
BRANCH   4   5
ATOM      5  C   UNL A   1      33.119  23.560  23.623  1.00  0.00     0.331 C 
ATOM      6  O   UNL A   1      34.121  23.561  22.912  1.00  0.00    -0.249 OA
BRANCH   5   7
ATOM      7  C   UNL A   1      31.678  24.246  23.163  1.00  0.00     0.136 C 
ATOM      8  C   UNL A   1      30.634  23.113  23.287  1.00  0.00     0.047 C 
BRANCH   7   9
ATOM      9  C   UNL A   1      30.812  25.555  23.447  1.00  0.00     0.037 C 
ATOM     10  C   UNL A   1      30.032  25.863  24.702  1.00  0.00     0.007 C 
ENDBRANCH   7   9
BRANCH   7  11
ATOM     11  N   UNL A   1      32.119  24.528  21.826  1.00  0.00    -0.322 N 
ATOM     12  C   UNL A   1      32.846  25.635  21.544  1.00  0.00     0.320 C 
ATOM     13  H   UNL A   1      31.888  23.905  21.099  1.00  0.00     0.166 HD
ATOM     14  O   UNL A   1      33.146  25.819  20.365  1.00  0.00    -0.248 OA
ATOM     15  N   UNL A   1      33.161  26.600  22.470  1.00  0.00    -0.306 N 
ATOM     16  H   UNL A   1      33.466  27.358  21.921  1.00  0.00     0.171 HD
BRANCH  15  17
ATOM     17  C   UNL A   1      33.281  27.100  23.855  1.00  0.00     0.064 A 
ATOM     18  C   UNL A   1      33.910  26.703  25.114  1.00  0.00    -0.026 A 
ATOM     19  C   UNL A   1      32.705  28.415  23.891  1.00  0.00     0.064 A 
ATOM     20  C   UNL A   1      34.745  25.543  25.642  1.00  0.00     0.046 C 
ATOM     21  C   UNL A   1      33.881  27.618  26.218  1.00  0.00     0.005 A 
ATOM     22  C   UNL A   1      32.821  29.307  24.961  1.00  0.00     0.023 A 
ATOM     23  Cl  UNL A   1      31.776  29.034  22.540  1.00  0.00    -0.082 Cl
ATOM     24  C   UNL A   1      33.413  28.908  26.131  1.00  0.00     0.002 A 
ENDBRANCH  15  17
ENDBRANCH   7  11
ENDBRANCH   5   7
ENDBRANCH   4   5
ENDBRANCH   3   4
ENDBRANCH   2   3
ENDBRANCH   1   2
BRANCH   1  25
ATOM     25  C   UNL A   1      35.772  20.291  24.983  1.00  0.00     0.202 C 
BRANCH  25  26
ATOM     26  C   UNL A   1      37.300  20.021  24.919  1.00  0.00     0.261 C 
BRANCH  26  27
ATOM     27  O   UNL A   1      38.020  21.218  25.303  1.00  0.00    -0.460 OA
BRANCH  27  28
ATOM     28  C   UNL A   1      39.127  20.936  26.012  1.00  0.00     0.338 C 
ATOM     29  O   UNL A   1      39.776  19.883  25.915  1.00  0.00    -0.246 OA
BRANCH  28  30
ATOM     30  C   UNL A   1      39.692  22.144  26.653  1.00  0.00     0.060 A 
ATOM     31  C   UNL A   1      39.130  23.375  26.271  1.00  0.00     0.016 A 
ATOM     32  C   UNL A   1      40.719  22.117  27.598  1.00  0.00     0.016 A 
ATOM     33  C   UNL A   1      39.636  24.576  26.760  1.00  0.00     0.010 A 
ATOM     34  C   UNL A   1      41.256  23.331  28.063  1.00  0.00     0.010 A 
ATOM     35  C   UNL A   1      40.747  24.565  27.609  1.00  0.00    -0.014 A 
BRANCH  35  36
ATOM     36  C   UNL A   1      41.498  25.831  27.816  1.00  0.00     0.031 A 
ATOM     37  C   UNL A   1      40.821  26.941  28.578  1.00  0.00     0.074 A 
ATOM     38  C   UNL A   1      42.772  25.990  27.412  1.00  0.00     0.049 A 
ATOM     39  N   UNL A   1      41.252  28.147  28.853  1.00  0.00    -0.248 NA
ATOM     40  C   UNL A   1      39.481  26.646  29.110  1.00  0.00     0.031 C 
ATOM     41  C   UNL A   1      43.583  24.979  26.741  1.00  0.00     0.029 A 
ATOM     42  N   UNL A   1      43.603  27.082  27.508  1.00  0.00    -0.354 N 
ATOM     43  C   UNL A   1      40.235  28.754  29.578  1.00  0.00     0.074 A 
ATOM     44  C   UNL A   1      39.162  27.791  29.696  1.00  0.00     0.031 C 
ATOM     45  C   UNL A   1      44.788  25.506  26.459  1.00  0.00     0.029 A 
ATOM     46  C   UNL A   1      44.820  26.904  26.896  1.00  0.00     0.049 A 
ATOM     47  H   UNL A   1      43.350  27.912  27.973  1.00  0.00     0.167 HD
ATOM     48  C   UNL A   1      40.196  30.002  30.100  1.00  0.00     0.037 A 
ATOM     49  C   UNL A   1      45.823  27.779  26.677  1.00  0.00     0.037 A 
ATOM     50  C   UNL A   1      41.258  30.967  29.998  1.00  0.00     0.049 A 
ATOM     51  C   UNL A   1      45.705  29.203  27.172  1.00  0.00     0.074 A 
ATOM     52  C   UNL A   1      41.309  32.245  30.530  1.00  0.00     0.029 A 
ATOM     53  N   UNL A   1      42.444  30.770  29.312  1.00  0.00    -0.354 N 
ATOM     54  N   UNL A   1      44.755  29.761  27.881  1.00  0.00    -0.248 NA
ATOM     55  C   UNL A   1      46.803  30.122  26.826  1.00  0.00     0.031 C 
ATOM     56  C   UNL A   1      42.498  32.846  30.107  1.00  0.00     0.029 A 
ATOM     57  C   UNL A   1      43.214  31.922  29.366  1.00  0.00     0.049 A 
ATOM     58  H   UNL A   1      42.702  29.937  28.855  1.00  0.00     0.167 HD
ATOM     59  C   UNL A   1      45.151  31.079  28.084  1.00  0.00     0.074 A 
ATOM     60  C   UNL A   1      46.438  31.234  27.446  1.00  0.00     0.031 C 
ATOM     61  C   UNL A   1      44.499  32.073  28.735  1.00  0.00     0.037 A 
BRANCH  48  62
ATOM     62  C   UNL A   1      38.944  30.428  30.804  1.00  0.00     0.064 A 
ATOM     63  C   UNL A   1      38.818  30.353  32.198  1.00  0.00     0.173 A 
ATOM     64  C   UNL A   1      37.893  31.004  30.076  1.00  0.00     0.173 A 
ATOM     65  F   UNL A   1      39.792  29.799  32.936  1.00  0.00    -0.203 F 
ATOM     66  C   UNL A   1      37.681  30.838  32.838  1.00  0.00     0.198 A 
ATOM     67  C   UNL A   1      36.769  31.512  30.720  1.00  0.00     0.198 A 
ATOM     68  F   UNL A   1      37.971  31.102  28.740  1.00  0.00    -0.203 F 
ATOM     69  F   UNL A   1      37.569  30.739  34.170  1.00  0.00    -0.200 F 
ATOM     70  C   UNL A   1      36.664  31.427  32.100  1.00  0.00     0.200 A 
ATOM     71  F   UNL A   1      35.797  32.095  30.008  1.00  0.00    -0.200 F 
ATOM     72  F   UNL A   1      35.580  31.916  32.720  1.00  0.00    -0.200 F 
ENDBRANCH  48  62
BRANCH  49  73
ATOM     73  C   UNL A   1      47.018  27.371  25.887  1.00  0.00     0.064 A 
ATOM     74  C   UNL A   1      48.153  26.830  26.509  1.00  0.00     0.173 A 
ATOM     75  C   UNL A   1      47.080  27.597  24.504  1.00  0.00     0.173 A 
ATOM     76  F   UNL A   1      48.158  26.628  27.835  1.00  0.00    -0.203 F 
ATOM     77  C   UNL A   1      49.313  26.564  25.784  1.00  0.00     0.198 A 
ATOM     78  C   UNL A   1      48.228  27.297  23.775  1.00  0.00     0.198 A 
ATOM     79  F   UNL A   1      46.030  28.127  23.861  1.00  0.00    -0.203 F 
ATOM     80  F   UNL A   1      50.409  26.119  26.416  1.00  0.00    -0.200 F 
ATOM     81  C   UNL A   1      49.349  26.795  24.417  1.00  0.00     0.200 A 
ATOM     82  F   UNL A   1      48.256  27.516  22.452  1.00  0.00    -0.200 F 
ATOM     83  F   UNL A   1      50.469  26.550  23.723  1.00  0.00    -0.200 F 
ENDBRANCH  49  73
BRANCH  61  84
ATOM     84  C   UNL A   1      45.169  33.417  28.817  1.00  0.00     0.064 A 
ATOM     85  C   UNL A   1      44.918  34.423  27.871  1.00  0.00     0.173 A 
ATOM     86  C   UNL A   1      46.031  33.722  29.882  1.00  0.00     0.173 A 
ATOM     87  F   UNL A   1      44.113  34.180  26.826  1.00  0.00    -0.203 F 
ATOM     88  C   UNL A   1      45.522  35.673  27.976  1.00  0.00     0.198 A 
ATOM     89  C   UNL A   1      46.608  34.986  30.002  1.00  0.00     0.198 A 
ATOM     90  F   UNL A   1      46.299  32.802  30.821  1.00  0.00    -0.203 F 
ATOM     91  F   UNL A   1      45.302  36.602  27.036  1.00  0.00    -0.200 F 
ATOM     92  C   UNL A   1      46.359  35.957  29.046  1.00  0.00     0.200 A 
ATOM     93  F   UNL A   1      47.402  35.261  31.044  1.00  0.00    -0.200 F 
ATOM     94  F   UNL A   1      46.931  37.165  29.150  1.00  0.00    -0.200 F 
ENDBRANCH  61  84
ENDBRANCH  35  36
ENDBRANCH  28  30
ENDBRANCH  27  28
ENDBRANCH  26  27
ENDBRANCH  25  26
ENDBRANCH   1  25
TORSDOF 17
ENDMDL
MODEL 3
REMARK VINA RESULT:     -11.2      1.208      2.065
REMARK SMILES CC[C@@](C)(NC(=O)Nc1c(C)cccc1Cl)C(=O)OCCOCCOC(=O)c1ccc(-c2c3nc(c(-c4c(F)c(F)c(F)c(F)c4F)c4ccc([nH]4)c(-c4c(F)c(F)c(F)c(F)c4F)c4nc(c(-c5c(F)c(F)c(F)c(F)c5F)c5ccc2[nH]5)C=C4)C=C3)cc1
REMARK SMILES IDX 22 1 21 2 20 3 19 4 17 5 18 6 3 7 4 8 2 9 1 10 5 11 6 12
REMARK SMILES IDX 7 14 8 15 9 17 10 18 15 19 11 20 12 21 14 22 16 23 13 24
REMARK SMILES IDX 23 25 24 26 25 27 26 28 27 29 28 30 29 31 90 32 30 33 89 34
REMARK SMILES IDX 31 35 32 36 33 37 83 38 34 39 88 40 82 41 84 42 35 43 87 44
REMARK SMILES IDX 81 45 80 46 36 48 68 49 48 50 67 51 49 52 52 53 66 54 85 55
REMARK SMILES IDX 50 56 51 57 65 59 86 60 53 61 37 62 38 63 46 64 39 65 40 66
REMARK SMILES IDX 44 67 47 68 41 69 42 70 45 71 43 72 69 73 70 74 78 75 71 76
REMARK SMILES IDX 72 77 76 78 79 79 73 80 74 81 77 82 75 83 54 84 55 85 63 86
REMARK SMILES IDX 56 87 57 88 61 89 64 90 58 91 59 92 62 93 60 94
REMARK H PARENT 5 13 8 16 84 47 52 58
REMARK Flexibility Score: inf
ROOT
ATOM      1  O   UNL A   1      30.448  29.001  23.855  1.00  0.00    -0.374 OA
ENDROOT
BRANCH   1   2
ATOM      2  C   UNL A   1      29.794  27.991  23.116  1.00  0.00     0.202 C 
BRANCH   2   3
ATOM      3  C   UNL A   1      29.862  26.673  23.991  1.00  0.00     0.261 C 
BRANCH   3   4
ATOM      4  O   UNL A   1      31.039  25.822  23.674  1.00  0.00    -0.462 OA
BRANCH   4   5
ATOM      5  C   UNL A   1      31.226  24.528  23.204  1.00  0.00     0.331 C 
ATOM      6  O   UNL A   1      30.316  23.703  23.162  1.00  0.00    -0.249 OA
BRANCH   5   7
ATOM      7  C   UNL A   1      32.776  24.199  22.709  1.00  0.00     0.136 C 
ATOM      8  C   UNL A   1      33.198  25.423  21.863  1.00  0.00     0.047 C 
BRANCH   7   9
ATOM      9  C   UNL A   1      34.163  23.694  23.314  1.00  0.00     0.037 C 
ATOM     10  C   UNL A   1      34.999  24.398  24.355  1.00  0.00     0.007 C 
ENDBRANCH   7   9
BRANCH   7  11
ATOM     11  N   UNL A   1      32.400  23.036  21.955  1.00  0.00    -0.322 N 
ATOM     12  C   UNL A   1      32.184  21.844  22.561  1.00  0.00     0.320 C 
ATOM     13  H   UNL A   1      32.296  23.105  20.978  1.00  0.00     0.166 HD
ATOM     14  O   UNL A   1      31.905  20.892  21.834  1.00  0.00    -0.248 OA
ATOM     15  N   UNL A   1      32.369  21.625  23.904  1.00  0.00    -0.306 N 
ATOM     16  H   UNL A   1      32.371  20.643  23.981  1.00  0.00     0.171 HD
BRANCH  15  17
ATOM     17  C   UNL A   1      32.568  22.086  25.294  1.00  0.00     0.064 A 
ATOM     18  C   UNL A   1      31.842  22.840  26.315  1.00  0.00    -0.026 A 
ATOM     19  C   UNL A   1      33.784  21.491  25.776  1.00  0.00     0.064 A 
ATOM     20  C   UNL A   1      30.507  23.562  26.447  1.00  0.00     0.046 C 
ATOM     21  C   UNL A   1      32.394  22.921  27.636  1.00  0.00     0.005 A 
ATOM     22  C   UNL A   1      34.201  21.503  27.110  1.00  0.00     0.023 A 
ATOM     23  Cl  UNL A   1      34.882  20.665  24.688  1.00  0.00    -0.082 Cl
ATOM     24  C   UNL A   1      33.504  22.220  28.047  1.00  0.00     0.002 A 
ENDBRANCH  15  17
ENDBRANCH   7  11
ENDBRANCH   5   7
ENDBRANCH   4   5
ENDBRANCH   3   4
ENDBRANCH   2   3
ENDBRANCH   1   2
BRANCH   1  25
ATOM     25  C   UNL A   1      31.125  28.763  25.086  1.00  0.00     0.202 C 
BRANCH  25  26
ATOM     26  C   UNL A   1      31.893  30.083  25.363  1.00  0.00     0.261 C 
BRANCH  26  27
ATOM     27  O   UNL A   1      32.398  30.075  26.721  1.00  0.00    -0.460 OA
BRANCH  27  28
ATOM     28  C   UNL A   1      32.955  31.250  27.059  1.00  0.00     0.338 C 
ATOM     29  O   UNL A   1      32.326  32.306  27.228  1.00  0.00    -0.246 OA
BRANCH  28  30
ATOM     30  C   UNL A   1      34.339  31.080  27.556  1.00  0.00     0.060 A 
ATOM     31  C   UNL A   1      34.778  29.757  27.740  1.00  0.00     0.016 A 
ATOM     32  C   UNL A   1      35.204  32.140  27.832  1.00  0.00     0.016 A 
ATOM     33  C   UNL A   1      36.036  29.487  28.271  1.00  0.00     0.010 A 
ATOM     34  C   UNL A   1      36.460  31.869  28.404  1.00  0.00     0.010 A 
ATOM     35  C   UNL A   1      36.862  30.544  28.669  1.00  0.00    -0.014 A 
BRANCH  35  36
ATOM     36  C   UNL A   1      38.013  30.251  29.563  1.00  0.00     0.031 A 
ATOM     37  C   UNL A   1      39.088  29.328  29.053  1.00  0.00     0.074 A 
ATOM     38  C   UNL A   1      38.158  30.833  30.767  1.00  0.00     0.049 A 
ATOM     39  N   UNL A   1      40.167  28.891  29.656  1.00  0.00    -0.248 NA
ATOM     40  C   UNL A   1      38.932  28.839  27.673  1.00  0.00     0.031 C 
ATOM     41  C   UNL A   1      37.246  31.808  31.355  1.00  0.00     0.029 A 
ATOM     42  N   UNL A   1      39.140  30.671  31.718  1.00  0.00    -0.354 N 
ATOM     43  C   UNL A   1      40.807  28.072  28.735  1.00  0.00     0.074 A 
ATOM     44  C   UNL A   1      39.998  28.064  27.536  1.00  0.00     0.031 C 
ATOM     45  C   UNL A   1      37.695  32.139  32.580  1.00  0.00     0.029 A 
ATOM     46  C   UNL A   1      38.905  31.369  32.876  1.00  0.00     0.049 A 
ATOM     47  H   UNL A   1      39.936  30.108  31.579  1.00  0.00     0.167 HD
ATOM     48  C   UNL A   1      41.966  27.387  28.875  1.00  0.00     0.037 A 
ATOM     49  C   UNL A   1      39.567  31.356  34.053  1.00  0.00     0.037 A 
ATOM     50  C   UNL A   1      42.785  27.392  30.057  1.00  0.00     0.049 A 
ATOM     51  C   UNL A   1      40.796  30.491  34.218  1.00  0.00     0.074 A 
ATOM     52  C   UNL A   1      43.994  26.749  30.266  1.00  0.00     0.029 A 
ATOM     53  N   UNL A   1      42.477  28.057  31.231  1.00  0.00    -0.354 N 
ATOM     54  N   UNL A   1      41.413  29.744  33.336  1.00  0.00    -0.248 NA
ATOM     55  C   UNL A   1      41.419  30.465  35.553  1.00  0.00     0.031 C 
ATOM     56  C   UNL A   1      44.383  26.969  31.590  1.00  0.00     0.029 A 
ATOM     57  C   UNL A   1      43.450  27.801  32.185  1.00  0.00     0.049 A 
ATOM     58  H   UNL A   1      41.686  28.628  31.368  1.00  0.00     0.167 HD
ATOM     59  C   UNL A   1      42.499  29.183  33.999  1.00  0.00     0.074 A 
ATOM     60  C   UNL A   1      42.476  29.694  35.350  1.00  0.00     0.031 C 
ATOM     61  C   UNL A   1      43.428  28.315  33.529  1.00  0.00     0.037 A 
BRANCH  48  62
ATOM     62  C   UNL A   1      42.415  26.530  27.730  1.00  0.00     0.064 A 
ATOM     63  C   UNL A   1      43.283  27.013  26.741  1.00  0.00     0.173 A 
ATOM     64  C   UNL A   1      42.040  25.179  27.678  1.00  0.00     0.173 A 
ATOM     65  F   UNL A   1      43.660  28.300  26.742  1.00  0.00    -0.203 F 
ATOM     66  C   UNL A   1      43.758  26.173  25.737  1.00  0.00     0.198 A 
ATOM     67  C   UNL A   1      42.536  24.336  26.689  1.00  0.00     0.198 A 
ATOM     68  F   UNL A   1      41.214  24.671  28.605  1.00  0.00    -0.203 F 
ATOM     69  F   UNL A   1      44.571  26.657  24.789  1.00  0.00    -0.200 F 
ATOM     70  C   UNL A   1      43.394  24.834  25.720  1.00  0.00     0.200 A 
ATOM     71  F   UNL A   1      42.197  23.040  26.683  1.00  0.00    -0.200 F 
ATOM     72  F   UNL A   1      43.871  24.020  24.767  1.00  0.00    -0.200 F 
ENDBRANCH  48  62
BRANCH  49  73
ATOM     73  C   UNL A   1      39.052  32.134  35.213  1.00  0.00     0.064 A 
ATOM     74  C   UNL A   1      39.357  33.494  35.373  1.00  0.00     0.173 A 
ATOM     75  C   UNL A   1      38.319  31.508  36.233  1.00  0.00     0.173 A 
ATOM     76  F   UNL A   1      40.087  34.129  34.445  1.00  0.00    -0.203 F 
ATOM     77  C   UNL A   1      38.977  34.187  36.521  1.00  0.00     0.198 A 
ATOM     78  C   UNL A   1      37.909  32.212  37.363  1.00  0.00     0.198 A 
ATOM     79  F   UNL A   1      38.012  30.206  36.140  1.00  0.00    -0.203 F 
ATOM     80  F   UNL A   1      39.348  35.465  36.682  1.00  0.00    -0.200 F 
ATOM     81  C   UNL A   1      38.251  33.547  37.513  1.00  0.00     0.200 A 
ATOM     82  F   UNL A   1      37.202  31.590  38.317  1.00  0.00    -0.200 F 
ATOM     83  F   UNL A   1      37.897  34.211  38.622  1.00  0.00    -0.200 F 
ENDBRANCH  49  73
BRANCH  61  84
ATOM     84  C   UNL A   1      44.516  27.874  34.468  1.00  0.00     0.064 A 
ATOM     85  C   UNL A   1      45.696  28.618  34.630  1.00  0.00     0.173 A 
ATOM     86  C   UNL A   1      44.358  26.722  35.255  1.00  0.00     0.173 A 
ATOM     87  F   UNL A   1      45.905  29.719  33.894  1.00  0.00    -0.203 F 
ATOM     88  C   UNL A   1      46.682  28.213  35.527  1.00  0.00     0.198 A 
ATOM     89  C   UNL A   1      45.333  26.338  36.174  1.00  0.00     0.198 A 
ATOM     90  F   UNL A   1      43.247  25.977  35.148  1.00  0.00    -0.203 F 
ATOM     91  F   UNL A   1      47.818  28.915  35.631  1.00  0.00    -0.200 F 
ATOM     92  C   UNL A   1      46.496  27.080  36.304  1.00  0.00     0.200 A 
ATOM     93  F   UNL A   1      45.143  25.252  36.935  1.00  0.00    -0.200 F 
ATOM     94  F   UNL A   1      47.442  26.698  37.174  1.00  0.00    -0.200 F 
ENDBRANCH  61  84
ENDBRANCH  35  36
ENDBRANCH  28  30
ENDBRANCH  27  28
ENDBRANCH  26  27
ENDBRANCH  25  26
ENDBRANCH   1  25
TORSDOF 17
ENDMDL
