MODEL 1
REMARK VINA RESULT:     -12.0      0.000      0.000
REMARK SMILES Cc1cc(F)c(-c2ccc(F)c(C(=O)OCCOCCOC(=O)c3ccc(-c4c5nc(c(-c6c(F)c(F)c(F)c(F)c6F)c6ccc([nH]6)c(-c6c(F)c(F)c(F)c(F)c6F)c6nc(c(-c7c(F)c(F)c(F)c(F)c7F)c7ccc4[nH]7)C=C6)C=C5)cc3)c2)cc1F
REMARK SMILES IDX 19 1 18 2 17 3 16 4 15 5 13 6 14 7 12 8 7 9 8 10 87 11 9 12
REMARK SMILES IDX 10 13 11 14 6 15 1 16 2 17 3 18 89 19 4 20 88 21 90 22 5 23
REMARK SMILES IDX 20 24 21 25 22 26 23 27 24 28 25 29 86 30 26 31 85 32 27 33
REMARK SMILES IDX 28 34 29 35 79 36 30 37 84 38 78 39 80 40 31 41 83 42 77 43
REMARK SMILES IDX 76 44 32 46 64 47 44 48 63 49 45 50 48 51 62 52 81 53 46 54
REMARK SMILES IDX 47 55 61 57 82 58 49 59 33 60 34 61 42 62 35 63 36 64 40 65
REMARK SMILES IDX 43 66 37 67 38 68 41 69 39 70 65 71 66 72 74 73 67 74 68 75
REMARK SMILES IDX 72 76 75 77 69 78 70 79 73 80 71 81 50 82 51 83 59 84 52 85
REMARK SMILES IDX 53 86 57 87 60 88 54 89 55 90 58 91 56 92
REMARK H PARENT 80 45 48 56
REMARK Flexibility Score: inf
ROOT
ATOM      1  C   UNL A   1      31.845  28.617  25.427  1.00  0.00     0.202 C 
ENDROOT
BRANCH   1   2
ATOM      2  O   UNL A   1      32.821  27.816  24.762  1.00  0.00    -0.374 OA
BRANCH   2   3
ATOM      3  C   UNL A   1      33.695  28.451  23.832  1.00  0.00     0.202 C 
BRANCH   3   4
ATOM      4  C   UNL A   1      33.658  27.966  22.380  1.00  0.00     0.261 C 
BRANCH   4   5
ATOM      5  O   UNL A   1      32.543  27.092  22.144  1.00  0.00    -0.460 OA
BRANCH   5   6
ATOM      6  C   UNL A   1      32.870  25.878  21.629  1.00  0.00     0.341 C 
ATOM      7  O   UNL A   1      33.186  25.638  20.476  1.00  0.00    -0.246 OA
BRANCH   6   8
ATOM      8  C   UNL A   1      32.926  24.885  22.719  1.00  0.00     0.096 A 
ATOM      9  C   UNL A   1      34.144  23.429  24.251  1.00  0.00    -0.014 A 
ATOM     10  C   UNL A   1      32.902  23.010  24.775  1.00  0.00     0.012 A 
ATOM     11  C   UNL A   1      34.139  24.372  23.207  1.00  0.00     0.027 A 
ATOM     12  C   UNL A   1      31.699  23.500  24.270  1.00  0.00     0.041 A 
ATOM     13  C   UNL A   1      31.717  24.435  23.246  1.00  0.00     0.137 A 
ATOM     14  F   UNL A   1      30.544  24.849  22.748  1.00  0.00    -0.206 F 
BRANCH   9  15
ATOM     15  C   UNL A   1      35.391  22.898  24.832  1.00  0.00     0.020 A 
ATOM     16  C   UNL A   1      39.278  21.465  26.124  1.00  0.00     0.047 C 
ATOM     17  C   UNL A   1      37.917  21.936  25.711  1.00  0.00    -0.012 A 
ATOM     18  C   UNL A   1      36.961  21.054  25.201  1.00  0.00     0.046 A 
ATOM     19  C   UNL A   1      37.579  23.285  25.827  1.00  0.00     0.126 A 
ATOM     20  C   UNL A   1      35.720  21.535  24.771  1.00  0.00     0.131 A 
ATOM     21  C   UNL A   1      36.342  23.765  25.400  1.00  0.00     0.051 A 
ATOM     22  F   UNL A   1      38.467  24.153  26.334  1.00  0.00    -0.207 F 
ATOM     23  F   UNL A   1      34.851  20.655  24.252  1.00  0.00    -0.206 F 
ENDBRANCH   9  15
ENDBRANCH   6   8
ENDBRANCH   5   6
ENDBRANCH   4   5
ENDBRANCH   3   4
ENDBRANCH   2   3
ENDBRANCH   1   2
BRANCH   1  24
ATOM     24  C   UNL A   1      32.204  30.079  25.729  1.00  0.00     0.261 C 
BRANCH  24  25
ATOM     25  O   UNL A   1      32.601  30.289  27.094  1.00  0.00    -0.460 OA
BRANCH  25  26
ATOM     26  C   UNL A   1      33.321  31.418  27.315  1.00  0.00     0.338 C 
ATOM     27  O   UNL A   1      32.935  32.573  27.246  1.00  0.00    -0.246 OA
BRANCH  26  28
ATOM     28  C   UNL A   1      34.642  31.048  27.859  1.00  0.00     0.060 A 
ATOM     29  C   UNL A   1      35.657  31.993  27.999  1.00  0.00     0.016 A 
ATOM     30  C   UNL A   1      34.844  29.720  28.261  1.00  0.00     0.016 A 
ATOM     31  C   UNL A   1      36.875  31.609  28.564  1.00  0.00     0.010 A 
ATOM     32  C   UNL A   1      36.061  29.338  28.826  1.00  0.00     0.010 A 
ATOM     33  C   UNL A   1      37.081  30.285  28.996  1.00  0.00    -0.014 A 
BRANCH  33  34
ATOM     34  C   UNL A   1      38.320  29.930  29.733  1.00  0.00     0.031 A 
ATOM     35  C   UNL A   1      38.600  30.468  31.103  1.00  0.00     0.074 A 
ATOM     36  C   UNL A   1      39.204  29.107  29.139  1.00  0.00     0.049 A 
ATOM     37  N   UNL A   1      39.594  30.187  31.908  1.00  0.00    -0.248 NA
ATOM     38  C   UNL A   1      37.650  31.453  31.638  1.00  0.00     0.031 C 
ATOM     39  C   UNL A   1      39.056  28.555  27.791  1.00  0.00     0.029 A 
ATOM     40  N   UNL A   1      40.388  28.581  29.588  1.00  0.00    -0.354 N 
ATOM     41  C   UNL A   1      39.379  30.940  33.054  1.00  0.00     0.074 A 
ATOM     42  C   UNL A   1      38.190  31.734  32.817  1.00  0.00     0.031 C 
ATOM     43  C   UNL A   1      40.087  27.735  27.539  1.00  0.00     0.029 A 
ATOM     44  C   UNL A   1      40.986  27.730  28.691  1.00  0.00     0.049 A 
ATOM     45  H   UNL A   1      40.773  28.794  30.469  1.00  0.00     0.167 HD
ATOM     46  C   UNL A   1      40.095  30.945  34.204  1.00  0.00     0.037 A 
ATOM     47  C   UNL A   1      42.125  27.018  28.786  1.00  0.00     0.037 A 
ATOM     48  C   UNL A   1      41.288  30.165  34.425  1.00  0.00     0.049 A 
ATOM     49  C   UNL A   1      42.931  27.085  30.054  1.00  0.00     0.074 A 
ATOM     50  C   UNL A   1      42.062  30.080  35.570  1.00  0.00     0.029 A 
ATOM     51  N   UNL A   1      41.890  29.349  33.477  1.00  0.00    -0.354 N 
ATOM     52  N   UNL A   1      42.673  27.735  31.163  1.00  0.00    -0.248 NA
ATOM     53  C   UNL A   1      44.182  26.316  30.086  1.00  0.00     0.031 C 
ATOM     54  C   UNL A   1      43.163  29.262  35.297  1.00  0.00     0.029 A 
ATOM     55  C   UNL A   1      43.044  28.785  34.002  1.00  0.00     0.049 A 
ATOM     56  H   UNL A   1      41.548  29.193  32.566  1.00  0.00     0.167 HD
ATOM     57  C   UNL A   1      43.716  27.440  32.030  1.00  0.00     0.074 A 
ATOM     58  C   UNL A   1      44.600  26.533  31.326  1.00  0.00     0.031 C 
ATOM     59  C   UNL A   1      43.922  27.885  33.294  1.00  0.00     0.037 A 
BRANCH  46  60
ATOM     60  C   UNL A   1      39.608  31.814  35.330  1.00  0.00     0.064 A 
ATOM     61  C   UNL A   1      40.025  33.148  35.455  1.00  0.00     0.173 A 
ATOM     62  C   UNL A   1      38.655  31.337  36.244  1.00  0.00     0.173 A 
ATOM     63  F   UNL A   1      40.937  33.653  34.609  1.00  0.00    -0.203 F 
ATOM     64  C   UNL A   1      39.522  33.965  36.464  1.00  0.00     0.198 A 
ATOM     65  C   UNL A   1      38.132  32.167  37.232  1.00  0.00     0.198 A 
ATOM     66  F   UNL A   1      38.213  30.073  36.163  1.00  0.00    -0.203 F 
ATOM     67  F   UNL A   1      39.962  35.226  36.583  1.00  0.00    -0.200 F 
ATOM     68  C   UNL A   1      38.569  33.478  37.345  1.00  0.00     0.200 A 
ATOM     69  F   UNL A   1      37.196  31.700  38.071  1.00  0.00    -0.200 F 
ATOM     70  F   UNL A   1      38.071  34.272  38.303  1.00  0.00    -0.200 F 
ENDBRANCH  46  60
BRANCH  47  71
ATOM     71  C   UNL A   1      42.540  26.149  27.655  1.00  0.00     0.064 A 
ATOM     72  C   UNL A   1      43.439  26.614  26.685  1.00  0.00     0.173 A 
ATOM     73  C   UNL A   1      42.078  24.830  27.539  1.00  0.00     0.173 A 
ATOM     74  F   UNL A   1      43.894  27.875  26.744  1.00  0.00    -0.203 F 
ATOM     75  C   UNL A   1      43.856  25.794  25.640  1.00  0.00     0.198 A 
ATOM     76  C   UNL A   1      42.519  24.002  26.509  1.00  0.00     0.198 A 
ATOM     77  F   UNL A   1      41.220  24.336  28.443  1.00  0.00    -0.203 F 
ATOM     78  F   UNL A   1      44.692  26.273  24.708  1.00  0.00    -0.200 F 
ATOM     79  C   UNL A   1      43.404  24.486  25.557  1.00  0.00     0.200 A 
ATOM     80  F   UNL A   1      42.093  22.733  26.445  1.00  0.00    -0.200 F 
ATOM     81  F   UNL A   1      43.818  23.692  24.562  1.00  0.00    -0.200 F 
ENDBRANCH  47  71
BRANCH  59  82
ATOM     82  C   UNL A   1      45.148  27.399  34.014  1.00  0.00     0.064 A 
ATOM     83  C   UNL A   1      46.351  28.121  33.985  1.00  0.00     0.173 A 
ATOM     84  C   UNL A   1      45.100  26.238  34.802  1.00  0.00     0.173 A 
ATOM     85  F   UNL A   1      46.455  29.229  33.236  1.00  0.00    -0.203 F 
ATOM     86  C   UNL A   1      47.462  27.691  34.707  1.00  0.00     0.198 A 
ATOM     87  C   UNL A   1      46.202  25.831  35.548  1.00  0.00     0.198 A 
ATOM     88  F   UNL A   1      43.973  25.514  34.871  1.00  0.00    -0.203 F 
ATOM     89  F   UNL A   1      48.611  28.377  34.633  1.00  0.00    -0.200 F 
ATOM     90  C   UNL A   1      47.384  26.554  35.497  1.00  0.00     0.200 A 
ATOM     91  F   UNL A   1      46.119  24.742  36.325  1.00  0.00    -0.200 F 
ATOM     92  F   UNL A   1      48.448  26.155  36.205  1.00  0.00    -0.200 F 
ENDBRANCH  59  82
ENDBRANCH  33  34
ENDBRANCH  26  28
ENDBRANCH  25  26
ENDBRANCH  24  25
ENDBRANCH   1  24
TORSDOF 15
ENDMDL
MODEL 2
REMARK VINA RESULT:     -12.0      4.366      9.649
REMARK SMILES Cc1cc(F)c(-c2ccc(F)c(C(=O)OCCOCCOC(=O)c3ccc(-c4c5nc(c(-c6c(F)c(F)c(F)c(F)c6F)c6ccc([nH]6)c(-c6c(F)c(F)c(F)c(F)c6F)c6nc(c(-c7c(F)c(F)c(F)c(F)c7F)c7ccc4[nH]7)C=C6)C=C5)cc3)c2)cc1F
REMARK SMILES IDX 19 1 18 2 17 3 16 4 15 5 13 6 14 7 12 8 7 9 8 10 87 11 9 12
REMARK SMILES IDX 10 13 11 14 6 15 1 16 2 17 3 18 89 19 4 20 88 21 90 22 5 23
REMARK SMILES IDX 20 24 21 25 22 26 23 27 24 28 25 29 86 30 26 31 85 32 27 33
REMARK SMILES IDX 28 34 29 35 79 36 30 37 84 38 78 39 80 40 31 41 83 42 77 43
REMARK SMILES IDX 76 44 32 46 64 47 44 48 63 49 45 50 48 51 62 52 81 53 46 54
REMARK SMILES IDX 47 55 61 57 82 58 49 59 33 60 34 61 42 62 35 63 36 64 40 65
REMARK SMILES IDX 43 66 37 67 38 68 41 69 39 70 65 71 66 72 74 73 67 74 68 75
REMARK SMILES IDX 72 76 75 77 69 78 70 79 73 80 71 81 50 82 51 83 59 84 52 85
REMARK SMILES IDX 53 86 57 87 60 88 54 89 55 90 58 91 56 92
REMARK H PARENT 80 45 48 56
REMARK Flexibility Score: inf
ROOT
ATOM      1  C   UNL A   1      35.566  20.682  25.271  1.00  0.00     0.202 C 
ENDROOT
BRANCH   1   2
ATOM      2  O   UNL A   1      35.181  21.452  26.408  1.00  0.00    -0.374 OA
BRANCH   2   3
ATOM      3  C   UNL A   1      34.203  22.474  26.232  1.00  0.00     0.202 C 
BRANCH   3   4
ATOM      4  C   UNL A   1      32.900  22.353  27.028  1.00  0.00     0.261 C 
BRANCH   4   5
ATOM      5  O   UNL A   1      31.752  22.359  26.163  1.00  0.00    -0.460 OA
BRANCH   5   6
ATOM      6  C   UNL A   1      30.863  23.358  26.406  1.00  0.00     0.341 C 
ATOM      7  O   UNL A   1      29.986  23.362  27.252  1.00  0.00    -0.246 OA
BRANCH   6   8
ATOM      8  C   UNL A   1      31.206  24.527  25.573  1.00  0.00     0.096 A 
ATOM      9  C   UNL A   1      32.012  26.812  25.287  1.00  0.00    -0.014 A 
ATOM     10  C   UNL A   1      31.809  26.666  23.898  1.00  0.00     0.012 A 
ATOM     11  C   UNL A   1      31.695  25.724  26.121  1.00  0.00     0.027 A 
ATOM     12  C   UNL A   1      31.298  25.487  23.359  1.00  0.00     0.041 A 
ATOM     13  C   UNL A   1      30.999  24.424  24.198  1.00  0.00     0.137 A 
ATOM     14  F   UNL A   1      30.462  23.323  23.656  1.00  0.00    -0.206 F 
BRANCH   9  15
ATOM     15  C   UNL A   1      32.575  28.071  25.809  1.00  0.00     0.020 A 
ATOM     16  C   UNL A   1      34.047  31.648  27.776  1.00  0.00     0.047 C 
ATOM     17  C   UNL A   1      33.545  30.433  27.057  1.00  0.00    -0.012 A 
ATOM     18  C   UNL A   1      32.365  30.460  26.310  1.00  0.00     0.046 A 
ATOM     19  C   UNL A   1      34.259  29.235  27.126  1.00  0.00     0.126 A 
ATOM     20  C   UNL A   1      31.894  29.294  25.699  1.00  0.00     0.131 A 
ATOM     21  C   UNL A   1      33.790  28.073  26.516  1.00  0.00     0.051 A 
ATOM     22  F   UNL A   1      35.407  29.182  27.817  1.00  0.00    -0.207 F 
ATOM     23  F   UNL A   1      30.735  29.361  25.026  1.00  0.00    -0.206 F 
ENDBRANCH   9  15
ENDBRANCH   6   8
ENDBRANCH   5   6
ENDBRANCH   4   5
ENDBRANCH   3   4
ENDBRANCH   2   3
ENDBRANCH   1   2
BRANCH   1  24
ATOM     24  C   UNL A   1      37.067  20.497  25.007  1.00  0.00     0.261 C 
BRANCH  24  25
ATOM     25  O   UNL A   1      37.850  21.637  25.398  1.00  0.00    -0.460 OA
BRANCH  25  26
ATOM     26  C   UNL A   1      38.973  21.346  26.103  1.00  0.00     0.338 C 
ATOM     27  O   UNL A   1      39.537  20.268  26.194  1.00  0.00    -0.246 OA
BRANCH  26  28
ATOM     28  C   UNL A   1      39.558  22.600  26.615  1.00  0.00     0.060 A 
ATOM     29  C   UNL A   1      40.599  22.587  27.543  1.00  0.00     0.016 A 
ATOM     30  C   UNL A   1      39.058  23.814  26.123  1.00  0.00     0.016 A 
ATOM     31  C   UNL A   1      41.155  23.797  27.963  1.00  0.00     0.010 A 
ATOM     32  C   UNL A   1      39.615  25.021  26.543  1.00  0.00     0.010 A 
ATOM     33  C   UNL A   1      40.679  25.021  27.455  1.00  0.00    -0.014 A 
BRANCH  33  34
ATOM     34  C   UNL A   1      41.379  26.286  27.793  1.00  0.00     0.031 A 
ATOM     35  C   UNL A   1      42.787  26.545  27.352  1.00  0.00     0.074 A 
ATOM     36  C   UNL A   1      40.720  27.209  28.518  1.00  0.00     0.049 A 
ATOM     37  N   UNL A   1      43.506  27.630  27.495  1.00  0.00    -0.248 NA
ATOM     38  C   UNL A   1      43.484  25.446  26.670  1.00  0.00     0.031 C 
ATOM     39  C   UNL A   1      39.361  27.048  29.037  1.00  0.00     0.029 A 
ATOM     40  N   UNL A   1      41.090  28.463  28.931  1.00  0.00    -0.354 N 
ATOM     41  C   UNL A   1      44.730  27.357  26.901  1.00  0.00     0.074 A 
ATOM     42  C   UNL A   1      44.677  25.982  26.446  1.00  0.00     0.031 C 
ATOM     43  C   UNL A   1      38.995  28.176  29.663  1.00  0.00     0.029 A 
ATOM     44  C   UNL A   1      40.105  29.126  29.621  1.00  0.00     0.049 A 
ATOM     45  H   UNL A   1      41.978  28.850  28.752  1.00  0.00     0.167 HD
ATOM     46  C   UNL A   1      45.788  28.187  26.731  1.00  0.00     0.037 A 
ATOM     47  C   UNL A   1      40.091  30.363  30.152  1.00  0.00     0.037 A 
ATOM     48  C   UNL A   1      45.838  29.549  27.203  1.00  0.00     0.049 A 
ATOM     49  C   UNL A   1      41.299  31.244  29.997  1.00  0.00     0.074 A 
ATOM     50  C   UNL A   1      46.854  30.477  27.048  1.00  0.00     0.029 A 
ATOM     51  N   UNL A   1      44.840  30.172  27.938  1.00  0.00    -0.354 N 
ATOM     52  N   UNL A   1      42.420  31.005  29.360  1.00  0.00    -0.248 NA
ATOM     53  C   UNL A   1      41.240  32.569  30.630  1.00  0.00     0.031 C 
ATOM     54  C   UNL A   1      46.497  31.639  27.738  1.00  0.00     0.029 A 
ATOM     55  C   UNL A   1      45.231  31.461  28.272  1.00  0.00     0.049 A 
ATOM     56  H   UNL A   1      43.980  29.761  28.186  1.00  0.00     0.167 HD
ATOM     57  C   UNL A   1      43.190  32.152  29.497  1.00  0.00     0.074 A 
ATOM     58  C   UNL A   1      42.399  33.097  30.260  1.00  0.00     0.031 C 
ATOM     59  C   UNL A   1      44.440  32.395  29.035  1.00  0.00     0.037 A 
BRANCH  46  60
ATOM     60  C   UNL A   1      46.983  27.657  25.990  1.00  0.00     0.064 A 
ATOM     61  C   UNL A   1      47.064  27.727  24.591  1.00  0.00     0.173 A 
ATOM     62  C   UNL A   1      48.092  27.150  26.685  1.00  0.00     0.173 A 
ATOM     63  F   UNL A   1      46.030  28.200  23.877  1.00  0.00    -0.203 F 
ATOM     64  C   UNL A   1      48.201  27.291  23.915  1.00  0.00     0.198 A 
ATOM     65  C   UNL A   1      49.238  26.744  26.008  1.00  0.00     0.198 A 
ATOM     66  F   UNL A   1      48.073  27.071  28.024  1.00  0.00    -0.203 F 
ATOM     67  F   UNL A   1      48.240  27.336  22.575  1.00  0.00    -0.200 F 
ATOM     68  C   UNL A   1      49.291  26.809  24.624  1.00  0.00     0.200 A 
ATOM     69  F   UNL A   1      50.299  26.296  26.695  1.00  0.00    -0.200 F 
ATOM     70  F   UNL A   1      50.391  26.408  23.972  1.00  0.00    -0.200 F 
ENDBRANCH  46  60
BRANCH  47  71
ATOM     71  C   UNL A   1      38.868  30.847  30.845  1.00  0.00     0.064 A 
ATOM     72  C   UNL A   1      38.692  30.638  32.220  1.00  0.00     0.173 A 
ATOM     73  C   UNL A   1      37.873  31.557  30.158  1.00  0.00     0.173 A 
ATOM     74  F   UNL A   1      39.608  29.948  32.914  1.00  0.00    -0.203 F 
ATOM     75  C   UNL A   1      37.563  31.116  32.879  1.00  0.00     0.198 A 
ATOM     76  C   UNL A   1      36.759  32.061  30.826  1.00  0.00     0.198 A 
ATOM     77  F   UNL A   1      37.997  31.787  28.843  1.00  0.00    -0.203 F 
ATOM     78  F   UNL A   1      37.402  30.875  34.188  1.00  0.00    -0.200 F 
ATOM     79  C   UNL A   1      36.602  31.835  32.185  1.00  0.00     0.200 A 
ATOM     80  F   UNL A   1      35.842  32.771  30.154  1.00  0.00    -0.200 F 
ATOM     81  F   UNL A   1      35.524  32.310  32.824  1.00  0.00    -0.200 F 
ENDBRANCH  47  71
BRANCH  59  82
ATOM     82  C   UNL A   1      45.044  33.740  29.329  1.00  0.00     0.064 A 
ATOM     83  C   UNL A   1      45.855  33.950  30.455  1.00  0.00     0.173 A 
ATOM     84  C   UNL A   1      44.872  34.811  28.438  1.00  0.00     0.173 A 
ATOM     85  F   UNL A   1      46.040  32.965  31.347  1.00  0.00    -0.203 F 
ATOM     86  C   UNL A   1      46.458  35.185  30.684  1.00  0.00     0.198 A 
ATOM     87  C   UNL A   1      45.503  36.033  28.652  1.00  0.00     0.198 A 
ATOM     88  F   UNL A   1      44.112  34.663  27.342  1.00  0.00    -0.203 F 
ATOM     89  F   UNL A   1      47.196  35.372  31.786  1.00  0.00    -0.200 F 
ATOM     90  C   UNL A   1      46.291  36.221  29.777  1.00  0.00     0.200 A 
ATOM     91  F   UNL A   1      45.355  37.027  27.766  1.00  0.00    -0.200 F 
ATOM     92  F   UNL A   1      46.889  37.401  29.989  1.00  0.00    -0.200 F 
ENDBRANCH  59  82
ENDBRANCH  33  34
ENDBRANCH  26  28
ENDBRANCH  25  26
ENDBRANCH  24  25
ENDBRANCH   1  24
TORSDOF 15
ENDMDL
MODEL 3
REMARK VINA RESULT:     -11.9      4.844     10.339
REMARK SMILES Cc1cc(F)c(-c2ccc(F)c(C(=O)OCCOCCOC(=O)c3ccc(-c4c5nc(c(-c6c(F)c(F)c(F)c(F)c6F)c6ccc([nH]6)c(-c6c(F)c(F)c(F)c(F)c6F)c6nc(c(-c7c(F)c(F)c(F)c(F)c7F)c7ccc4[nH]7)C=C6)C=C5)cc3)c2)cc1F
REMARK SMILES IDX 19 1 18 2 17 3 16 4 15 5 13 6 14 7 12 8 7 9 8 10 87 11 9 12
REMARK SMILES IDX 10 13 11 14 6 15 1 16 2 17 3 18 89 19 4 20 88 21 90 22 5 23
REMARK SMILES IDX 20 24 21 25 22 26 23 27 24 28 25 29 86 30 26 31 85 32 27 33
REMARK SMILES IDX 28 34 29 35 79 36 30 37 84 38 78 39 80 40 31 41 83 42 77 43
REMARK SMILES IDX 76 44 32 46 64 47 44 48 63 49 45 50 48 51 62 52 81 53 46 54
REMARK SMILES IDX 47 55 61 57 82 58 49 59 33 60 34 61 42 62 35 63 36 64 40 65
REMARK SMILES IDX 43 66 37 67 38 68 41 69 39 70 65 71 66 72 74 73 67 74 68 75
REMARK SMILES IDX 72 76 75 77 69 78 70 79 73 80 71 81 50 82 51 83 59 84 52 85
REMARK SMILES IDX 53 86 57 87 60 88 54 89 55 90 58 91 56 92
REMARK H PARENT 80 45 48 56
REMARK Flexibility Score: inf
ROOT
ATOM      1  C   UNL A   1      41.212  19.837  26.635  1.00  0.00     0.202 C 
ENDROOT
BRANCH   1   2
ATOM      2  O   UNL A   1      41.960  19.090  25.678  1.00  0.00    -0.374 OA
BRANCH   2   3
ATOM      3  C   UNL A   1      43.359  18.924  25.894  1.00  0.00     0.202 C 
BRANCH   3   4
ATOM      4  C   UNL A   1      44.244  18.691  24.666  1.00  0.00     0.261 C 
BRANCH   4   5
ATOM      5  O   UNL A   1      44.560  19.926  24.003  1.00  0.00    -0.460 OA
BRANCH   5   6
ATOM      6  C   UNL A   1      45.569  20.635  24.572  1.00  0.00     0.341 C 
ATOM      7  O   UNL A   1      46.755  20.355  24.555  1.00  0.00    -0.246 OA
BRANCH   6   8
ATOM      8  C   UNL A   1      45.032  21.899  25.111  1.00  0.00     0.096 A 
ATOM      9  C   UNL A   1      44.448  23.383  26.958  1.00  0.00    -0.014 A 
ATOM     10  C   UNL A   1      43.992  24.320  26.007  1.00  0.00     0.012 A 
ATOM     11  C   UNL A   1      44.965  22.160  26.490  1.00  0.00     0.027 A 
ATOM     12  C   UNL A   1      44.035  24.047  24.640  1.00  0.00     0.041 A 
ATOM     13  C   UNL A   1      44.554  22.840  24.199  1.00  0.00     0.137 A 
ATOM     14  F   UNL A   1      44.536  22.586  22.884  1.00  0.00    -0.206 F 
BRANCH   9  15
ATOM     15  C   UNL A   1      44.402  23.725  28.392  1.00  0.00     0.020 A 
ATOM     16  C   UNL A   1      44.568  24.355  32.682  1.00  0.00     0.047 C 
ATOM     17  C   UNL A   1      44.474  24.163  31.199  1.00  0.00    -0.012 A 
ATOM     18  C   UNL A   1      43.404  23.479  30.616  1.00  0.00     0.046 A 
ATOM     19  C   UNL A   1      45.471  24.671  30.364  1.00  0.00     0.126 A 
ATOM     20  C   UNL A   1      43.376  23.267  29.234  1.00  0.00     0.131 A 
ATOM     21  C   UNL A   1      45.442  24.461  28.986  1.00  0.00     0.051 A 
ATOM     22  F   UNL A   1      46.498  25.352  30.890  1.00  0.00    -0.207 F 
ATOM     23  F   UNL A   1      42.349  22.569  28.726  1.00  0.00    -0.206 F 
ENDBRANCH   9  15
ENDBRANCH   6   8
ENDBRANCH   5   6
ENDBRANCH   4   5
ENDBRANCH   3   4
ENDBRANCH   2   3
ENDBRANCH   1   2
BRANCH   1  24
ATOM     24  C   UNL A   1      40.044  20.691  26.122  1.00  0.00     0.261 C 
BRANCH  24  25
ATOM     25  O   UNL A   1      40.237  22.098  26.346  1.00  0.00    -0.460 OA
BRANCH  25  26
ATOM     26  C   UNL A   1      39.104  22.844  26.318  1.00  0.00     0.338 C 
ATOM     27  O   UNL A   1      37.975  22.473  26.041  1.00  0.00    -0.246 OA
BRANCH  26  28
ATOM     28  C   UNL A   1      39.393  24.180  26.874  1.00  0.00     0.060 A 
ATOM     29  C   UNL A   1      38.989  24.531  28.162  1.00  0.00     0.016 A 
ATOM     30  C   UNL A   1      40.114  25.085  26.083  1.00  0.00     0.016 A 
ATOM     31  C   UNL A   1      39.327  25.788  28.665  1.00  0.00     0.010 A 
ATOM     32  C   UNL A   1      40.451  26.340  26.587  1.00  0.00     0.010 A 
ATOM     33  C   UNL A   1      40.074  26.696  27.890  1.00  0.00    -0.014 A 
BRANCH  33  34
ATOM     34  C   UNL A   1      40.557  27.963  28.492  1.00  0.00     0.031 A 
ATOM     35  C   UNL A   1      42.009  28.195  28.777  1.00  0.00     0.074 A 
ATOM     36  C   UNL A   1      39.653  28.916  28.788  1.00  0.00     0.049 A 
ATOM     37  N   UNL A   1      42.598  29.276  29.222  1.00  0.00    -0.248 NA
ATOM     38  C   UNL A   1      42.921  27.067  28.539  1.00  0.00     0.031 C 
ATOM     39  C   UNL A   1      38.208  28.786  28.593  1.00  0.00     0.029 A 
ATOM     40  N   UNL A   1      39.810  30.180  29.299  1.00  0.00    -0.354 N 
ATOM     41  C   UNL A   1      43.949  28.972  29.296  1.00  0.00     0.074 A 
ATOM     42  C   UNL A   1      44.088  27.584  28.904  1.00  0.00     0.031 C 
ATOM     43  C   UNL A   1      37.614  29.937  28.940  1.00  0.00     0.029 A 
ATOM     44  C   UNL A   1      38.630  30.874  29.414  1.00  0.00     0.049 A 
ATOM     45  H   UNL A   1      40.683  30.551  29.559  1.00  0.00     0.167 HD
ATOM     46  C   UNL A   1      44.978  29.786  29.635  1.00  0.00     0.037 A 
ATOM     47  C   UNL A   1      38.393  32.128  29.843  1.00  0.00     0.037 A 
ATOM     48  C   UNL A   1      44.829  31.161  30.041  1.00  0.00     0.049 A 
ATOM     49  C   UNL A   1      39.548  32.992  30.267  1.00  0.00     0.074 A 
ATOM     50  C   UNL A   1      45.817  32.074  30.371  1.00  0.00     0.029 A 
ATOM     51  N   UNL A   1      43.615  31.819  30.190  1.00  0.00    -0.354 N 
ATOM     52  N   UNL A   1      40.831  32.721  30.253  1.00  0.00    -0.248 NA
ATOM     53  C   UNL A   1      39.224  34.337  30.761  1.00  0.00     0.031 C 
ATOM     54  C   UNL A   1      45.201  33.261  30.777  1.00  0.00     0.029 A 
ATOM     55  C   UNL A   1      43.830  33.114  30.640  1.00  0.00     0.049 A 
ATOM     56  H   UNL A   1      42.732  31.424  30.004  1.00  0.00     0.167 HD
ATOM     57  C   UNL A   1      41.468  33.865  30.716  1.00  0.00     0.074 A 
ATOM     58  C   UNL A   1      40.431  34.841  30.982  1.00  0.00     0.031 C 
ATOM     59  C   UNL A   1      42.793  34.080  30.906  1.00  0.00     0.037 A 
BRANCH  46  60
ATOM     60  C   UNL A   1      46.369  29.220  29.573  1.00  0.00     0.064 A 
ATOM     61  C   UNL A   1      46.963  28.620  30.694  1.00  0.00     0.173 A 
ATOM     62  C   UNL A   1      47.085  29.203  28.365  1.00  0.00     0.173 A 
ATOM     63  F   UNL A   1      46.324  28.612  31.874  1.00  0.00    -0.203 F 
ATOM     64  C   UNL A   1      48.228  28.043  30.613  1.00  0.00     0.198 A 
ATOM     65  C   UNL A   1      48.335  28.598  28.281  1.00  0.00     0.198 A 
ATOM     66  F   UNL A   1      46.559  29.753  27.260  1.00  0.00    -0.203 F 
ATOM     67  F   UNL A   1      48.788  27.506  31.707  1.00  0.00    -0.200 F 
ATOM     68  C   UNL A   1      48.909  28.023  29.405  1.00  0.00     0.200 A 
ATOM     69  F   UNL A   1      48.984  28.563  27.108  1.00  0.00    -0.200 F 
ATOM     70  F   UNL A   1      50.118  27.450  29.325  1.00  0.00    -0.200 F 
ENDBRANCH  46  60
BRANCH  47  71
ATOM     71  C   UNL A   1      37.000  32.646  29.851  1.00  0.00     0.064 A 
ATOM     72  C   UNL A   1      36.181  32.486  30.976  1.00  0.00     0.173 A 
ATOM     73  C   UNL A   1      36.474  33.341  28.752  1.00  0.00     0.173 A 
ATOM     74  F   UNL A   1      36.634  31.812  32.044  1.00  0.00    -0.203 F 
ATOM     75  C   UNL A   1      34.885  32.996  31.000  1.00  0.00     0.198 A 
ATOM     76  C   UNL A   1      35.188  33.878  28.789  1.00  0.00     0.198 A 
ATOM     77  F   UNL A   1      37.219  33.525  27.653  1.00  0.00    -0.203 F 
ATOM     78  F   UNL A   1      34.111  32.802  32.077  1.00  0.00    -0.200 F 
ATOM     79  C   UNL A   1      34.393  33.700  29.912  1.00  0.00     0.200 A 
ATOM     80  F   UNL A   1      34.725  34.572  27.742  1.00  0.00    -0.200 F 
ATOM     81  F   UNL A   1      33.153  34.206  29.942  1.00  0.00    -0.200 F 
ENDBRANCH  47  71
BRANCH  59  82
ATOM     82  C   UNL A   1      43.213  35.427  31.423  1.00  0.00     0.064 A 
ATOM     83  C   UNL A   1      43.274  35.701  32.798  1.00  0.00     0.173 A 
ATOM     84  C   UNL A   1      43.631  36.434  30.537  1.00  0.00     0.173 A 
ATOM     85  F   UNL A   1      42.872  34.780  33.687  1.00  0.00    -0.203 F 
ATOM     86  C   UNL A   1      43.723  36.934  33.264  1.00  0.00     0.198 A 
ATOM     87  C   UNL A   1      44.111  37.652  31.008  1.00  0.00     0.198 A 
ATOM     88  F   UNL A   1      43.600  36.223  29.212  1.00  0.00    -0.203 F 
ATOM     89  F   UNL A   1      43.736  37.184  34.581  1.00  0.00    -0.200 F 
ATOM     90  C   UNL A   1      44.153  37.903  32.371  1.00  0.00     0.200 A 
ATOM     91  F   UNL A   1      44.543  38.580  30.143  1.00  0.00    -0.200 F 
ATOM     92  F   UNL A   1      44.604  39.081  32.823  1.00  0.00    -0.200 F 
ENDBRANCH  59  82
ENDBRANCH  33  34
ENDBRANCH  26  28
ENDBRANCH  25  26
ENDBRANCH  24  25
ENDBRANCH   1  24
TORSDOF 15
ENDMDL
