MODEL 1
REMARK VINA RESULT:     -13.3      0.000      0.000
REMARK SMILES O=C(OCCOCCOC(=O)c1ccc(-c2c3nc(c(-c4c(F)c(F)c(F)c(F)c4F)c4ccc([nH]4)c(-c4c(F)c(F)c(F)c(F)c4F)c4nc(c(-c5c(F)c(F)c(F)c(F)c5F)c5ccc2[nH]5)C=C4)C=C3)cc1)C1=Cc2cc(Cl)c(Cl)cc2O[C@@H]1C(F)(F)F
REMARK SMILES IDX 7 1 6 2 5 3 4 4 3 5 2 6 1 7 75 8 76 9 86 10 77 11 85 12
REMARK SMILES IDX 78 13 84 14 79 15 83 16 80 17 81 18 82 19 87 20 88 21 89 22
REMARK SMILES IDX 90 23 8 24 9 25 10 26 11 27 12 28 13 29 74 30 14 31 73 32
REMARK SMILES IDX 15 33 16 34 17 35 67 36 18 37 72 38 66 39 68 40 19 41 71 42
REMARK SMILES IDX 65 43 64 44 20 46 52 47 32 48 51 49 33 50 36 51 50 52 69 53
REMARK SMILES IDX 34 54 35 55 49 57 70 58 37 59 21 60 22 61 30 62 23 63 24 64
REMARK SMILES IDX 28 65 31 66 25 67 26 68 29 69 27 70 53 71 54 72 62 73 55 74
REMARK SMILES IDX 56 75 60 76 63 77 57 78 58 79 61 80 59 81 38 82 39 83 47 84
REMARK SMILES IDX 40 85 41 86 45 87 48 88 42 89 43 90 46 91 44 92
REMARK H PARENT 68 45 36 56
REMARK Flexibility Score: inf
ROOT
ATOM      1  C   UNL A   1      42.656  21.032  26.150  1.00  0.00     0.202 C 
ENDROOT
BRANCH   1   2
ATOM      2  O   UNL A   1      41.342  21.056  25.549  1.00  0.00    -0.374 OA
BRANCH   2   3
ATOM      3  C   UNL A   1      39.960  21.222  26.369  1.00  0.00     0.202 C 
BRANCH   3   4
ATOM      4  C   UNL A   1      38.105  22.133  25.723  1.00  0.00     0.261 C 
BRANCH   4   5
ATOM      5  O   UNL A   1      36.707  21.452  25.696  1.00  0.00    -0.460 OA
BRANCH   5   6
ATOM      6  C   UNL A   1      35.848  22.040  24.862  1.00  0.00     0.338 C 
ATOM      7  O   UNL A   1      36.033  22.779  23.931  1.00  0.00    -0.246 OA
BRANCH   6   8
ATOM      8  C   UNL A   1      34.676  21.706  25.626  1.00  0.00     0.087 C 
ATOM      9  C   UNL A   1      34.201  22.925  26.351  1.00  0.00     0.027 C 
ATOM     10  C   UNL A   1      33.687  20.805  24.214  1.00  0.00     0.316 C 
ATOM     11  C   UNL A   1      32.697  23.849  25.885  1.00  0.00     0.019 A 
ATOM     12  O   UNL A   1      32.123  21.785  23.694  1.00  0.00    -0.475 OA
ATOM     13  C   UNL A   1      32.472  25.076  26.446  1.00  0.00     0.034 A 
ATOM     14  C   UNL A   1      31.691  23.324  24.578  1.00  0.00     0.129 A 
ATOM     15  C   UNL A   1      31.455  25.832  25.837  1.00  0.00     0.060 A 
ATOM     16  C   UNL A   1      30.766  24.151  24.003  1.00  0.00     0.069 A 
ATOM     17  Cl  UNL A   1      31.200  27.404  26.555  1.00  0.00    -0.083 Cl
ATOM     18  C   UNL A   1      30.679  25.411  24.663  1.00  0.00     0.063 A 
ATOM     19  Cl  UNL A   1      29.627  26.595  23.946  1.00  0.00    -0.083 Cl
BRANCH  10  20
ATOM     20  C   UNL A   1      33.796  19.283  24.610  1.00  0.00     0.430 C 
ATOM     21  F   UNL A   1      33.233  18.981  25.795  1.00  0.00    -0.167 F 
ATOM     22  F   UNL A   1      33.120  18.560  23.675  1.00  0.00    -0.167 F 
ATOM     23  F   UNL A   1      35.049  18.779  24.593  1.00  0.00    -0.167 F 
ENDBRANCH  10  20
ENDBRANCH   6   8
ENDBRANCH   5   6
ENDBRANCH   4   5
ENDBRANCH   3   4
ENDBRANCH   2   3
ENDBRANCH   1   2
BRANCH   1  24
ATOM     24  C   UNL A   1      43.677  21.966  25.500  1.00  0.00     0.261 C 
BRANCH  24  25
ATOM     25  O   UNL A   1      43.025  23.064  24.868  1.00  0.00    -0.460 OA
BRANCH  25  26
ATOM     26  C   UNL A   1      43.717  24.221  24.971  1.00  0.00     0.338 C 
ATOM     27  O   UNL A   1      44.736  24.532  24.377  1.00  0.00    -0.246 OA
BRANCH  26  28
ATOM     28  C   UNL A   1      43.045  25.108  25.937  1.00  0.00     0.060 A 
ATOM     29  C   UNL A   1      43.670  26.324  26.228  1.00  0.00     0.016 A 
ATOM     30  C   UNL A   1      41.841  24.756  26.562  1.00  0.00     0.016 A 
ATOM     31  C   UNL A   1      43.100  27.183  27.156  1.00  0.00     0.010 A 
ATOM     32  C   UNL A   1      41.270  25.619  27.494  1.00  0.00     0.010 A 
ATOM     33  C   UNL A   1      41.909  26.826  27.800  1.00  0.00    -0.014 A 
BRANCH  33  34
ATOM     34  C   UNL A   1      41.453  27.634  28.944  1.00  0.00     0.031 A 
ATOM     35  C   UNL A   1      42.246  27.542  30.208  1.00  0.00     0.074 A 
ATOM     36  C   UNL A   1      40.388  28.443  28.838  1.00  0.00     0.049 A 
ATOM     37  N   UNL A   1      42.088  28.181  31.335  1.00  0.00    -0.248 NA
ATOM     38  C   UNL A   1      43.371  26.590  30.202  1.00  0.00     0.031 C 
ATOM     39  C   UNL A   1      39.564  28.597  27.643  1.00  0.00     0.029 A 
ATOM     40  N   UNL A   1      39.824  29.298  29.747  1.00  0.00    -0.354 N 
ATOM     41  C   UNL A   1      43.101  27.724  32.163  1.00  0.00     0.074 A 
ATOM     42  C   UNL A   1      43.847  26.729  31.428  1.00  0.00     0.031 C 
ATOM     43  C   UNL A   1      38.619  29.522  27.878  1.00  0.00     0.029 A 
ATOM     44  C   UNL A   1      38.735  29.976  29.261  1.00  0.00     0.049 A 
ATOM     45  H   UNL A   1      40.168  29.414  30.663  1.00  0.00     0.167 HD
ATOM     46  C   UNL A   1      43.379  28.108  33.428  1.00  0.00     0.037 A 
ATOM     47  C   UNL A   1      37.916  30.845  29.881  1.00  0.00     0.037 A 
ATOM     48  C   UNL A   1      42.590  29.059  34.160  1.00  0.00     0.049 A 
ATOM     49  C   UNL A   1      38.195  31.184  31.325  1.00  0.00     0.074 A 
ATOM     50  C   UNL A   1      42.761  29.511  35.454  1.00  0.00     0.029 A 
ATOM     51  N   UNL A   1      41.458  29.689  33.658  1.00  0.00    -0.354 N 
ATOM     52  N   UNL A   1      39.177  30.782  32.096  1.00  0.00    -0.248 NA
ATOM     53  C   UNL A   1      37.247  32.090  31.985  1.00  0.00     0.031 C 
ATOM     54  C   UNL A   1      41.694  30.363  35.758  1.00  0.00     0.029 A 
ATOM     55  C   UNL A   1      40.898  30.499  34.630  1.00  0.00     0.049 A 
ATOM     56  H   UNL A   1      41.104  29.574  32.746  1.00  0.00     0.167 HD
ATOM     57  C   UNL A   1      38.984  31.405  33.321  1.00  0.00     0.074 A 
ATOM     58  C   UNL A   1      37.798  32.227  33.183  1.00  0.00     0.031 C 
ATOM     59  C   UNL A   1      39.716  31.309  34.459  1.00  0.00     0.037 A 
BRANCH  46  60
ATOM     60  C   UNL A   1      44.547  27.451  34.098  1.00  0.00     0.064 A 
ATOM     61  C   UNL A   1      45.836  28.006  34.048  1.00  0.00     0.173 A 
ATOM     62  C   UNL A   1      44.382  26.237  34.782  1.00  0.00     0.173 A 
ATOM     63  F   UNL A   1      46.053  29.150  33.382  1.00  0.00    -0.203 F 
ATOM     64  C   UNL A   1      46.919  27.355  34.632  1.00  0.00     0.198 A 
ATOM     65  C   UNL A   1      45.462  25.606  35.393  1.00  0.00     0.198 A 
ATOM     66  F   UNL A   1      43.174  25.659  34.851  1.00  0.00    -0.203 F 
ATOM     67  F   UNL A   1      48.151  27.872  34.517  1.00  0.00    -0.200 F 
ATOM     68  C   UNL A   1      46.731  26.159  35.309  1.00  0.00     0.200 A 
ATOM     69  F   UNL A   1      45.276  24.453  36.051  1.00  0.00    -0.200 F 
ATOM     70  F   UNL A   1      47.774  25.533  35.869  1.00  0.00    -0.200 F 
ENDBRANCH  46  60
BRANCH  47  71
ATOM     71  C   UNL A   1      36.753  31.432  29.163  1.00  0.00     0.064 A 
ATOM     72  C   UNL A   1      36.725  32.789  28.813  1.00  0.00     0.173 A 
ATOM     73  C   UNL A   1      35.632  30.654  28.834  1.00  0.00     0.173 A 
ATOM     74  F   UNL A   1      37.760  33.583  29.124  1.00  0.00    -0.203 F 
ATOM     75  C   UNL A   1      35.613  33.350  28.186  1.00  0.00     0.198 A 
ATOM     76  C   UNL A   1      34.534  31.208  28.179  1.00  0.00     0.198 A 
ATOM     77  F   UNL A   1      35.603  29.350  29.147  1.00  0.00    -0.203 F 
ATOM     78  F   UNL A   1      35.590  34.662  27.914  1.00  0.00    -0.200 F 
ATOM     79  C   UNL A   1      34.520  32.558  27.865  1.00  0.00     0.200 A 
ATOM     80  F   UNL A   1      33.487  30.435  27.859  1.00  0.00    -0.200 F 
ATOM     81  F   UNL A   1      33.451  33.097  27.264  1.00  0.00    -0.200 F 
ENDBRANCH  47  71
BRANCH  59  82
ATOM     82  C   UNL A   1      39.276  32.139  35.631  1.00  0.00     0.064 A 
ATOM     83  C   UNL A   1      38.429  31.626  36.623  1.00  0.00     0.173 A 
ATOM     84  C   UNL A   1      39.758  33.449  35.787  1.00  0.00     0.173 A 
ATOM     85  F   UNL A   1      37.933  30.385  36.513  1.00  0.00    -0.203 F 
ATOM     86  C   UNL A   1      38.058  32.404  37.716  1.00  0.00     0.198 A 
ATOM     87  C   UNL A   1      39.413  34.210  36.900  1.00  0.00     0.198 A 
ATOM     88  F   UNL A   1      40.579  33.982  34.870  1.00  0.00    -0.203 F 
ATOM     89  F   UNL A   1      37.205  31.912  38.626  1.00  0.00    -0.200 F 
ATOM     90  C   UNL A   1      38.557  33.690  37.858  1.00  0.00     0.200 A 
ATOM     91  F   UNL A   1      39.914  35.444  37.045  1.00  0.00    -0.200 F 
ATOM     92  F   UNL A   1      38.209  34.432  38.919  1.00  0.00    -0.200 F 
ENDBRANCH  59  82
ENDBRANCH  33  34
ENDBRANCH  26  28
ENDBRANCH  25  26
ENDBRANCH  24  25
ENDBRANCH   1  24
TORSDOF 15
ENDMDL
MODEL 2
REMARK VINA RESULT:     -12.8      0.870      1.854
REMARK SMILES O=C(OCCOCCOC(=O)c1ccc(-c2c3nc(c(-c4c(F)c(F)c(F)c(F)c4F)c4ccc([nH]4)c(-c4c(F)c(F)c(F)c(F)c4F)c4nc(c(-c5c(F)c(F)c(F)c(F)c5F)c5ccc2[nH]5)C=C4)C=C3)cc1)C1=Cc2cc(Cl)c(Cl)cc2O[C@@H]1C(F)(F)F
REMARK SMILES IDX 7 1 6 2 5 3 4 4 3 5 2 6 1 7 75 8 76 9 86 10 77 11 85 12
REMARK SMILES IDX 78 13 84 14 79 15 83 16 80 17 81 18 82 19 87 20 88 21 89 22
REMARK SMILES IDX 90 23 8 24 9 25 10 26 11 27 12 28 13 29 74 30 14 31 73 32
REMARK SMILES IDX 15 33 16 34 17 35 67 36 18 37 72 38 66 39 68 40 19 41 71 42
REMARK SMILES IDX 65 43 64 44 20 46 52 47 32 48 51 49 33 50 36 51 50 52 69 53
REMARK SMILES IDX 34 54 35 55 49 57 70 58 37 59 21 60 22 61 30 62 23 63 24 64
REMARK SMILES IDX 28 65 31 66 25 67 26 68 29 69 27 70 53 71 54 72 62 73 55 74
REMARK SMILES IDX 56 75 60 76 63 77 57 78 58 79 61 80 59 81 38 82 39 83 47 84
REMARK SMILES IDX 40 85 41 86 45 87 48 88 42 89 43 90 46 91 44 92
REMARK H PARENT 68 45 36 56
REMARK Flexibility Score: inf
ROOT
ATOM      1  C   UNL A   1      42.465  20.677  26.107  1.00  0.00     0.202 C 
ENDROOT
BRANCH   1   2
ATOM      2  O   UNL A   1      41.178  20.736  25.452  1.00  0.00    -0.374 OA
BRANCH   2   3
ATOM      3  C   UNL A   1      39.765  20.896  26.218  1.00  0.00     0.202 C 
BRANCH   3   4
ATOM      4  C   UNL A   1      38.067  22.126  25.678  1.00  0.00     0.261 C 
BRANCH   4   5
ATOM      5  O   UNL A   1      36.678  21.617  25.199  1.00  0.00    -0.460 OA
BRANCH   5   6
ATOM      6  C   UNL A   1      36.075  22.448  24.347  1.00  0.00     0.338 C 
ATOM      7  O   UNL A   1      36.491  23.018  23.373  1.00  0.00    -0.246 OA
BRANCH   6   8
ATOM      8  C   UNL A   1      34.891  22.617  25.147  1.00  0.00     0.087 C 
ATOM      9  C   UNL A   1      34.842  24.022  25.655  1.00  0.00     0.027 C 
ATOM     10  C   UNL A   1      33.614  21.849  23.896  1.00  0.00     0.316 C 
ATOM     11  C   UNL A   1      33.672  25.277  25.030  1.00  0.00     0.019 A 
ATOM     12  O   UNL A   1      32.402  23.166  23.208  1.00  0.00    -0.475 OA
ATOM     13  C   UNL A   1      33.855  26.587  25.378  1.00  0.00     0.034 A 
ATOM     14  C   UNL A   1      32.497  24.884  23.821  1.00  0.00     0.129 A 
ATOM     15  C   UNL A   1      33.091  27.511  24.644  1.00  0.00     0.060 A 
ATOM     16  C   UNL A   1      31.844  25.852  23.110  1.00  0.00     0.069 A 
ATOM     17  Cl  UNL A   1      33.359  29.179  25.089  1.00  0.00    -0.083 Cl
ATOM     18  C   UNL A   1      32.174  27.166  23.550  1.00  0.00     0.063 A 
ATOM     19  Cl  UNL A   1      31.502  28.485  22.638  1.00  0.00    -0.083 Cl
BRANCH  10  20
ATOM     20  C   UNL A   1      33.273  20.452  24.540  1.00  0.00     0.430 C 
ATOM     21  F   UNL A   1      32.474  19.677  23.782  1.00  0.00    -0.167 F 
ATOM     22  F   UNL A   1      34.439  19.764  24.686  1.00  0.00    -0.167 F 
ATOM     23  F   UNL A   1      32.752  20.512  25.784  1.00  0.00    -0.167 F 
ENDBRANCH  10  20
ENDBRANCH   6   8
ENDBRANCH   5   6
ENDBRANCH   4   5
ENDBRANCH   3   4
ENDBRANCH   2   3
ENDBRANCH   1   2
BRANCH   1  24
ATOM     24  C   UNL A   1      43.489  21.697  25.605  1.00  0.00     0.261 C 
BRANCH  24  25
ATOM     25  O   UNL A   1      42.836  22.820  25.020  1.00  0.00    -0.460 OA
BRANCH  25  26
ATOM     26  C   UNL A   1      43.564  23.956  25.101  1.00  0.00     0.338 C 
ATOM     27  O   UNL A   1      44.589  24.225  24.498  1.00  0.00    -0.246 OA
BRANCH  26  28
ATOM     28  C   UNL A   1      42.925  24.879  26.054  1.00  0.00     0.060 A 
ATOM     29  C   UNL A   1      43.503  26.144  26.202  1.00  0.00     0.016 A 
ATOM     30  C   UNL A   1      41.797  24.517  26.804  1.00  0.00     0.016 A 
ATOM     31  C   UNL A   1      42.963  27.043  27.111  1.00  0.00     0.010 A 
ATOM     32  C   UNL A   1      41.257  25.419  27.716  1.00  0.00     0.010 A 
ATOM     33  C   UNL A   1      41.850  26.677  27.879  1.00  0.00    -0.014 A 
BRANCH  33  34
ATOM     34  C   UNL A   1      41.445  27.546  28.996  1.00  0.00     0.031 A 
ATOM     35  C   UNL A   1      42.276  27.499  30.239  1.00  0.00     0.074 A 
ATOM     36  C   UNL A   1      40.391  28.369  28.885  1.00  0.00     0.049 A 
ATOM     37  N   UNL A   1      42.164  28.194  31.338  1.00  0.00    -0.248 NA
ATOM     38  C   UNL A   1      43.384  26.527  30.243  1.00  0.00     0.031 C 
ATOM     39  C   UNL A   1      39.532  28.481  27.710  1.00  0.00     0.029 A 
ATOM     40  N   UNL A   1      39.871  29.276  29.769  1.00  0.00    -0.354 N 
ATOM     41  C   UNL A   1      43.196  27.758  32.155  1.00  0.00     0.074 A 
ATOM     42  C   UNL A   1      43.901  26.715  31.445  1.00  0.00     0.031 C 
ATOM     43  C   UNL A   1      38.610  29.433  27.930  1.00  0.00     0.029 A 
ATOM     44  C   UNL A   1      38.778  29.950  29.285  1.00  0.00     0.049 A 
ATOM     45  H   UNL A   1      40.245  29.429  30.667  1.00  0.00     0.167 HD
ATOM     46  C   UNL A   1      43.521  28.196  33.391  1.00  0.00     0.037 A 
ATOM     47  C   UNL A   1      37.994  30.863  29.888  1.00  0.00     0.037 A 
ATOM     48  C   UNL A   1      42.771  29.195  34.100  1.00  0.00     0.049 A 
ATOM     49  C   UNL A   1      38.325  31.264  31.305  1.00  0.00     0.074 A 
ATOM     50  C   UNL A   1      42.991  29.704  35.365  1.00  0.00     0.029 A 
ATOM     51  N   UNL A   1      41.634  29.821  33.604  1.00  0.00    -0.354 N 
ATOM     52  N   UNL A   1      39.324  30.881  32.063  1.00  0.00    -0.248 NA
ATOM     53  C   UNL A   1      37.414  32.218  31.950  1.00  0.00     0.031 C 
ATOM     54  C   UNL A   1      41.949  30.590  35.662  1.00  0.00     0.029 A 
ATOM     55  C   UNL A   1      41.120  30.687  34.553  1.00  0.00     0.049 A 
ATOM     56  H   UNL A   1      41.250  29.670  32.710  1.00  0.00     0.167 HD
ATOM     57  C   UNL A   1      39.180  31.565  33.263  1.00  0.00     0.074 A 
ATOM     58  C   UNL A   1      38.005  32.401  33.122  1.00  0.00     0.031 C 
ATOM     59  C   UNL A   1      39.947  31.509  34.380  1.00  0.00     0.037 A 
BRANCH  46  60
ATOM     60  C   UNL A   1      44.698  27.550  34.055  1.00  0.00     0.064 A 
ATOM     61  C   UNL A   1      44.562  26.389  34.834  1.00  0.00     0.173 A 
ATOM     62  C   UNL A   1      45.978  28.110  33.931  1.00  0.00     0.173 A 
ATOM     63  F   UNL A   1      43.355  25.830  35.008  1.00  0.00    -0.203 F 
ATOM     64  C   UNL A   1      45.659  25.831  35.486  1.00  0.00     0.198 A 
ATOM     65  C   UNL A   1      47.077  27.531  34.558  1.00  0.00     0.198 A 
ATOM     66  F   UNL A   1      46.161  29.224  33.208  1.00  0.00    -0.203 F 
ATOM     67  F   UNL A   1      45.494  24.760  36.274  1.00  0.00    -0.200 F 
ATOM     68  C   UNL A   1      46.916  26.399  35.342  1.00  0.00     0.200 A 
ATOM     69  F   UNL A   1      48.293  28.078  34.414  1.00  0.00    -0.200 F 
ATOM     70  F   UNL A   1      47.970  25.863  35.971  1.00  0.00    -0.200 F 
ENDBRANCH  46  60
BRANCH  47  71
ATOM     71  C   UNL A   1      36.819  31.437  29.179  1.00  0.00     0.064 A 
ATOM     72  C   UNL A   1      36.795  32.781  28.782  1.00  0.00     0.173 A 
ATOM     73  C   UNL A   1      35.683  30.659  28.906  1.00  0.00     0.173 A 
ATOM     74  F   UNL A   1      37.846  33.574  29.039  1.00  0.00    -0.203 F 
ATOM     75  C   UNL A   1      35.673  33.331  28.164  1.00  0.00     0.198 A 
ATOM     76  C   UNL A   1      34.574  31.201  28.260  1.00  0.00     0.198 A 
ATOM     77  F   UNL A   1      35.649  29.368  29.265  1.00  0.00    -0.203 F 
ATOM     78  F   UNL A   1      35.656  34.632  27.847  1.00  0.00    -0.200 F 
ATOM     79  C   UNL A   1      34.565  32.540  27.898  1.00  0.00     0.200 A 
ATOM     80  F   UNL A   1      33.512  30.429  27.993  1.00  0.00    -0.200 F 
ATOM     81  F   UNL A   1      33.486  33.069  27.306  1.00  0.00    -0.200 F 
ENDBRANCH  47  71
BRANCH  59  82
ATOM     82  C   UNL A   1      39.559  32.402  35.524  1.00  0.00     0.064 A 
ATOM     83  C   UNL A   1      40.050  33.709  35.641  1.00  0.00     0.173 A 
ATOM     84  C   UNL A   1      38.637  31.956  36.485  1.00  0.00     0.173 A 
ATOM     85  F   UNL A   1      40.943  34.178  34.756  1.00  0.00    -0.203 F 
ATOM     86  C   UNL A   1      39.654  34.529  36.694  1.00  0.00     0.198 A 
ATOM     87  C   UNL A   1      38.216  32.791  37.515  1.00  0.00     0.198 A 
ATOM     88  F   UNL A   1      38.130  30.716  36.412  1.00  0.00    -0.203 F 
ATOM     89  F   UNL A   1      40.176  35.757  36.816  1.00  0.00    -0.200 F 
ATOM     90  C   UNL A   1      38.731  34.074  37.623  1.00  0.00     0.200 A 
ATOM     91  F   UNL A   1      37.308  32.355  38.398  1.00  0.00    -0.200 F 
ATOM     92  F   UNL A   1      38.340  34.869  38.628  1.00  0.00    -0.200 F 
ENDBRANCH  59  82
ENDBRANCH  33  34
ENDBRANCH  26  28
ENDBRANCH  25  26
ENDBRANCH  24  25
ENDBRANCH   1  24
TORSDOF 15
ENDMDL
MODEL 3
REMARK VINA RESULT:     -12.8      4.393      6.570
REMARK SMILES O=C(OCCOCCOC(=O)c1ccc(-c2c3nc(c(-c4c(F)c(F)c(F)c(F)c4F)c4ccc([nH]4)c(-c4c(F)c(F)c(F)c(F)c4F)c4nc(c(-c5c(F)c(F)c(F)c(F)c5F)c5ccc2[nH]5)C=C4)C=C3)cc1)C1=Cc2cc(Cl)c(Cl)cc2O[C@@H]1C(F)(F)F
REMARK SMILES IDX 7 1 6 2 5 3 4 4 3 5 2 6 1 7 75 8 76 9 86 10 77 11 85 12
REMARK SMILES IDX 78 13 84 14 79 15 83 16 80 17 81 18 82 19 87 20 88 21 89 22
REMARK SMILES IDX 90 23 8 24 9 25 10 26 11 27 12 28 13 29 74 30 14 31 73 32
REMARK SMILES IDX 15 33 16 34 17 35 67 36 18 37 72 38 66 39 68 40 19 41 71 42
REMARK SMILES IDX 65 43 64 44 20 46 52 47 32 48 51 49 33 50 36 51 50 52 69 53
REMARK SMILES IDX 34 54 35 55 49 57 70 58 37 59 21 60 22 61 30 62 23 63 24 64
REMARK SMILES IDX 28 65 31 66 25 67 26 68 29 69 27 70 53 71 54 72 62 73 55 74
REMARK SMILES IDX 56 75 60 76 63 77 57 78 58 79 61 80 59 81 38 82 39 83 47 84
REMARK SMILES IDX 40 85 41 86 45 87 48 88 42 89 43 90 46 91 44 92
REMARK H PARENT 68 45 36 56
REMARK Flexibility Score: inf
ROOT
ATOM      1  C   UNL A   1      36.159  20.938  25.394  1.00  0.00     0.202 C 
ENDROOT
BRANCH   1   2
ATOM      2  O   UNL A   1      35.151  19.985  24.988  1.00  0.00    -0.374 OA
BRANCH   2   3
ATOM      3  C   UNL A   1      33.644  20.371  24.554  1.00  0.00     0.202 C 
BRANCH   3   4
ATOM      4  C   UNL A   1      32.934  22.179  23.595  1.00  0.00     0.261 C 
BRANCH   4   5
ATOM      5  O   UNL A   1      33.514  23.609  23.786  1.00  0.00    -0.460 OA
BRANCH   5   6
ATOM      6  C   UNL A   1      32.580  24.534  24.009  1.00  0.00     0.338 C 
ATOM      7  O   UNL A   1      31.970  25.239  23.248  1.00  0.00    -0.246 OA
BRANCH   6   8
ATOM      8  C   UNL A   1      32.768  24.569  25.435  1.00  0.00     0.087 C 
ATOM      9  C   UNL A   1      33.825  25.573  25.763  1.00  0.00     0.027 C 
ATOM     10  C   UNL A   1      30.897  24.726  25.945  1.00  0.00     0.316 C 
ATOM     11  C   UNL A   1      33.472  27.187  26.541  1.00  0.00     0.019 A 
ATOM     12  O   UNL A   1      30.508  26.432  26.732  1.00  0.00    -0.475 OA
ATOM     13  C   UNL A   1      34.459  28.132  26.585  1.00  0.00     0.034 A 
ATOM     14  C   UNL A   1      31.861  27.630  26.993  1.00  0.00     0.129 A 
ATOM     15  C   UNL A   1      34.032  29.423  26.943  1.00  0.00     0.060 A 
ATOM     16  C   UNL A   1      31.520  28.926  27.265  1.00  0.00     0.069 A 
ATOM     17  Cl  UNL A   1      35.305  30.619  26.972  1.00  0.00    -0.083 Cl
ATOM     18  C   UNL A   1      32.642  29.804  27.225  1.00  0.00     0.063 A 
ATOM     19  Cl  UNL A   1      32.314  31.498  27.430  1.00  0.00    -0.083 Cl
BRANCH  10  20
ATOM     20  C   UNL A   1      30.553  23.294  26.504  1.00  0.00     0.430 C 
ATOM     21  F   UNL A   1      31.460  22.810  27.374  1.00  0.00    -0.167 F 
ATOM     22  F   UNL A   1      29.381  23.386  27.193  1.00  0.00    -0.167 F 
ATOM     23  F   UNL A   1      30.323  22.355  25.562  1.00  0.00    -0.167 F 
ENDBRANCH  10  20
ENDBRANCH   6   8
ENDBRANCH   5   6
ENDBRANCH   4   5
ENDBRANCH   3   4
ENDBRANCH   2   3
ENDBRANCH   1   2
BRANCH   1  24
ATOM     24  C   UNL A   1      37.591  20.558  25.016  1.00  0.00     0.261 C 
BRANCH  24  25
ATOM     25  O   UNL A   1      38.473  21.659  25.219  1.00  0.00    -0.460 OA
BRANCH  25  26
ATOM     26  C   UNL A   1      39.425  21.409  26.146  1.00  0.00     0.338 C 
ATOM     27  O   UNL A   1      39.878  20.325  26.472  1.00  0.00    -0.246 OA
BRANCH  26  28
ATOM     28  C   UNL A   1      39.876  22.681  26.738  1.00  0.00     0.060 A 
ATOM     29  C   UNL A   1      39.280  23.853  26.262  1.00  0.00     0.016 A 
ATOM     30  C   UNL A   1      40.872  22.735  27.724  1.00  0.00     0.016 A 
ATOM     31  C   UNL A   1      39.690  25.082  26.759  1.00  0.00     0.010 A 
ATOM     32  C   UNL A   1      41.283  23.968  28.221  1.00  0.00     0.010 A 
ATOM     33  C   UNL A   1      40.700  25.142  27.727  1.00  0.00    -0.014 A 
BRANCH  33  34
ATOM     34  C   UNL A   1      41.282  26.453  28.062  1.00  0.00     0.031 A 
ATOM     35  C   UNL A   1      42.693  26.706  27.638  1.00  0.00     0.074 A 
ATOM     36  C   UNL A   1      40.557  27.389  28.693  1.00  0.00     0.049 A 
ATOM     37  N   UNL A   1      43.417  27.785  27.765  1.00  0.00    -0.248 NA
ATOM     38  C   UNL A   1      43.387  25.582  26.984  1.00  0.00     0.031 C 
ATOM     39  C   UNL A   1      39.176  27.227  29.137  1.00  0.00     0.029 A 
ATOM     40  N   UNL A   1      40.880  28.668  29.061  1.00  0.00    -0.354 N 
ATOM     41  C   UNL A   1      44.641  27.477  27.193  1.00  0.00     0.074 A 
ATOM     42  C   UNL A   1      44.580  26.103  26.750  1.00  0.00     0.031 C 
ATOM     43  C   UNL A   1      38.754  28.378  29.685  1.00  0.00     0.029 A 
ATOM     44  C   UNL A   1      39.857  29.334  29.687  1.00  0.00     0.049 A 
ATOM     45  H   UNL A   1      41.763  29.071  28.892  1.00  0.00     0.167 HD
ATOM     46  C   UNL A   1      45.719  28.279  27.052  1.00  0.00     0.037 A 
ATOM     47  C   UNL A   1      39.835  30.570  30.220  1.00  0.00     0.037 A 
ATOM     48  C   UNL A   1      45.777  29.625  27.549  1.00  0.00     0.049 A 
ATOM     49  C   UNL A   1      41.085  31.409  30.132  1.00  0.00     0.074 A 
ATOM     50  C   UNL A   1      46.822  30.526  27.485  1.00  0.00     0.029 A 
ATOM     51  N   UNL A   1      44.742  30.254  28.230  1.00  0.00    -0.354 N 
ATOM     52  N   UNL A   1      42.230  31.132  29.555  1.00  0.00    -0.248 NA
ATOM     53  C   UNL A   1      41.042  32.728  30.775  1.00  0.00     0.031 C 
ATOM     54  C   UNL A   1      46.443  31.677  28.184  1.00  0.00     0.029 A 
ATOM     55  C   UNL A   1      45.136  31.521  28.623  1.00  0.00     0.049 A 
ATOM     56  H   UNL A   1      43.858  29.856  28.407  1.00  0.00     0.167 HD
ATOM     57  C   UNL A   1      43.034  32.249  29.740  1.00  0.00     0.074 A 
ATOM     58  C   UNL A   1      42.236  33.215  30.469  1.00  0.00     0.031 C 
ATOM     59  C   UNL A   1      44.315  32.461  29.346  1.00  0.00     0.037 A 
BRANCH  46  60
ATOM     60  C   UNL A   1      46.924  27.689  26.384  1.00  0.00     0.064 A 
ATOM     61  C   UNL A   1      47.092  27.733  24.990  1.00  0.00     0.173 A 
ATOM     62  C   UNL A   1      47.914  27.049  27.144  1.00  0.00     0.173 A 
ATOM     63  F   UNL A   1      46.159  28.307  24.215  1.00  0.00    -0.203 F 
ATOM     64  C   UNL A   1      48.192  27.134  24.382  1.00  0.00     0.198 A 
ATOM     65  C   UNL A   1      49.029  26.481  26.535  1.00  0.00     0.198 A 
ATOM     66  F   UNL A   1      47.797  26.970  28.477  1.00  0.00    -0.203 F 
ATOM     67  F   UNL A   1      48.300  27.135  23.046  1.00  0.00    -0.200 F 
ATOM     68  C   UNL A   1      49.162  26.514  25.155  1.00  0.00     0.200 A 
ATOM     69  F   UNL A   1      49.968  25.886  27.284  1.00  0.00    -0.200 F 
ATOM     70  F   UNL A   1      50.220  25.937  24.569  1.00  0.00    -0.200 F 
ENDBRANCH  46  60
BRANCH  47  71
ATOM     71  C   UNL A   1      38.613  31.077  30.900  1.00  0.00     0.064 A 
ATOM     72  C   UNL A   1      38.459  30.975  32.290  1.00  0.00     0.173 A 
ATOM     73  C   UNL A   1      37.560  31.652  30.172  1.00  0.00     0.173 A 
ATOM     74  F   UNL A   1      39.425  30.413  33.032  1.00  0.00    -0.203 F 
ATOM     75  C   UNL A   1      37.292  31.403  32.921  1.00  0.00     0.198 A 
ATOM     76  C   UNL A   1      36.407  32.109  30.807  1.00  0.00     0.198 A 
ATOM     77  F   UNL A   1      37.650  31.773  28.840  1.00  0.00    -0.203 F 
ATOM     78  F   UNL A   1      37.148  31.241  34.243  1.00  0.00    -0.200 F 
ATOM     79  C   UNL A   1      36.268  31.975  32.179  1.00  0.00     0.200 A 
ATOM     80  F   UNL A   1      35.427  32.673  30.087  1.00  0.00    -0.200 F 
ATOM     81  F   UNL A   1      35.146  32.385  32.785  1.00  0.00    -0.200 F 
ENDBRANCH  47  71
BRANCH  59  82
ATOM     82  C   UNL A   1      44.918  33.798  29.664  1.00  0.00     0.064 A 
ATOM     83  C   UNL A   1      45.649  34.019  30.839  1.00  0.00     0.173 A 
ATOM     84  C   UNL A   1      44.809  34.857  28.748  1.00  0.00     0.173 A 
ATOM     85  F   UNL A   1      45.772  33.043  31.752  1.00  0.00    -0.203 F 
ATOM     86  C   UNL A   1      46.225  35.259  31.100  1.00  0.00     0.198 A 
ATOM     87  C   UNL A   1      45.417  36.084  28.996  1.00  0.00     0.198 A 
ATOM     88  F   UNL A   1      44.129  34.694  27.603  1.00  0.00    -0.203 F 
ATOM     89  F   UNL A   1      46.874  35.464  32.254  1.00  0.00    -0.200 F 
ATOM     90  C   UNL A   1      46.117  36.286  30.175  1.00  0.00     0.200 A 
ATOM     91  F   UNL A   1      45.329  37.067  28.090  1.00  0.00    -0.200 F 
ATOM     92  F   UNL A   1      46.684  37.475  30.421  1.00  0.00    -0.200 F 
ENDBRANCH  59  82
ENDBRANCH  33  34
ENDBRANCH  26  28
ENDBRANCH  25  26
ENDBRANCH  24  25
ENDBRANCH   1  24
TORSDOF 15
ENDMDL
