MODEL 1
REMARK VINA RESULT:     -11.7      0.000      0.000
REMARK SMILES CC1(C)[C@H](C(=O)Nc2ccccc2C(N)=O)[C@@H]1C(=O)OCCOCCOC(=O)c1ccc(-c2c3nc(c(-c4c(F)c(F)c(F)c(F)c4F)c4ccc([nH]4)c(-c4c(F)c(F)c(F)c(F)c4F)c4nc(c(-c5c(F)c(F)c(F)c(F)c5F)c5ccc2[nH]5)C=C4)C=C3)cc1
REMARK SMILES IDX 22 1 21 2 20 3 18 4 19 5 17 6 1 7 2 8 3 9 4 10 5 11 6 12
REMARK SMILES IDX 7 13 8 15 9 16 13 17 10 18 12 19 11 20 14 21 15 22 16 23
REMARK SMILES IDX 23 26 24 27 25 28 26 29 27 30 28 31 29 32 30 33 91 34 31 35
REMARK SMILES IDX 90 36 32 37 33 38 34 39 84 40 35 41 89 42 83 43 85 44 36 45
REMARK SMILES IDX 88 46 82 47 81 48 37 50 69 51 49 52 68 53 50 54 53 55 67 56
REMARK SMILES IDX 86 57 51 58 52 59 66 61 87 62 54 63 38 64 39 65 47 66 40 67
REMARK SMILES IDX 41 68 45 69 48 70 42 71 43 72 46 73 44 74 70 75 71 76 79 77
REMARK SMILES IDX 72 78 73 79 77 80 80 81 74 82 75 83 78 84 76 85 55 86 56 87
REMARK SMILES IDX 64 88 57 89 58 90 62 91 65 92 59 93 60 94 63 95 61 96
REMARK H PARENT 7 14 15 24 15 25 85 49 53 60
REMARK Flexibility Score: inf
ROOT
ATOM      1  C   UNL A   1      34.664  22.857  24.415  1.00  0.00     0.202 C 
ENDROOT
BRANCH   1   2
ATOM      2  C   UNL A   1      33.821  23.505  25.524  1.00  0.00     0.261 C 
BRANCH   2   3
ATOM      3  O   UNL A   1      32.784  24.390  25.083  1.00  0.00    -0.463 OA
BRANCH   3   4
ATOM      4  C   UNL A   1      32.605  25.441  25.926  1.00  0.00     0.310 C 
ATOM      5  O   UNL A   1      31.747  25.477  26.805  1.00  0.00    -0.252 OA
BRANCH   4   6
ATOM      6  C   UNL A   1      33.659  26.495  25.790  1.00  0.00     0.118 C 
ATOM      7  C   UNL A   1      34.371  28.848  26.670  1.00  0.00     0.013 C 
ATOM      8  C   UNL A   1      33.306  27.947  26.044  1.00  0.00    -0.009 C 
ATOM      9  C   UNL A   1      31.977  28.257  26.673  1.00  0.00     0.013 C 
ATOM     10  C   UNL A   1      33.671  27.506  24.632  1.00  0.00     0.100 C 
BRANCH  10  11
ATOM     11  C   UNL A   1      33.273  26.912  23.327  1.00  0.00     0.228 C 
ATOM     12  O   UNL A   1      34.113  26.167  22.807  1.00  0.00    -0.274 OA
ATOM     13  N   UNL A   1      32.061  26.923  22.708  1.00  0.00    -0.325 N 
ATOM     14  H   UNL A   1      32.005  26.298  21.949  1.00  0.00     0.169 HD
BRANCH  13  15
ATOM     15  C   UNL A   1      30.885  27.632  22.923  1.00  0.00     0.053 A 
ATOM     16  C   UNL A   1      30.982  29.002  22.626  1.00  0.00     0.027 A 
ATOM     17  C   UNL A   1      29.672  27.097  23.369  1.00  0.00     0.063 A 
ATOM     18  C   UNL A   1      29.841  29.792  22.560  1.00  0.00     0.002 A 
ATOM     19  C   UNL A   1      28.525  27.910  23.308  1.00  0.00     0.016 A 
ATOM     20  C   UNL A   1      28.606  29.231  22.857  1.00  0.00     0.001 A 
BRANCH  17  21
ATOM     21  C   UNL A   1      29.611  25.737  23.991  1.00  0.00     0.250 C 
ATOM     22  N   UNL A   1      29.142  25.631  25.271  1.00  0.00    -0.366 N 
ATOM     23  O   UNL A   1      29.966  24.726  23.400  1.00  0.00    -0.269 OA
ATOM     24  H   UNL A   1      28.853  26.437  25.758  1.00  0.00     0.159 HD
ATOM     25  H   UNL A   1      29.094  24.750  25.706  1.00  0.00     0.159 HD
ENDBRANCH  17  21
ENDBRANCH  13  15
ENDBRANCH  10  11
ENDBRANCH   4   6
ENDBRANCH   3   4
ENDBRANCH   2   3
ENDBRANCH   1   2
BRANCH   1  26
ATOM     26  O   UNL A   1      34.854  21.452  24.388  1.00  0.00    -0.374 OA
BRANCH  26  27
ATOM     27  C   UNL A   1      35.710  20.830  25.340  1.00  0.00     0.202 C 
BRANCH  27  28
ATOM     28  C   UNL A   1      37.178  20.543  24.998  1.00  0.00     0.261 C 
BRANCH  28  29
ATOM     29  O   UNL A   1      38.067  21.647  25.234  1.00  0.00    -0.460 OA
BRANCH  29  30
ATOM     30  C   UNL A   1      39.110  21.365  26.051  1.00  0.00     0.338 C 
ATOM     31  O   UNL A   1      39.683  20.296  26.188  1.00  0.00    -0.246 OA
BRANCH  30  32
ATOM     32  C   UNL A   1      39.613  22.598  26.673  1.00  0.00     0.060 A 
ATOM     33  C   UNL A   1      39.117  23.825  26.214  1.00  0.00     0.016 A 
ATOM     34  C   UNL A   1      40.661  22.549  27.593  1.00  0.00     0.016 A 
ATOM     35  C   UNL A   1      39.685  25.015  26.657  1.00  0.00     0.010 A 
ATOM     36  C   UNL A   1      41.242  23.743  28.021  1.00  0.00     0.010 A 
ATOM     37  C   UNL A   1      40.776  24.977  27.532  1.00  0.00    -0.014 A 
BRANCH  37  38
ATOM     38  C   UNL A   1      41.523  26.220  27.828  1.00  0.00     0.031 A 
ATOM     39  C   UNL A   1      40.835  27.320  28.584  1.00  0.00     0.074 A 
ATOM     40  C   UNL A   1      42.800  26.356  27.433  1.00  0.00     0.049 A 
ATOM     41  N   UNL A   1      41.262  28.522  28.873  1.00  0.00    -0.248 NA
ATOM     42  C   UNL A   1      39.482  27.023  29.080  1.00  0.00     0.031 C 
ATOM     43  C   UNL A   1      43.581  25.332  26.742  1.00  0.00     0.029 A 
ATOM     44  N   UNL A   1      43.657  27.419  27.546  1.00  0.00    -0.354 N 
ATOM     45  C   UNL A   1      40.226  29.129  29.572  1.00  0.00     0.074 A 
ATOM     46  C   UNL A   1      39.143  28.172  29.644  1.00  0.00     0.031 C 
ATOM     47  C   UNL A   1      44.800  25.826  26.472  1.00  0.00     0.029 A 
ATOM     48  C   UNL A   1      44.867  27.212  26.932  1.00  0.00     0.049 A 
ATOM     49  H   UNL A   1      43.428  28.251  28.021  1.00  0.00     0.167 HD
ATOM     50  C   UNL A   1      40.190  30.373  30.107  1.00  0.00     0.037 A 
ATOM     51  C   UNL A   1      45.893  28.061  26.733  1.00  0.00     0.037 A 
ATOM     52  C   UNL A   1      41.273  31.318  30.023  1.00  0.00     0.049 A 
ATOM     53  C   UNL A   1      45.789  29.471  27.254  1.00  0.00     0.074 A 
ATOM     54  C   UNL A   1      41.348  32.595  30.551  1.00  0.00     0.029 A 
ATOM     55  N   UNL A   1      42.469  31.090  29.356  1.00  0.00    -0.354 N 
ATOM     56  N   UNL A   1      44.820  30.036  27.934  1.00  0.00    -0.248 NA
ATOM     57  C   UNL A   1      46.921  30.365  26.972  1.00  0.00     0.031 C 
ATOM     58  C   UNL A   1      42.563  33.162  30.149  1.00  0.00     0.029 A 
ATOM     59  C   UNL A   1      43.272  32.216  29.425  1.00  0.00     0.049 A 
ATOM     60  H   UNL A   1      42.710  30.250  28.902  1.00  0.00     0.167 HD
ATOM     61  C   UNL A   1      45.233  31.339  28.180  1.00  0.00     0.074 A 
ATOM     62  C   UNL A   1      46.551  31.475  27.594  1.00  0.00     0.031 C 
ATOM     63  C   UNL A   1      44.581  32.334  28.830  1.00  0.00     0.037 A 
BRANCH  50  64
ATOM     64  C   UNL A   1      38.924  30.796  30.796  1.00  0.00     0.064 A 
ATOM     65  C   UNL A   1      37.839  31.334  30.087  1.00  0.00     0.173 A 
ATOM     66  C   UNL A   1      38.784  30.632  32.183  1.00  0.00     0.173 A 
ATOM     67  F   UNL A   1      37.924  31.522  28.762  1.00  0.00    -0.203 F 
ATOM     68  C   UNL A   1      36.673  31.719  30.746  1.00  0.00     0.198 A 
ATOM     69  C   UNL A   1      37.606  30.989  32.833  1.00  0.00     0.198 A 
ATOM     70  F   UNL A   1      39.789  30.120  32.908  1.00  0.00    -0.203 F 
ATOM     71  F   UNL A   1      35.669  32.277  30.056  1.00  0.00    -0.200 F 
ATOM     72  C   UNL A   1      36.555  31.540  32.116  1.00  0.00     0.200 A 
ATOM     73  F   UNL A   1      37.490  30.803  34.155  1.00  0.00    -0.200 F 
ATOM     74  F   UNL A   1      35.431  31.906  32.747  1.00  0.00    -0.200 F 
ENDBRANCH  50  64
BRANCH  51  75
ATOM     75  C   UNL A   1      47.094  27.610  25.983  1.00  0.00     0.064 A 
ATOM     76  C   UNL A   1      47.144  27.690  24.585  1.00  0.00     0.173 A 
ATOM     77  C   UNL A   1      48.212  27.082  26.648  1.00  0.00     0.173 A 
ATOM     78  F   UNL A   1      46.092  28.164  23.903  1.00  0.00    -0.203 F 
ATOM     79  C   UNL A   1      48.260  27.242  23.879  1.00  0.00     0.198 A 
ATOM     80  C   UNL A   1      49.338  26.664  25.942  1.00  0.00     0.198 A 
ATOM     81  F   UNL A   1      48.213  26.982  27.985  1.00  0.00    -0.203 F 
ATOM     82  F   UNL A   1      48.263  27.287  22.539  1.00  0.00    -0.200 F 
ATOM     83  C   UNL A   1      49.358  26.736  24.558  1.00  0.00     0.200 A 
ATOM     84  F   UNL A   1      50.401  26.188  26.604  1.00  0.00    -0.200 F 
ATOM     85  F   UNL A   1      50.432  26.312  23.879  1.00  0.00    -0.200 F 
ENDBRANCH  51  75
BRANCH  63  86
ATOM     86  C   UNL A   1      45.290  33.653  28.961  1.00  0.00     0.064 A 
ATOM     87  C   UNL A   1      45.116  34.677  28.018  1.00  0.00     0.173 A 
ATOM     88  C   UNL A   1      46.119  33.909  30.063  1.00  0.00     0.173 A 
ATOM     89  F   UNL A   1      44.345  34.478  26.938  1.00  0.00    -0.203 F 
ATOM     90  C   UNL A   1      45.767  35.900  28.161  1.00  0.00     0.198 A 
ATOM     91  C   UNL A   1      46.742  35.145  30.220  1.00  0.00     0.198 A 
ATOM     92  F   UNL A   1      46.315  32.966  30.997  1.00  0.00    -0.203 F 
ATOM     93  F   UNL A   1      45.626  36.846  27.223  1.00  0.00    -0.200 F 
ATOM     94  C   UNL A   1      46.572  36.136  29.267  1.00  0.00     0.200 A 
ATOM     95  F   UNL A   1      47.506  35.376  31.297  1.00  0.00    -0.200 F 
ATOM     96  F   UNL A   1      47.190  37.316  29.407  1.00  0.00    -0.200 F 
ENDBRANCH  63  86
ENDBRANCH  37  38
ENDBRANCH  30  32
ENDBRANCH  29  30
ENDBRANCH  28  29
ENDBRANCH  27  28
ENDBRANCH  26  27
ENDBRANCH   1  26
TORSDOF 17
ENDMDL
MODEL 2
REMARK VINA RESULT:     -11.5      4.667     10.206
REMARK SMILES CC1(C)[C@H](C(=O)Nc2ccccc2C(N)=O)[C@@H]1C(=O)OCCOCCOC(=O)c1ccc(-c2c3nc(c(-c4c(F)c(F)c(F)c(F)c4F)c4ccc([nH]4)c(-c4c(F)c(F)c(F)c(F)c4F)c4nc(c(-c5c(F)c(F)c(F)c(F)c5F)c5ccc2[nH]5)C=C4)C=C3)cc1
REMARK SMILES IDX 22 1 21 2 20 3 18 4 19 5 17 6 1 7 2 8 3 9 4 10 5 11 6 12
REMARK SMILES IDX 7 13 8 15 9 16 13 17 10 18 12 19 11 20 14 21 15 22 16 23
REMARK SMILES IDX 23 26 24 27 25 28 26 29 27 30 28 31 29 32 30 33 91 34 31 35
REMARK SMILES IDX 90 36 32 37 33 38 34 39 84 40 35 41 89 42 83 43 85 44 36 45
REMARK SMILES IDX 88 46 82 47 81 48 37 50 69 51 49 52 68 53 50 54 53 55 67 56
REMARK SMILES IDX 86 57 51 58 52 59 66 61 87 62 54 63 38 64 39 65 47 66 40 67
REMARK SMILES IDX 41 68 45 69 48 70 42 71 43 72 46 73 44 74 70 75 71 76 79 77
REMARK SMILES IDX 72 78 73 79 77 80 80 81 74 82 75 83 78 84 76 85 55 86 56 87
REMARK SMILES IDX 64 88 57 89 58 90 62 91 65 92 59 93 60 94 63 95 61 96
REMARK H PARENT 7 14 15 24 15 25 85 49 53 60
REMARK Flexibility Score: inf
ROOT
ATOM      1  C   UNL A   1      33.244  29.206  26.622  1.00  0.00     0.202 C 
ENDROOT
BRANCH   1   2
ATOM      2  C   UNL A   1      33.275  28.070  25.588  1.00  0.00     0.261 C 
BRANCH   2   3
ATOM      3  O   UNL A   1      33.422  26.748  26.119  1.00  0.00    -0.463 OA
BRANCH   3   4
ATOM      4  C   UNL A   1      32.230  26.108  26.256  1.00  0.00     0.310 C 
ATOM      5  O   UNL A   1      31.395  26.391  27.111  1.00  0.00    -0.252 OA
BRANCH   4   6
ATOM      6  C   UNL A   1      31.959  25.122  25.163  1.00  0.00     0.118 C 
ATOM      7  C   UNL A   1      30.377  24.645  23.141  1.00  0.00     0.013 C 
ATOM      8  C   UNL A   1      30.550  24.966  24.626  1.00  0.00    -0.009 C 
ATOM      9  C   UNL A   1      29.519  25.983  25.027  1.00  0.00     0.013 C 
ATOM     10  C   UNL A   1      31.182  23.818  25.402  1.00  0.00     0.100 C 
BRANCH  10  11
ATOM     11  C   UNL A   1      31.508  23.167  26.700  1.00  0.00     0.228 C 
ATOM     12  O   UNL A   1      30.641  23.271  27.576  1.00  0.00    -0.274 OA
ATOM     13  N   UNL A   1      32.535  22.328  27.011  1.00  0.00    -0.325 N 
ATOM     14  H   UNL A   1      32.423  21.882  27.881  1.00  0.00     0.169 HD
BRANCH  13  15
ATOM     15  C   UNL A   1      33.707  21.970  26.356  1.00  0.00     0.053 A 
ATOM     16  C   UNL A   1      34.669  22.993  26.308  1.00  0.00     0.027 A 
ATOM     17  C   UNL A   1      33.986  20.720  25.793  1.00  0.00     0.063 A 
ATOM     18  C   UNL A   1      35.971  22.719  25.905  1.00  0.00     0.002 A 
ATOM     19  C   UNL A   1      35.304  20.458  25.378  1.00  0.00     0.016 A 
ATOM     20  C   UNL A   1      36.298  21.437  25.483  1.00  0.00     0.001 A 
BRANCH  17  21
ATOM     21  C   UNL A   1      32.895  19.727  25.542  1.00  0.00     0.250 C 
ATOM     22  N   UNL A   1      32.886  18.576  26.280  1.00  0.00    -0.366 N 
ATOM     23  O   UNL A   1      32.021  19.906  24.704  1.00  0.00    -0.269 OA
ATOM     24  H   UNL A   1      33.584  18.419  26.956  1.00  0.00     0.159 HD
ATOM     25  H   UNL A   1      32.182  17.903  26.133  1.00  0.00     0.159 HD
ENDBRANCH  17  21
ENDBRANCH  13  15
ENDBRANCH  10  11
ENDBRANCH   4   6
ENDBRANCH   3   4
ENDBRANCH   2   3
ENDBRANCH   1   2
BRANCH   1  26
ATOM     26  O   UNL A   1      32.985  30.540  26.213  1.00  0.00    -0.374 OA
BRANCH  26  27
ATOM     27  C   UNL A   1      31.775  31.181  26.598  1.00  0.00     0.202 C 
BRANCH  27  28
ATOM     28  C   UNL A   1      31.787  32.630  27.103  1.00  0.00     0.261 C 
BRANCH  28  29
ATOM     29  O   UNL A   1      33.101  33.182  27.284  1.00  0.00    -0.460 OA
BRANCH  29  30
ATOM     30  C   UNL A   1      33.184  34.130  28.249  1.00  0.00     0.338 C 
ATOM     31  O   UNL A   1      32.397  35.034  28.477  1.00  0.00    -0.246 OA
BRANCH  30  32
ATOM     32  C   UNL A   1      34.308  33.838  29.150  1.00  0.00     0.060 A 
ATOM     33  C   UNL A   1      35.583  34.299  28.795  1.00  0.00     0.016 A 
ATOM     34  C   UNL A   1      34.132  33.001  30.252  1.00  0.00     0.016 A 
ATOM     35  C   UNL A   1      36.696  33.905  29.531  1.00  0.00     0.010 A 
ATOM     36  C   UNL A   1      35.252  32.591  30.977  1.00  0.00     0.010 A 
ATOM     37  C   UNL A   1      36.538  33.018  30.601  1.00  0.00    -0.014 A 
BRANCH  37  38
ATOM     38  C   UNL A   1      37.732  32.421  31.241  1.00  0.00     0.031 A 
ATOM     39  C   UNL A   1      38.471  31.328  30.524  1.00  0.00     0.074 A 
ATOM     40  C   UNL A   1      38.151  32.859  32.439  1.00  0.00     0.049 A 
ATOM     41  N   UNL A   1      39.481  30.603  30.931  1.00  0.00    -0.248 NA
ATOM     42  C   UNL A   1      38.008  31.009  29.164  1.00  0.00     0.031 C 
ATOM     43  C   UNL A   1      37.542  33.949  33.198  1.00  0.00     0.029 A 
ATOM     44  N   UNL A   1      39.180  32.425  33.234  1.00  0.00    -0.354 N 
ATOM     45  C   UNL A   1      39.765  29.734  29.885  1.00  0.00     0.074 A 
ATOM     46  C   UNL A   1      38.808  30.007  28.834  1.00  0.00     0.031 C 
ATOM     47  C   UNL A   1      38.198  34.087  34.362  1.00  0.00     0.029 A 
ATOM     48  C   UNL A   1      39.241  33.067  34.446  1.00  0.00     0.049 A 
ATOM     49  H   UNL A   1      39.815  31.723  32.962  1.00  0.00     0.167 HD
ATOM     50  C   UNL A   1      40.741  28.798  29.812  1.00  0.00     0.037 A 
ATOM     51  C   UNL A   1      40.025  32.827  35.514  1.00  0.00     0.037 A 
ATOM     52  C   UNL A   1      41.684  28.532  30.867  1.00  0.00     0.049 A 
ATOM     53  C   UNL A   1      41.039  31.714  35.443  1.00  0.00     0.074 A 
ATOM     54  C   UNL A   1      42.725  27.622  30.886  1.00  0.00     0.029 A 
ATOM     55  N   UNL A   1      41.689  29.172  32.099  1.00  0.00    -0.354 N 
ATOM     56  N   UNL A   1      41.322  30.911  34.446  1.00  0.00    -0.248 NA
ATOM     57  C   UNL A   1      41.839  31.472  36.652  1.00  0.00     0.031 C 
ATOM     58  C   UNL A   1      43.320  27.667  32.152  1.00  0.00     0.029 A 
ATOM     59  C   UNL A   1      42.690  28.649  32.901  1.00  0.00     0.049 A 
ATOM     60  H   UNL A   1      41.070  29.891  32.364  1.00  0.00     0.167 HD
ATOM     61  C   UNL A   1      42.344  30.084  34.897  1.00  0.00     0.074 A 
ATOM     62  C   UNL A   1      42.646  30.498  36.252  1.00  0.00     0.031 C 
ATOM     63  C   UNL A   1      42.974  29.073  34.250  1.00  0.00     0.037 A 
BRANCH  50  64
ATOM     64  C   UNL A   1      40.812  27.965  28.564  1.00  0.00     0.064 A 
ATOM     65  C   UNL A   1      41.579  28.355  27.455  1.00  0.00     0.173 A 
ATOM     66  C   UNL A   1      40.123  26.745  28.487  1.00  0.00     0.173 A 
ATOM     67  F   UNL A   1      42.248  29.518  27.472  1.00  0.00    -0.203 F 
ATOM     68  C   UNL A   1      41.631  27.568  26.308  1.00  0.00     0.198 A 
ATOM     69  C   UNL A   1      40.203  25.946  27.350  1.00  0.00     0.198 A 
ATOM     70  F   UNL A   1      39.378  26.323  29.519  1.00  0.00    -0.203 F 
ATOM     71  F   UNL A   1      42.330  27.984  25.242  1.00  0.00    -0.200 F 
ATOM     72  C   UNL A   1      40.949  26.361  26.258  1.00  0.00     0.200 A 
ATOM     73  F   UNL A   1      39.553  24.774  27.310  1.00  0.00    -0.200 F 
ATOM     74  F   UNL A   1      41.004  25.602  25.155  1.00  0.00    -0.200 F 
ENDBRANCH  50  64
BRANCH  51  75
ATOM     75  C   UNL A   1      39.865  33.636  36.750  1.00  0.00     0.064 A 
ATOM     76  C   UNL A   1      38.936  33.273  37.735  1.00  0.00     0.173 A 
ATOM     77  C   UNL A   1      40.628  34.794  36.966  1.00  0.00     0.173 A 
ATOM     78  F   UNL A   1      38.167  32.189  37.563  1.00  0.00    -0.203 F 
ATOM     79  C   UNL A   1      38.765  34.047  38.881  1.00  0.00     0.198 A 
ATOM     80  C   UNL A   1      40.477  35.548  38.127  1.00  0.00     0.198 A 
ATOM     81  F   UNL A   1      41.527  35.186  36.053  1.00  0.00    -0.203 F 
ATOM     82  F   UNL A   1      37.839  33.702  39.786  1.00  0.00    -0.200 F 
ATOM     83  C   UNL A   1      39.541  35.179  39.080  1.00  0.00     0.200 A 
ATOM     84  F   UNL A   1      41.238  36.634  38.321  1.00  0.00    -0.200 F 
ATOM     85  F   UNL A   1      39.380  35.919  40.186  1.00  0.00    -0.200 F 
ENDBRANCH  51  75
BRANCH  63  86
ATOM     86  C   UNL A   1      44.067  28.356  34.990  1.00  0.00     0.064 A 
ATOM     87  C   UNL A   1      45.390  28.824  34.981  1.00  0.00     0.173 A 
ATOM     88  C   UNL A   1      43.781  27.212  35.751  1.00  0.00     0.173 A 
ATOM     89  F   UNL A   1      45.720  29.904  34.258  1.00  0.00    -0.203 F 
ATOM     90  C   UNL A   1      46.390  28.158  35.686  1.00  0.00     0.198 A 
ATOM     91  C   UNL A   1      44.777  26.569  36.481  1.00  0.00     0.198 A 
ATOM     92  F   UNL A   1      42.531  26.727  35.799  1.00  0.00    -0.203 F 
ATOM     93  F   UNL A   1      47.655  28.593  35.622  1.00  0.00    -0.200 F 
ATOM     94  C   UNL A   1      46.080  27.036  36.442  1.00  0.00     0.200 A 
ATOM     95  F   UNL A   1      44.473  25.495  37.224  1.00  0.00    -0.200 F 
ATOM     96  F   UNL A   1      47.042  26.402  37.127  1.00  0.00    -0.200 F 
ENDBRANCH  63  86
ENDBRANCH  37  38
ENDBRANCH  30  32
ENDBRANCH  29  30
ENDBRANCH  28  29
ENDBRANCH  27  28
ENDBRANCH  26  27
ENDBRANCH   1  26
TORSDOF 17
ENDMDL
MODEL 3
REMARK VINA RESULT:     -11.5      4.675     10.225
REMARK SMILES CC1(C)[C@H](C(=O)Nc2ccccc2C(N)=O)[C@@H]1C(=O)OCCOCCOC(=O)c1ccc(-c2c3nc(c(-c4c(F)c(F)c(F)c(F)c4F)c4ccc([nH]4)c(-c4c(F)c(F)c(F)c(F)c4F)c4nc(c(-c5c(F)c(F)c(F)c(F)c5F)c5ccc2[nH]5)C=C4)C=C3)cc1
REMARK SMILES IDX 22 1 21 2 20 3 18 4 19 5 17 6 1 7 2 8 3 9 4 10 5 11 6 12
REMARK SMILES IDX 7 13 8 15 9 16 13 17 10 18 12 19 11 20 14 21 15 22 16 23
REMARK SMILES IDX 23 26 24 27 25 28 26 29 27 30 28 31 29 32 30 33 91 34 31 35
REMARK SMILES IDX 90 36 32 37 33 38 34 39 84 40 35 41 89 42 83 43 85 44 36 45
REMARK SMILES IDX 88 46 82 47 81 48 37 50 69 51 49 52 68 53 50 54 53 55 67 56
REMARK SMILES IDX 86 57 51 58 52 59 66 61 87 62 54 63 38 64 39 65 47 66 40 67
REMARK SMILES IDX 41 68 45 69 48 70 42 71 43 72 46 73 44 74 70 75 71 76 79 77
REMARK SMILES IDX 72 78 73 79 77 80 80 81 74 82 75 83 78 84 76 85 55 86 56 87
REMARK SMILES IDX 64 88 57 89 58 90 62 91 65 92 59 93 60 94 63 95 61 96
REMARK H PARENT 7 14 15 24 15 25 85 49 53 60
REMARK Flexibility Score: inf
ROOT
ATOM      1  C   UNL A   1      33.260  29.189  26.590  1.00  0.00     0.202 C 
ENDROOT
BRANCH   1   2
ATOM      2  C   UNL A   1      33.309  28.043  25.568  1.00  0.00     0.261 C 
BRANCH   2   3
ATOM      3  O   UNL A   1      33.444  26.725  26.114  1.00  0.00    -0.463 OA
BRANCH   3   4
ATOM      4  C   UNL A   1      32.248  26.090  26.239  1.00  0.00     0.310 C 
ATOM      5  O   UNL A   1      31.406  26.377  27.086  1.00  0.00    -0.252 OA
BRANCH   4   6
ATOM      6  C   UNL A   1      31.984  25.105  25.144  1.00  0.00     0.118 C 
ATOM      7  C   UNL A   1      30.400  24.618  23.126  1.00  0.00     0.013 C 
ATOM      8  C   UNL A   1      30.575  24.936  24.611  1.00  0.00    -0.009 C 
ATOM      9  C   UNL A   1      29.534  25.940  25.019  1.00  0.00     0.013 C 
ATOM     10  C   UNL A   1      31.222  23.792  25.381  1.00  0.00     0.100 C 
BRANCH  10  11
ATOM     11  C   UNL A   1      31.560  23.141  26.676  1.00  0.00     0.228 C 
ATOM     12  O   UNL A   1      30.703  23.248  27.562  1.00  0.00    -0.274 OA
ATOM     13  N   UNL A   1      32.587  22.298  26.976  1.00  0.00    -0.325 N 
ATOM     14  H   UNL A   1      32.482  21.852  27.847  1.00  0.00     0.169 HD
BRANCH  13  15
ATOM     15  C   UNL A   1      33.751  21.935  26.308  1.00  0.00     0.053 A 
ATOM     16  C   UNL A   1      34.718  22.952  26.253  1.00  0.00     0.027 A 
ATOM     17  C   UNL A   1      34.016  20.685  25.739  1.00  0.00     0.063 A 
ATOM     18  C   UNL A   1      36.013  22.672  25.836  1.00  0.00     0.002 A 
ATOM     19  C   UNL A   1      35.329  20.416  25.310  1.00  0.00     0.016 A 
ATOM     20  C   UNL A   1      36.329  21.389  25.408  1.00  0.00     0.001 A 
BRANCH  17  21
ATOM     21  C   UNL A   1      32.917  19.698  25.496  1.00  0.00     0.250 C 
ATOM     22  N   UNL A   1      32.904  18.550  26.238  1.00  0.00    -0.366 N 
ATOM     23  O   UNL A   1      32.040  19.881  24.662  1.00  0.00    -0.269 OA
ATOM     24  H   UNL A   1      33.603  18.390  26.912  1.00  0.00     0.159 HD
ATOM     25  H   UNL A   1      32.194  17.881  26.097  1.00  0.00     0.159 HD
ENDBRANCH  17  21
ENDBRANCH  13  15
ENDBRANCH  10  11
ENDBRANCH   4   6
ENDBRANCH   3   4
ENDBRANCH   2   3
ENDBRANCH   1   2
BRANCH   1  26
ATOM     26  O   UNL A   1      33.000  30.517  26.165  1.00  0.00    -0.374 OA
BRANCH  26  27
ATOM     27  C   UNL A   1      31.795  31.167  26.555  1.00  0.00     0.202 C 
BRANCH  27  28
ATOM     28  C   UNL A   1      31.817  32.624  27.036  1.00  0.00     0.261 C 
BRANCH  28  29
ATOM     29  O   UNL A   1      33.135  33.174  27.198  1.00  0.00    -0.460 OA
BRANCH  29  30
ATOM     30  C   UNL A   1      33.234  34.118  28.165  1.00  0.00     0.338 C 
ATOM     31  O   UNL A   1      32.471  35.044  28.385  1.00  0.00    -0.246 OA
BRANCH  30  32
ATOM     32  C   UNL A   1      34.340  33.793  29.078  1.00  0.00     0.060 A 
ATOM     33  C   UNL A   1      35.625  34.250  28.756  1.00  0.00     0.016 A 
ATOM     34  C   UNL A   1      34.136  32.932  30.156  1.00  0.00     0.016 A 
ATOM     35  C   UNL A   1      36.721  33.828  29.501  1.00  0.00     0.010 A 
ATOM     36  C   UNL A   1      35.240  32.493  30.889  1.00  0.00     0.010 A 
ATOM     37  C   UNL A   1      36.537  32.916  30.546  1.00  0.00    -0.014 A 
BRANCH  37  38
ATOM     38  C   UNL A   1      37.713  32.292  31.192  1.00  0.00     0.031 A 
ATOM     39  C   UNL A   1      38.452  31.207  30.463  1.00  0.00     0.074 A 
ATOM     40  C   UNL A   1      38.117  32.699  32.406  1.00  0.00     0.049 A 
ATOM     41  N   UNL A   1      39.448  30.463  30.870  1.00  0.00    -0.248 NA
ATOM     42  C   UNL A   1      38.008  30.924  29.089  1.00  0.00     0.031 C 
ATOM     43  C   UNL A   1      37.507  33.779  33.179  1.00  0.00     0.029 A 
ATOM     44  N   UNL A   1      39.129  32.237  33.207  1.00  0.00    -0.354 N 
ATOM     45  C   UNL A   1      39.739  29.614  29.809  1.00  0.00     0.074 A 
ATOM     46  C   UNL A   1      38.803  29.920  28.750  1.00  0.00     0.031 C 
ATOM     47  C   UNL A   1      38.146  33.884  34.356  1.00  0.00     0.029 A 
ATOM     48  C   UNL A   1      39.176  32.851  34.434  1.00  0.00     0.049 A 
ATOM     49  H   UNL A   1      39.760  31.534  32.931  1.00  0.00     0.167 HD
ATOM     50  C   UNL A   1      40.706  28.669  29.731  1.00  0.00     0.037 A 
ATOM     51  C   UNL A   1      39.940  32.579  35.509  1.00  0.00     0.037 A 
ATOM     52  C   UNL A   1      41.629  28.370  30.795  1.00  0.00     0.049 A 
ATOM     53  C   UNL A   1      40.944  31.456  35.430  1.00  0.00     0.074 A 
ATOM     54  C   UNL A   1      42.660  27.448  30.811  1.00  0.00     0.029 A 
ATOM     55  N   UNL A   1      41.620  28.982  32.041  1.00  0.00    -0.354 N 
ATOM     56  N   UNL A   1      41.234  30.672  34.420  1.00  0.00    -0.248 NA
ATOM     57  C   UNL A   1      41.721  31.179  36.646  1.00  0.00     0.031 C 
ATOM     58  C   UNL A   1      43.235  27.458  32.087  1.00  0.00     0.029 A 
ATOM     59  C   UNL A   1      42.603  28.431  32.847  1.00  0.00     0.049 A 
ATOM     60  H   UNL A   1      41.006  29.702  32.312  1.00  0.00     0.167 HD
ATOM     61  C   UNL A   1      42.239  29.825  34.868  1.00  0.00     0.074 A 
ATOM     62  C   UNL A   1      42.524  30.206  36.237  1.00  0.00     0.031 C 
ATOM     63  C   UNL A   1      42.869  28.821  34.210  1.00  0.00     0.037 A 
BRANCH  50  64
ATOM     64  C   UNL A   1      40.789  27.863  28.466  1.00  0.00     0.064 A 
ATOM     65  C   UNL A   1      41.599  28.254  27.389  1.00  0.00     0.173 A 
ATOM     66  C   UNL A   1      40.066  26.667  28.341  1.00  0.00     0.173 A 
ATOM     67  F   UNL A   1      42.301  29.396  27.452  1.00  0.00    -0.203 F 
ATOM     68  C   UNL A   1      41.661  27.493  26.225  1.00  0.00     0.198 A 
ATOM     69  C   UNL A   1      40.155  25.891  27.188  1.00  0.00     0.198 A 
ATOM     70  F   UNL A   1      39.279  26.244  29.341  1.00  0.00    -0.203 F 
ATOM     71  F   UNL A   1      42.403  27.912  25.190  1.00  0.00    -0.200 F 
ATOM     72  C   UNL A   1      40.945  26.309  26.128  1.00  0.00     0.200 A 
ATOM     73  F   UNL A   1      39.472  24.741  27.102  1.00  0.00    -0.200 F 
ATOM     74  F   UNL A   1      41.009  25.574  25.009  1.00  0.00    -0.200 F 
ENDBRANCH  50  64
BRANCH  51  75
ATOM     75  C   UNL A   1      39.768  33.362  36.760  1.00  0.00     0.064 A 
ATOM     76  C   UNL A   1      40.580  34.472  37.033  1.00  0.00     0.173 A 
ATOM     77  C   UNL A   1      38.798  33.012  37.711  1.00  0.00     0.173 A 
ATOM     78  F   UNL A   1      41.537  34.831  36.167  1.00  0.00    -0.203 F 
ATOM     79  C   UNL A   1      40.438  35.191  38.219  1.00  0.00     0.198 A 
ATOM     80  C   UNL A   1      38.637  33.751  38.881  1.00  0.00     0.198 A 
ATOM     81  F   UNL A   1      37.999  31.958  37.498  1.00  0.00    -0.203 F 
ATOM     82  F   UNL A   1      41.257  36.220  38.477  1.00  0.00    -0.200 F 
ATOM     83  C   UNL A   1      39.462  34.835  39.138  1.00  0.00     0.200 A 
ATOM     84  F   UNL A   1      37.684  33.411  39.759  1.00  0.00    -0.200 F 
ATOM     85  F   UNL A   1      39.323  35.531  40.275  1.00  0.00    -0.200 F 
ENDBRANCH  51  75
BRANCH  63  86
ATOM     86  C   UNL A   1      43.942  28.076  34.951  1.00  0.00     0.064 A 
ATOM     87  C   UNL A   1      43.680  26.860  35.599  1.00  0.00     0.173 A 
ATOM     88  C   UNL A   1      45.258  28.564  34.980  1.00  0.00     0.173 A 
ATOM     89  F   UNL A   1      42.436  26.357  35.615  1.00  0.00    -0.203 F 
ATOM     90  C   UNL A   1      44.689  26.172  36.269  1.00  0.00     0.198 A 
ATOM     91  C   UNL A   1      46.271  27.857  35.622  1.00  0.00     0.198 A 
ATOM     92  F   UNL A   1      45.565  29.719  34.371  1.00  0.00    -0.203 F 
ATOM     93  F   UNL A   1      44.404  25.038  36.923  1.00  0.00    -0.200 F 
ATOM     94  C   UNL A   1      45.985  26.667  36.272  1.00  0.00     0.200 A 
ATOM     95  F   UNL A   1      47.526  28.329  35.610  1.00  0.00    -0.200 F 
ATOM     96  F   UNL A   1      46.957  26.000  36.910  1.00  0.00    -0.200 F 
ENDBRANCH  63  86
ENDBRANCH  37  38
ENDBRANCH  30  32
ENDBRANCH  29  30
ENDBRANCH  28  29
ENDBRANCH  27  28
ENDBRANCH  26  27
ENDBRANCH   1  26
TORSDOF 17
ENDMDL
