MODEL 1
REMARK VINA RESULT:     -11.3      0.000      0.000
REMARK SMILES COc1ccc(OCCNc2c(Cl)cccc2C(=O)OCCOCCOC(=O)c2ccc(-c3c4nc(c(-c5c(F)c(F)c(F)c(F)c5F)c5ccc([nH]5)c(-c5c(F)c(F)c(F)c(F)c5F)c5nc(c(-c6c(F)c(F)c(F)c(F)c6F)c6ccc3[nH]6)C=C5)C=C4)cc2)cc1
REMARK SMILES IDX 21 1 20 2 18 3 19 4 17 5 11 6 12 7 13 8 14 9 16 10 15 11
REMARK SMILES IDX 10 12 9 14 8 15 7 16 6 17 3 18 4 19 93 20 5 21 92 22 2 23
REMARK SMILES IDX 1 24 22 25 23 26 24 27 25 28 26 29 27 30 28 31 29 32 30 33
REMARK SMILES IDX 91 34 31 35 90 36 32 37 33 38 34 39 84 40 35 41 89 42 83 43
REMARK SMILES IDX 85 44 36 45 88 46 82 47 81 48 37 50 69 51 49 52 68 53 50 54
REMARK SMILES IDX 53 55 67 56 86 57 51 58 52 59 66 61 87 62 54 63 38 64 39 65
REMARK SMILES IDX 47 66 40 67 41 68 45 69 48 70 42 71 43 72 46 73 44 74 70 75
REMARK SMILES IDX 71 76 79 77 72 78 73 79 77 80 80 81 74 82 75 83 78 84 76 85
REMARK SMILES IDX 55 86 56 87 64 88 57 89 58 90 62 91 65 92 59 93 60 94 63 95
REMARK SMILES IDX 61 96
REMARK H PARENT 10 13 85 49 53 60
REMARK Flexibility Score: inf
ROOT
ATOM      1  C   UNL A   1      38.926  22.137  26.183  1.00  0.00     0.261 C 
ENDROOT
BRANCH   1   2
ATOM      2  O   UNL A   1      37.691  21.765  25.552  1.00  0.00    -0.460 OA
BRANCH   2   3
ATOM      3  C   UNL A   1      36.712  22.692  25.622  1.00  0.00     0.340 C 
ATOM      4  O   UNL A   1      36.866  23.904  25.669  1.00  0.00    -0.246 OA
BRANCH   3   5
ATOM      5  C   UNL A   1      35.387  22.078  25.406  1.00  0.00     0.084 A 
ATOM      6  C   UNL A   1      34.146  22.726  25.503  1.00  0.00     0.068 A 
ATOM      7  C   UNL A   1      33.036  21.965  25.024  1.00  0.00     0.065 A 
ATOM      8  Cl  UNL A   1      31.473  22.689  24.811  1.00  0.00    -0.082 Cl
ATOM      9  C   UNL A   1      33.122  20.623  24.642  1.00  0.00     0.023 A 
ATOM     10  C   UNL A   1      35.468  20.708  25.046  1.00  0.00     0.018 A 
ATOM     11  C   UNL A   1      34.341  19.976  24.693  1.00  0.00     0.003 A 
BRANCH   6  12
ATOM     12  N   UNL A   1      33.884  24.015  25.937  1.00  0.00    -0.380 N 
ATOM     13  H   UNL A   1      33.631  24.072  26.887  1.00  0.00     0.160 HD
BRANCH  12  14
ATOM     14  C   UNL A   1      33.911  25.303  25.258  1.00  0.00     0.154 C 
BRANCH  14  15
ATOM     15  C   UNL A   1      32.977  26.326  25.957  1.00  0.00     0.250 C 
BRANCH  15  16
ATOM     16  O   UNL A   1      31.600  26.247  25.553  1.00  0.00    -0.492 OA
BRANCH  16  17
ATOM     17  C   UNL A   1      31.074  27.205  24.737  1.00  0.00     0.119 A 
ATOM     18  C   UNL A   1      29.861  29.387  23.467  1.00  0.00     0.119 A 
ATOM     19  C   UNL A   1      30.932  29.597  24.327  1.00  0.00     0.050 A 
ATOM     20  C   UNL A   1      29.501  28.089  23.123  1.00  0.00     0.050 A 
ATOM     21  C   UNL A   1      31.527  28.508  24.972  1.00  0.00     0.050 A 
ATOM     22  C   UNL A   1      30.133  27.001  23.734  1.00  0.00     0.050 A 
BRANCH  18  23
ATOM     23  O   UNL A   1      29.229  30.477  22.937  1.00  0.00    -0.497 OA
ATOM     24  C   UNL A   1      27.838  30.490  23.272  1.00  0.00     0.278 C 
ENDBRANCH  18  23
ENDBRANCH  16  17
ENDBRANCH  15  16
ENDBRANCH  14  15
ENDBRANCH  12  14
ENDBRANCH   6  12
ENDBRANCH   3   5
ENDBRANCH   2   3
ENDBRANCH   1   2
BRANCH   1  25
ATOM     25  C   UNL A   1      39.892  20.953  26.155  1.00  0.00     0.202 C 
BRANCH  25  26
ATOM     26  O   UNL A   1      41.159  21.181  26.775  1.00  0.00    -0.374 OA
BRANCH  26  27
ATOM     27  C   UNL A   1      42.315  20.657  26.120  1.00  0.00     0.202 C 
BRANCH  27  28
ATOM     28  C   UNL A   1      43.313  21.683  25.572  1.00  0.00     0.261 C 
BRANCH  28  29
ATOM     29  O   UNL A   1      42.676  22.837  24.992  1.00  0.00    -0.460 OA
BRANCH  29  30
ATOM     30  C   UNL A   1      43.395  23.978  25.069  1.00  0.00     0.338 C 
ATOM     31  O   UNL A   1      44.409  24.265  24.440  1.00  0.00    -0.246 OA
BRANCH  30  32
ATOM     32  C   UNL A   1      42.717  24.957  25.935  1.00  0.00     0.060 A 
ATOM     33  C   UNL A   1      43.346  26.192  26.138  1.00  0.00     0.016 A 
ATOM     34  C   UNL A   1      41.549  24.632  26.626  1.00  0.00     0.016 A 
ATOM     35  C   UNL A   1      42.836  27.088  27.076  1.00  0.00     0.010 A 
ATOM     36  C   UNL A   1      41.045  25.527  27.575  1.00  0.00     0.010 A 
ATOM     37  C   UNL A   1      41.707  26.742  27.830  1.00  0.00    -0.014 A 
BRANCH  37  38
ATOM     38  C   UNL A   1      41.309  27.589  28.981  1.00  0.00     0.031 A 
ATOM     39  C   UNL A   1      42.097  27.506  30.259  1.00  0.00     0.074 A 
ATOM     40  C   UNL A   1      40.282  28.450  28.876  1.00  0.00     0.049 A 
ATOM     41  N   UNL A   1      41.906  28.123  31.398  1.00  0.00    -0.248 NA
ATOM     42  C   UNL A   1      43.261  26.605  30.254  1.00  0.00     0.031 C 
ATOM     43  C   UNL A   1      39.475  28.658  27.677  1.00  0.00     0.029 A 
ATOM     44  N   UNL A   1      39.744  29.311  29.800  1.00  0.00    -0.354 N 
ATOM     45  C   UNL A   1      42.922  27.689  32.239  1.00  0.00     0.074 A 
ATOM     46  C   UNL A   1      43.708  26.729  31.494  1.00  0.00     0.031 C 
ATOM     47  C   UNL A   1      38.538  29.585  27.938  1.00  0.00     0.029 A 
ATOM     48  C   UNL A   1      38.658  30.009  29.332  1.00  0.00     0.049 A 
ATOM     49  H   UNL A   1      40.102  29.419  30.710  1.00  0.00     0.167 HD
ATOM     50  C   UNL A   1      43.182  28.066  33.514  1.00  0.00     0.037 A 
ATOM     51  C   UNL A   1      37.843  30.873  29.967  1.00  0.00     0.037 A 
ATOM     52  C   UNL A   1      42.395  29.014  34.258  1.00  0.00     0.049 A 
ATOM     53  C   UNL A   1      38.101  31.203  31.416  1.00  0.00     0.074 A 
ATOM     54  C   UNL A   1      42.572  29.454  35.559  1.00  0.00     0.029 A 
ATOM     55  N   UNL A   1      41.278  29.670  33.763  1.00  0.00    -0.354 N 
ATOM     56  N   UNL A   1      39.068  30.796  32.201  1.00  0.00    -0.248 NA
ATOM     57  C   UNL A   1      37.148  32.116  32.066  1.00  0.00     0.031 C 
ATOM     58  C   UNL A   1      41.536  30.343  35.865  1.00  0.00     0.029 A 
ATOM     59  C   UNL A   1      40.743  30.496  34.739  1.00  0.00     0.049 A 
ATOM     60  H   UNL A   1      40.917  29.563  32.853  1.00  0.00     0.167 HD
ATOM     61  C   UNL A   1      38.861  31.427  33.422  1.00  0.00     0.074 A 
ATOM     62  C   UNL A   1      37.684  32.254  33.270  1.00  0.00     0.031 C 
ATOM     63  C   UNL A   1      39.582  31.329  34.566  1.00  0.00     0.037 A 
BRANCH  50  64
ATOM     64  C   UNL A   1      44.362  27.437  34.196  1.00  0.00     0.064 A 
ATOM     65  C   UNL A   1      44.265  26.186  34.824  1.00  0.00     0.173 A 
ATOM     66  C   UNL A   1      45.614  28.070  34.184  1.00  0.00     0.173 A 
ATOM     67  F   UNL A   1      43.087  25.546  34.874  1.00  0.00    -0.203 F 
ATOM     68  C   UNL A   1      45.374  25.601  35.430  1.00  0.00     0.198 A 
ATOM     69  C   UNL A   1      46.727  27.470  34.767  1.00  0.00     0.198 A 
ATOM     70  F   UNL A   1      45.762  29.265  33.593  1.00  0.00    -0.203 F 
ATOM     71  F   UNL A   1      45.249  24.423  36.057  1.00  0.00    -0.200 F 
ATOM     72  C   UNL A   1      46.605  26.238  35.394  1.00  0.00     0.200 A 
ATOM     73  F   UNL A   1      47.918  28.082  34.721  1.00  0.00    -0.200 F 
ATOM     74  F   UNL A   1      47.673  25.669  35.969  1.00  0.00    -0.200 F 
ENDBRANCH  50  64
BRANCH  51  75
ATOM     75  C   UNL A   1      36.693  31.484  29.249  1.00  0.00     0.064 A 
ATOM     76  C   UNL A   1      36.683  32.850  28.934  1.00  0.00     0.173 A 
ATOM     77  C   UNL A   1      35.566  30.725  28.902  1.00  0.00     0.173 A 
ATOM     78  F   UNL A   1      37.726  33.623  29.271  1.00  0.00    -0.203 F 
ATOM     79  C   UNL A   1      35.578  33.438  28.321  1.00  0.00     0.198 A 
ATOM     80  C   UNL A   1      34.475  31.310  28.261  1.00  0.00     0.198 A 
ATOM     81  F   UNL A   1      35.523  29.416  29.185  1.00  0.00    -0.203 F 
ATOM     82  F   UNL A   1      35.572  34.757  28.082  1.00  0.00    -0.200 F 
ATOM     83  C   UNL A   1      34.478  32.667  27.981  1.00  0.00     0.200 A 
ATOM     84  F   UNL A   1      33.418  30.559  27.925  1.00  0.00    -0.200 F 
ATOM     85  F   UNL A   1      33.415  33.234  27.394  1.00  0.00    -0.200 F 
ENDBRANCH  51  75
BRANCH  63  86
ATOM     86  C   UNL A   1      39.150  32.176  35.728  1.00  0.00     0.064 A 
ATOM     87  C   UNL A   1      38.293  31.683  36.723  1.00  0.00     0.173 A 
ATOM     88  C   UNL A   1      39.631  33.487  35.867  1.00  0.00     0.173 A 
ATOM     89  F   UNL A   1      37.793  30.441  36.628  1.00  0.00    -0.203 F 
ATOM     90  C   UNL A   1      37.913  32.480  37.800  1.00  0.00     0.198 A 
ATOM     91  C   UNL A   1      39.273  34.271  36.961  1.00  0.00     0.198 A 
ATOM     92  F   UNL A   1      40.460  34.004  34.947  1.00  0.00    -0.203 F 
ATOM     93  F   UNL A   1      37.054  32.005  38.713  1.00  0.00    -0.200 F 
ATOM     94  C   UNL A   1      38.409  33.770  37.921  1.00  0.00     0.200 A 
ATOM     95  F   UNL A   1      39.764  35.512  37.083  1.00  0.00    -0.200 F 
ATOM     96  F   UNL A   1      38.047  34.534  38.961  1.00  0.00    -0.200 F 
ENDBRANCH  63  86
ENDBRANCH  37  38
ENDBRANCH  30  32
ENDBRANCH  29  30
ENDBRANCH  28  29
ENDBRANCH  27  28
ENDBRANCH  26  27
ENDBRANCH  25  26
ENDBRANCH   1  25
TORSDOF 20
ENDMDL
MODEL 2
REMARK VINA RESULT:     -11.2      3.165      8.224
REMARK SMILES COc1ccc(OCCNc2c(Cl)cccc2C(=O)OCCOCCOC(=O)c2ccc(-c3c4nc(c(-c5c(F)c(F)c(F)c(F)c5F)c5ccc([nH]5)c(-c5c(F)c(F)c(F)c(F)c5F)c5nc(c(-c6c(F)c(F)c(F)c(F)c6F)c6ccc3[nH]6)C=C5)C=C4)cc2)cc1
REMARK SMILES IDX 21 1 20 2 18 3 19 4 17 5 11 6 12 7 13 8 14 9 16 10 15 11
REMARK SMILES IDX 10 12 9 14 8 15 7 16 6 17 3 18 4 19 93 20 5 21 92 22 2 23
REMARK SMILES IDX 1 24 22 25 23 26 24 27 25 28 26 29 27 30 28 31 29 32 30 33
REMARK SMILES IDX 91 34 31 35 90 36 32 37 33 38 34 39 84 40 35 41 89 42 83 43
REMARK SMILES IDX 85 44 36 45 88 46 82 47 81 48 37 50 69 51 49 52 68 53 50 54
REMARK SMILES IDX 53 55 67 56 86 57 51 58 52 59 66 61 87 62 54 63 38 64 39 65
REMARK SMILES IDX 47 66 40 67 41 68 45 69 48 70 42 71 43 72 46 73 44 74 70 75
REMARK SMILES IDX 71 76 79 77 72 78 73 79 77 80 80 81 74 82 75 83 78 84 76 85
REMARK SMILES IDX 55 86 56 87 64 88 57 89 58 90 62 91 65 92 59 93 60 94 63 95
REMARK SMILES IDX 61 96
REMARK H PARENT 10 13 85 49 53 60
REMARK Flexibility Score: inf
ROOT
ATOM      1  C   UNL A   1      31.894  28.360  26.585  1.00  0.00     0.261 C 
ENDROOT
BRANCH   1   2
ATOM      2  O   UNL A   1      32.669  27.153  26.506  1.00  0.00    -0.460 OA
BRANCH   2   3
ATOM      3  C   UNL A   1      33.057  26.805  25.260  1.00  0.00     0.340 C 
ATOM      4  O   UNL A   1      33.279  27.569  24.332  1.00  0.00    -0.246 OA
BRANCH   3   5
ATOM      5  C   UNL A   1      33.412  25.373  25.198  1.00  0.00     0.084 A 
ATOM      6  C   UNL A   1      32.530  24.310  24.952  1.00  0.00     0.068 A 
ATOM      7  C   UNL A   1      33.163  23.051  24.718  1.00  0.00     0.065 A 
ATOM      8  Cl  UNL A   1      32.265  21.685  24.134  1.00  0.00    -0.082 Cl
ATOM      9  C   UNL A   1      34.534  22.830  24.882  1.00  0.00     0.023 A 
ATOM     10  C   UNL A   1      34.797  25.142  25.392  1.00  0.00     0.018 A 
ATOM     11  C   UNL A   1      35.352  23.874  25.263  1.00  0.00     0.003 A 
BRANCH   6  12
ATOM     12  N   UNL A   1      31.149  24.349  24.843  1.00  0.00    -0.380 N 
ATOM     13  H   UNL A   1      30.678  24.039  25.650  1.00  0.00     0.160 HD
BRANCH  12  14
ATOM     14  C   UNL A   1      30.261  24.759  23.765  1.00  0.00     0.154 C 
BRANCH  14  15
ATOM     15  C   UNL A   1      29.615  26.137  24.063  1.00  0.00     0.250 C 
BRANCH  15  16
ATOM     16  O   UNL A   1      30.075  27.205  23.218  1.00  0.00    -0.492 OA
BRANCH  16  17
ATOM     17  C   UNL A   1      29.499  28.439  23.305  1.00  0.00     0.119 A 
ATOM     18  C   UNL A   1      28.215  30.912  23.024  1.00  0.00     0.119 A 
ATOM     19  C   UNL A   1      27.511  29.738  22.787  1.00  0.00     0.050 A 
ATOM     20  C   UNL A   1      29.502  30.848  23.547  1.00  0.00     0.050 A 
ATOM     21  C   UNL A   1      28.158  28.504  22.914  1.00  0.00     0.050 A 
ATOM     22  C   UNL A   1      30.127  29.608  23.719  1.00  0.00     0.050 A 
BRANCH  18  23
ATOM     23  O   UNL A   1      27.590  32.105  22.786  1.00  0.00    -0.497 OA
ATOM     24  C   UNL A   1      28.017  32.680  21.547  1.00  0.00     0.278 C 
ENDBRANCH  18  23
ENDBRANCH  16  17
ENDBRANCH  15  16
ENDBRANCH  14  15
ENDBRANCH  12  14
ENDBRANCH   6  12
ENDBRANCH   3   5
ENDBRANCH   2   3
ENDBRANCH   1   2
BRANCH   1  25
ATOM     25  C   UNL A   1      32.740  29.470  27.207  1.00  0.00     0.202 C 
BRANCH  25  26
ATOM     26  O   UNL A   1      32.783  30.694  26.471  1.00  0.00    -0.374 OA
BRANCH  26  27
ATOM     27  C   UNL A   1      31.649  31.556  26.560  1.00  0.00     0.202 C 
BRANCH  27  28
ATOM     28  C   UNL A   1      31.934  33.030  26.867  1.00  0.00     0.261 C 
BRANCH  28  29
ATOM     29  O   UNL A   1      32.607  33.226  28.124  1.00  0.00    -0.460 OA
BRANCH  29  30
ATOM     30  C   UNL A   1      33.738  33.962  28.051  1.00  0.00     0.338 C 
ATOM     31  O   UNL A   1      33.829  35.172  27.869  1.00  0.00    -0.246 OA
BRANCH  30  32
ATOM     32  C   UNL A   1      34.913  33.136  28.371  1.00  0.00     0.060 A 
ATOM     33  C   UNL A   1      34.689  31.873  28.933  1.00  0.00     0.016 A 
ATOM     34  C   UNL A   1      36.211  33.632  28.234  1.00  0.00     0.016 A 
ATOM     35  C   UNL A   1      35.761  31.121  29.410  1.00  0.00     0.010 A 
ATOM     36  C   UNL A   1      37.285  32.881  28.722  1.00  0.00     0.010 A 
ATOM     37  C   UNL A   1      37.061  31.640  29.345  1.00  0.00    -0.014 A 
BRANCH  37  38
ATOM     38  C   UNL A   1      38.161  30.946  30.059  1.00  0.00     0.031 A 
ATOM     39  C   UNL A   1      38.416  31.270  31.505  1.00  0.00     0.074 A 
ATOM     40  C   UNL A   1      38.900  30.011  29.436  1.00  0.00     0.049 A 
ATOM     41  N   UNL A   1      39.343  30.814  32.310  1.00  0.00    -0.248 NA
ATOM     42  C   UNL A   1      37.499  32.237  32.131  1.00  0.00     0.031 C 
ATOM     43  C   UNL A   1      38.719  29.576  28.053  1.00  0.00     0.029 A 
ATOM     44  N   UNL A   1      39.956  29.261  29.892  1.00  0.00    -0.354 N 
ATOM     45  C   UNL A   1      39.120  31.435  33.532  1.00  0.00     0.074 A 
ATOM     46  C   UNL A   1      37.993  32.326  33.357  1.00  0.00     0.031 C 
ATOM     47  C   UNL A   1      39.636  28.635  27.769  1.00  0.00     0.029 A 
ATOM     48  C   UNL A   1      40.490  28.430  28.939  1.00  0.00     0.049 A 
ATOM     49  H   UNL A   1      40.296  29.313  30.813  1.00  0.00     0.167 HD
ATOM     50  C   UNL A   1      39.789  31.268  34.699  1.00  0.00     0.037 A 
ATOM     51  C   UNL A   1      41.561  27.616  29.000  1.00  0.00     0.037 A 
ATOM     52  C   UNL A   1      40.914  30.388  34.871  1.00  0.00     0.049 A 
ATOM     53  C   UNL A   1      42.344  27.520  30.285  1.00  0.00     0.074 A 
ATOM     54  C   UNL A   1      41.665  30.157  36.012  1.00  0.00     0.029 A 
ATOM     55  N   UNL A   1      41.453  29.593  33.871  1.00  0.00    -0.354 N 
ATOM     56  N   UNL A   1      42.122  28.103  31.437  1.00  0.00    -0.248 NA
ATOM     57  C   UNL A   1      43.530  26.650  30.273  1.00  0.00     0.031 C 
ATOM     58  C   UNL A   1      42.684  29.255  35.689  1.00  0.00     0.029 A 
ATOM     59  C   UNL A   1      42.538  28.885  34.362  1.00  0.00     0.049 A 
ATOM     60  H   UNL A   1      41.114  29.540  32.948  1.00  0.00     0.167 HD
ATOM     61  C   UNL A   1      43.116  27.645  32.295  1.00  0.00     0.074 A 
ATOM     62  C   UNL A   1      43.934  26.727  31.533  1.00  0.00     0.031 C 
ATOM     63  C   UNL A   1      43.330  27.958  33.596  1.00  0.00     0.037 A 
BRANCH  50  64
ATOM     64  C   UNL A   1      39.329  32.069  35.882  1.00  0.00     0.064 A 
ATOM     65  C   UNL A   1      38.351  31.581  36.763  1.00  0.00     0.173 A 
ATOM     66  C   UNL A   1      39.904  33.317  36.167  1.00  0.00     0.173 A 
ATOM     67  F   UNL A   1      37.762  30.399  36.527  1.00  0.00    -0.203 F 
ATOM     68  C   UNL A   1      37.953  32.322  37.872  1.00  0.00     0.198 A 
ATOM     69  C   UNL A   1      39.524  34.042  37.293  1.00  0.00     0.198 A 
ATOM     70  F   UNL A   1      40.848  33.826  35.360  1.00  0.00    -0.203 F 
ATOM     71  F   UNL A   1      36.989  31.853  38.678  1.00  0.00    -0.200 F 
ATOM     72  C   UNL A   1      38.544  33.547  38.141  1.00  0.00     0.200 A 
ATOM     73  F   UNL A   1      40.105  35.220  37.557  1.00  0.00    -0.200 F 
ATOM     74  F   UNL A   1      38.167  34.253  39.215  1.00  0.00    -0.200 F 
ENDBRANCH  50  64
BRANCH  51  75
ATOM     75  C   UNL A   1      41.973  26.829  27.807  1.00  0.00     0.064 A 
ATOM     76  C   UNL A   1      41.430  25.562  27.555  1.00  0.00     0.173 A 
ATOM     77  C   UNL A   1      42.948  27.310  26.920  1.00  0.00     0.173 A 
ATOM     78  F   UNL A   1      40.515  25.047  28.390  1.00  0.00    -0.203 F 
ATOM     79  C   UNL A   1      41.863  24.795  26.475  1.00  0.00     0.198 A 
ATOM     80  C   UNL A   1      43.358  26.554  25.823  1.00  0.00     0.198 A 
ATOM     81  F   UNL A   1      43.503  28.514  27.118  1.00  0.00    -0.203 F 
ATOM     82  F   UNL A   1      41.367  23.564  26.290  1.00  0.00    -0.200 F 
ATOM     83  C   UNL A   1      42.823  25.294  25.608  1.00  0.00     0.200 A 
ATOM     84  F   UNL A   1      44.278  27.044  24.982  1.00  0.00    -0.200 F 
ATOM     85  F   UNL A   1      43.242  24.554  24.572  1.00  0.00    -0.200 F 
ENDBRANCH  51  75
BRANCH  63  86
ATOM     86  C   UNL A   1      44.463  27.264  34.295  1.00  0.00     0.064 A 
ATOM     87  C   UNL A   1      44.284  26.039  34.955  1.00  0.00     0.173 A 
ATOM     88  C   UNL A   1      45.754  27.813  34.270  1.00  0.00     0.173 A 
ATOM     89  F   UNL A   1      43.066  25.480  35.021  1.00  0.00    -0.203 F 
ATOM     90  C   UNL A   1      45.350  25.404  35.588  1.00  0.00     0.198 A 
ATOM     91  C   UNL A   1      46.824  27.160  34.878  1.00  0.00     0.198 A 
ATOM     92  F   UNL A   1      45.982  28.979  33.645  1.00  0.00    -0.203 F 
ATOM     93  F   UNL A   1      45.145  24.259  36.255  1.00  0.00    -0.200 F 
ATOM     94  C   UNL A   1      46.620  25.962  35.542  1.00  0.00     0.200 A 
ATOM     95  F   UNL A   1      48.053  27.694  34.821  1.00  0.00    -0.200 F 
ATOM     96  F   UNL A   1      47.645  25.346  36.147  1.00  0.00    -0.200 F 
ENDBRANCH  63  86
ENDBRANCH  37  38
ENDBRANCH  30  32
ENDBRANCH  29  30
ENDBRANCH  28  29
ENDBRANCH  27  28
ENDBRANCH  26  27
ENDBRANCH  25  26
ENDBRANCH   1  25
TORSDOF 20
ENDMDL
MODEL 3
REMARK VINA RESULT:     -11.1      3.808      9.385
REMARK SMILES COc1ccc(OCCNc2c(Cl)cccc2C(=O)OCCOCCOC(=O)c2ccc(-c3c4nc(c(-c5c(F)c(F)c(F)c(F)c5F)c5ccc([nH]5)c(-c5c(F)c(F)c(F)c(F)c5F)c5nc(c(-c6c(F)c(F)c(F)c(F)c6F)c6ccc3[nH]6)C=C5)C=C4)cc2)cc1
REMARK SMILES IDX 21 1 20 2 18 3 19 4 17 5 11 6 12 7 13 8 14 9 16 10 15 11
REMARK SMILES IDX 10 12 9 14 8 15 7 16 6 17 3 18 4 19 93 20 5 21 92 22 2 23
REMARK SMILES IDX 1 24 22 25 23 26 24 27 25 28 26 29 27 30 28 31 29 32 30 33
REMARK SMILES IDX 91 34 31 35 90 36 32 37 33 38 34 39 84 40 35 41 89 42 83 43
REMARK SMILES IDX 85 44 36 45 88 46 82 47 81 48 37 50 69 51 49 52 68 53 50 54
REMARK SMILES IDX 53 55 67 56 86 57 51 58 52 59 66 61 87 62 54 63 38 64 39 65
REMARK SMILES IDX 47 66 40 67 41 68 45 69 48 70 42 71 43 72 46 73 44 74 70 75
REMARK SMILES IDX 71 76 79 77 72 78 73 79 77 80 80 81 74 82 75 83 78 84 76 85
REMARK SMILES IDX 55 86 56 87 64 88 57 89 58 90 62 91 65 92 59 93 60 94 63 95
REMARK SMILES IDX 61 96
REMARK H PARENT 10 13 85 49 53 60
REMARK Flexibility Score: inf
ROOT
ATOM      1  C   UNL A   1      32.165  27.084  26.295  1.00  0.00     0.261 C 
ENDROOT
BRANCH   1   2
ATOM      2  O   UNL A   1      32.665  25.748  26.456  1.00  0.00    -0.460 OA
BRANCH   2   3
ATOM      3  C   UNL A   1      31.717  24.800  26.621  1.00  0.00     0.340 C 
ATOM      4  O   UNL A   1      30.510  24.987  26.684  1.00  0.00    -0.246 OA
BRANCH   3   5
ATOM      5  C   UNL A   1      32.294  23.448  26.489  1.00  0.00     0.084 A 
ATOM      6  C   UNL A   1      32.220  22.620  25.359  1.00  0.00     0.068 A 
ATOM      7  C   UNL A   1      33.053  21.461  25.411  1.00  0.00     0.065 A 
ATOM      8  Cl  UNL A   1      33.303  20.467  24.011  1.00  0.00    -0.082 Cl
ATOM      9  C   UNL A   1      33.766  21.069  26.549  1.00  0.00     0.023 A 
ATOM     10  C   UNL A   1      32.994  23.034  27.652  1.00  0.00     0.018 A 
ATOM     11  C   UNL A   1      33.701  21.839  27.693  1.00  0.00     0.003 A 
BRANCH   6  12
ATOM     12  N   UNL A   1      31.501  22.824  24.192  1.00  0.00    -0.380 N 
ATOM     13  H   UNL A   1      30.786  22.163  24.045  1.00  0.00     0.160 HD
BRANCH  12  14
ATOM     14  C   UNL A   1      31.599  23.828  23.142  1.00  0.00     0.154 C 
BRANCH  14  15
ATOM     15  C   UNL A   1      33.055  23.960  22.625  1.00  0.00     0.250 C 
BRANCH  15  16
ATOM     16  O   UNL A   1      33.925  24.715  23.484  1.00  0.00    -0.492 OA
BRANCH  16  17
ATOM     17  C   UNL A   1      35.054  24.137  23.987  1.00  0.00     0.119 A 
ATOM     18  C   UNL A   1      37.141  22.539  24.952  1.00  0.00     0.119 A 
ATOM     19  C   UNL A   1      36.706  22.387  23.642  1.00  0.00     0.050 A 
ATOM     20  C   UNL A   1      36.647  23.583  25.725  1.00  0.00     0.050 A 
ATOM     21  C   UNL A   1      35.653  23.176  23.166  1.00  0.00     0.050 A 
ATOM     22  C   UNL A   1      35.628  24.402  25.226  1.00  0.00     0.050 A 
BRANCH  18  23
ATOM     23  O   UNL A   1      38.095  21.680  25.424  1.00  0.00    -0.497 OA
ATOM     24  C   UNL A   1      39.004  22.342  26.309  1.00  0.00     0.278 C 
ENDBRANCH  18  23
ENDBRANCH  16  17
ENDBRANCH  15  16
ENDBRANCH  14  15
ENDBRANCH  12  14
ENDBRANCH   6  12
ENDBRANCH   3   5
ENDBRANCH   2   3
ENDBRANCH   1   2
BRANCH   1  25
ATOM     25  C   UNL A   1      32.876  27.759  25.123  1.00  0.00     0.202 C 
BRANCH  25  26
ATOM     26  O   UNL A   1      32.621  29.157  24.973  1.00  0.00    -0.374 OA
BRANCH  26  27
ATOM     27  C   UNL A   1      31.984  29.829  26.059  1.00  0.00     0.202 C 
BRANCH  27  28
ATOM     28  C   UNL A   1      32.864  30.771  26.890  1.00  0.00     0.261 C 
BRANCH  28  29
ATOM     29  O   UNL A   1      33.771  30.073  27.763  1.00  0.00    -0.460 OA
BRANCH  29  30
ATOM     30  C   UNL A   1      34.706  30.854  28.347  1.00  0.00     0.338 C 
ATOM     31  O   UNL A   1      34.544  31.963  28.849  1.00  0.00    -0.246 OA
BRANCH  30  32
ATOM     32  C   UNL A   1      35.987  30.137  28.451  1.00  0.00     0.060 A 
ATOM     33  C   UNL A   1      36.296  29.530  29.675  1.00  0.00     0.016 A 
ATOM     34  C   UNL A   1      36.918  30.154  27.411  1.00  0.00     0.016 A 
ATOM     35  C   UNL A   1      37.561  28.985  29.883  1.00  0.00     0.010 A 
ATOM     36  C   UNL A   1      38.191  29.615  27.625  1.00  0.00     0.010 A 
ATOM     37  C   UNL A   1      38.530  29.062  28.873  1.00  0.00    -0.014 A 
BRANCH  37  38
ATOM     38  C   UNL A   1      39.934  28.694  29.177  1.00  0.00     0.031 A 
ATOM     39  C   UNL A   1      40.770  29.621  30.016  1.00  0.00     0.074 A 
ATOM     40  C   UNL A   1      40.448  27.530  28.742  1.00  0.00     0.049 A 
ATOM     41  N   UNL A   1      42.026  29.519  30.373  1.00  0.00    -0.248 NA
ATOM     42  C   UNL A   1      40.098  30.828  30.526  1.00  0.00     0.031 C 
ATOM     43  C   UNL A   1      39.724  26.527  27.964  1.00  0.00     0.029 A 
ATOM     44  N   UNL A   1      41.704  26.997  28.896  1.00  0.00    -0.354 N 
ATOM     45  C   UNL A   1      42.292  30.640  31.146  1.00  0.00     0.074 A 
ATOM     46  C   UNL A   1      41.079  31.430  31.181  1.00  0.00     0.031 C 
ATOM     47  C   UNL A   1      40.550  25.500  27.703  1.00  0.00     0.029 A 
ATOM     48  C   UNL A   1      41.869  25.790  28.265  1.00  0.00     0.049 A 
ATOM     49  H   UNL A   1      42.417  27.439  29.410  1.00  0.00     0.167 HD
ATOM     50  C   UNL A   1      43.441  30.976  31.781  1.00  0.00     0.037 A 
ATOM     51  C   UNL A   1      42.966  25.020  28.139  1.00  0.00     0.037 A 
ATOM     52  C   UNL A   1      44.649  30.195  31.740  1.00  0.00     0.049 A 
ATOM     53  C   UNL A   1      44.259  25.465  28.777  1.00  0.00     0.074 A 
ATOM     54  C   UNL A   1      45.869  30.456  32.341  1.00  0.00     0.029 A 
ATOM     55  N   UNL A   1      44.790  28.997  31.056  1.00  0.00    -0.354 N 
ATOM     56  N   UNL A   1      44.500  26.522  29.514  1.00  0.00    -0.248 NA
ATOM     57  C   UNL A   1      45.433  24.605  28.562  1.00  0.00     0.031 C 
ATOM     58  C   UNL A   1      46.759  29.438  31.985  1.00  0.00     0.029 A 
ATOM     59  C   UNL A   1      46.081  28.516  31.204  1.00  0.00     0.049 A 
ATOM     60  H   UNL A   1      44.078  28.554  30.540  1.00  0.00     0.167 HD
ATOM     61  C   UNL A   1      45.838  26.436  29.879  1.00  0.00     0.074 A 
ATOM     62  C   UNL A   1      46.353  25.218  29.292  1.00  0.00     0.031 C 
ATOM     63  C   UNL A   1      46.574  27.291  30.631  1.00  0.00     0.037 A 
BRANCH  50  64
ATOM     64  C   UNL A   1      43.453  32.257  32.564  1.00  0.00     0.064 A 
ATOM     65  C   UNL A   1      43.755  33.485  31.956  1.00  0.00     0.173 A 
ATOM     66  C   UNL A   1      43.114  32.264  33.926  1.00  0.00     0.173 A 
ATOM     67  F   UNL A   1      44.096  33.529  30.660  1.00  0.00    -0.203 F 
ATOM     68  C   UNL A   1      43.736  34.669  32.687  1.00  0.00     0.198 A 
ATOM     69  C   UNL A   1      43.070  33.454  34.647  1.00  0.00     0.198 A 
ATOM     70  F   UNL A   1      42.812  31.117  34.553  1.00  0.00    -0.203 F 
ATOM     71  F   UNL A   1      44.065  35.826  32.095  1.00  0.00    -0.200 F 
ATOM     72  C   UNL A   1      43.386  34.655  34.029  1.00  0.00     0.200 A 
ATOM     73  F   UNL A   1      42.720  33.439  35.941  1.00  0.00    -0.200 F 
ATOM     74  F   UNL A   1      43.358  35.797  34.729  1.00  0.00    -0.200 F 
ENDBRANCH  50  64
BRANCH  51  75
ATOM     75  C   UNL A   1      42.907  23.751  27.366  1.00  0.00     0.064 A 
ATOM     76  C   UNL A   1      42.471  22.561  27.965  1.00  0.00     0.173 A 
ATOM     77  C   UNL A   1      43.325  23.694  26.028  1.00  0.00     0.173 A 
ATOM     78  F   UNL A   1      42.087  22.559  29.250  1.00  0.00    -0.203 F 
ATOM     79  C   UNL A   1      42.477  21.358  27.261  1.00  0.00     0.198 A 
ATOM     80  C   UNL A   1      43.302  22.495  25.318  1.00  0.00     0.198 A 
ATOM     81  F   UNL A   1      43.756  24.803  25.410  1.00  0.00    -0.203 F 
ATOM     82  F   UNL A   1      42.108  20.225  27.875  1.00  0.00    -0.200 F 
ATOM     83  C   UNL A   1      42.888  21.327  25.938  1.00  0.00     0.200 A 
ATOM     84  F   UNL A   1      43.690  22.472  24.036  1.00  0.00    -0.200 F 
ATOM     85  F   UNL A   1      42.897  20.169  25.264  1.00  0.00    -0.200 F 
ENDBRANCH  51  75
BRANCH  63  86
ATOM     86  C   UNL A   1      48.000  26.914  30.908  1.00  0.00     0.064 A 
ATOM     87  C   UNL A   1      48.342  26.031  31.944  1.00  0.00     0.173 A 
ATOM     88  C   UNL A   1      49.034  27.412  30.102  1.00  0.00     0.173 A 
ATOM     89  F   UNL A   1      47.392  25.539  32.752  1.00  0.00    -0.203 F 
ATOM     90  C   UNL A   1      49.670  25.683  32.178  1.00  0.00     0.198 A 
ATOM     91  C   UNL A   1      50.359  27.039  30.320  1.00  0.00     0.198 A 
ATOM     92  F   UNL A   1      48.760  28.253  29.093  1.00  0.00    -0.203 F 
ATOM     93  F   UNL A   1      49.979  24.877  33.204  1.00  0.00    -0.200 F 
ATOM     94  C   UNL A   1      50.676  26.182  31.362  1.00  0.00     0.200 A 
ATOM     95  F   UNL A   1      51.326  27.511  29.522  1.00  0.00    -0.200 F 
ATOM     96  F   UNL A   1      51.952  25.841  31.585  1.00  0.00    -0.200 F 
ENDBRANCH  63  86
ENDBRANCH  37  38
ENDBRANCH  30  32
ENDBRANCH  29  30
ENDBRANCH  28  29
ENDBRANCH  27  28
ENDBRANCH  26  27
ENDBRANCH  25  26
ENDBRANCH   1  25
TORSDOF 20
ENDMDL
