MODEL 1
REMARK VINA RESULT:     -12.4      0.000      0.000
REMARK SMILES O=C(OCCOCCOC(=O)c1c(C(=O)N2CCc3ccccc32)cccc1[N+](=O)[O-])c1ccc(-c2c3nc(c(-c4c(F)c(F)c(F)c(F)c4F)c4ccc([nH]4)c(-c4c(F)c(F)c(F)c(F)c4F)c4nc(c(-c5c(F)c(F)c(F)c(F)c5F)c5ccc2[nH]5)C=C4)C=C3)cc1
REMARK SMILES IDX 6 1 5 2 4 3 3 4 2 5 1 6 32 7 33 8 94 9 34 10 93 11 35 12
REMARK SMILES IDX 36 13 37 14 87 15 38 16 92 17 86 18 88 19 39 20 91 21 85 22
REMARK SMILES IDX 84 23 40 25 72 26 52 27 71 28 53 29 56 30 70 31 89 32 54 33
REMARK SMILES IDX 55 34 69 36 90 37 57 38 41 39 42 40 50 41 43 42 44 43 48 44
REMARK SMILES IDX 51 45 45 46 46 47 49 48 47 49 73 50 74 51 82 52 75 53 76 54
REMARK SMILES IDX 80 55 83 56 77 57 78 58 81 59 79 60 58 61 59 62 67 63 60 64
REMARK SMILES IDX 61 65 65 66 68 67 62 68 63 69 66 70 64 71 7 72 8 73 9 74
REMARK SMILES IDX 10 75 11 76 12 77 13 78 28 79 25 80 27 81 26 82 14 83 15 84
REMARK SMILES IDX 16 85 17 86 24 87 18 88 19 89 23 90 20 91 22 92 21 93 29 94
REMARK SMILES IDX 30 95 31 96
REMARK H PARENT 88 24 56 35
REMARK Flexibility Score: inf
ROOT
ATOM      1  O   UNL A   1      31.902  30.743  26.862  1.00  0.00    -0.374 OA
ENDROOT
BRANCH   1   2
ATOM      2  C   UNL A   1      31.672  32.141  26.926  1.00  0.00     0.202 C 
BRANCH   2   3
ATOM      3  C   UNL A   1      32.837  32.835  27.612  1.00  0.00     0.261 C 
BRANCH   3   4
ATOM      4  O   UNL A   1      32.489  34.187  27.907  1.00  0.00    -0.460 OA
BRANCH   4   5
ATOM      5  C   UNL A   1      33.030  34.947  28.885  1.00  0.00     0.338 C 
ATOM      6  O   UNL A   1      32.502  36.027  29.149  1.00  0.00    -0.246 OA
BRANCH   5   7
ATOM      7  C   UNL A   1      34.232  34.556  29.685  1.00  0.00     0.060 A 
ATOM      8  C   UNL A   1      34.206  33.894  30.916  1.00  0.00     0.016 A 
ATOM      9  C   UNL A   1      35.476  34.736  29.066  1.00  0.00     0.016 A 
ATOM     10  C   UNL A   1      35.350  33.380  31.502  1.00  0.00     0.010 A 
ATOM     11  C   UNL A   1      36.632  34.191  29.626  1.00  0.00     0.010 A 
ATOM     12  C   UNL A   1      36.557  33.482  30.831  1.00  0.00    -0.014 A 
BRANCH  12  13
ATOM     13  C   UNL A   1      37.746  32.881  31.446  1.00  0.00     0.031 A 
ATOM     14  C   UNL A   1      38.412  31.768  30.723  1.00  0.00     0.074 A 
ATOM     15  C   UNL A   1      38.222  33.382  32.598  1.00  0.00     0.049 A 
ATOM     16  N   UNL A   1      39.331  30.943  31.137  1.00  0.00    -0.248 NA
ATOM     17  C   UNL A   1      37.971  31.549  29.335  1.00  0.00     0.031 C 
ATOM     18  C   UNL A   1      37.697  34.566  33.285  1.00  0.00     0.029 A 
ATOM     19  N   UNL A   1      39.250  32.963  33.396  1.00  0.00    -0.354 N 
ATOM     20  C   UNL A   1      39.538  30.068  30.082  1.00  0.00     0.074 A 
ATOM     21  C   UNL A   1      38.654  30.464  29.008  1.00  0.00     0.031 C 
ATOM     22  C   UNL A   1      38.402  34.772  34.408  1.00  0.00     0.029 A 
ATOM     23  C   UNL A   1      39.357  33.682  34.562  1.00  0.00     0.049 A 
ATOM     24  H   UNL A   1      39.852  32.221  33.160  1.00  0.00     0.167 HD
ATOM     25  C   UNL A   1      40.383  29.014  30.046  1.00  0.00     0.037 A 
ATOM     26  C   UNL A   1      40.098  33.431  35.656  1.00  0.00     0.037 A 
ATOM     27  C   UNL A   1      41.235  28.672  31.153  1.00  0.00     0.049 A 
ATOM     28  C   UNL A   1      40.967  32.204  35.634  1.00  0.00     0.074 A 
ATOM     29  C   UNL A   1      42.111  27.613  31.281  1.00  0.00     0.029 A 
ATOM     30  N   UNL A   1      41.301  29.400  32.338  1.00  0.00    -0.354 N 
ATOM     31  N   UNL A   1      41.121  31.321  34.673  1.00  0.00    -0.248 NA
ATOM     32  C   UNL A   1      41.750  31.920  36.841  1.00  0.00     0.031 C 
ATOM     33  C   UNL A   1      42.658  27.665  32.567  1.00  0.00     0.029 A 
ATOM     34  C   UNL A   1      42.183  28.798  33.216  1.00  0.00     0.049 A 
ATOM     35  H   UNL A   1      40.795  30.224  32.524  1.00  0.00     0.167 HD
ATOM     36  C   UNL A   1      42.031  30.390  35.145  1.00  0.00     0.074 A 
ATOM     37  C   UNL A   1      42.400  30.821  36.482  1.00  0.00     0.031 C 
ATOM     38  C   UNL A   1      42.522  29.281  34.535  1.00  0.00     0.037 A 
BRANCH  25  39
ATOM     39  C   UNL A   1      40.315  28.134  28.833  1.00  0.00     0.064 A 
ATOM     40  C   UNL A   1      39.578  26.939  28.809  1.00  0.00     0.173 A 
ATOM     41  C   UNL A   1      41.087  28.447  27.703  1.00  0.00     0.173 A 
ATOM     42  F   UNL A   1      38.848  26.575  29.874  1.00  0.00    -0.203 F 
ATOM     43  C   UNL A   1      39.666  26.064  27.729  1.00  0.00     0.198 A 
ATOM     44  C   UNL A   1      41.142  27.588  26.608  1.00  0.00     0.198 A 
ATOM     45  F   UNL A   1      41.819  29.570  27.672  1.00  0.00    -0.203 F 
ATOM     46  F   UNL A   1      39.034  24.882  27.772  1.00  0.00    -0.200 F 
ATOM     47  C   UNL A   1      40.447  26.389  26.630  1.00  0.00     0.200 A 
ATOM     48  F   UNL A   1      41.895  27.906  25.547  1.00  0.00    -0.200 F 
ATOM     49  F   UNL A   1      40.550  25.534  25.602  1.00  0.00    -0.200 F 
ENDBRANCH  25  39
BRANCH  26  50
ATOM     50  C   UNL A   1      39.978  34.308  36.852  1.00  0.00     0.064 A 
ATOM     51  C   UNL A   1      39.088  34.011  37.891  1.00  0.00     0.173 A 
ATOM     52  C   UNL A   1      40.784  35.451  36.999  1.00  0.00     0.173 A 
ATOM     53  F   UNL A   1      38.281  32.944  37.796  1.00  0.00    -0.203 F 
ATOM     54  C   UNL A   1      39.003  34.821  39.024  1.00  0.00     0.198 A 
ATOM     55  C   UNL A   1      40.721  36.242  38.144  1.00  0.00     0.198 A 
ATOM     56  F   UNL A   1      41.656  35.785  36.036  1.00  0.00    -0.203 F 
ATOM     57  F   UNL A   1      38.117  34.532  39.987  1.00  0.00    -0.200 F 
ATOM     58  C   UNL A   1      39.826  35.930  39.154  1.00  0.00     0.200 A 
ATOM     59  F   UNL A   1      41.531  37.302  38.270  1.00  0.00    -0.200 F 
ATOM     60  F   UNL A   1      39.753  36.700  40.248  1.00  0.00    -0.200 F 
ENDBRANCH  26  50
BRANCH  38  61
ATOM     61  C   UNL A   1      43.546  28.489  35.289  1.00  0.00     0.064 A 
ATOM     62  C   UNL A   1      43.183  27.467  36.175  1.00  0.00     0.173 A 
ATOM     63  C   UNL A   1      44.911  28.694  35.033  1.00  0.00     0.173 A 
ATOM     64  F   UNL A   1      41.890  27.246  36.460  1.00  0.00    -0.203 F 
ATOM     65  C   UNL A   1      44.153  26.678  36.784  1.00  0.00     0.198 A 
ATOM     66  C   UNL A   1      45.876  27.881  35.618  1.00  0.00     0.198 A 
ATOM     67  F   UNL A   1      45.303  29.657  34.186  1.00  0.00    -0.203 F 
ATOM     68  F   UNL A   1      43.790  25.723  37.650  1.00  0.00    -0.200 F 
ATOM     69  C   UNL A   1      45.495  26.876  36.494  1.00  0.00     0.200 A 
ATOM     70  F   UNL A   1      47.169  28.060  35.319  1.00  0.00    -0.200 F 
ATOM     71  F   UNL A   1      46.426  26.094  37.058  1.00  0.00    -0.200 F 
ENDBRANCH  38  61
ENDBRANCH  12  13
ENDBRANCH   5   7
ENDBRANCH   4   5
ENDBRANCH   3   4
ENDBRANCH   2   3
ENDBRANCH   1   2
BRANCH   1  72
ATOM     72  C   UNL A   1      33.261  30.317  26.816  1.00  0.00     0.202 C 
BRANCH  72  73
ATOM     73  C   UNL A   1      33.418  29.436  25.580  1.00  0.00     0.261 C 
BRANCH  73  74
ATOM     74  O   UNL A   1      32.248  29.612  24.760  1.00  0.00    -0.459 OA
BRANCH  74  75
ATOM     75  C   UNL A   1      32.082  28.771  23.704  1.00  0.00     0.346 C 
ATOM     76  O   UNL A   1      32.910  28.593  22.845  1.00  0.00    -0.246 OA
BRANCH  75  77
ATOM     77  C   UNL A   1      30.769  28.050  23.842  1.00  0.00     0.150 A 
ATOM     78  C   UNL A   1      30.644  26.840  24.589  1.00  0.00     0.061 A 
ATOM     79  C   UNL A   1      29.593  28.553  23.214  1.00  0.00     0.284 A 
ATOM     80  C   UNL A   1      29.421  26.149  24.490  1.00  0.00     0.015 A 
ATOM     81  C   UNL A   1      28.362  27.885  23.232  1.00  0.00     0.086 A 
ATOM     82  C   UNL A   1      28.287  26.663  23.859  1.00  0.00     0.008 A 
BRANCH  78  83
ATOM     83  C   UNL A   1      31.734  26.216  25.473  1.00  0.00     0.259 C 
ATOM     84  O   UNL A   1      31.895  26.644  26.611  1.00  0.00    -0.269 OA
BRANCH  83  85
ATOM     85  N   UNL A   1      32.479  25.106  25.008  1.00  0.00    -0.308 N 
ATOM     86  C   UNL A   1      33.459  25.252  23.910  1.00  0.00     0.131 C 
ATOM     87  C   UNL A   1      32.880  23.995  25.754  1.00  0.00     0.047 A 
ATOM     88  C   UNL A   1      34.683  24.383  24.311  1.00  0.00     0.059 C 
ATOM     89  C   UNL A   1      34.239  23.803  25.610  1.00  0.00    -0.022 A 
ATOM     90  C   UNL A   1      32.130  23.187  26.577  1.00  0.00     0.026 A 
ATOM     91  C   UNL A   1      34.940  23.166  26.614  1.00  0.00     0.006 A 
ATOM     92  C   UNL A   1      32.809  22.462  27.549  1.00  0.00     0.002 A 
ATOM     93  C   UNL A   1      34.206  22.546  27.632  1.00  0.00     0.000 A 
ENDBRANCH  83  85
ENDBRANCH  78  83
BRANCH  79  94
ATOM     94  N   UNL A   1      29.532  29.834  22.533  1.00  0.00     0.063 N 
ATOM     95  O   UNL A   1      29.674  29.821  21.304  1.00  0.00    -0.258 OA
ATOM     96  O   UNL A   1      29.235  30.817  23.228  1.00  0.00    -0.258 OA
ENDBRANCH  79  94
ENDBRANCH  75  77
ENDBRANCH  74  75
ENDBRANCH  73  74
ENDBRANCH  72  73
ENDBRANCH   1  72
TORSDOF 17
ENDMDL
MODEL 2
REMARK VINA RESULT:     -12.3      0.780      2.334
REMARK SMILES O=C(OCCOCCOC(=O)c1c(C(=O)N2CCc3ccccc32)cccc1[N+](=O)[O-])c1ccc(-c2c3nc(c(-c4c(F)c(F)c(F)c(F)c4F)c4ccc([nH]4)c(-c4c(F)c(F)c(F)c(F)c4F)c4nc(c(-c5c(F)c(F)c(F)c(F)c5F)c5ccc2[nH]5)C=C4)C=C3)cc1
REMARK SMILES IDX 6 1 5 2 4 3 3 4 2 5 1 6 32 7 33 8 94 9 34 10 93 11 35 12
REMARK SMILES IDX 36 13 37 14 87 15 38 16 92 17 86 18 88 19 39 20 91 21 85 22
REMARK SMILES IDX 84 23 40 25 72 26 52 27 71 28 53 29 56 30 70 31 89 32 54 33
REMARK SMILES IDX 55 34 69 36 90 37 57 38 41 39 42 40 50 41 43 42 44 43 48 44
REMARK SMILES IDX 51 45 45 46 46 47 49 48 47 49 73 50 74 51 82 52 75 53 76 54
REMARK SMILES IDX 80 55 83 56 77 57 78 58 81 59 79 60 58 61 59 62 67 63 60 64
REMARK SMILES IDX 61 65 65 66 68 67 62 68 63 69 66 70 64 71 7 72 8 73 9 74
REMARK SMILES IDX 10 75 11 76 12 77 13 78 28 79 25 80 27 81 26 82 14 83 15 84
REMARK SMILES IDX 16 85 17 86 24 87 18 88 19 89 23 90 20 91 22 92 21 93 29 94
REMARK SMILES IDX 30 95 31 96
REMARK H PARENT 88 24 56 35
REMARK Flexibility Score: inf
ROOT
ATOM      1  O   UNL A   1      31.586  31.174  26.818  1.00  0.00    -0.374 OA
ENDROOT
BRANCH   1   2
ATOM      2  C   UNL A   1      31.424  32.582  26.872  1.00  0.00     0.202 C 
BRANCH   2   3
ATOM      3  C   UNL A   1      32.720  33.246  27.307  1.00  0.00     0.261 C 
BRANCH   3   4
ATOM      4  O   UNL A   1      32.436  34.337  28.181  1.00  0.00    -0.460 OA
BRANCH   4   5
ATOM      5  C   UNL A   1      33.221  34.763  29.195  1.00  0.00     0.338 C 
ATOM      6  O   UNL A   1      32.885  35.772  29.814  1.00  0.00    -0.246 OA
BRANCH   5   7
ATOM      7  C   UNL A   1      34.477  34.076  29.630  1.00  0.00     0.060 A 
ATOM      8  C   UNL A   1      35.770  34.419  29.226  1.00  0.00     0.016 A 
ATOM      9  C   UNL A   1      34.342  33.114  30.639  1.00  0.00     0.016 A 
ATOM     10  C   UNL A   1      36.897  33.880  29.820  1.00  0.00     0.010 A 
ATOM     11  C   UNL A   1      35.468  32.589  31.273  1.00  0.00     0.010 A 
ATOM     12  C   UNL A   1      36.747  33.003  30.882  1.00  0.00    -0.014 A 
BRANCH  12  13
ATOM     13  C   UNL A   1      37.956  32.487  31.533  1.00  0.00     0.031 A 
ATOM     14  C   UNL A   1      38.721  31.423  30.832  1.00  0.00     0.074 A 
ATOM     15  C   UNL A   1      38.361  33.019  32.698  1.00  0.00     0.049 A 
ATOM     16  N   UNL A   1      39.682  30.664  31.274  1.00  0.00    -0.248 NA
ATOM     17  C   UNL A   1      38.338  31.175  29.432  1.00  0.00     0.031 C 
ATOM     18  C   UNL A   1      37.734  34.163  33.367  1.00  0.00     0.029 A 
ATOM     19  N   UNL A   1      39.392  32.673  33.528  1.00  0.00    -0.354 N 
ATOM     20  C   UNL A   1      39.981  29.807  30.228  1.00  0.00     0.074 A 
ATOM     21  C   UNL A   1      39.105  30.141  29.128  1.00  0.00     0.031 C 
ATOM     22  C   UNL A   1      38.389  34.417  34.510  1.00  0.00     0.029 A 
ATOM     23  C   UNL A   1      39.413  33.397  34.695  1.00  0.00     0.049 A 
ATOM     24  H   UNL A   1      40.051  31.975  33.311  1.00  0.00     0.167 HD
ATOM     25  C   UNL A   1      40.899  28.815  30.219  1.00  0.00     0.037 A 
ATOM     26  C   UNL A   1      40.136  33.198  35.811  1.00  0.00     0.037 A 
ATOM     27  C   UNL A   1      41.739  28.533  31.351  1.00  0.00     0.049 A 
ATOM     28  C   UNL A   1      41.090  32.034  35.818  1.00  0.00     0.074 A 
ATOM     29  C   UNL A   1      42.683  27.538  31.507  1.00  0.00     0.029 A 
ATOM     30  N   UNL A   1      41.718  29.263  32.537  1.00  0.00    -0.354 N 
ATOM     31  N   UNL A   1      41.334  31.165  34.863  1.00  0.00    -0.248 NA
ATOM     32  C   UNL A   1      41.854  31.805  37.048  1.00  0.00     0.031 C 
ATOM     33  C   UNL A   1      43.186  27.627  32.810  1.00  0.00     0.029 A 
ATOM     34  C   UNL A   1      42.613  28.724  33.442  1.00  0.00     0.049 A 
ATOM     35  H   UNL A   1      41.150  30.049  32.707  1.00  0.00     0.167 HD
ATOM     36  C   UNL A   1      42.292  30.300  35.363  1.00  0.00     0.074 A 
ATOM     37  C   UNL A   1      42.590  30.755  36.710  1.00  0.00     0.031 C 
ATOM     38  C   UNL A   1      42.878  29.229  34.770  1.00  0.00     0.037 A 
BRANCH  25  39
ATOM     39  C   UNL A   1      40.929  27.933  29.006  1.00  0.00     0.064 A 
ATOM     40  C   UNL A   1      41.760  28.195  27.904  1.00  0.00     0.173 A 
ATOM     41  C   UNL A   1      40.033  26.858  28.906  1.00  0.00     0.173 A 
ATOM     42  F   UNL A   1      42.612  29.230  27.932  1.00  0.00    -0.203 F 
ATOM     43  C   UNL A   1      41.647  27.454  26.729  1.00  0.00     0.198 A 
ATOM     44  C   UNL A   1      39.951  26.095  27.744  1.00  0.00     0.198 A 
ATOM     45  F   UNL A   1      39.209  26.566  29.922  1.00  0.00    -0.203 F 
ATOM     46  F   UNL A   1      42.378  27.788  25.656  1.00  0.00    -0.200 F 
ATOM     47  C   UNL A   1      40.744  26.406  26.650  1.00  0.00     0.200 A 
ATOM     48  F   UNL A   1      39.079  25.080  27.671  1.00  0.00    -0.200 F 
ATOM     49  F   UNL A   1      40.619  25.710  25.511  1.00  0.00    -0.200 F 
ENDBRANCH  25  39
BRANCH  26  50
ATOM     50  C   UNL A   1      39.920  34.064  37.002  1.00  0.00     0.064 A 
ATOM     51  C   UNL A   1      40.557  35.305  37.130  1.00  0.00     0.173 A 
ATOM     52  C   UNL A   1      39.036  33.683  38.027  1.00  0.00     0.173 A 
ATOM     53  F   UNL A   1      41.426  35.710  36.192  1.00  0.00    -0.203 F 
ATOM     54  C   UNL A   1      40.326  36.125  38.234  1.00  0.00     0.198 A 
ATOM     55  C   UNL A   1      38.782  34.516  39.114  1.00  0.00     0.198 A 
ATOM     56  F   UNL A   1      38.397  32.506  37.958  1.00  0.00    -0.203 F 
ATOM     57  F   UNL A   1      40.976  37.291  38.347  1.00  0.00    -0.200 F 
ATOM     58  C   UNL A   1      39.431  35.735  39.220  1.00  0.00     0.200 A 
ATOM     59  F   UNL A   1      37.903  34.140  40.053  1.00  0.00    -0.200 F 
ATOM     60  F   UNL A   1      39.200  36.530  40.273  1.00  0.00    -0.200 F 
ENDBRANCH  26  50
BRANCH  38  61
ATOM     61  C   UNL A   1      43.932  28.510  35.556  1.00  0.00     0.064 A 
ATOM     62  C   UNL A   1      45.286  28.853  35.458  1.00  0.00     0.173 A 
ATOM     63  C   UNL A   1      43.558  27.538  36.496  1.00  0.00     0.173 A 
ATOM     64  F   UNL A   1      45.691  29.767  34.562  1.00  0.00    -0.203 F 
ATOM     65  C   UNL A   1      46.233  28.242  36.273  1.00  0.00     0.198 A 
ATOM     66  C   UNL A   1      44.503  26.954  37.332  1.00  0.00     0.198 A 
ATOM     67  F   UNL A   1      42.271  27.184  36.628  1.00  0.00    -0.203 F 
ATOM     68  F   UNL A   1      47.529  28.561  36.147  1.00  0.00    -0.200 F 
ATOM     69  C   UNL A   1      45.839  27.306  37.218  1.00  0.00     0.200 A 
ATOM     70  F   UNL A   1      44.117  26.067  38.258  1.00  0.00    -0.200 F 
ATOM     71  F   UNL A   1      46.750  26.741  38.024  1.00  0.00    -0.200 F 
ENDBRANCH  38  61
ENDBRANCH  12  13
ENDBRANCH   5   7
ENDBRANCH   4   5
ENDBRANCH   3   4
ENDBRANCH   2   3
ENDBRANCH   1   2
BRANCH   1  72
ATOM     72  C   UNL A   1      32.877  30.664  27.139  1.00  0.00     0.202 C 
BRANCH  72  73
ATOM     73  C   UNL A   1      33.270  29.692  26.030  1.00  0.00     0.261 C 
BRANCH  73  74
ATOM     74  O   UNL A   1      32.141  29.548  25.149  1.00  0.00    -0.459 OA
BRANCH  74  75
ATOM     75  C   UNL A   1      32.162  28.523  24.256  1.00  0.00     0.346 C 
ATOM     76  O   UNL A   1      33.143  28.179  23.644  1.00  0.00    -0.246 OA
BRANCH  75  77
ATOM     77  C   UNL A   1      30.816  27.850  24.237  1.00  0.00     0.150 A 
ATOM     78  C   UNL A   1      30.536  26.694  25.028  1.00  0.00     0.061 A 
ATOM     79  C   UNL A   1      29.767  28.344  23.410  1.00  0.00     0.284 A 
ATOM     80  C   UNL A   1      29.316  26.033  24.788  1.00  0.00     0.015 A 
ATOM     81  C   UNL A   1      28.523  27.714  23.282  1.00  0.00     0.086 A 
ATOM     82  C   UNL A   1      28.309  26.537  23.962  1.00  0.00     0.008 A 
BRANCH  78  83
ATOM     83  C   UNL A   1      31.458  26.099  26.103  1.00  0.00     0.259 C 
ATOM     84  O   UNL A   1      31.685  26.748  27.118  1.00  0.00    -0.269 OA
BRANCH  83  85
ATOM     85  N   UNL A   1      31.963  24.785  25.959  1.00  0.00    -0.308 N 
ATOM     86  C   UNL A   1      31.312  23.640  26.631  1.00  0.00     0.131 C 
ATOM     87  C   UNL A   1      32.639  24.265  24.853  1.00  0.00     0.047 A 
ATOM     88  C   UNL A   1      31.330  22.474  25.605  1.00  0.00     0.059 C 
ATOM     89  C   UNL A   1      32.033  23.093  24.446  1.00  0.00    -0.022 A 
ATOM     90  C   UNL A   1      33.712  24.787  24.168  1.00  0.00     0.026 A 
ATOM     91  C   UNL A   1      32.144  22.700  23.127  1.00  0.00     0.006 A 
ATOM     92  C   UNL A   1      33.908  24.352  22.864  1.00  0.00     0.002 A 
ATOM     93  C   UNL A   1      33.049  23.390  22.313  1.00  0.00     0.000 A 
ENDBRANCH  83  85
ENDBRANCH  78  83
BRANCH  79  94
ATOM     94  N   UNL A   1      29.857  29.579  22.651  1.00  0.00     0.063 N 
ATOM     95  O   UNL A   1      30.211  29.485  21.470  1.00  0.00    -0.258 OA
ATOM     96  O   UNL A   1      29.466  30.608  23.221  1.00  0.00    -0.258 OA
ENDBRANCH  79  94
ENDBRANCH  75  77
ENDBRANCH  74  75
ENDBRANCH  73  74
ENDBRANCH  72  73
ENDBRANCH   1  72
TORSDOF 17
ENDMDL
MODEL 3
REMARK VINA RESULT:     -12.3      4.668      8.992
REMARK SMILES O=C(OCCOCCOC(=O)c1c(C(=O)N2CCc3ccccc32)cccc1[N+](=O)[O-])c1ccc(-c2c3nc(c(-c4c(F)c(F)c(F)c(F)c4F)c4ccc([nH]4)c(-c4c(F)c(F)c(F)c(F)c4F)c4nc(c(-c5c(F)c(F)c(F)c(F)c5F)c5ccc2[nH]5)C=C4)C=C3)cc1
REMARK SMILES IDX 6 1 5 2 4 3 3 4 2 5 1 6 32 7 33 8 94 9 34 10 93 11 35 12
REMARK SMILES IDX 36 13 37 14 87 15 38 16 92 17 86 18 88 19 39 20 91 21 85 22
REMARK SMILES IDX 84 23 40 25 72 26 52 27 71 28 53 29 56 30 70 31 89 32 54 33
REMARK SMILES IDX 55 34 69 36 90 37 57 38 41 39 42 40 50 41 43 42 44 43 48 44
REMARK SMILES IDX 51 45 45 46 46 47 49 48 47 49 73 50 74 51 82 52 75 53 76 54
REMARK SMILES IDX 80 55 83 56 77 57 78 58 81 59 79 60 58 61 59 62 67 63 60 64
REMARK SMILES IDX 61 65 65 66 68 67 62 68 63 69 66 70 64 71 7 72 8 73 9 74
REMARK SMILES IDX 10 75 11 76 12 77 13 78 28 79 25 80 27 81 26 82 14 83 15 84
REMARK SMILES IDX 16 85 17 86 24 87 18 88 19 89 23 90 20 91 22 92 21 93 29 94
REMARK SMILES IDX 30 95 31 96
REMARK H PARENT 88 24 56 35
REMARK Flexibility Score: inf
ROOT
ATOM      1  O   UNL A   1      33.819  31.370  27.748  1.00  0.00    -0.374 OA
ENDROOT
BRANCH   1   2
ATOM      2  C   UNL A   1      33.751  32.787  27.768  1.00  0.00     0.202 C 
BRANCH   2   3
ATOM      3  C   UNL A   1      34.352  33.325  29.056  1.00  0.00     0.261 C 
BRANCH   3   4
ATOM      4  O   UNL A   1      34.266  32.335  30.080  1.00  0.00    -0.460 OA
BRANCH   4   5
ATOM      5  C   UNL A   1      35.273  31.953  30.897  1.00  0.00     0.338 C 
ATOM      6  O   UNL A   1      35.224  32.279  32.082  1.00  0.00    -0.246 OA
BRANCH   5   7
ATOM      7  C   UNL A   1      36.449  31.141  30.455  1.00  0.00     0.060 A 
ATOM      8  C   UNL A   1      36.965  31.100  29.157  1.00  0.00     0.016 A 
ATOM      9  C   UNL A   1      37.173  30.494  31.466  1.00  0.00     0.016 A 
ATOM     10  C   UNL A   1      38.173  30.493  28.861  1.00  0.00     0.010 A 
ATOM     11  C   UNL A   1      38.409  29.910  31.190  1.00  0.00     0.010 A 
ATOM     12  C   UNL A   1      38.922  29.943  29.888  1.00  0.00    -0.014 A 
BRANCH  12  13
ATOM     13  C   UNL A   1      40.225  29.353  29.559  1.00  0.00     0.031 A 
ATOM     14  C   UNL A   1      41.425  30.221  29.666  1.00  0.00     0.074 A 
ATOM     15  C   UNL A   1      40.300  28.053  29.227  1.00  0.00     0.049 A 
ATOM     16  N   UNL A   1      42.639  30.014  29.240  1.00  0.00    -0.248 NA
ATOM     17  C   UNL A   1      41.225  31.512  30.344  1.00  0.00     0.031 C 
ATOM     18  C   UNL A   1      39.176  27.111  29.243  1.00  0.00     0.029 A 
ATOM     19  N   UNL A   1      41.362  27.297  28.814  1.00  0.00    -0.354 N 
ATOM     20  C   UNL A   1      43.335  31.173  29.545  1.00  0.00     0.074 A 
ATOM     21  C   UNL A   1      42.412  32.076  30.195  1.00  0.00     0.031 C 
ATOM     22  C   UNL A   1      39.608  25.905  28.846  1.00  0.00     0.029 A 
ATOM     23  C   UNL A   1      41.009  26.017  28.461  1.00  0.00     0.049 A 
ATOM     24  H   UNL A   1      42.285  27.635  28.774  1.00  0.00     0.167 HD
ATOM     25  C   UNL A   1      44.630  31.445  29.273  1.00  0.00     0.037 A 
ATOM     26  C   UNL A   1      41.731  25.076  27.827  1.00  0.00     0.037 A 
ATOM     27  C   UNL A   1      45.495  30.500  28.619  1.00  0.00     0.049 A 
ATOM     28  C   UNL A   1      43.145  25.427  27.451  1.00  0.00     0.074 A 
ATOM     29  C   UNL A   1      46.814  30.647  28.241  1.00  0.00     0.029 A 
ATOM     30  N   UNL A   1      45.103  29.219  28.241  1.00  0.00    -0.354 N 
ATOM     31  N   UNL A   1      43.799  26.547  27.664  1.00  0.00    -0.248 NA
ATOM     32  C   UNL A   1      43.917  24.407  26.735  1.00  0.00     0.031 C 
ATOM     33  C   UNL A   1      47.199  29.478  27.575  1.00  0.00     0.029 A 
ATOM     34  C   UNL A   1      46.147  28.572  27.606  1.00  0.00     0.049 A 
ATOM     35  H   UNL A   1      44.213  28.829  28.402  1.00  0.00     0.167 HD
ATOM     36  C   UNL A   1      45.064  26.362  27.132  1.00  0.00     0.074 A 
ATOM     37  C   UNL A   1      45.086  25.016  26.588  1.00  0.00     0.031 C 
ATOM     38  C   UNL A   1      46.115  27.221  27.094  1.00  0.00     0.037 A 
BRANCH  25  39
ATOM     39  C   UNL A   1      45.108  32.834  29.580  1.00  0.00     0.064 A 
ATOM     40  C   UNL A   1      44.981  33.893  28.667  1.00  0.00     0.173 A 
ATOM     41  C   UNL A   1      45.797  33.083  30.776  1.00  0.00     0.173 A 
ATOM     42  F   UNL A   1      44.360  33.703  27.494  1.00  0.00    -0.203 F 
ATOM     43  C   UNL A   1      45.578  35.128  28.913  1.00  0.00     0.198 A 
ATOM     44  C   UNL A   1      46.360  34.330  31.037  1.00  0.00     0.198 A 
ATOM     45  F   UNL A   1      45.958  32.107  31.682  1.00  0.00    -0.203 F 
ATOM     46  F   UNL A   1      45.531  36.091  27.982  1.00  0.00    -0.200 F 
ATOM     47  C   UNL A   1      46.267  35.345  30.097  1.00  0.00     0.200 A 
ATOM     48  F   UNL A   1      47.022  34.538  32.183  1.00  0.00    -0.200 F 
ATOM     49  F   UNL A   1      46.862  36.524  30.322  1.00  0.00    -0.200 F 
ENDBRANCH  25  39
BRANCH  26  50
ATOM     50  C   UNL A   1      41.102  23.779  27.458  1.00  0.00     0.064 A 
ATOM     51  C   UNL A   1      40.055  23.712  26.529  1.00  0.00     0.173 A 
ATOM     52  C   UNL A   1      41.560  22.567  28.003  1.00  0.00     0.173 A 
ATOM     53  F   UNL A   1      39.565  24.839  25.991  1.00  0.00    -0.203 F 
ATOM     54  C   UNL A   1      39.490  22.490  26.164  1.00  0.00     0.198 A 
ATOM     55  C   UNL A   1      41.016  21.345  27.616  1.00  0.00     0.198 A 
ATOM     56  F   UNL A   1      42.559  22.569  28.897  1.00  0.00    -0.203 F 
ATOM     57  F   UNL A   1      38.468  22.458  25.299  1.00  0.00    -0.200 F 
ATOM     58  C   UNL A   1      39.977  21.307  26.700  1.00  0.00     0.200 A 
ATOM     59  F   UNL A   1      41.503  20.205  28.125  1.00  0.00    -0.200 F 
ATOM     60  F   UNL A   1      39.442  20.133  26.339  1.00  0.00    -0.200 F 
ENDBRANCH  26  50
BRANCH  38  61
ATOM     61  C   UNL A   1      47.387  26.710  26.489  1.00  0.00     0.064 A 
ATOM     62  C   UNL A   1      47.718  26.956  25.151  1.00  0.00     0.173 A 
ATOM     63  C   UNL A   1      48.329  26.057  27.299  1.00  0.00     0.173 A 
ATOM     64  F   UNL A   1      46.842  27.564  24.337  1.00  0.00    -0.203 F 
ATOM     65  C   UNL A   1      48.951  26.561  24.641  1.00  0.00     0.198 A 
ATOM     66  C   UNL A   1      49.573  25.694  26.794  1.00  0.00     0.198 A 
ATOM     67  F   UNL A   1      48.057  25.808  28.588  1.00  0.00    -0.203 F 
ATOM     68  F   UNL A   1      49.240  26.779  23.351  1.00  0.00    -0.200 F 
ATOM     69  C   UNL A   1      49.881  25.945  25.466  1.00  0.00     0.200 A 
ATOM     70  F   UNL A   1      50.477  25.119  27.598  1.00  0.00    -0.200 F 
ATOM     71  F   UNL A   1      51.079  25.592  24.980  1.00  0.00    -0.200 F 
ENDBRANCH  38  61
ENDBRANCH  12  13
ENDBRANCH   5   7
ENDBRANCH   4   5
ENDBRANCH   3   4
ENDBRANCH   2   3
ENDBRANCH   1   2
BRANCH   1  72
ATOM     72  C   UNL A   1      32.681  30.681  27.238  1.00  0.00     0.202 C 
BRANCH  72  73
ATOM     73  C   UNL A   1      33.116  29.974  25.957  1.00  0.00     0.261 C 
BRANCH  73  74
ATOM     74  O   UNL A   1      31.963  29.855  25.104  1.00  0.00    -0.459 OA
BRANCH  74  75
ATOM     75  C   UNL A   1      32.018  28.955  24.087  1.00  0.00     0.346 C 
ATOM     76  O   UNL A   1      32.985  28.784  23.385  1.00  0.00    -0.246 OA
BRANCH  75  77
ATOM     77  C   UNL A   1      30.738  28.164  24.050  1.00  0.00     0.150 A 
ATOM     78  C   UNL A   1      30.617  26.890  24.684  1.00  0.00     0.061 A 
ATOM     79  C   UNL A   1      29.594  28.663  23.363  1.00  0.00     0.284 A 
ATOM     80  C   UNL A   1      29.445  26.154  24.423  1.00  0.00     0.015 A 
ATOM     81  C   UNL A   1      28.404  27.939  23.219  1.00  0.00     0.086 A 
ATOM     82  C   UNL A   1      28.342  26.666  23.737  1.00  0.00     0.008 A 
BRANCH  78  83
ATOM     83  C   UNL A   1      31.661  26.246  25.608  1.00  0.00     0.259 C 
ATOM     84  O   UNL A   1      31.741  26.626  26.771  1.00  0.00    -0.269 OA
BRANCH  83  85
ATOM     85  N   UNL A   1      32.455  25.171  25.144  1.00  0.00    -0.308 N 
ATOM     86  C   UNL A   1      33.476  25.375  24.093  1.00  0.00     0.131 C 
ATOM     87  C   UNL A   1      32.854  24.049  25.874  1.00  0.00     0.047 A 
ATOM     88  C   UNL A   1      34.706  24.527  24.522  1.00  0.00     0.059 C 
ATOM     89  C   UNL A   1      34.223  23.897  25.783  1.00  0.00    -0.022 A 
ATOM     90  C   UNL A   1      32.093  23.197  26.641  1.00  0.00     0.026 A 
ATOM     91  C   UNL A   1      34.898  23.249  26.798  1.00  0.00     0.006 A 
ATOM     92  C   UNL A   1      32.750  22.462  27.619  1.00  0.00     0.002 A 
ATOM     93  C   UNL A   1      34.139  22.580  27.765  1.00  0.00     0.000 A 
ENDBRANCH  83  85
ENDBRANCH  78  83
BRANCH  79  94
ATOM     94  N   UNL A   1      29.521  29.992  22.784  1.00  0.00     0.063 N 
ATOM     95  O   UNL A   1      29.631  30.073  21.555  1.00  0.00    -0.258 OA
ATOM     96  O   UNL A   1      29.247  30.920  23.560  1.00  0.00    -0.258 OA
ENDBRANCH  79  94
ENDBRANCH  75  77
ENDBRANCH  74  75
ENDBRANCH  73  74
ENDBRANCH  72  73
ENDBRANCH   1  72
TORSDOF 17
ENDMDL
