MODEL 1
REMARK VINA RESULT:     -10.4      0.000      0.000
REMARK SMILES O=C(CCCN1C(=O)C(=O)/C(=C(\[O-])c2ccccc2)[C@H]1c1ccc([N+](=O)[O-])cc1)OCCOCCOC(=O)c1ccc(-c2c3nc(c(-c4c(F)c(F)c(F)c(F)c4F)c4ccc([nH]4)c(-c4c(F)c(F)c(F)c(F)c4F)c4nc(c(-c5c(F)c(F)c(F)c(F)c5F)c5ccc2[nH]5)C=C4)C=C3)cc1
REMARK SMILES IDX 31 1 30 2 2 3 1 4 3 5 4 6 5 7 6 8 7 9 20 10 8 11 9 12 11 13
REMARK SMILES IDX 10 14 12 15 13 16 21 17 22 18 29 19 23 20 28 21 24 22 25 23
REMARK SMILES IDX 26 24 27 25 14 26 15 27 19 28 16 29 18 30 17 31 32 32 33 33
REMARK SMILES IDX 34 34 35 35 36 36 37 37 38 38 39 39 40 40 101 41 41 42
REMARK SMILES IDX 100 43 42 44 43 45 44 46 94 47 45 48 99 49 93 50 95 51 46 52
REMARK SMILES IDX 98 53 92 54 91 55 47 57 79 58 59 59 78 60 60 61 63 62 77 63
REMARK SMILES IDX 96 64 61 65 62 66 76 68 97 69 64 70 48 71 49 72 57 73 50 74
REMARK SMILES IDX 51 75 55 76 58 77 52 78 53 79 56 80 54 81 80 82 81 83 89 84
REMARK SMILES IDX 82 85 83 86 87 87 90 88 84 89 85 90 88 91 86 92 65 93 66 94
REMARK SMILES IDX 74 95 67 96 68 97 72 98 75 99 69 100 70 101 73 102 71 103
REMARK H PARENT 95 56 63 67
REMARK Flexibility Score: inf
ROOT
ATOM      1  C   UNL A   1      47.497  26.053  25.474  1.00  0.00     0.261 C 
ENDROOT
BRANCH   1   2
ATOM      2  O   UNL A   1      46.467  26.099  26.466  1.00  0.00    -0.463 OA
BRANCH   2   3
ATOM      3  C   UNL A   1      46.535  25.010  27.265  1.00  0.00     0.305 C 
ATOM      4  O   UNL A   1      47.037  23.943  26.922  1.00  0.00    -0.252 OA
BRANCH   3   5
ATOM      5  C   UNL A   1      45.791  25.162  28.568  1.00  0.00     0.124 C 
BRANCH   5   6
ATOM      6  C   UNL A   1      45.287  23.969  29.388  1.00  0.00     0.033 C 
BRANCH   6   7
ATOM      7  C   UNL A   1      44.180  22.974  28.971  1.00  0.00     0.121 C 
BRANCH   7   8
ATOM      8  N   UNL A   1      43.178  23.158  27.891  1.00  0.00    -0.325 N 
ATOM      9  C   UNL A   1      43.652  22.817  26.619  1.00  0.00     0.295 C 
ATOM     10  C   UNL A   1      42.175  24.218  27.767  1.00  0.00     0.150 C 
ATOM     11  O   UNL A   1      44.408  21.919  26.310  1.00  0.00    -0.265 OA
ATOM     12  C   UNL A   1      43.302  23.997  25.708  1.00  0.00     0.248 C 
ATOM     13  C   UNL A   1      42.634  25.005  26.562  1.00  0.00     0.025 C 
ATOM     14  O   UNL A   1      43.600  24.133  24.540  1.00  0.00    -0.283 OA
ATOM     15  C   UNL A   1      42.584  26.308  26.211  1.00  0.00    -0.092 C 
ATOM     16  O   UNL A   1      43.097  26.773  25.012  1.00  0.00    -0.872 OA
BRANCH  10  17
ATOM     17  C   UNL A   1      40.689  23.748  27.559  1.00  0.00    -0.020 A 
ATOM     18  C   UNL A   1      40.563  22.017  27.039  1.00  0.00     0.013 A 
ATOM     19  C   UNL A   1      39.277  24.846  27.228  1.00  0.00     0.013 A 
ATOM     20  C   UNL A   1      39.154  21.408  26.127  1.00  0.00     0.086 A 
ATOM     21  C   UNL A   1      37.847  24.240  26.253  1.00  0.00     0.086 A 
ATOM     22  C   UNL A   1      37.800  22.509  25.744  1.00  0.00     0.269 A 
BRANCH  22  23
ATOM     23  N   UNL A   1      36.622  21.923  25.153  1.00  0.00     0.062 N 
ATOM     24  O   UNL A   1      35.811  21.390  25.919  1.00  0.00    -0.258 OA
ATOM     25  O   UNL A   1      36.515  22.003  23.926  1.00  0.00    -0.258 OA
ENDBRANCH  22  23
ENDBRANCH  10  17
BRANCH  15  26
ATOM     26  C   UNL A   1      41.841  27.355  26.954  1.00  0.00    -0.033 A 
ATOM     27  C   UNL A   1      40.940  28.164  26.229  1.00  0.00     0.007 A 
ATOM     28  C   UNL A   1      41.845  27.461  28.352  1.00  0.00     0.007 A 
ATOM     29  C   UNL A   1      39.985  28.948  26.885  1.00  0.00     0.001 A 
ATOM     30  C   UNL A   1      40.896  28.258  29.007  1.00  0.00     0.001 A 
ATOM     31  C   UNL A   1      39.949  28.977  28.276  1.00  0.00     0.000 A 
ENDBRANCH  15  26
ENDBRANCH   7   8
ENDBRANCH   6   7
ENDBRANCH   5   6
ENDBRANCH   3   5
ENDBRANCH   2   3
ENDBRANCH   1   2
BRANCH   1  32
ATOM     32  C   UNL A   1      47.716  27.474  24.978  1.00  0.00     0.202 C 
BRANCH  32  33
ATOM     33  O   UNL A   1      49.112  27.823  24.826  1.00  0.00    -0.374 OA
BRANCH  33  34
ATOM     34  C   UNL A   1      49.853  27.125  23.814  1.00  0.00     0.202 C 
BRANCH  34  35
ATOM     35  C   UNL A   1      51.497  26.847  24.119  1.00  0.00     0.261 C 
BRANCH  35  36
ATOM     36  O   UNL A   1      52.374  26.692  25.924  1.00  0.00    -0.460 OA
BRANCH  36  37
ATOM     37  C   UNL A   1      52.788  26.617  27.265  1.00  0.00     0.338 C 
ATOM     38  O   UNL A   1      53.925  26.545  27.700  1.00  0.00    -0.246 OA
BRANCH  37  39
ATOM     39  C   UNL A   1      51.624  26.677  28.189  1.00  0.00     0.060 A 
ATOM     40  C   UNL A   1      50.583  25.763  28.009  1.00  0.00     0.016 A 
ATOM     41  C   UNL A   1      51.569  27.630  29.219  1.00  0.00     0.016 A 
ATOM     42  C   UNL A   1      49.442  25.859  28.802  1.00  0.00     0.010 A 
ATOM     43  C   UNL A   1      50.452  27.691  30.049  1.00  0.00     0.010 A 
ATOM     44  C   UNL A   1      49.347  26.873  29.767  1.00  0.00    -0.014 A 
BRANCH  44  45
ATOM     45  C   UNL A   1      47.997  27.354  30.144  1.00  0.00     0.031 A 
ATOM     46  C   UNL A   1      47.337  26.658  31.311  1.00  0.00     0.074 A 
ATOM     47  C   UNL A   1      47.419  28.405  29.543  1.00  0.00     0.049 A 
ATOM     48  N   UNL A   1      46.160  26.847  31.844  1.00  0.00    -0.248 NA
ATOM     49  C   UNL A   1      48.112  25.580  31.955  1.00  0.00     0.031 C 
ATOM     50  C   UNL A   1      47.992  29.172  28.439  1.00  0.00     0.029 A 
ATOM     51  N   UNL A   1      46.220  29.019  29.797  1.00  0.00    -0.354 N 
ATOM     52  C   UNL A   1      46.050  25.895  32.852  1.00  0.00     0.074 A 
ATOM     53  C   UNL A   1      47.253  25.102  32.836  1.00  0.00     0.031 C 
ATOM     54  C   UNL A   1      47.152  30.174  28.126  1.00  0.00     0.029 A 
ATOM     55  C   UNL A   1      45.975  30.101  28.990  1.00  0.00     0.049 A 
ATOM     56  H   UNL A   1      45.595  28.712  30.492  1.00  0.00     0.167 HD
ATOM     57  C   UNL A   1      45.042  25.712  33.734  1.00  0.00     0.037 A 
ATOM     58  C   UNL A   1      44.915  30.933  28.968  1.00  0.00     0.037 A 
ATOM     59  C   UNL A   1      43.877  26.545  33.780  1.00  0.00     0.049 A 
ATOM     60  C   UNL A   1      43.809  30.721  29.970  1.00  0.00     0.074 A 
ATOM     61  C   UNL A   1      42.788  26.468  34.628  1.00  0.00     0.029 A 
ATOM     62  N   UNL A   1      43.664  27.630  32.942  1.00  0.00    -0.354 N 
ATOM     63  N   UNL A   1      43.703  29.806  30.904  1.00  0.00    -0.248 NA
ATOM     64  C   UNL A   1      42.680  31.659  29.919  1.00  0.00     0.031 C 
ATOM     65  C   UNL A   1      41.903  27.497  34.285  1.00  0.00     0.029 A 
ATOM     66  C   UNL A   1      42.460  28.233  33.250  1.00  0.00     0.049 A 
ATOM     67  H   UNL A   1      44.281  27.927  32.234  1.00  0.00     0.167 HD
ATOM     68  C   UNL A   1      42.510  30.068  31.565  1.00  0.00     0.074 A 
ATOM     69  C   UNL A   1      41.936  31.239  30.933  1.00  0.00     0.031 C 
ATOM     70  C   UNL A   1      41.933  29.403  32.597  1.00  0.00     0.037 A 
BRANCH  57  71
ATOM     71  C   UNL A   1      45.161  24.559  34.686  1.00  0.00     0.064 A 
ATOM     72  C   UNL A   1      45.671  24.717  35.985  1.00  0.00     0.173 A 
ATOM     73  C   UNL A   1      44.780  23.272  34.284  1.00  0.00     0.173 A 
ATOM     74  F   UNL A   1      46.081  25.922  36.407  1.00  0.00    -0.203 F 
ATOM     75  C   UNL A   1      45.817  23.622  36.835  1.00  0.00     0.198 A 
ATOM     76  C   UNL A   1      44.901  22.185  35.145  1.00  0.00     0.198 A 
ATOM     77  F   UNL A   1      44.297  23.065  33.049  1.00  0.00    -0.203 F 
ATOM     78  F   UNL A   1      46.358  23.788  38.050  1.00  0.00    -0.200 F 
ATOM     79  C   UNL A   1      45.427  22.360  36.417  1.00  0.00     0.200 A 
ATOM     80  F   UNL A   1      44.519  20.966  34.742  1.00  0.00    -0.200 F 
ATOM     81  F   UNL A   1      45.567  21.307  37.236  1.00  0.00    -0.200 F 
ENDBRANCH  57  71
BRANCH  58  82
ATOM     82  C   UNL A   1      44.873  32.050  27.989  1.00  0.00     0.064 A 
ATOM     83  C   UNL A   1      45.559  33.249  28.227  1.00  0.00     0.173 A 
ATOM     84  C   UNL A   1      44.163  31.935  26.785  1.00  0.00     0.173 A 
ATOM     85  F   UNL A   1      46.232  33.419  29.374  1.00  0.00    -0.203 F 
ATOM     86  C   UNL A   1      45.534  34.291  27.300  1.00  0.00     0.198 A 
ATOM     87  C   UNL A   1      44.160  32.967  25.848  1.00  0.00     0.198 A 
ATOM     88  F   UNL A   1      43.489  30.809  26.508  1.00  0.00    -0.203 F 
ATOM     89  F   UNL A   1      46.176  35.438  27.566  1.00  0.00    -0.200 F 
ATOM     90  C   UNL A   1      44.842  34.146  26.108  1.00  0.00     0.200 A 
ATOM     91  F   UNL A   1      43.500  32.817  24.691  1.00  0.00    -0.200 F 
ATOM     92  F   UNL A   1      44.831  35.141  25.211  1.00  0.00    -0.200 F 
ENDBRANCH  58  82
BRANCH  70  93
ATOM     93  C   UNL A   1      40.637  29.946  33.113  1.00  0.00     0.064 A 
ATOM     94  C   UNL A   1      40.602  31.042  33.986  1.00  0.00     0.173 A 
ATOM     95  C   UNL A   1      39.419  29.389  32.694  1.00  0.00     0.173 A 
ATOM     96  F   UNL A   1      41.744  31.598  34.417  1.00  0.00    -0.203 F 
ATOM     97  C   UNL A   1      39.389  31.545  34.446  1.00  0.00     0.198 A 
ATOM     98  C   UNL A   1      38.209  29.910  33.138  1.00  0.00     0.198 A 
ATOM     99  F   UNL A   1      39.406  28.348  31.850  1.00  0.00    -0.203 F 
ATOM    100  F   UNL A   1      39.377  32.566  35.314  1.00  0.00    -0.200 F 
ATOM    101  C   UNL A   1      38.195  30.983  34.018  1.00  0.00     0.200 A 
ATOM    102  F   UNL A   1      37.055  29.375  32.716  1.00  0.00    -0.200 F 
ATOM    103  F   UNL A   1      37.029  31.470  34.463  1.00  0.00    -0.200 F 
ENDBRANCH  70  93
ENDBRANCH  44  45
ENDBRANCH  37  39
ENDBRANCH  36  37
ENDBRANCH  35  36
ENDBRANCH  34  35
ENDBRANCH  33  34
ENDBRANCH  32  33
ENDBRANCH   1  32
TORSDOF 20
ENDMDL
MODEL 2
REMARK VINA RESULT:      -9.8      0.652      7.021
REMARK SMILES O=C(CCCN1C(=O)C(=O)/C(=C(\[O-])c2ccccc2)[C@H]1c1ccc([N+](=O)[O-])cc1)OCCOCCOC(=O)c1ccc(-c2c3nc(c(-c4c(F)c(F)c(F)c(F)c4F)c4ccc([nH]4)c(-c4c(F)c(F)c(F)c(F)c4F)c4nc(c(-c5c(F)c(F)c(F)c(F)c5F)c5ccc2[nH]5)C=C4)C=C3)cc1
REMARK SMILES IDX 31 1 30 2 2 3 1 4 3 5 4 6 5 7 6 8 7 9 20 10 8 11 9 12 11 13
REMARK SMILES IDX 10 14 12 15 13 16 21 17 22 18 29 19 23 20 28 21 24 22 25 23
REMARK SMILES IDX 26 24 27 25 14 26 15 27 19 28 16 29 18 30 17 31 32 32 33 33
REMARK SMILES IDX 34 34 35 35 36 36 37 37 38 38 39 39 40 40 101 41 41 42
REMARK SMILES IDX 100 43 42 44 43 45 44 46 94 47 45 48 99 49 93 50 95 51 46 52
REMARK SMILES IDX 98 53 92 54 91 55 47 57 79 58 59 59 78 60 60 61 63 62 77 63
REMARK SMILES IDX 96 64 61 65 62 66 76 68 97 69 64 70 48 71 49 72 57 73 50 74
REMARK SMILES IDX 51 75 55 76 58 77 52 78 53 79 56 80 54 81 80 82 81 83 89 84
REMARK SMILES IDX 82 85 83 86 87 87 90 88 84 89 85 90 88 91 86 92 65 93 66 94
REMARK SMILES IDX 74 95 67 96 68 97 72 98 75 99 69 100 70 101 73 102 71 103
REMARK H PARENT 95 56 63 67
REMARK Flexibility Score: inf
ROOT
ATOM      1  C   UNL A   1      46.167  26.187  25.198  1.00  0.00     0.261 C 
ENDROOT
BRANCH   1   2
ATOM      2  O   UNL A   1      45.903  26.351  26.595  1.00  0.00    -0.463 OA
BRANCH   2   3
ATOM      3  C   UNL A   1      45.998  25.163  27.233  1.00  0.00     0.305 C 
ATOM      4  O   UNL A   1      46.469  24.150  26.724  1.00  0.00    -0.252 OA
BRANCH   3   5
ATOM      5  C   UNL A   1      45.323  25.139  28.582  1.00  0.00     0.124 C 
BRANCH   5   6
ATOM      6  C   UNL A   1      44.952  23.842  29.310  1.00  0.00     0.033 C 
BRANCH   6   7
ATOM      7  C   UNL A   1      43.952  22.770  28.817  1.00  0.00     0.121 C 
BRANCH   7   8
ATOM      8  N   UNL A   1      42.940  22.923  27.742  1.00  0.00    -0.325 N 
ATOM      9  C   UNL A   1      43.412  22.580  26.471  1.00  0.00     0.295 C 
ATOM     10  C   UNL A   1      41.915  23.961  27.615  1.00  0.00     0.150 C 
ATOM     11  O   UNL A   1      44.184  21.694  26.165  1.00  0.00    -0.265 OA
ATOM     12  C   UNL A   1      43.032  23.744  25.551  1.00  0.00     0.248 C 
ATOM     13  C   UNL A   1      42.349  24.747  26.401  1.00  0.00     0.025 C 
ATOM     14  O   UNL A   1      43.319  23.874  24.379  1.00  0.00    -0.283 OA
ATOM     15  C   UNL A   1      42.271  26.044  26.037  1.00  0.00    -0.092 C 
ATOM     16  O   UNL A   1      42.766  26.508  24.830  1.00  0.00    -0.872 OA
BRANCH  10  17
ATOM     17  C   UNL A   1      40.438  23.460  27.422  1.00  0.00    -0.020 A 
ATOM     18  C   UNL A   1      40.345  21.796  26.710  1.00  0.00     0.013 A 
ATOM     19  C   UNL A   1      38.974  24.531  27.288  1.00  0.00     0.013 A 
ATOM     20  C   UNL A   1      38.913  21.241  25.799  1.00  0.00     0.086 A 
ATOM     21  C   UNL A   1      37.518  23.985  26.314  1.00  0.00     0.086 A 
ATOM     22  C   UNL A   1      37.505  22.324  25.609  1.00  0.00     0.269 A 
BRANCH  22  23
ATOM     23  N   UNL A   1      36.320  21.764  25.008  1.00  0.00     0.062 N 
ATOM     24  O   UNL A   1      35.651  20.984  25.698  1.00  0.00    -0.258 OA
ATOM     25  O   UNL A   1      36.064  22.109  23.852  1.00  0.00    -0.258 OA
ENDBRANCH  22  23
ENDBRANCH  10  17
BRANCH  15  26
ATOM     26  C   UNL A   1      41.511  27.084  26.776  1.00  0.00    -0.033 A 
ATOM     27  C   UNL A   1      41.568  27.063  28.185  1.00  0.00     0.007 A 
ATOM     28  C   UNL A   1      40.900  28.181  26.154  1.00  0.00     0.007 A 
ATOM     29  C   UNL A   1      41.151  28.165  28.940  1.00  0.00     0.001 A 
ATOM     30  C   UNL A   1      40.470  29.278  26.914  1.00  0.00     0.001 A 
ATOM     31  C   UNL A   1      40.622  29.283  28.301  1.00  0.00     0.000 A 
ENDBRANCH  15  26
ENDBRANCH   7   8
ENDBRANCH   6   7
ENDBRANCH   5   6
ENDBRANCH   3   5
ENDBRANCH   2   3
ENDBRANCH   1   2
BRANCH   1  32
ATOM     32  C   UNL A   1      46.384  27.573  24.610  1.00  0.00     0.202 C 
BRANCH  32  33
ATOM     33  O   UNL A   1      47.772  27.866  24.323  1.00  0.00    -0.374 OA
BRANCH  33  34
ATOM     34  C   UNL A   1      48.302  27.366  23.086  1.00  0.00     0.202 C 
BRANCH  34  35
ATOM     35  C   UNL A   1      49.983  27.175  22.992  1.00  0.00     0.261 C 
BRANCH  35  36
ATOM     36  O   UNL A   1      51.269  27.077  24.538  1.00  0.00    -0.460 OA
BRANCH  36  37
ATOM     37  C   UNL A   1      51.997  27.068  25.740  1.00  0.00     0.338 C 
ATOM     38  O   UNL A   1      53.207  27.125  25.888  1.00  0.00    -0.246 OA
BRANCH  37  39
ATOM     39  C   UNL A   1      51.089  27.021  26.917  1.00  0.00     0.060 A 
ATOM     40  C   UNL A   1      50.010  26.135  26.890  1.00  0.00     0.016 A 
ATOM     41  C   UNL A   1      51.308  27.847  28.031  1.00  0.00     0.016 A 
ATOM     42  C   UNL A   1      49.093  26.137  27.939  1.00  0.00     0.010 A 
ATOM     43  C   UNL A   1      50.423  27.811  29.106  1.00  0.00     0.010 A 
ATOM     44  C   UNL A   1      49.260  27.032  29.006  1.00  0.00    -0.014 A 
BRANCH  44  45
ATOM     45  C   UNL A   1      48.053  27.466  29.749  1.00  0.00     0.031 A 
ATOM     46  C   UNL A   1      47.308  28.652  29.185  1.00  0.00     0.074 A 
ATOM     47  C   UNL A   1      47.591  26.796  30.816  1.00  0.00     0.049 A 
ATOM     48  N   UNL A   1      46.242  29.262  29.630  1.00  0.00    -0.248 NA
ATOM     49  C   UNL A   1      47.856  29.245  27.950  1.00  0.00     0.031 C 
ATOM     50  C   UNL A   1      48.212  25.614  31.410  1.00  0.00     0.029 A 
ATOM     51  N   UNL A   1      46.474  27.012  31.579  1.00  0.00    -0.354 N 
ATOM     52  C   UNL A   1      46.024  30.318  28.753  1.00  0.00     0.074 A 
ATOM     53  C   UNL A   1      47.081  30.299  27.775  1.00  0.00     0.031 C 
ATOM     54  C   UNL A   1      47.449  25.192  32.434  1.00  0.00     0.029 A 
ATOM     55  C   UNL A   1      46.304  26.089  32.580  1.00  0.00     0.049 A 
ATOM     56  H   UNL A   1      45.851  27.758  31.423  1.00  0.00     0.167 HD
ATOM     57  C   UNL A   1      45.013  31.216  28.748  1.00  0.00     0.037 A 
ATOM     58  C   UNL A   1      45.325  25.991  33.500  1.00  0.00     0.037 A 
ATOM     59  C   UNL A   1      43.933  31.190  29.689  1.00  0.00     0.049 A 
ATOM     60  C   UNL A   1      44.199  26.993  33.467  1.00  0.00     0.074 A 
ATOM     61  C   UNL A   1      42.846  32.038  29.787  1.00  0.00     0.029 A 
ATOM     62  N   UNL A   1      43.799  30.240  30.692  1.00  0.00    -0.354 N 
ATOM     63  N   UNL A   1      44.011  28.001  32.649  1.00  0.00    -0.248 NA
ATOM     64  C   UNL A   1      43.146  26.839  34.480  1.00  0.00     0.031 C 
ATOM     65  C   UNL A   1      42.066  31.613  30.869  1.00  0.00     0.029 A 
ATOM     66  C   UNL A   1      42.649  30.480  31.418  1.00  0.00     0.049 A 
ATOM     67  H   UNL A   1      44.432  29.503  30.860  1.00  0.00     0.167 HD
ATOM     68  C   UNL A   1      42.814  28.590  33.032  1.00  0.00     0.074 A 
ATOM     69  C   UNL A   1      42.311  27.814  34.148  1.00  0.00     0.031 C 
ATOM     70  C   UNL A   1      42.185  29.676  32.517  1.00  0.00     0.037 A 
BRANCH  57  71
ATOM     71  C   UNL A   1      45.058  32.297  27.709  1.00  0.00     0.064 A 
ATOM     72  C   UNL A   1      44.323  32.214  26.515  1.00  0.00     0.173 A 
ATOM     73  C   UNL A   1      45.866  33.426  27.903  1.00  0.00     0.173 A 
ATOM     74  F   UNL A   1      43.560  31.139  26.267  1.00  0.00    -0.203 F 
ATOM     75  C   UNL A   1      44.419  33.207  25.544  1.00  0.00     0.198 A 
ATOM     76  C   UNL A   1      45.937  34.431  26.943  1.00  0.00     0.198 A 
ATOM     77  F   UNL A   1      46.596  33.550  29.022  1.00  0.00    -0.203 F 
ATOM     78  F   UNL A   1      43.753  33.078  24.388  1.00  0.00    -0.200 F 
ATOM     79  C   UNL A   1      45.220  34.318  25.760  1.00  0.00     0.200 A 
ATOM     80  F   UNL A   1      46.709  35.506  27.156  1.00  0.00    -0.200 F 
ATOM     81  F   UNL A   1      45.311  35.275  24.826  1.00  0.00    -0.200 F 
ENDBRANCH  57  71
BRANCH  58  82
ATOM     82  C   UNL A   1      45.356  24.890  34.498  1.00  0.00     0.064 A 
ATOM     83  C   UNL A   1      44.878  23.611  34.182  1.00  0.00     0.173 A 
ATOM     84  C   UNL A   1      45.886  25.088  35.782  1.00  0.00     0.173 A 
ATOM     85  F   UNL A   1      44.340  23.377  32.977  1.00  0.00    -0.203 F 
ATOM     86  C   UNL A   1      44.924  22.573  35.113  1.00  0.00     0.198 A 
ATOM     87  C   UNL A   1      45.954  24.044  36.702  1.00  0.00     0.198 A 
ATOM     88  F   UNL A   1      46.357  26.293  36.136  1.00  0.00    -0.203 F 
ATOM     89  F   UNL A   1      44.433  21.367  34.794  1.00  0.00    -0.200 F 
ATOM     90  C   UNL A   1      45.470  22.788  36.369  1.00  0.00     0.200 A 
ATOM     91  F   UNL A   1      46.496  24.253  37.911  1.00  0.00    -0.200 F 
ATOM     92  F   UNL A   1      45.529  21.786  37.257  1.00  0.00    -0.200 F 
ENDBRANCH  58  82
BRANCH  70  93
ATOM     93  C   UNL A   1      40.879  30.061  33.140  1.00  0.00     0.064 A 
ATOM     94  C   UNL A   1      40.816  31.001  34.178  1.00  0.00     0.173 A 
ATOM     95  C   UNL A   1      39.678  29.516  32.663  1.00  0.00     0.173 A 
ATOM     96  F   UNL A   1      41.942  31.541  34.669  1.00  0.00    -0.203 F 
ATOM     97  C   UNL A   1      39.595  31.361  34.737  1.00  0.00     0.198 A 
ATOM     98  C   UNL A   1      38.458  29.896  33.209  1.00  0.00     0.198 A 
ATOM     99  F   UNL A   1      39.691  28.623  31.662  1.00  0.00    -0.203 F 
ATOM    100  F   UNL A   1      39.558  32.229  35.758  1.00  0.00    -0.200 F 
ATOM    101  C   UNL A   1      38.417  30.813  34.250  1.00  0.00     0.200 A 
ATOM    102  F   UNL A   1      37.319  29.376  32.730  1.00  0.00    -0.200 F 
ATOM    103  F   UNL A   1      37.242  31.162  34.790  1.00  0.00    -0.200 F 
ENDBRANCH  70  93
ENDBRANCH  44  45
ENDBRANCH  37  39
ENDBRANCH  36  37
ENDBRANCH  35  36
ENDBRANCH  34  35
ENDBRANCH  33  34
ENDBRANCH  32  33
ENDBRANCH   1  32
TORSDOF 20
ENDMDL
MODEL 3
REMARK VINA RESULT:      -9.1      5.324     11.935
REMARK SMILES O=C(CCCN1C(=O)C(=O)/C(=C(\[O-])c2ccccc2)[C@H]1c1ccc([N+](=O)[O-])cc1)OCCOCCOC(=O)c1ccc(-c2c3nc(c(-c4c(F)c(F)c(F)c(F)c4F)c4ccc([nH]4)c(-c4c(F)c(F)c(F)c(F)c4F)c4nc(c(-c5c(F)c(F)c(F)c(F)c5F)c5ccc2[nH]5)C=C4)C=C3)cc1
REMARK SMILES IDX 31 1 30 2 2 3 1 4 3 5 4 6 5 7 6 8 7 9 20 10 8 11 9 12 11 13
REMARK SMILES IDX 10 14 12 15 13 16 21 17 22 18 29 19 23 20 28 21 24 22 25 23
REMARK SMILES IDX 26 24 27 25 14 26 15 27 19 28 16 29 18 30 17 31 32 32 33 33
REMARK SMILES IDX 34 34 35 35 36 36 37 37 38 38 39 39 40 40 101 41 41 42
REMARK SMILES IDX 100 43 42 44 43 45 44 46 94 47 45 48 99 49 93 50 95 51 46 52
REMARK SMILES IDX 98 53 92 54 91 55 47 57 79 58 59 59 78 60 60 61 63 62 77 63
REMARK SMILES IDX 96 64 61 65 62 66 76 68 97 69 64 70 48 71 49 72 57 73 50 74
REMARK SMILES IDX 51 75 55 76 58 77 52 78 53 79 56 80 54 81 80 82 81 83 89 84
REMARK SMILES IDX 82 85 83 86 87 87 90 88 84 89 85 90 88 91 86 92 65 93 66 94
REMARK SMILES IDX 74 95 67 96 68 97 72 98 75 99 69 100 70 101 73 102 71 103
REMARK H PARENT 95 56 63 67
REMARK Flexibility Score: inf
ROOT
ATOM      1  C   UNL A   1      37.148  31.749  38.414  1.00  0.00     0.261 C 
ENDROOT
BRANCH   1   2
ATOM      2  O   UNL A   1      37.396  30.565  37.650  1.00  0.00    -0.463 OA
BRANCH   2   3
ATOM      3  C   UNL A   1      38.178  30.850  36.583  1.00  0.00     0.305 C 
ATOM      4  O   UNL A   1      38.882  30.023  36.012  1.00  0.00    -0.252 OA
BRANCH   3   5
ATOM      5  C   UNL A   1      38.241  32.320  36.249  1.00  0.00     0.124 C 
BRANCH   5   6
ATOM      6  C   UNL A   1      37.312  32.987  35.229  1.00  0.00     0.033 C 
BRANCH   6   7
ATOM      7  C   UNL A   1      36.877  32.400  33.866  1.00  0.00     0.121 C 
BRANCH   7   8
ATOM      8  N   UNL A   1      37.753  32.097  32.706  1.00  0.00    -0.325 N 
ATOM      9  C   UNL A   1      38.597  33.154  32.347  1.00  0.00     0.295 C 
ATOM     10  C   UNL A   1      37.427  31.309  31.516  1.00  0.00     0.150 C 
ATOM     11  O   UNL A   1      39.156  33.953  33.069  1.00  0.00    -0.265 OA
ATOM     12  C   UNL A   1      38.428  33.332  30.835  1.00  0.00     0.248 C 
ATOM     13  C   UNL A   1      37.430  32.328  30.401  1.00  0.00     0.025 C 
ATOM     14  O   UNL A   1      38.932  34.189  30.139  1.00  0.00    -0.283 OA
ATOM     15  C   UNL A   1      36.730  32.478  29.256  1.00  0.00    -0.092 C 
ATOM     16  O   UNL A   1      36.941  33.538  28.391  1.00  0.00    -0.872 OA
BRANCH  10  17
ATOM     17  C   UNL A   1      38.414  30.137  31.165  1.00  0.00    -0.020 A 
ATOM     18  C   UNL A   1      39.650  30.604  29.924  1.00  0.00     0.013 A 
ATOM     19  C   UNL A   1      38.074  28.368  31.410  1.00  0.00     0.013 A 
ATOM     20  C   UNL A   1      40.441  29.390  28.880  1.00  0.00     0.086 A 
ATOM     21  C   UNL A   1      38.847  27.119  30.311  1.00  0.00     0.086 A 
ATOM     22  C   UNL A   1      40.049  27.658  29.078  1.00  0.00     0.269 A 
BRANCH  22  23
ATOM     23  N   UNL A   1      40.837  26.715  28.323  1.00  0.00     0.062 N 
ATOM     24  O   UNL A   1      40.477  26.477  27.164  1.00  0.00    -0.258 OA
ATOM     25  O   UNL A   1      41.814  26.221  28.894  1.00  0.00    -0.258 OA
ENDBRANCH  22  23
ENDBRANCH  10  17
BRANCH  15  26
ATOM     26  C   UNL A   1      35.797  31.467  28.699  1.00  0.00    -0.033 A 
ATOM     27  C   UNL A   1      34.490  31.887  28.370  1.00  0.00     0.007 A 
ATOM     28  C   UNL A   1      36.194  30.180  28.313  1.00  0.00     0.007 A 
ATOM     29  C   UNL A   1      33.660  31.099  27.565  1.00  0.00     0.001 A 
ATOM     30  C   UNL A   1      35.355  29.386  27.518  1.00  0.00     0.001 A 
ATOM     31  C   UNL A   1      34.103  29.857  27.121  1.00  0.00     0.000 A 
ENDBRANCH  15  26
ENDBRANCH   7   8
ENDBRANCH   6   7
ENDBRANCH   5   6
ENDBRANCH   3   5
ENDBRANCH   2   3
ENDBRANCH   1   2
BRANCH   1  32
ATOM     32  C   UNL A   1      37.401  31.410  39.874  1.00  0.00     0.202 C 
BRANCH  32  33
ATOM     33  O   UNL A   1      38.511  32.140  40.451  1.00  0.00    -0.374 OA
BRANCH  33  34
ATOM     34  C   UNL A   1      39.087  33.186  39.655  1.00  0.00     0.202 C 
BRANCH  34  35
ATOM     35  C   UNL A   1      39.967  34.379  40.476  1.00  0.00     0.261 C 
BRANCH  35  36
ATOM     36  O   UNL A   1      41.218  35.726  39.656  1.00  0.00    -0.460 OA
BRANCH  36  37
ATOM     37  C   UNL A   1      42.220  36.497  39.042  1.00  0.00     0.338 C 
ATOM     38  O   UNL A   1      42.919  37.362  39.543  1.00  0.00    -0.246 OA
BRANCH  37  39
ATOM     39  C   UNL A   1      42.400  36.106  37.618  1.00  0.00     0.060 A 
ATOM     40  C   UNL A   1      41.263  35.825  36.856  1.00  0.00     0.016 A 
ATOM     41  C   UNL A   1      43.681  36.019  37.050  1.00  0.00     0.016 A 
ATOM     42  C   UNL A   1      41.409  35.369  35.549  1.00  0.00     0.010 A 
ATOM     43  C   UNL A   1      43.826  35.617  35.724  1.00  0.00     0.010 A 
ATOM     44  C   UNL A   1      42.694  35.190  35.013  1.00  0.00    -0.014 A 
BRANCH  44  45
ATOM     45  C   UNL A   1      42.870  34.180  33.944  1.00  0.00     0.031 A 
ATOM     46  C   UNL A   1      43.144  34.709  32.556  1.00  0.00     0.074 A 
ATOM     47  C   UNL A   1      42.871  32.862  34.199  1.00  0.00     0.049 A 
ATOM     48  N   UNL A   1      43.316  34.067  31.432  1.00  0.00    -0.248 NA
ATOM     49  C   UNL A   1      43.217  36.176  32.417  1.00  0.00     0.031 C 
ATOM     50  C   UNL A   1      42.661  32.251  35.509  1.00  0.00     0.029 A 
ATOM     51  N   UNL A   1      43.077  31.799  33.359  1.00  0.00    -0.354 N 
ATOM     52  C   UNL A   1      43.480  35.051  30.463  1.00  0.00     0.074 A 
ATOM     53  C   UNL A   1      43.348  36.330  31.113  1.00  0.00     0.031 C 
ATOM     54  C   UNL A   1      42.774  30.917  35.389  1.00  0.00     0.029 A 
ATOM     55  C   UNL A   1      43.039  30.582  33.990  1.00  0.00     0.049 A 
ATOM     56  H   UNL A   1      43.237  31.900  32.392  1.00  0.00     0.167 HD
ATOM     57  C   UNL A   1      43.742  34.902  29.145  1.00  0.00     0.037 A 
ATOM     58  C   UNL A   1      43.206  29.345  33.483  1.00  0.00     0.037 A 
ATOM     59  C   UNL A   1      43.931  33.627  28.520  1.00  0.00     0.049 A 
ATOM     60  C   UNL A   1      43.513  29.202  32.015  1.00  0.00     0.074 A 
ATOM     61  C   UNL A   1      44.208  33.342  27.196  1.00  0.00     0.029 A 
ATOM     62  N   UNL A   1      43.881  32.416  29.195  1.00  0.00    -0.354 N 
ATOM     63  N   UNL A   1      43.644  30.135  31.101  1.00  0.00    -0.248 NA
ATOM     64  C   UNL A   1      43.701  27.837  31.507  1.00  0.00     0.031 C 
ATOM     65  C   UNL A   1      44.300  31.951  27.067  1.00  0.00     0.029 A 
ATOM     66  C   UNL A   1      44.118  31.376  28.317  1.00  0.00     0.049 A 
ATOM     67  H   UNL A   1      43.702  32.313  30.159  1.00  0.00     0.167 HD
ATOM     68  C   UNL A   1      43.950  29.476  29.918  1.00  0.00     0.074 A 
ATOM     69  C   UNL A   1      44.000  28.062  30.235  1.00  0.00     0.031 C 
ATOM     70  C   UNL A   1      44.165  29.985  28.680  1.00  0.00     0.037 A 
BRANCH  57  71
ATOM     71  C   UNL A   1      43.812  36.148  28.312  1.00  0.00     0.064 A 
ATOM     72  C   UNL A   1      45.021  36.825  28.086  1.00  0.00     0.173 A 
ATOM     73  C   UNL A   1      42.645  36.684  27.749  1.00  0.00     0.173 A 
ATOM     74  F   UNL A   1      46.160  36.372  28.630  1.00  0.00    -0.203 F 
ATOM     75  C   UNL A   1      45.053  38.007  27.349  1.00  0.00     0.198 A 
ATOM     76  C   UNL A   1      42.685  37.849  26.989  1.00  0.00     0.198 A 
ATOM     77  F   UNL A   1      41.462  36.081  27.943  1.00  0.00    -0.203 F 
ATOM     78  F   UNL A   1      46.209  38.666  27.195  1.00  0.00    -0.200 F 
ATOM     79  C   UNL A   1      43.888  38.515  26.796  1.00  0.00     0.200 A 
ATOM     80  F   UNL A   1      41.559  38.336  26.452  1.00  0.00    -0.200 F 
ATOM     81  F   UNL A   1      43.919  39.651  26.086  1.00  0.00    -0.200 F 
ENDBRANCH  57  71
BRANCH  58  82
ATOM     82  C   UNL A   1      43.117  28.161  34.377  1.00  0.00     0.064 A 
ATOM     83  C   UNL A   1      41.943  27.399  34.456  1.00  0.00     0.173 A 
ATOM     84  C   UNL A   1      44.211  27.754  35.155  1.00  0.00     0.173 A 
ATOM     85  F   UNL A   1      40.862  27.760  33.751  1.00  0.00    -0.203 F 
ATOM     86  C   UNL A   1      41.866  26.277  35.281  1.00  0.00     0.198 A 
ATOM     87  C   UNL A   1      44.141  26.618  35.959  1.00  0.00     0.198 A 
ATOM     88  F   UNL A   1      45.358  28.449  35.116  1.00  0.00    -0.203 F 
ATOM     89  F   UNL A   1      40.722  25.582  35.359  1.00  0.00    -0.200 F 
ATOM     90  C   UNL A   1      42.967  25.882  36.025  1.00  0.00     0.200 A 
ATOM     91  F   UNL A   1      45.213  26.233  36.667  1.00  0.00    -0.200 F 
ATOM     92  F   UNL A   1      42.898  24.795  36.805  1.00  0.00    -0.200 F 
ENDBRANCH  58  82
BRANCH  70  93
ATOM     93  C   UNL A   1      44.498  29.008  27.594  1.00  0.00     0.064 A 
ATOM     94  C   UNL A   1      45.775  28.438  27.493  1.00  0.00     0.173 A 
ATOM     95  C   UNL A   1      43.517  28.609  26.675  1.00  0.00     0.173 A 
ATOM     96  F   UNL A   1      46.744  28.799  28.348  1.00  0.00    -0.203 F 
ATOM     97  C   UNL A   1      46.065  27.521  26.489  1.00  0.00     0.198 A 
ATOM     98  C   UNL A   1      43.805  27.674  25.687  1.00  0.00     0.198 A 
ATOM     99  F   UNL A   1      42.278  29.120  26.744  1.00  0.00    -0.203 F 
ATOM    100  F   UNL A   1      47.303  27.019  26.382  1.00  0.00    -0.200 F 
ATOM    101  C   UNL A   1      45.081  27.136  25.591  1.00  0.00     0.200 A 
ATOM    102  F   UNL A   1      42.850  27.294  24.827  1.00  0.00    -0.200 F 
ATOM    103  F   UNL A   1      45.363  26.253  24.624  1.00  0.00    -0.200 F 
ENDBRANCH  70  93
ENDBRANCH  44  45
ENDBRANCH  37  39
ENDBRANCH  36  37
ENDBRANCH  35  36
ENDBRANCH  34  35
ENDBRANCH  33  34
ENDBRANCH  32  33
ENDBRANCH   1  32
TORSDOF 20
ENDMDL
