MODEL 1
REMARK VINA RESULT:     -10.3      0.000      0.000
REMARK SMILES CC(=O)N1CCC[C@H]1COCC(=O)OCCOCCOC(=O)c1ccc(-c2c3nc(c(-c4c(F)c(F)c(F)c(F)c4F)c4ccc([nH]4)c(-c4c(F)c(F)c(F)c(F)c4F)c4nc(c(-c5c(F)c(F)c(F)c(F)c5F)c5ccc2[nH]5)C=C4)C=C3)cc1
REMARK SMILES IDX 16 1 15 2 14 3 12 4 13 5 11 6 10 7 9 8 8 9 4 10 5 11 6 12
REMARK SMILES IDX 7 13 2 14 1 15 3 16 17 17 18 18 19 19 20 20 21 21 22 22
REMARK SMILES IDX 23 23 24 24 85 25 25 26 84 27 26 28 27 29 28 30 78 31 29 32
REMARK SMILES IDX 83 33 77 34 79 35 30 36 82 37 76 38 75 39 31 41 63 42 43 43
REMARK SMILES IDX 62 44 44 45 47 46 61 47 80 48 45 49 46 50 60 52 81 53 48 54
REMARK SMILES IDX 32 55 33 56 41 57 34 58 35 59 39 60 42 61 36 62 37 63 40 64
REMARK SMILES IDX 38 65 64 66 65 67 73 68 66 69 67 70 71 71 74 72 68 73 69 74
REMARK SMILES IDX 72 75 70 76 49 77 50 78 58 79 51 80 52 81 56 82 59 83 53 84
REMARK SMILES IDX 54 85 57 86 55 87
REMARK H PARENT 79 40 47 51
REMARK Flexibility Score: inf
ROOT
ATOM      1  C   UNL A   1      34.563  21.608  26.006  1.00  0.00     0.202 C 
ENDROOT
BRANCH   1   2
ATOM      2  C   UNL A   1      34.033  22.864  26.726  1.00  0.00     0.261 C 
BRANCH   2   3
ATOM      3  O   UNL A   1      32.893  22.600  27.581  1.00  0.00    -0.462 OA
BRANCH   3   4
ATOM      4  C   UNL A   1      31.719  23.184  27.204  1.00  0.00     0.332 C 
ATOM      5  O   UNL A   1      30.613  22.820  27.589  1.00  0.00    -0.250 OA
BRANCH   4   6
ATOM      6  C   UNL A   1      31.894  24.301  26.147  1.00  0.00     0.282 C 
BRANCH   6   7
ATOM      7  O   UNL A   1      31.785  24.181  24.740  1.00  0.00    -0.368 OA
BRANCH   7   8
ATOM      8  C   UNL A   1      31.100  25.204  24.014  1.00  0.00     0.186 C 
BRANCH   8   9
ATOM      9  C   UNL A   1      31.682  26.635  24.051  1.00  0.00     0.111 C 
ATOM     10  N   UNL A   1      31.968  27.231  22.725  1.00  0.00    -0.338 N 
ATOM     11  C   UNL A   1      30.946  28.199  22.378  1.00  0.00     0.120 C 
ATOM     12  C   UNL A   1      30.655  28.824  23.726  1.00  0.00     0.024 C 
ATOM     13  C   UNL A   1      30.669  27.621  24.670  1.00  0.00     0.029 C 
BRANCH  10  14
ATOM     14  C   UNL A   1      33.258  27.213  22.223  1.00  0.00     0.219 C 
ATOM     15  C   UNL A   1      34.229  28.250  22.733  1.00  0.00     0.114 C 
ATOM     16  O   UNL A   1      33.644  26.331  21.461  1.00  0.00    -0.275 OA
ENDBRANCH  10  14
ENDBRANCH   8   9
ENDBRANCH   7   8
ENDBRANCH   6   7
ENDBRANCH   4   6
ENDBRANCH   3   4
ENDBRANCH   2   3
ENDBRANCH   1   2
BRANCH   1  17
ATOM     17  O   UNL A   1      35.977  21.424  25.978  1.00  0.00    -0.374 OA
BRANCH  17  18
ATOM     18  C   UNL A   1      36.397  20.473  25.007  1.00  0.00     0.202 C 
BRANCH  18  19
ATOM     19  C   UNL A   1      37.899  20.200  25.002  1.00  0.00     0.261 C 
BRANCH  19  20
ATOM     20  O   UNL A   1      38.529  21.415  25.455  1.00  0.00    -0.460 OA
BRANCH  20  21
ATOM     21  C   UNL A   1      39.637  21.189  26.189  1.00  0.00     0.338 C 
ATOM     22  O   UNL A   1      40.334  20.193  26.172  1.00  0.00    -0.246 OA
BRANCH  21  23
ATOM     23  C   UNL A   1      40.025  22.428  26.891  1.00  0.00     0.060 A 
ATOM     24  C   UNL A   1      39.334  23.582  26.506  1.00  0.00     0.016 A 
ATOM     25  C   UNL A   1      41.031  22.491  27.862  1.00  0.00     0.016 A 
ATOM     26  C   UNL A   1      39.713  24.819  27.007  1.00  0.00     0.010 A 
ATOM     27  C   UNL A   1      41.411  23.738  28.369  1.00  0.00     0.010 A 
ATOM     28  C   UNL A   1      40.791  24.908  27.894  1.00  0.00    -0.014 A 
BRANCH  28  29
ATOM     29  C   UNL A   1      41.371  26.244  28.150  1.00  0.00     0.031 A 
ATOM     30  C   UNL A   1      42.754  26.536  27.641  1.00  0.00     0.074 A 
ATOM     31  C   UNL A   1      40.634  27.205  28.731  1.00  0.00     0.049 A 
ATOM     32  N   UNL A   1      43.451  27.641  27.710  1.00  0.00    -0.248 NA
ATOM     33  C   UNL A   1      43.446  25.431  26.958  1.00  0.00     0.031 C 
ATOM     34  C   UNL A   1      39.265  27.038  29.213  1.00  0.00     0.029 A 
ATOM     35  N   UNL A   1      40.935  28.513  29.006  1.00  0.00    -0.354 N 
ATOM     36  C   UNL A   1      44.659  27.363  27.082  1.00  0.00     0.074 A 
ATOM     37  C   UNL A   1      44.620  25.975  26.679  1.00  0.00     0.031 C 
ATOM     38  C   UNL A   1      38.843  28.202  29.731  1.00  0.00     0.029 A 
ATOM     39  C   UNL A   1      39.923  29.181  29.647  1.00  0.00     0.049 A 
ATOM     40  H   UNL A   1      41.792  28.932  28.766  1.00  0.00     0.167 HD
ATOM     41  C   UNL A   1      45.700  28.197  26.851  1.00  0.00     0.037 A 
ATOM     42  C   UNL A   1      39.890  30.437  30.131  1.00  0.00     0.037 A 
ATOM     43  C   UNL A   1      45.726  29.575  27.264  1.00  0.00     0.049 A 
ATOM     44  C   UNL A   1      41.087  31.327  29.932  1.00  0.00     0.074 A 
ATOM     45  C   UNL A   1      46.724  30.514  27.084  1.00  0.00     0.029 A 
ATOM     46  N   UNL A   1      44.700  30.208  27.954  1.00  0.00    -0.354 N 
ATOM     47  N   UNL A   1      42.221  31.064  29.327  1.00  0.00    -0.248 NA
ATOM     48  C   UNL A   1      40.998  32.689  30.472  1.00  0.00     0.031 C 
ATOM     49  C   UNL A   1      46.328  31.698  27.717  1.00  0.00     0.029 A 
ATOM     50  C   UNL A   1      45.055  31.518  28.235  1.00  0.00     0.049 A 
ATOM     51  H   UNL A   1      43.846  29.788  28.207  1.00  0.00     0.167 HD
ATOM     52  C   UNL A   1      42.973  32.229  29.395  1.00  0.00     0.074 A 
ATOM     53  C   UNL A   1      42.155  33.208  30.085  1.00  0.00     0.031 C 
ATOM     54  C   UNL A   1      44.224  32.471  28.929  1.00  0.00     0.037 A 
BRANCH  41  55
ATOM     55  C   UNL A   1      46.903  27.625  26.154  1.00  0.00     0.064 A 
ATOM     56  C   UNL A   1      47.040  27.660  24.757  1.00  0.00     0.173 A 
ATOM     57  C   UNL A   1      47.934  27.028  26.896  1.00  0.00     0.173 A 
ATOM     58  F   UNL A   1      46.077  28.202  23.998  1.00  0.00    -0.203 F 
ATOM     59  C   UNL A   1      48.143  27.085  24.128  1.00  0.00     0.198 A 
ATOM     60  C   UNL A   1      49.053  26.486  26.266  1.00  0.00     0.198 A 
ATOM     61  F   UNL A   1      47.860  26.968  28.234  1.00  0.00    -0.203 F 
ATOM     62  F   UNL A   1      48.219  27.074  22.791  1.00  0.00    -0.200 F 
ATOM     63  C   UNL A   1      49.151  26.505  24.883  1.00  0.00     0.200 A 
ATOM     64  F   UNL A   1      50.032  25.938  26.999  1.00  0.00    -0.200 F 
ATOM     65  F   UNL A   1      50.211  25.952  24.278  1.00  0.00    -0.200 F 
ENDBRANCH  41  55
BRANCH  42  66
ATOM     66  C   UNL A   1      38.685  30.907  30.865  1.00  0.00     0.064 A 
ATOM     67  C   UNL A   1      37.579  31.439  30.191  1.00  0.00     0.173 A 
ATOM     68  C   UNL A   1      38.612  30.810  32.264  1.00  0.00     0.173 A 
ATOM     69  F   UNL A   1      37.609  31.571  28.857  1.00  0.00    -0.203 F 
ATOM     70  C   UNL A   1      36.449  31.865  30.887  1.00  0.00     0.198 A 
ATOM     71  C   UNL A   1      37.471  31.207  32.956  1.00  0.00     0.198 A 
ATOM     72  F   UNL A   1      39.644  30.306  32.958  1.00  0.00    -0.203 F 
ATOM     73  F   UNL A   1      35.419  32.404  30.221  1.00  0.00    -0.200 F 
ATOM     74  C   UNL A   1      36.392  31.740  32.268  1.00  0.00     0.200 A 
ATOM     75  F   UNL A   1      37.415  31.068  34.287  1.00  0.00    -0.200 F 
ATOM     76  F   UNL A   1      35.300  32.137  32.934  1.00  0.00    -0.200 F 
ENDBRANCH  42  66
BRANCH  54  77
ATOM     77  C   UNL A   1      44.774  33.855  29.126  1.00  0.00     0.064 A 
ATOM     78  C   UNL A   1      44.536  34.883  28.201  1.00  0.00     0.173 A 
ATOM     79  C   UNL A   1      45.515  34.166  30.277  1.00  0.00     0.173 A 
ATOM     80  F   UNL A   1      43.845  34.634  27.078  1.00  0.00    -0.203 F 
ATOM     81  C   UNL A   1      45.046  36.162  28.407  1.00  0.00     0.198 A 
ATOM     82  C   UNL A   1      45.992  35.456  30.496  1.00  0.00     0.198 A 
ATOM     83  F   UNL A   1      45.762  33.223  31.198  1.00  0.00    -0.203 F 
ATOM     84  F   UNL A   1      44.853  37.114  27.484  1.00  0.00    -0.200 F 
ATOM     85  C   UNL A   1      45.765  36.450  29.557  1.00  0.00     0.200 A 
ATOM     86  F   UNL A   1      46.672  35.734  31.617  1.00  0.00    -0.200 F 
ATOM     87  F   UNL A   1      46.248  37.684  29.757  1.00  0.00    -0.200 F 
ENDBRANCH  54  77
ENDBRANCH  28  29
ENDBRANCH  21  23
ENDBRANCH  20  21
ENDBRANCH  19  20
ENDBRANCH  18  19
ENDBRANCH  17  18
ENDBRANCH   1  17
TORSDOF 18
ENDMDL
MODEL 2
REMARK VINA RESULT:     -10.3      0.783      2.214
REMARK SMILES CC(=O)N1CCC[C@H]1COCC(=O)OCCOCCOC(=O)c1ccc(-c2c3nc(c(-c4c(F)c(F)c(F)c(F)c4F)c4ccc([nH]4)c(-c4c(F)c(F)c(F)c(F)c4F)c4nc(c(-c5c(F)c(F)c(F)c(F)c5F)c5ccc2[nH]5)C=C4)C=C3)cc1
REMARK SMILES IDX 16 1 15 2 14 3 12 4 13 5 11 6 10 7 9 8 8 9 4 10 5 11 6 12
REMARK SMILES IDX 7 13 2 14 1 15 3 16 17 17 18 18 19 19 20 20 21 21 22 22
REMARK SMILES IDX 23 23 24 24 85 25 25 26 84 27 26 28 27 29 28 30 78 31 29 32
REMARK SMILES IDX 83 33 77 34 79 35 30 36 82 37 76 38 75 39 31 41 63 42 43 43
REMARK SMILES IDX 62 44 44 45 47 46 61 47 80 48 45 49 46 50 60 52 81 53 48 54
REMARK SMILES IDX 32 55 33 56 41 57 34 58 35 59 39 60 42 61 36 62 37 63 40 64
REMARK SMILES IDX 38 65 64 66 65 67 73 68 66 69 67 70 71 71 74 72 68 73 69 74
REMARK SMILES IDX 72 75 70 76 49 77 50 78 58 79 51 80 52 81 56 82 59 83 53 84
REMARK SMILES IDX 54 85 57 86 55 87
REMARK H PARENT 79 40 47 51
REMARK Flexibility Score: inf
ROOT
ATOM      1  C   UNL A   1      34.825  21.766  24.831  1.00  0.00     0.202 C 
ENDROOT
BRANCH   1   2
ATOM      2  C   UNL A   1      34.314  23.186  25.148  1.00  0.00     0.261 C 
BRANCH   2   3
ATOM      3  O   UNL A   1      34.231  23.464  26.568  1.00  0.00    -0.462 OA
BRANCH   3   4
ATOM      4  C   UNL A   1      33.187  22.884  27.228  1.00  0.00     0.332 C 
ATOM      5  O   UNL A   1      33.284  21.875  27.920  1.00  0.00    -0.250 OA
BRANCH   4   6
ATOM      6  C   UNL A   1      31.823  23.556  26.943  1.00  0.00     0.282 C 
BRANCH   6   7
ATOM      7  O   UNL A   1      31.557  24.941  26.805  1.00  0.00    -0.368 OA
BRANCH   7   8
ATOM      8  C   UNL A   1      31.260  25.458  25.507  1.00  0.00     0.186 C 
BRANCH   8   9
ATOM      9  C   UNL A   1      32.387  26.184  24.738  1.00  0.00     0.111 C 
ATOM     10  N   UNL A   1      31.943  27.323  23.901  1.00  0.00    -0.338 N 
ATOM     11  C   UNL A   1      32.267  28.578  24.549  1.00  0.00     0.120 C 
ATOM     12  C   UNL A   1      33.601  28.252  25.187  1.00  0.00     0.024 C 
ATOM     13  C   UNL A   1      33.387  26.833  25.718  1.00  0.00     0.029 C 
BRANCH  10  14
ATOM     14  C   UNL A   1      31.753  27.150  22.542  1.00  0.00     0.219 C 
ATOM     15  C   UNL A   1      32.887  26.558  21.739  1.00  0.00     0.114 C 
ATOM     16  O   UNL A   1      30.671  27.372  22.005  1.00  0.00    -0.275 OA
ENDBRANCH  10  14
ENDBRANCH   8   9
ENDBRANCH   7   8
ENDBRANCH   6   7
ENDBRANCH   4   6
ENDBRANCH   3   4
ENDBRANCH   2   3
ENDBRANCH   1   2
BRANCH   1  17
ATOM     17  O   UNL A   1      36.128  21.425  25.301  1.00  0.00    -0.374 OA
BRANCH  17  18
ATOM     18  C   UNL A   1      36.624  20.215  24.743  1.00  0.00     0.202 C 
BRANCH  18  19
ATOM     19  C   UNL A   1      38.095  19.940  25.041  1.00  0.00     0.261 C 
BRANCH  19  20
ATOM     20  O   UNL A   1      38.624  21.157  25.603  1.00  0.00    -0.460 OA
BRANCH  20  21
ATOM     21  C   UNL A   1      39.793  20.972  26.249  1.00  0.00     0.338 C 
ATOM     22  O   UNL A   1      40.527  20.007  26.169  1.00  0.00    -0.246 OA
BRANCH  21  23
ATOM     23  C   UNL A   1      40.182  22.221  26.934  1.00  0.00     0.060 A 
ATOM     24  C   UNL A   1      39.437  23.355  26.592  1.00  0.00     0.016 A 
ATOM     25  C   UNL A   1      41.237  22.312  27.849  1.00  0.00     0.016 A 
ATOM     26  C   UNL A   1      39.806  24.601  27.075  1.00  0.00     0.010 A 
ATOM     27  C   UNL A   1      41.608  23.569  28.338  1.00  0.00     0.010 A 
ATOM     28  C   UNL A   1      40.927  24.720  27.903  1.00  0.00    -0.014 A 
BRANCH  28  29
ATOM     29  C   UNL A   1      41.481  26.073  28.131  1.00  0.00     0.031 A 
ATOM     30  C   UNL A   1      42.845  26.392  27.590  1.00  0.00     0.074 A 
ATOM     31  C   UNL A   1      40.733  27.023  28.718  1.00  0.00     0.049 A 
ATOM     32  N   UNL A   1      43.517  27.513  27.632  1.00  0.00    -0.248 NA
ATOM     33  C   UNL A   1      43.549  25.296  26.904  1.00  0.00     0.031 C 
ATOM     34  C   UNL A   1      39.379  26.829  29.231  1.00  0.00     0.029 A 
ATOM     35  N   UNL A   1      41.008  28.341  28.972  1.00  0.00    -0.354 N 
ATOM     36  C   UNL A   1      44.718  27.257  26.981  1.00  0.00     0.074 A 
ATOM     37  C   UNL A   1      44.703  25.864  26.595  1.00  0.00     0.031 C 
ATOM     38  C   UNL A   1      38.940  27.988  29.745  1.00  0.00     0.029 A 
ATOM     39  C   UNL A   1      39.995  28.992  29.628  1.00  0.00     0.049 A 
ATOM     40  H   UNL A   1      41.850  28.777  28.709  1.00  0.00     0.167 HD
ATOM     41  C   UNL A   1      45.733  28.113  26.719  1.00  0.00     0.037 A 
ATOM     42  C   UNL A   1      39.941  30.252  30.099  1.00  0.00     0.037 A 
ATOM     43  C   UNL A   1      45.735  29.496  27.117  1.00  0.00     0.049 A 
ATOM     44  C   UNL A   1      41.113  31.167  29.864  1.00  0.00     0.074 A 
ATOM     45  C   UNL A   1      46.706  30.457  26.905  1.00  0.00     0.029 A 
ATOM     46  N   UNL A   1      44.709  30.113  27.821  1.00  0.00    -0.354 N 
ATOM     47  N   UNL A   1      42.240  30.925  29.237  1.00  0.00    -0.248 NA
ATOM     48  C   UNL A   1      41.003  32.533  30.391  1.00  0.00     0.031 C 
ATOM     49  C   UNL A   1      46.295  31.637  27.533  1.00  0.00     0.029 A 
ATOM     50  C   UNL A   1      45.038  31.433  28.080  1.00  0.00     0.049 A 
ATOM     51  H   UNL A   1      43.871  29.675  28.097  1.00  0.00     0.167 HD
ATOM     52  C   UNL A   1      42.965  32.108  29.277  1.00  0.00     0.074 A 
ATOM     53  C   UNL A   1      42.138  33.075  29.973  1.00  0.00     0.031 C 
ATOM     54  C   UNL A   1      44.199  32.374  28.781  1.00  0.00     0.037 A 
BRANCH  41  55
ATOM     55  C   UNL A   1      46.935  27.561  26.003  1.00  0.00     0.064 A 
ATOM     56  C   UNL A   1      48.010  26.979  26.694  1.00  0.00     0.173 A 
ATOM     57  C   UNL A   1      47.014  27.620  24.603  1.00  0.00     0.173 A 
ATOM     58  F   UNL A   1      47.994  26.912  28.034  1.00  0.00    -0.203 F 
ATOM     59  C   UNL A   1      49.133  26.513  26.014  1.00  0.00     0.198 A 
ATOM     60  C   UNL A   1      48.124  27.121  23.924  1.00  0.00     0.198 A 
ATOM     61  F   UNL A   1      46.016  28.163  23.890  1.00  0.00    -0.203 F 
ATOM     62  F   UNL A   1      50.173  26.021  26.700  1.00  0.00    -0.200 F 
ATOM     63  C   UNL A   1      49.186  26.578  24.630  1.00  0.00     0.200 A 
ATOM     64  F   UNL A   1      48.167  27.173  22.585  1.00  0.00    -0.200 F 
ATOM     65  F   UNL A   1      50.268  26.130  23.977  1.00  0.00    -0.200 F 
ENDBRANCH  41  55
BRANCH  42  66
ATOM     66  C   UNL A   1      38.742  30.701  30.853  1.00  0.00     0.064 A 
ATOM     67  C   UNL A   1      38.646  30.533  32.240  1.00  0.00     0.173 A 
ATOM     68  C   UNL A   1      37.674  31.332  30.197  1.00  0.00     0.173 A 
ATOM     69  F   UNL A   1      39.632  29.917  32.910  1.00  0.00    -0.203 F 
ATOM     70  C   UNL A   1      37.522  30.969  32.942  1.00  0.00     0.198 A 
ATOM     71  C   UNL A   1      36.566  31.795  30.903  1.00  0.00     0.198 A 
ATOM     72  F   UNL A   1      37.717  31.520  28.869  1.00  0.00    -0.203 F 
ATOM     73  F   UNL A   1      37.439  30.763  34.263  1.00  0.00    -0.200 F 
ATOM     74  C   UNL A   1      36.489  31.608  32.273  1.00  0.00     0.200 A 
ATOM     75  F   UNL A   1      35.578  32.427  30.255  1.00  0.00    -0.200 F 
ATOM     76  F   UNL A   1      35.416  32.040  32.951  1.00  0.00    -0.200 F 
ENDBRANCH  42  66
BRANCH  54  77
ATOM     77  C   UNL A   1      44.720  33.773  28.952  1.00  0.00     0.064 A 
ATOM     78  C   UNL A   1      45.528  34.132  30.041  1.00  0.00     0.173 A 
ATOM     79  C   UNL A   1      44.437  34.758  27.992  1.00  0.00     0.173 A 
ATOM     80  F   UNL A   1      45.816  33.232  30.994  1.00  0.00    -0.203 F 
ATOM     81  C   UNL A   1      46.009  35.432  30.177  1.00  0.00     0.198 A 
ATOM     82  C   UNL A   1      44.950  36.046  28.113  1.00  0.00     0.198 A 
ATOM     83  F   UNL A   1      43.677  34.464  26.926  1.00  0.00    -0.203 F 
ATOM     84  F   UNL A   1      46.734  35.766  31.253  1.00  0.00    -0.200 F 
ATOM     85  C   UNL A   1      45.728  36.385  29.210  1.00  0.00     0.200 A 
ATOM     86  F   UNL A   1      44.690  36.960  27.167  1.00  0.00    -0.200 F 
ATOM     87  F   UNL A   1      46.198  37.633  29.339  1.00  0.00    -0.200 F 
ENDBRANCH  54  77
ENDBRANCH  28  29
ENDBRANCH  21  23
ENDBRANCH  20  21
ENDBRANCH  19  20
ENDBRANCH  18  19
ENDBRANCH  17  18
ENDBRANCH   1  17
TORSDOF 18
ENDMDL
MODEL 3
REMARK VINA RESULT:     -10.1      1.147      2.375
REMARK SMILES CC(=O)N1CCC[C@H]1COCC(=O)OCCOCCOC(=O)c1ccc(-c2c3nc(c(-c4c(F)c(F)c(F)c(F)c4F)c4ccc([nH]4)c(-c4c(F)c(F)c(F)c(F)c4F)c4nc(c(-c5c(F)c(F)c(F)c(F)c5F)c5ccc2[nH]5)C=C4)C=C3)cc1
REMARK SMILES IDX 16 1 15 2 14 3 12 4 13 5 11 6 10 7 9 8 8 9 4 10 5 11 6 12
REMARK SMILES IDX 7 13 2 14 1 15 3 16 17 17 18 18 19 19 20 20 21 21 22 22
REMARK SMILES IDX 23 23 24 24 85 25 25 26 84 27 26 28 27 29 28 30 78 31 29 32
REMARK SMILES IDX 83 33 77 34 79 35 30 36 82 37 76 38 75 39 31 41 63 42 43 43
REMARK SMILES IDX 62 44 44 45 47 46 61 47 80 48 45 49 46 50 60 52 81 53 48 54
REMARK SMILES IDX 32 55 33 56 41 57 34 58 35 59 39 60 42 61 36 62 37 63 40 64
REMARK SMILES IDX 38 65 64 66 65 67 73 68 66 69 67 70 71 71 74 72 68 73 69 74
REMARK SMILES IDX 72 75 70 76 49 77 50 78 58 79 51 80 52 81 56 82 59 83 53 84
REMARK SMILES IDX 54 85 57 86 55 87
REMARK H PARENT 79 40 47 51
REMARK Flexibility Score: inf
ROOT
ATOM      1  C   UNL A   1      35.924  22.607  23.938  1.00  0.00     0.202 C 
ENDROOT
BRANCH   1   2
ATOM      2  C   UNL A   1      34.817  23.676  23.854  1.00  0.00     0.261 C 
BRANCH   2   3
ATOM      3  O   UNL A   1      34.351  23.919  22.503  1.00  0.00    -0.462 OA
BRANCH   3   4
ATOM      4  C   UNL A   1      33.036  24.263  22.380  1.00  0.00     0.332 C 
ATOM      5  O   UNL A   1      32.111  23.652  22.904  1.00  0.00    -0.250 OA
BRANCH   4   6
ATOM      6  C   UNL A   1      32.795  25.453  21.421  1.00  0.00     0.282 C 
BRANCH   6   7
ATOM      7  O   UNL A   1      32.614  26.815  21.765  1.00  0.00    -0.368 OA
BRANCH   7   8
ATOM      8  C   UNL A   1      32.687  27.192  23.141  1.00  0.00     0.186 C 
BRANCH   8   9
ATOM      9  C   UNL A   1      31.373  27.574  23.861  1.00  0.00     0.111 C 
ATOM     10  N   UNL A   1      31.546  28.332  25.122  1.00  0.00    -0.338 N 
ATOM     11  C   UNL A   1      31.245  29.734  24.910  1.00  0.00     0.120 C 
ATOM     12  C   UNL A   1      30.094  29.650  23.931  1.00  0.00     0.024 C 
ATOM     13  C   UNL A   1      30.529  28.527  22.989  1.00  0.00     0.029 C 
BRANCH  10  14
ATOM     14  C   UNL A   1      31.484  27.675  26.338  1.00  0.00     0.219 C 
ATOM     15  C   UNL A   1      32.019  28.390  27.556  1.00  0.00     0.114 C 
ATOM     16  O   UNL A   1      30.928  26.586  26.459  1.00  0.00    -0.275 OA
ENDBRANCH  10  14
ENDBRANCH   8   9
ENDBRANCH   7   8
ENDBRANCH   6   7
ENDBRANCH   4   6
ENDBRANCH   3   4
ENDBRANCH   2   3
ENDBRANCH   1   2
BRANCH   1  17
ATOM     17  O   UNL A   1      35.600  21.388  24.606  1.00  0.00    -0.374 OA
BRANCH  17  18
ATOM     18  C   UNL A   1      36.507  21.069  25.654  1.00  0.00     0.202 C 
BRANCH  18  19
ATOM     19  C   UNL A   1      37.777  20.360  25.194  1.00  0.00     0.261 C 
BRANCH  19  20
ATOM     20  O   UNL A   1      38.834  21.337  25.278  1.00  0.00    -0.460 OA
BRANCH  20  21
ATOM     21  C   UNL A   1      39.741  21.048  26.233  1.00  0.00     0.338 C 
ATOM     22  O   UNL A   1      40.306  19.985  26.405  1.00  0.00    -0.246 OA
BRANCH  21  23
ATOM     23  C   UNL A   1      40.126  22.286  26.939  1.00  0.00     0.060 A 
ATOM     24  C   UNL A   1      39.441  23.441  26.550  1.00  0.00     0.016 A 
ATOM     25  C   UNL A   1      41.125  22.345  27.918  1.00  0.00     0.016 A 
ATOM     26  C   UNL A   1      39.819  24.677  27.055  1.00  0.00     0.010 A 
ATOM     27  C   UNL A   1      41.505  23.591  28.428  1.00  0.00     0.010 A 
ATOM     28  C   UNL A   1      40.890  24.762  27.951  1.00  0.00    -0.014 A 
BRANCH  28  29
ATOM     29  C   UNL A   1      41.472  26.097  28.212  1.00  0.00     0.031 A 
ATOM     30  C   UNL A   1      42.845  26.399  27.683  1.00  0.00     0.074 A 
ATOM     31  C   UNL A   1      40.742  27.050  28.816  1.00  0.00     0.049 A 
ATOM     32  N   UNL A   1      43.540  27.504  27.753  1.00  0.00    -0.248 NA
ATOM     33  C   UNL A   1      43.529  25.304  26.976  1.00  0.00     0.031 C 
ATOM     34  C   UNL A   1      39.381  26.873  29.319  1.00  0.00     0.029 A 
ATOM     35  N   UNL A   1      41.043  28.355  29.102  1.00  0.00    -0.354 N 
ATOM     36  C   UNL A   1      44.738  27.237  27.103  1.00  0.00     0.074 A 
ATOM     37  C   UNL A   1      44.696  25.854  26.684  1.00  0.00     0.031 C 
ATOM     38  C   UNL A   1      38.965  28.030  29.857  1.00  0.00     0.029 A 
ATOM     39  C   UNL A   1      40.041  29.013  29.767  1.00  0.00     0.049 A 
ATOM     40  H   UNL A   1      41.896  28.780  28.852  1.00  0.00     0.167 HD
ATOM     41  C   UNL A   1      45.773  28.077  26.864  1.00  0.00     0.037 A 
ATOM     42  C   UNL A   1      40.012  30.263  30.266  1.00  0.00     0.037 A 
ATOM     43  C   UNL A   1      45.802  29.450  27.293  1.00  0.00     0.049 A 
ATOM     44  C   UNL A   1      41.204  31.158  30.057  1.00  0.00     0.074 A 
ATOM     45  C   UNL A   1      46.795  30.394  27.107  1.00  0.00     0.029 A 
ATOM     46  N   UNL A   1      44.786  30.073  28.006  1.00  0.00    -0.354 N 
ATOM     47  N   UNL A   1      42.328  30.905  29.430  1.00  0.00    -0.248 NA
ATOM     48  C   UNL A   1      41.121  32.514  30.614  1.00  0.00     0.031 C 
ATOM     49  C   UNL A   1      46.406  31.569  27.760  1.00  0.00     0.029 A 
ATOM     50  C   UNL A   1      45.142  31.380  28.296  1.00  0.00     0.049 A 
ATOM     51  H   UNL A   1      43.938  29.647  28.269  1.00  0.00     0.167 HD
ATOM     52  C   UNL A   1      43.078  32.072  29.499  1.00  0.00     0.074 A 
ATOM     53  C   UNL A   1      42.269  33.040  30.214  1.00  0.00     0.031 C 
ATOM     54  C   UNL A   1      44.321  32.323  29.015  1.00  0.00     0.037 A 
BRANCH  41  55
ATOM     55  C   UNL A   1      46.966  27.516  26.141  1.00  0.00     0.064 A 
ATOM     56  C   UNL A   1      48.012  26.870  26.820  1.00  0.00     0.173 A 
ATOM     57  C   UNL A   1      47.067  27.629  24.746  1.00  0.00     0.173 A 
ATOM     58  F   UNL A   1      47.975  26.749  28.156  1.00  0.00    -0.203 F 
ATOM     59  C   UNL A   1      49.129  26.396  26.136  1.00  0.00     0.198 A 
ATOM     60  C   UNL A   1      48.168  27.121  24.060  1.00  0.00     0.198 A 
ATOM     61  F   UNL A   1      46.096  28.233  24.043  1.00  0.00    -0.203 F 
ATOM     62  F   UNL A   1      50.143  25.842  26.814  1.00  0.00    -0.200 F 
ATOM     63  C   UNL A   1      49.203  26.516  24.757  1.00  0.00     0.200 A 
ATOM     64  F   UNL A   1      48.232  27.227  22.726  1.00  0.00    -0.200 F 
ATOM     65  F   UNL A   1      50.278  26.060  24.099  1.00  0.00    -0.200 F 
ENDBRANCH  41  55
BRANCH  42  66
ATOM     66  C   UNL A   1      38.820  30.721  31.026  1.00  0.00     0.064 A 
ATOM     67  C   UNL A   1      38.737  30.574  32.416  1.00  0.00     0.173 A 
ATOM     68  C   UNL A   1      37.743  31.339  30.371  1.00  0.00     0.173 A 
ATOM     69  F   UNL A   1      39.731  29.970  33.086  1.00  0.00    -0.203 F 
ATOM     70  C   UNL A   1      37.619  31.018  33.122  1.00  0.00     0.198 A 
ATOM     71  C   UNL A   1      36.641  31.810  31.080  1.00  0.00     0.198 A 
ATOM     72  F   UNL A   1      37.773  31.507  29.040  1.00  0.00    -0.203 F 
ATOM     73  F   UNL A   1      37.549  30.831  34.447  1.00  0.00    -0.200 F 
ATOM     74  C   UNL A   1      36.578  31.644  32.454  1.00  0.00     0.200 A 
ATOM     75  F   UNL A   1      35.645  32.430  30.432  1.00  0.00    -0.200 F 
ATOM     76  F   UNL A   1      35.510  32.083  33.135  1.00  0.00    -0.200 F 
ENDBRANCH  42  66
BRANCH  54  77
ATOM     77  C   UNL A   1      44.870  33.706  29.220  1.00  0.00     0.064 A 
ATOM     78  C   UNL A   1      44.621  34.742  28.307  1.00  0.00     0.173 A 
ATOM     79  C   UNL A   1      45.624  34.008  30.365  1.00  0.00     0.173 A 
ATOM     80  F   UNL A   1      43.917  34.502  27.189  1.00  0.00    -0.203 F 
ATOM     81  C   UNL A   1      45.130  36.020  28.519  1.00  0.00     0.198 A 
ATOM     82  C   UNL A   1      46.101  35.296  30.591  1.00  0.00     0.198 A 
ATOM     83  F   UNL A   1      45.883  33.056  31.274  1.00  0.00    -0.203 F 
ATOM     84  F   UNL A   1      44.925  36.980  27.607  1.00  0.00    -0.200 F 
ATOM     85  C   UNL A   1      45.862  36.298  29.663  1.00  0.00     0.200 A 
ATOM     86  F   UNL A   1      46.793  35.565  31.707  1.00  0.00    -0.200 F 
ATOM     87  F   UNL A   1      46.345  37.531  29.869  1.00  0.00    -0.200 F 
ENDBRANCH  54  77
ENDBRANCH  28  29
ENDBRANCH  21  23
ENDBRANCH  20  21
ENDBRANCH  19  20
ENDBRANCH  18  19
ENDBRANCH  17  18
ENDBRANCH   1  17
TORSDOF 18
ENDMDL
