MODEL 1
REMARK VINA RESULT:     -10.4      0.000      0.000
REMARK SMILES CCC(CC)(NC(=O)NCCc1nccs1)C(=O)OCCOCCOC(=O)c1ccc(-c2c3nc(c(-c4c(F)c(F)c(F)c(F)c4F)c4ccc([nH]4)c(-c4c(F)c(F)c(F)c(F)c4F)c4nc(c(-c5c(F)c(F)c(F)c(F)c5F)c5ccc2[nH]5)C=C4)C=C3)cc1
REMARK SMILES IDX 21 1 20 2 19 3 17 4 18 5 3 6 2 7 1 8 4 9 5 10 6 11 7 12 8 14
REMARK SMILES IDX 9 15 10 17 11 18 12 19 13 20 16 21 14 22 15 23 22 24 23 25
REMARK SMILES IDX 24 26 25 27 26 28 27 29 28 30 29 31 90 32 30 33 89 34 31 35
REMARK SMILES IDX 32 36 33 37 83 38 34 39 88 40 82 41 84 42 35 43 87 44 81 45
REMARK SMILES IDX 80 46 36 48 68 49 48 50 67 51 49 52 52 53 66 54 85 55 50 56
REMARK SMILES IDX 51 57 65 59 86 60 53 61 37 62 38 63 46 64 39 65 40 66 44 67
REMARK SMILES IDX 47 68 41 69 42 70 45 71 43 72 69 73 70 74 78 75 71 76 72 77
REMARK SMILES IDX 76 78 79 79 73 80 74 81 77 82 75 83 54 84 55 85 63 86 56 87
REMARK SMILES IDX 57 88 61 89 64 90 58 91 59 92 62 93 60 94
REMARK H PARENT 6 13 9 16 84 47 52 58
REMARK Flexibility Score: inf
ROOT
ATOM      1  C   UNL A   1      32.418  28.464  27.441  1.00  0.00     0.202 C 
ENDROOT
BRANCH   1   2
ATOM      2  C   UNL A   1      33.483  27.812  26.541  1.00  0.00     0.261 C 
BRANCH   2   3
ATOM      3  O   UNL A   1      32.985  26.651  25.838  1.00  0.00    -0.461 OA
BRANCH   3   4
ATOM      4  C   UNL A   1      33.430  26.469  24.573  1.00  0.00     0.331 C 
ATOM      5  O   UNL A   1      34.034  27.340  23.956  1.00  0.00    -0.249 OA
BRANCH   4   6
ATOM      6  C   UNL A   1      33.186  25.015  24.030  1.00  0.00     0.139 C 
BRANCH   6   7
ATOM      7  C   UNL A   1      31.730  24.656  24.526  1.00  0.00     0.037 C 
ATOM      8  C   UNL A   1      31.007  23.554  23.746  1.00  0.00     0.007 C 
ENDBRANCH   6   7
BRANCH   6   9
ATOM      9  C   UNL A   1      34.185  23.955  24.552  1.00  0.00     0.037 C 
ATOM     10  C   UNL A   1      35.326  23.634  23.578  1.00  0.00     0.007 C 
ENDBRANCH   6   9
BRANCH   6  11
ATOM     11  N   UNL A   1      33.121  24.992  22.527  1.00  0.00    -0.322 N 
ATOM     12  C   UNL A   1      32.720  25.774  21.520  1.00  0.00     0.315 C 
ATOM     13  H   UNL A   1      33.481  24.144  22.181  1.00  0.00     0.166 HD
ATOM     14  O   UNL A   1      33.156  25.509  20.397  1.00  0.00    -0.249 OA
ATOM     15  N   UNL A   1      31.908  26.838  21.620  1.00  0.00    -0.338 N 
ATOM     16  H   UNL A   1      32.179  27.638  21.115  1.00  0.00     0.165 HD
BRANCH  15  17
ATOM     17  C   UNL A   1      30.677  26.951  22.384  1.00  0.00     0.125 C 
BRANCH  17  18
ATOM     18  C   UNL A   1      30.504  28.274  23.146  1.00  0.00     0.089 C 
BRANCH  18  19
ATOM     19  C   UNL A   1      29.533  29.207  22.466  1.00  0.00     0.094 A 
ATOM     20  N   UNL A   1      29.839  30.024  21.480  1.00  0.00    -0.250 NA
ATOM     21  S   UNL A   1      27.913  29.356  23.035  1.00  0.00    -0.127 S 
ATOM     22  C   UNL A   1      28.780  30.856  21.185  1.00  0.00     0.123 A 
ATOM     23  C   UNL A   1      27.648  30.649  21.937  1.00  0.00     0.087 A 
ENDBRANCH  18  19
ENDBRANCH  17  18
ENDBRANCH  15  17
ENDBRANCH   6  11
ENDBRANCH   4   6
ENDBRANCH   3   4
ENDBRANCH   2   3
ENDBRANCH   1   2
BRANCH   1  24
ATOM     24  O   UNL A   1      31.460  29.249  26.734  1.00  0.00    -0.374 OA
BRANCH  24  25
ATOM     25  C   UNL A   1      32.019  30.315  25.960  1.00  0.00     0.202 C 
BRANCH  25  26
ATOM     26  C   UNL A   1      31.749  31.710  26.531  1.00  0.00     0.261 C 
BRANCH  26  27
ATOM     27  O   UNL A   1      32.478  31.922  27.762  1.00  0.00    -0.460 OA
BRANCH  27  28
ATOM     28  C   UNL A   1      33.464  32.856  27.698  1.00  0.00     0.338 C 
ATOM     29  O   UNL A   1      33.330  34.042  27.449  1.00  0.00    -0.246 OA
BRANCH  28  30
ATOM     30  C   UNL A   1      34.786  32.265  28.031  1.00  0.00     0.060 A 
ATOM     31  C   UNL A   1      34.920  30.895  28.263  1.00  0.00     0.016 A 
ATOM     32  C   UNL A   1      35.883  33.109  28.252  1.00  0.00     0.016 A 
ATOM     33  C   UNL A   1      36.129  30.374  28.742  1.00  0.00     0.010 A 
ATOM     34  C   UNL A   1      37.101  32.584  28.713  1.00  0.00     0.010 A 
ATOM     35  C   UNL A   1      37.223  31.213  28.996  1.00  0.00    -0.014 A 
BRANCH  35  36
ATOM     36  C   UNL A   1      38.418  30.666  29.698  1.00  0.00     0.031 A 
ATOM     37  C   UNL A   1      38.661  31.035  31.139  1.00  0.00     0.074 A 
ATOM     38  C   UNL A   1      39.229  29.769  29.107  1.00  0.00     0.049 A 
ATOM     39  N   UNL A   1      39.622  30.654  31.946  1.00  0.00    -0.248 NA
ATOM     40  C   UNL A   1      37.685  31.946  31.754  1.00  0.00     0.031 C 
ATOM     41  C   UNL A   1      39.091  29.282  27.738  1.00  0.00     0.029 A 
ATOM     42  N   UNL A   1      40.321  29.088  29.594  1.00  0.00    -0.354 N 
ATOM     43  C   UNL A   1      39.368  31.283  33.158  1.00  0.00     0.074 A 
ATOM     44  C   UNL A   1      38.177  32.086  32.976  1.00  0.00     0.031 C 
ATOM     45  C   UNL A   1      40.033  28.352  27.504  1.00  0.00     0.029 A 
ATOM     46  C   UNL A   1      40.872  28.209  28.694  1.00  0.00     0.049 A 
ATOM     47  H   UNL A   1      40.673  29.218  30.504  1.00  0.00     0.167 HD
ATOM     48  C   UNL A   1      40.054  31.195  34.324  1.00  0.00     0.037 A 
ATOM     49  C   UNL A   1      41.937  27.389  28.809  1.00  0.00     0.037 A 
ATOM     50  C   UNL A   1      41.240  30.407  34.524  1.00  0.00     0.049 A 
ATOM     51  C   UNL A   1      42.712  27.348  30.103  1.00  0.00     0.074 A 
ATOM     52  C   UNL A   1      42.041  30.316  35.649  1.00  0.00     0.029 A 
ATOM     53  N   UNL A   1      41.791  29.562  33.573  1.00  0.00    -0.354 N 
ATOM     54  N   UNL A   1      42.486  27.982  31.227  1.00  0.00    -0.248 NA
ATOM     55  C   UNL A   1      43.899  26.478  30.138  1.00  0.00     0.031 C 
ATOM     56  C   UNL A   1      43.089  29.430  35.372  1.00  0.00     0.029 A 
ATOM     57  C   UNL A   1      42.922  28.946  34.087  1.00  0.00     0.049 A 
ATOM     58  H   UNL A   1      41.433  29.421  32.667  1.00  0.00     0.167 HD
ATOM     59  C   UNL A   1      43.492  27.585  32.099  1.00  0.00     0.074 A 
ATOM     60  C   UNL A   1      44.312  26.628  31.389  1.00  0.00     0.031 C 
ATOM     61  C   UNL A   1      43.726  27.991  33.372  1.00  0.00     0.037 A 
BRANCH  48  62
ATOM     62  C   UNL A   1      39.540  32.009  35.473  1.00  0.00     0.064 A 
ATOM     63  C   UNL A   1      39.958  33.333  35.676  1.00  0.00     0.173 A 
ATOM     64  C   UNL A   1      38.621  31.462  36.379  1.00  0.00     0.173 A 
ATOM     65  F   UNL A   1      40.850  33.894  34.844  1.00  0.00    -0.203 F 
ATOM     66  C   UNL A   1      39.495  34.069  36.762  1.00  0.00     0.198 A 
ATOM     67  C   UNL A   1      38.142  32.209  37.452  1.00  0.00     0.198 A 
ATOM     68  F   UNL A   1      38.188  30.201  36.225  1.00  0.00    -0.203 F 
ATOM     69  F   UNL A   1      39.943  35.316  36.964  1.00  0.00    -0.200 F 
ATOM     70  C   UNL A   1      38.585  33.508  37.646  1.00  0.00     0.200 A 
ATOM     71  F   UNL A   1      37.258  31.669  38.302  1.00  0.00    -0.200 F 
ATOM     72  F   UNL A   1      38.143  34.218  38.695  1.00  0.00    -0.200 F 
ENDBRANCH  48  62
BRANCH  49  73
ATOM     73  C   UNL A   1      42.359  26.540  27.663  1.00  0.00     0.064 A 
ATOM     74  C   UNL A   1      41.817  25.262  27.467  1.00  0.00     0.173 A 
ATOM     75  C   UNL A   1      43.351  26.971  26.769  1.00  0.00     0.173 A 
ATOM     76  F   UNL A   1      40.888  24.793  28.313  1.00  0.00    -0.203 F 
ATOM     77  C   UNL A   1      42.266  24.439  26.435  1.00  0.00     0.198 A 
ATOM     78  C   UNL A   1      43.777  26.159  25.721  1.00  0.00     0.198 A 
ATOM     79  F   UNL A   1      43.907  28.182  26.915  1.00  0.00    -0.203 F 
ATOM     80  F   UNL A   1      41.770  23.201  26.305  1.00  0.00    -0.200 F 
ATOM     81  C   UNL A   1      43.242  24.890  25.560  1.00  0.00     0.200 A 
ATOM     82  F   UNL A   1      44.715  26.603  24.871  1.00  0.00    -0.200 F 
ATOM     83  F   UNL A   1      43.676  24.098  24.571  1.00  0.00    -0.200 F 
ENDBRANCH  49  73
BRANCH  61  84
ATOM     84  C   UNL A   1      44.907  27.393  34.080  1.00  0.00     0.064 A 
ATOM     85  C   UNL A   1      44.796  26.196  34.804  1.00  0.00     0.173 A 
ATOM     86  C   UNL A   1      46.166  28.007  34.013  1.00  0.00     0.173 A 
ATOM     87  F   UNL A   1      43.610  25.580  34.909  1.00  0.00    -0.203 F 
ATOM     88  C   UNL A   1      45.899  25.648  35.453  1.00  0.00     0.198 A 
ATOM     89  C   UNL A   1      47.272  27.442  34.645  1.00  0.00     0.198 A 
ATOM     90  F   UNL A   1      46.327  29.151  33.332  1.00  0.00    -0.203 F 
ATOM     91  F   UNL A   1      45.760  24.526  36.174  1.00  0.00    -0.200 F 
ATOM     92  C   UNL A   1      47.136  26.268  35.370  1.00  0.00     0.200 A 
ATOM     93  F   UNL A   1      48.469  28.039  34.558  1.00  0.00    -0.200 F 
ATOM     94  F   UNL A   1      48.196  25.738  35.997  1.00  0.00    -0.200 F 
ENDBRANCH  61  84
ENDBRANCH  35  36
ENDBRANCH  28  30
ENDBRANCH  27  28
ENDBRANCH  26  27
ENDBRANCH  25  26
ENDBRANCH  24  25
ENDBRANCH   1  24
TORSDOF 20
ENDMDL
MODEL 2
REMARK VINA RESULT:     -10.2      5.030     10.437
REMARK SMILES CCC(CC)(NC(=O)NCCc1nccs1)C(=O)OCCOCCOC(=O)c1ccc(-c2c3nc(c(-c4c(F)c(F)c(F)c(F)c4F)c4ccc([nH]4)c(-c4c(F)c(F)c(F)c(F)c4F)c4nc(c(-c5c(F)c(F)c(F)c(F)c5F)c5ccc2[nH]5)C=C4)C=C3)cc1
REMARK SMILES IDX 21 1 20 2 19 3 17 4 18 5 3 6 2 7 1 8 4 9 5 10 6 11 7 12 8 14
REMARK SMILES IDX 9 15 10 17 11 18 12 19 13 20 16 21 14 22 15 23 22 24 23 25
REMARK SMILES IDX 24 26 25 27 26 28 27 29 28 30 29 31 90 32 30 33 89 34 31 35
REMARK SMILES IDX 32 36 33 37 83 38 34 39 88 40 82 41 84 42 35 43 87 44 81 45
REMARK SMILES IDX 80 46 36 48 68 49 48 50 67 51 49 52 52 53 66 54 85 55 50 56
REMARK SMILES IDX 51 57 65 59 86 60 53 61 37 62 38 63 46 64 39 65 40 66 44 67
REMARK SMILES IDX 47 68 41 69 42 70 45 71 43 72 69 73 70 74 78 75 71 76 72 77
REMARK SMILES IDX 76 78 79 79 73 80 74 81 77 82 75 83 54 84 55 85 63 86 56 87
REMARK SMILES IDX 57 88 61 89 64 90 58 91 59 92 62 93 60 94
REMARK H PARENT 6 13 9 16 84 47 52 58
REMARK Flexibility Score: inf
ROOT
ATOM      1  C   UNL A   1      37.205  22.880  24.951  1.00  0.00     0.202 C 
ENDROOT
BRANCH   1   2
ATOM      2  C   UNL A   1      36.188  22.802  23.799  1.00  0.00     0.261 C 
BRANCH   2   3
ATOM      3  O   UNL A   1      35.137  23.787  23.913  1.00  0.00    -0.461 OA
BRANCH   3   4
ATOM      4  C   UNL A   1      33.867  23.334  23.806  1.00  0.00     0.331 C 
ATOM      5  O   UNL A   1      33.527  22.516  22.957  1.00  0.00    -0.249 OA
BRANCH   4   6
ATOM      6  C   UNL A   1      32.914  23.880  24.931  1.00  0.00     0.139 C 
BRANCH   6   7
ATOM      7  C   UNL A   1      31.550  23.123  24.683  1.00  0.00     0.037 C 
ATOM      8  C   UNL A   1      30.687  22.869  25.922  1.00  0.00     0.007 C 
ENDBRANCH   6   7
BRANCH   6   9
ATOM      9  C   UNL A   1      32.672  25.408  24.885  1.00  0.00     0.037 C 
ATOM     10  C   UNL A   1      33.352  26.184  26.020  1.00  0.00     0.007 C 
ENDBRANCH   6   9
BRANCH   6  11
ATOM     11  N   UNL A   1      33.373  23.453  26.298  1.00  0.00    -0.322 N 
ATOM     12  C   UNL A   1      34.035  22.444  26.873  1.00  0.00     0.315 C 
ATOM     13  H   UNL A   1      33.104  24.116  26.973  1.00  0.00     0.166 HD
ATOM     14  O   UNL A   1      34.495  22.646  28.000  1.00  0.00    -0.249 OA
ATOM     15  N   UNL A   1      34.269  21.240  26.329  1.00  0.00    -0.338 N 
ATOM     16  H   UNL A   1      35.180  20.884  26.440  1.00  0.00     0.165 HD
BRANCH  15  17
ATOM     17  C   UNL A   1      33.339  20.397  25.595  1.00  0.00     0.125 C 
BRANCH  17  18
ATOM     18  C   UNL A   1      33.992  19.384  24.643  1.00  0.00     0.089 C 
BRANCH  18  19
ATOM     19  C   UNL A   1      33.510  17.974  24.883  1.00  0.00     0.094 A 
ATOM     20  N   UNL A   1      32.422  17.655  25.552  1.00  0.00    -0.250 NA
ATOM     21  S   UNL A   1      34.452  16.624  24.373  1.00  0.00    -0.127 S 
ATOM     22  C   UNL A   1      32.340  16.291  25.734  1.00  0.00     0.123 A 
ATOM     23  C   UNL A   1      33.364  15.565  25.173  1.00  0.00     0.087 A 
ENDBRANCH  18  19
ENDBRANCH  17  18
ENDBRANCH  15  17
ENDBRANCH   6  11
ENDBRANCH   4   6
ENDBRANCH   3   4
ENDBRANCH   2   3
ENDBRANCH   1   2
BRANCH   1  24
ATOM     24  O   UNL A   1      37.333  21.671  25.697  1.00  0.00    -0.374 OA
BRANCH  24  25
ATOM     25  C   UNL A   1      37.762  20.541  24.930  1.00  0.00     0.202 C 
BRANCH  25  26
ATOM     26  C   UNL A   1      38.847  19.700  25.609  1.00  0.00     0.261 C 
BRANCH  26  27
ATOM     27  O   UNL A   1      40.114  20.396  25.625  1.00  0.00    -0.460 OA
BRANCH  27  28
ATOM     28  C   UNL A   1      40.737  20.441  26.833  1.00  0.00     0.338 C 
ATOM     29  O   UNL A   1      41.154  19.490  27.474  1.00  0.00    -0.246 OA
BRANCH  28  30
ATOM     30  C   UNL A   1      40.912  21.842  27.296  1.00  0.00     0.060 A 
ATOM     31  C   UNL A   1      40.392  22.909  26.563  1.00  0.00     0.016 A 
ATOM     32  C   UNL A   1      41.727  22.105  28.406  1.00  0.00     0.016 A 
ATOM     33  C   UNL A   1      40.707  24.228  26.912  1.00  0.00     0.010 A 
ATOM     34  C   UNL A   1      42.027  23.428  28.769  1.00  0.00     0.010 A 
ATOM     35  C   UNL A   1      41.546  24.502  28.002  1.00  0.00    -0.014 A 
BRANCH  35  36
ATOM     36  C   UNL A   1      42.030  25.894  28.221  1.00  0.00     0.031 A 
ATOM     37  C   UNL A   1      43.352  26.318  27.634  1.00  0.00     0.074 A 
ATOM     38  C   UNL A   1      41.268  26.812  28.845  1.00  0.00     0.049 A 
ATOM     39  N   UNL A   1      43.950  27.483  27.682  1.00  0.00    -0.248 NA
ATOM     40  C   UNL A   1      44.092  25.292  26.884  1.00  0.00     0.031 C 
ATOM     41  C   UNL A   1      39.950  26.561  29.420  1.00  0.00     0.029 A 
ATOM     42  N   UNL A   1      41.484  28.151  29.077  1.00  0.00    -0.354 N 
ATOM     43  C   UNL A   1      45.135  27.329  26.974  1.00  0.00     0.074 A 
ATOM     44  C   UNL A   1      45.184  25.953  26.527  1.00  0.00     0.031 C 
ATOM     45  C   UNL A   1      39.455  27.713  29.905  1.00  0.00     0.029 A 
ATOM     46  C   UNL A   1      40.440  28.777  29.714  1.00  0.00     0.049 A 
ATOM     47  H   UNL A   1      42.309  28.616  28.811  1.00  0.00     0.167 HD
ATOM     48  C   UNL A   1      46.096  28.248  26.710  1.00  0.00     0.037 A 
ATOM     49  C   UNL A   1      40.298  30.059  30.108  1.00  0.00     0.037 A 
ATOM     50  C   UNL A   1      46.068  29.617  27.149  1.00  0.00     0.049 A 
ATOM     51  C   UNL A   1      41.404  31.050  29.844  1.00  0.00     0.074 A 
ATOM     52  C   UNL A   1      47.031  30.598  26.989  1.00  0.00     0.029 A 
ATOM     53  N   UNL A   1      45.012  30.203  27.829  1.00  0.00    -0.354 N 
ATOM     54  N   UNL A   1      42.539  30.878  29.213  1.00  0.00    -0.248 NA
ATOM     55  C   UNL A   1      41.208  32.417  30.356  1.00  0.00     0.031 C 
ATOM     56  C   UNL A   1      46.566  31.774  27.590  1.00  0.00     0.029 A 
ATOM     57  C   UNL A   1      45.299  31.533  28.094  1.00  0.00     0.049 A 
ATOM     58  H   UNL A   1      44.180  29.742  28.084  1.00  0.00     0.167 HD
ATOM     59  C   UNL A   1      43.186  32.108  29.247  1.00  0.00     0.074 A 
ATOM     60  C   UNL A   1      42.303  33.029  29.929  1.00  0.00     0.031 C 
ATOM     61  C   UNL A   1      44.410  32.441  28.769  1.00  0.00     0.037 A 
BRANCH  48  62
ATOM     62  C   UNL A   1      47.282  27.778  25.924  1.00  0.00     0.064 A 
ATOM     63  C   UNL A   1      47.274  27.771  24.521  1.00  0.00     0.173 A 
ATOM     64  C   UNL A   1      48.439  27.333  26.579  1.00  0.00     0.173 A 
ATOM     65  F   UNL A   1      46.182  28.171  23.851  1.00  0.00    -0.203 F 
ATOM     66  C   UNL A   1      48.372  27.306  23.803  1.00  0.00     0.198 A 
ATOM     67  C   UNL A   1      49.544  26.891  25.857  1.00  0.00     0.198 A 
ATOM     68  F   UNL A   1      48.497  27.325  27.919  1.00  0.00    -0.203 F 
ATOM     69  F   UNL A   1      48.325  27.263  22.464  1.00  0.00    -0.200 F 
ATOM     70  C   UNL A   1      49.507  26.870  24.470  1.00  0.00     0.200 A 
ATOM     71  F   UNL A   1      50.643  26.476  26.502  1.00  0.00    -0.200 F 
ATOM     72  F   UNL A   1      50.562  26.420  23.777  1.00  0.00    -0.200 F 
ENDBRANCH  48  62
BRANCH  49  73
ATOM     73  C   UNL A   1      39.064  30.494  30.816  1.00  0.00     0.064 A 
ATOM     74  C   UNL A   1      38.006  31.101  30.125  1.00  0.00     0.173 A 
ATOM     75  C   UNL A   1      38.940  30.357  32.206  1.00  0.00     0.173 A 
ATOM     76  F   UNL A   1      38.090  31.283  28.798  1.00  0.00    -0.203 F 
ATOM     77  C   UNL A   1      36.882  31.574  30.799  1.00  0.00     0.198 A 
ATOM     78  C   UNL A   1      37.803  30.804  32.876  1.00  0.00     0.198 A 
ATOM     79  F   UNL A   1      39.925  29.789  32.916  1.00  0.00    -0.203 F 
ATOM     80  F   UNL A   1      35.910  32.200  30.121  1.00  0.00    -0.200 F 
ATOM     81  C   UNL A   1      36.779  31.421  32.174  1.00  0.00     0.200 A 
ATOM     82  F   UNL A   1      37.704  30.645  34.203  1.00  0.00    -0.200 F 
ATOM     83  F   UNL A   1      35.700  31.879  32.823  1.00  0.00    -0.200 F 
ENDBRANCH  49  73
BRANCH  61  84
ATOM     84  C   UNL A   1      44.862  33.860  28.958  1.00  0.00     0.064 A 
ATOM     85  C   UNL A   1      45.583  34.252  30.096  1.00  0.00     0.173 A 
ATOM     86  C   UNL A   1      44.596  34.830  27.981  1.00  0.00     0.173 A 
ATOM     87  F   UNL A   1      45.849  33.364  31.065  1.00  0.00    -0.203 F 
ATOM     88  C   UNL A   1      46.002  35.570  30.258  1.00  0.00     0.198 A 
ATOM     89  C   UNL A   1      45.038  36.143  28.137  1.00  0.00     0.198 A 
ATOM     90  F   UNL A   1      43.914  34.507  26.873  1.00  0.00    -0.203 F 
ATOM     91  F   UNL A   1      46.652  35.932  31.373  1.00  0.00    -0.200 F 
ATOM     92  C   UNL A   1      45.733  36.513  29.278  1.00  0.00     0.200 A 
ATOM     93  F   UNL A   1      44.784  37.051  27.184  1.00  0.00    -0.200 F 
ATOM     94  F   UNL A   1      46.137  37.781  29.436  1.00  0.00    -0.200 F 
ENDBRANCH  61  84
ENDBRANCH  35  36
ENDBRANCH  28  30
ENDBRANCH  27  28
ENDBRANCH  26  27
ENDBRANCH  25  26
ENDBRANCH  24  25
ENDBRANCH   1  24
TORSDOF 20
ENDMDL
MODEL 3
REMARK VINA RESULT:     -10.0      0.978      2.278
REMARK SMILES CCC(CC)(NC(=O)NCCc1nccs1)C(=O)OCCOCCOC(=O)c1ccc(-c2c3nc(c(-c4c(F)c(F)c(F)c(F)c4F)c4ccc([nH]4)c(-c4c(F)c(F)c(F)c(F)c4F)c4nc(c(-c5c(F)c(F)c(F)c(F)c5F)c5ccc2[nH]5)C=C4)C=C3)cc1
REMARK SMILES IDX 21 1 20 2 19 3 17 4 18 5 3 6 2 7 1 8 4 9 5 10 6 11 7 12 8 14
REMARK SMILES IDX 9 15 10 17 11 18 12 19 13 20 16 21 14 22 15 23 22 24 23 25
REMARK SMILES IDX 24 26 25 27 26 28 27 29 28 30 29 31 90 32 30 33 89 34 31 35
REMARK SMILES IDX 32 36 33 37 83 38 34 39 88 40 82 41 84 42 35 43 87 44 81 45
REMARK SMILES IDX 80 46 36 48 68 49 48 50 67 51 49 52 52 53 66 54 85 55 50 56
REMARK SMILES IDX 51 57 65 59 86 60 53 61 37 62 38 63 46 64 39 65 40 66 44 67
REMARK SMILES IDX 47 68 41 69 42 70 45 71 43 72 69 73 70 74 78 75 71 76 72 77
REMARK SMILES IDX 76 78 79 79 73 80 74 81 77 82 75 83 54 84 55 85 63 86 56 87
REMARK SMILES IDX 57 88 61 89 64 90 58 91 59 92 62 93 60 94
REMARK H PARENT 6 13 9 16 84 47 52 58
REMARK Flexibility Score: inf
ROOT
ATOM      1  C   UNL A   1      32.251  27.815  26.605  1.00  0.00     0.202 C 
ENDROOT
BRANCH   1   2
ATOM      2  C   UNL A   1      31.150  26.743  26.690  1.00  0.00     0.261 C 
BRANCH   2   3
ATOM      3  O   UNL A   1      31.675  25.398  26.653  1.00  0.00    -0.461 OA
BRANCH   3   4
ATOM      4  C   UNL A   1      31.638  24.763  25.459  1.00  0.00     0.331 C 
ATOM      5  O   UNL A   1      30.642  24.764  24.743  1.00  0.00    -0.249 OA
BRANCH   4   6
ATOM      6  C   UNL A   1      33.013  24.124  25.049  1.00  0.00     0.139 C 
BRANCH   6   7
ATOM      7  C   UNL A   1      33.091  22.795  25.899  1.00  0.00     0.037 C 
ATOM      8  C   UNL A   1      31.948  21.796  25.691  1.00  0.00     0.007 C 
ENDBRANCH   6   7
BRANCH   6   9
ATOM      9  C   UNL A   1      34.250  25.004  25.355  1.00  0.00     0.037 C 
ATOM     10  C   UNL A   1      35.536  24.209  25.614  1.00  0.00     0.007 C 
ENDBRANCH   6   9
BRANCH   6  11
ATOM     11  N   UNL A   1      33.012  23.687  23.610  1.00  0.00    -0.322 N 
ATOM     12  C   UNL A   1      33.329  24.172  22.406  1.00  0.00     0.315 C 
ATOM     13  H   UNL A   1      32.675  22.766  23.532  1.00  0.00     0.166 HD
ATOM     14  O   UNL A   1      33.491  23.353  21.497  1.00  0.00    -0.249 OA
ATOM     15  N   UNL A   1      33.514  25.464  22.097  1.00  0.00    -0.338 N 
ATOM     16  H   UNL A   1      34.295  25.668  21.533  1.00  0.00     0.165 HD
BRANCH  15  17
ATOM     17  C   UNL A   1      32.700  26.602  22.496  1.00  0.00     0.125 C 
BRANCH  17  18
ATOM     18  C   UNL A   1      31.243  26.559  22.014  1.00  0.00     0.089 C 
BRANCH  18  19
ATOM     19  C   UNL A   1      30.490  27.825  22.345  1.00  0.00     0.094 A 
ATOM     20  N   UNL A   1      30.839  29.032  21.955  1.00  0.00    -0.250 NA
ATOM     21  S   UNL A   1      29.125  27.785  23.398  1.00  0.00    -0.127 S 
ATOM     22  C   UNL A   1      30.045  29.990  22.551  1.00  0.00     0.123 A 
ATOM     23  C   UNL A   1      29.064  29.500  23.380  1.00  0.00     0.087 A 
ENDBRANCH  18  19
ENDBRANCH  17  18
ENDBRANCH  15  17
ENDBRANCH   6  11
ENDBRANCH   4   6
ENDBRANCH   3   4
ENDBRANCH   2   3
ENDBRANCH   1   2
BRANCH   1  24
ATOM     24  O   UNL A   1      32.452  28.339  25.293  1.00  0.00    -0.374 OA
BRANCH  24  25
ATOM     25  C   UNL A   1      32.800  29.726  25.254  1.00  0.00     0.202 C 
BRANCH  25  26
ATOM     26  C   UNL A   1      31.909  30.619  26.124  1.00  0.00     0.261 C 
BRANCH  26  27
ATOM     27  O   UNL A   1      32.493  30.825  27.430  1.00  0.00    -0.460 OA
BRANCH  27  28
ATOM     28  C   UNL A   1      33.363  31.866  27.519  1.00  0.00     0.338 C 
ATOM     29  O   UNL A   1      33.101  33.049  27.379  1.00  0.00    -0.246 OA
BRANCH  28  30
ATOM     30  C   UNL A   1      34.728  31.397  27.872  1.00  0.00     0.060 A 
ATOM     31  C   UNL A   1      34.968  30.057  28.177  1.00  0.00     0.016 A 
ATOM     32  C   UNL A   1      35.759  32.333  28.035  1.00  0.00     0.016 A 
ATOM     33  C   UNL A   1      36.215  29.656  28.673  1.00  0.00     0.010 A 
ATOM     34  C   UNL A   1      37.015  31.929  28.514  1.00  0.00     0.010 A 
ATOM     35  C   UNL A   1      37.244  30.590  28.870  1.00  0.00    -0.014 A 
BRANCH  35  36
ATOM     36  C   UNL A   1      38.480  30.175  29.591  1.00  0.00     0.031 A 
ATOM     37  C   UNL A   1      38.706  30.649  31.004  1.00  0.00     0.074 A 
ATOM     38  C   UNL A   1      39.351  29.304  29.046  1.00  0.00     0.049 A 
ATOM     39  N   UNL A   1      39.698  30.390  31.821  1.00  0.00    -0.248 NA
ATOM     40  C   UNL A   1      37.670  31.524  31.573  1.00  0.00     0.031 C 
ATOM     41  C   UNL A   1      39.238  28.724  27.712  1.00  0.00     0.029 A 
ATOM     42  N   UNL A   1      40.493  28.735  29.562  1.00  0.00    -0.354 N 
ATOM     43  C   UNL A   1      39.407  31.072  32.995  1.00  0.00     0.074 A 
ATOM     44  C   UNL A   1      38.160  31.775  32.778  1.00  0.00     0.031 C 
ATOM     45  C   UNL A   1      40.244  27.853  27.524  1.00  0.00     0.029 A 
ATOM     46  C   UNL A   1      41.100  27.844  28.710  1.00  0.00     0.049 A 
ATOM     47  H   UNL A   1      40.841  28.947  30.457  1.00  0.00     0.167 HD
ATOM     48  C   UNL A   1      40.106  31.107  34.156  1.00  0.00     0.037 A 
ATOM     49  C   UNL A   1      42.222  27.113  28.864  1.00  0.00     0.037 A 
ATOM     50  C   UNL A   1      41.348  30.421  34.390  1.00  0.00     0.049 A 
ATOM     51  C   UNL A   1      43.008  27.208  30.148  1.00  0.00     0.074 A 
ATOM     52  C   UNL A   1      42.162  30.458  35.509  1.00  0.00     0.029 A 
ATOM     53  N   UNL A   1      41.953  29.561  33.486  1.00  0.00    -0.354 N 
ATOM     54  N   UNL A   1      42.744  27.893  31.233  1.00  0.00    -0.248 NA
ATOM     55  C   UNL A   1      44.256  26.430  30.223  1.00  0.00     0.031 C 
ATOM     56  C   UNL A   1      43.270  29.635  35.275  1.00  0.00     0.029 A 
ATOM     57  C   UNL A   1      43.129  29.061  34.024  1.00  0.00     0.049 A 
ATOM     58  H   UNL A   1      41.599  29.339  32.595  1.00  0.00     0.167 HD
ATOM     59  C   UNL A   1      43.783  27.624  32.117  1.00  0.00     0.074 A 
ATOM     60  C   UNL A   1      44.665  26.687  31.457  1.00  0.00     0.031 C 
ATOM     61  C   UNL A   1      43.996  28.124  33.359  1.00  0.00     0.037 A 
BRANCH  48  62
ATOM     62  C   UNL A   1      39.543  31.952  35.259  1.00  0.00     0.064 A 
ATOM     63  C   UNL A   1      38.684  31.412  36.227  1.00  0.00     0.173 A 
ATOM     64  C   UNL A   1      39.866  33.313  35.349  1.00  0.00     0.173 A 
ATOM     65  F   UNL A   1      38.333  30.118  36.171  1.00  0.00    -0.203 F 
ATOM     66  C   UNL A   1      38.146  32.213  37.230  1.00  0.00     0.198 A 
ATOM     67  C   UNL A   1      39.344  34.106  36.367  1.00  0.00     0.198 A 
ATOM     68  F   UNL A   1      40.687  33.875  34.448  1.00  0.00    -0.203 F 
ATOM     69  F   UNL A   1      37.290  31.688  38.118  1.00  0.00    -0.200 F 
ATOM     70  C   UNL A   1      38.479  33.557  37.302  1.00  0.00     0.200 A 
ATOM     71  F   UNL A   1      39.672  35.404  36.440  1.00  0.00    -0.200 F 
ATOM     72  F   UNL A   1      37.957  34.328  38.267  1.00  0.00    -0.200 F 
ENDBRANCH  48  62
BRANCH  49  73
ATOM     73  C   UNL A   1      42.697  26.227  27.767  1.00  0.00     0.064 A 
ATOM     74  C   UNL A   1      43.611  26.686  26.807  1.00  0.00     0.173 A 
ATOM     75  C   UNL A   1      42.209  24.920  27.628  1.00  0.00     0.173 A 
ATOM     76  F   UNL A   1      44.084  27.939  26.880  1.00  0.00    -0.203 F 
ATOM     77  C   UNL A   1      44.000  25.880  25.739  1.00  0.00     0.198 A 
ATOM     78  C   UNL A   1      42.621  24.105  26.576  1.00  0.00     0.198 A 
ATOM     79  F   UNL A   1      41.329  24.434  28.515  1.00  0.00    -0.203 F 
ATOM     80  F   UNL A   1      44.831  26.363  24.805  1.00  0.00    -0.200 F 
ATOM     81  C   UNL A   1      43.508  24.588  25.626  1.00  0.00     0.200 A 
ATOM     82  F   UNL A   1      42.150  22.853  26.477  1.00  0.00    -0.200 F 
ATOM     83  F   UNL A   1      43.879  23.815  24.598  1.00  0.00    -0.200 F 
ENDBRANCH  49  73
BRANCH  61  84
ATOM     84  C   UNL A   1      45.222  27.659  34.089  1.00  0.00     0.064 A 
ATOM     85  C   UNL A   1      46.442  28.344  33.979  1.00  0.00     0.173 A 
ATOM     86  C   UNL A   1      45.172  26.535  34.927  1.00  0.00     0.173 A 
ATOM     87  F   UNL A   1      46.543  29.415  33.179  1.00  0.00    -0.203 F 
ATOM     88  C   UNL A   1      47.572  27.907  34.664  1.00  0.00     0.198 A 
ATOM     89  C   UNL A   1      46.300  26.115  35.629  1.00  0.00     0.198 A 
ATOM     90  F   UNL A   1      44.030  25.847  35.069  1.00  0.00    -0.203 F 
ATOM     91  F   UNL A   1      48.737  28.552  34.511  1.00  0.00    -0.200 F 
ATOM     92  C   UNL A   1      47.500  26.797  35.491  1.00  0.00     0.200 A 
ATOM     93  F   UNL A   1      46.227  25.046  36.434  1.00  0.00    -0.200 F 
ATOM     94  F   UNL A   1      48.590  26.378  36.150  1.00  0.00    -0.200 F 
ENDBRANCH  61  84
ENDBRANCH  35  36
ENDBRANCH  28  30
ENDBRANCH  27  28
ENDBRANCH  26  27
ENDBRANCH  25  26
ENDBRANCH  24  25
ENDBRANCH   1  24
TORSDOF 20
ENDMDL
