MODEL 1
REMARK VINA RESULT:     -10.4      0.000      0.000
REMARK SMILES C[C@H](Cc1ccc(N)cc1)C(=O)OCCOCCOC(=O)c1ccc(-c2c3nc(c(-c4c(F)c(F)c(F)c(F)c4F)c4ccc([nH]4)c(-c4c(F)c(F)c(F)c(F)c4F)c4nc(c(-c5c(F)c(F)c(F)c(F)c5F)c5ccc2[nH]5)C=C4)C=C3)cc1
REMARK SMILES IDX 15 1 14 2 13 3 11 4 12 5 2 6 1 7 3 8 4 9 5 10 10 11 6 12
REMARK SMILES IDX 9 13 7 14 8 15 16 18 17 19 18 20 19 21 20 22 21 23 22 24
REMARK SMILES IDX 23 25 84 26 24 27 83 28 25 29 26 30 27 31 77 32 28 33 82 34
REMARK SMILES IDX 76 35 78 36 29 37 81 38 75 39 74 40 30 42 62 43 42 44 61 45
REMARK SMILES IDX 43 46 46 47 60 48 79 49 44 50 45 51 59 53 80 54 47 55 31 56
REMARK SMILES IDX 32 57 40 58 33 59 34 60 38 61 41 62 35 63 36 64 39 65 37 66
REMARK SMILES IDX 63 67 64 68 72 69 65 70 66 71 70 72 73 73 67 74 68 75 71 76
REMARK SMILES IDX 69 77 48 78 49 79 57 80 50 81 51 82 55 83 58 84 52 85 53 86
REMARK SMILES IDX 56 87 54 88
REMARK H PARENT 8 16 8 17 78 41 46 52
REMARK Flexibility Score: inf
ROOT
ATOM      1  C   UNL A   1      41.490  21.659  26.241  1.00  0.00     0.202 C 
ENDROOT
BRANCH   1   2
ATOM      2  C   UNL A   1      40.085  21.949  26.775  1.00  0.00     0.261 C 
BRANCH   2   3
ATOM      3  O   UNL A   1      39.099  21.475  25.838  1.00  0.00    -0.463 OA
BRANCH   3   4
ATOM      4  C   UNL A   1      38.048  22.281  25.571  1.00  0.00     0.309 C 
ATOM      5  O   UNL A   1      37.837  23.356  26.120  1.00  0.00    -0.252 OA
BRANCH   4   6
ATOM      6  C   UNL A   1      37.112  21.703  24.520  1.00  0.00     0.100 C 
ATOM      7  C   UNL A   1      36.659  22.763  23.526  1.00  0.00     0.020 C 
BRANCH   6   8
ATOM      8  C   UNL A   1      35.994  20.756  25.005  1.00  0.00     0.050 C 
BRANCH   8   9
ATOM      9  C   UNL A   1      34.562  21.174  25.265  1.00  0.00    -0.047 A 
ATOM     10  C   UNL A   1      33.481  20.921  24.419  1.00  0.00     0.006 A 
ATOM     11  C   UNL A   1      34.288  21.828  26.480  1.00  0.00     0.006 A 
ATOM     12  C   UNL A   1      32.183  21.327  24.759  1.00  0.00     0.026 A 
ATOM     13  C   UNL A   1      32.987  22.213  26.826  1.00  0.00     0.026 A 
ATOM     14  C   UNL A   1      31.923  21.984  25.959  1.00  0.00     0.031 A 
BRANCH  14  15
ATOM     15  N   UNL A   1      30.624  22.282  26.332  1.00  0.00    -0.399 N 
ATOM     16  H   UNL A   1      30.454  22.811  27.144  1.00  0.00     0.156 HD
ATOM     17  H   UNL A   1      29.870  21.966  25.783  1.00  0.00     0.156 HD
ENDBRANCH  14  15
ENDBRANCH   8   9
ENDBRANCH   6   8
ENDBRANCH   4   6
ENDBRANCH   3   4
ENDBRANCH   2   3
ENDBRANCH   1   2
BRANCH   1  18
ATOM     18  O   UNL A   1      42.133  20.542  26.861  1.00  0.00    -0.374 OA
BRANCH  18  19
ATOM     19  C   UNL A   1      41.883  19.278  26.249  1.00  0.00     0.202 C 
BRANCH  19  20
ATOM     20  C   UNL A   1      43.120  18.587  25.667  1.00  0.00     0.261 C 
BRANCH  20  21
ATOM     21  O   UNL A   1      43.481  19.130  24.385  1.00  0.00    -0.460 OA
BRANCH  21  22
ATOM     22  C   UNL A   1      44.781  19.478  24.248  1.00  0.00     0.338 C 
ATOM     23  O   UNL A   1      45.683  18.815  23.759  1.00  0.00    -0.246 OA
BRANCH  22  24
ATOM     24  C   UNL A   1      44.953  20.888  24.642  1.00  0.00     0.060 A 
ATOM     25  C   UNL A   1      45.459  21.165  25.918  1.00  0.00     0.016 A 
ATOM     26  C   UNL A   1      44.591  21.929  23.789  1.00  0.00     0.016 A 
ATOM     27  C   UNL A   1      45.612  22.488  26.341  1.00  0.00     0.010 A 
ATOM     28  C   UNL A   1      44.740  23.251  24.220  1.00  0.00     0.010 A 
ATOM     29  C   UNL A   1      45.253  23.548  25.497  1.00  0.00    -0.014 A 
BRANCH  29  30
ATOM     30  C   UNL A   1      45.346  24.962  25.960  1.00  0.00     0.031 A 
ATOM     31  C   UNL A   1      46.674  25.673  25.919  1.00  0.00     0.074 A 
ATOM     32  C   UNL A   1      44.264  25.609  26.439  1.00  0.00     0.049 A 
ATOM     33  N   UNL A   1      46.991  26.867  26.353  1.00  0.00    -0.248 NA
ATOM     34  C   UNL A   1      47.798  24.933  25.327  1.00  0.00     0.031 C 
ATOM     35  C   UNL A   1      42.918  25.048  26.546  1.00  0.00     0.029 A 
ATOM     36  N   UNL A   1      44.131  26.883  26.938  1.00  0.00    -0.354 N 
ATOM     37  C   UNL A   1      48.351  27.008  26.112  1.00  0.00     0.074 A 
ATOM     38  C   UNL A   1      48.808  25.766  25.529  1.00  0.00     0.031 C 
ATOM     39  C   UNL A   1      42.095  25.973  27.070  1.00  0.00     0.029 A 
ATOM     40  C   UNL A   1      42.861  27.181  27.373  1.00  0.00     0.049 A 
ATOM     41  H   UNL A   1      44.877  27.524  26.981  1.00  0.00     0.167 HD
ATOM     42  C   UNL A   1      49.147  28.081  26.336  1.00  0.00     0.037 A 
ATOM     43  C   UNL A   1      42.375  28.292  27.965  1.00  0.00     0.037 A 
ATOM     44  C   UNL A   1      48.693  29.339  26.867  1.00  0.00     0.049 A 
ATOM     45  C   UNL A   1      43.291  29.462  28.225  1.00  0.00     0.074 A 
ATOM     46  C   UNL A   1      49.416  30.505  27.054  1.00  0.00     0.029 A 
ATOM     47  N   UNL A   1      47.401  29.598  27.294  1.00  0.00    -0.354 N 
ATOM     48  N   UNL A   1      44.560  29.604  27.932  1.00  0.00    -0.248 NA
ATOM     49  C   UNL A   1      42.704  30.631  28.902  1.00  0.00     0.031 C 
ATOM     50  C   UNL A   1      48.576  31.453  27.646  1.00  0.00     0.029 A 
ATOM     51  C   UNL A   1      47.315  30.894  27.777  1.00  0.00     0.049 A 
ATOM     52  H   UNL A   1      46.655  28.957  27.261  1.00  0.00     0.167 HD
ATOM     53  C   UNL A   1      44.913  30.879  28.363  1.00  0.00     0.074 A 
ATOM     54  C   UNL A   1      43.720  31.481  28.914  1.00  0.00     0.031 C 
ATOM     55  C   UNL A   1      46.120  31.493  28.312  1.00  0.00     0.037 A 
BRANCH  42  56
ATOM     56  C   UNL A   1      50.606  27.953  26.008  1.00  0.00     0.064 A 
ATOM     57  C   UNL A   1      51.562  27.669  26.995  1.00  0.00     0.173 A 
ATOM     58  C   UNL A   1      51.042  28.047  24.678  1.00  0.00     0.173 A 
ATOM     59  F   UNL A   1      51.196  27.580  28.283  1.00  0.00    -0.203 F 
ATOM     60  C   UNL A   1      52.903  27.503  26.664  1.00  0.00     0.198 A 
ATOM     61  C   UNL A   1      52.380  27.849  24.347  1.00  0.00     0.198 A 
ATOM     62  F   UNL A   1      50.167  28.309  23.695  1.00  0.00    -0.203 F 
ATOM     63  F   UNL A   1      53.805  27.270  27.628  1.00  0.00    -0.200 F 
ATOM     64  C   UNL A   1      53.310  27.584  25.341  1.00  0.00     0.200 A 
ATOM     65  F   UNL A   1      52.768  27.912  23.065  1.00  0.00    -0.200 F 
ATOM     66  F   UNL A   1      54.599  27.406  25.022  1.00  0.00    -0.200 F 
ENDBRANCH  42  56
BRANCH  43  67
ATOM     67  C   UNL A   1      40.946  28.363  28.385  1.00  0.00     0.064 A 
ATOM     68  C   UNL A   1      39.973  28.926  27.547  1.00  0.00     0.173 A 
ATOM     69  C   UNL A   1      40.540  27.936  29.657  1.00  0.00     0.173 A 
ATOM     70  F   UNL A   1      40.316  29.376  26.331  1.00  0.00    -0.203 F 
ATOM     71  C   UNL A   1      38.658  29.095  27.981  1.00  0.00     0.198 A 
ATOM     72  C   UNL A   1      39.219  28.074  30.077  1.00  0.00     0.198 A 
ATOM     73  F   UNL A   1      41.430  27.391  30.500  1.00  0.00    -0.203 F 
ATOM     74  F   UNL A   1      37.767  29.704  27.187  1.00  0.00    -0.200 F 
ATOM     75  C   UNL A   1      38.282  28.667  29.244  1.00  0.00     0.200 A 
ATOM     76  F   UNL A   1      38.856  27.648  31.294  1.00  0.00    -0.200 F 
ATOM     77  F   UNL A   1      37.022  28.840  29.664  1.00  0.00    -0.200 F 
ENDBRANCH  43  67
BRANCH  55  78
ATOM     78  C   UNL A   1      46.214  32.896  28.840  1.00  0.00     0.064 A 
ATOM     79  C   UNL A   1      45.955  34.008  28.023  1.00  0.00     0.173 A 
ATOM     80  C   UNL A   1      46.513  33.132  30.191  1.00  0.00     0.173 A 
ATOM     81  F   UNL A   1      45.678  33.838  26.721  1.00  0.00    -0.203 F 
ATOM     82  C   UNL A   1      46.015  35.302  28.534  1.00  0.00     0.198 A 
ATOM     83  C   UNL A   1      46.540  34.426  30.706  1.00  0.00     0.198 A 
ATOM     84  F   UNL A   1      46.761  32.105  31.018  1.00  0.00    -0.203 F 
ATOM     85  F   UNL A   1      45.809  36.349  27.724  1.00  0.00    -0.200 F 
ATOM     86  C   UNL A   1      46.298  35.509  29.876  1.00  0.00     0.200 A 
ATOM     87  F   UNL A   1      46.798  34.623  32.006  1.00  0.00    -0.200 F 
ATOM     88  F   UNL A   1      46.343  36.755  30.368  1.00  0.00    -0.200 F 
ENDBRANCH  55  78
ENDBRANCH  29  30
ENDBRANCH  22  24
ENDBRANCH  21  22
ENDBRANCH  20  21
ENDBRANCH  19  20
ENDBRANCH  18  19
ENDBRANCH   1  18
TORSDOF 17
ENDMDL
MODEL 2
REMARK VINA RESULT:     -10.3      0.909      2.303
REMARK SMILES C[C@H](Cc1ccc(N)cc1)C(=O)OCCOCCOC(=O)c1ccc(-c2c3nc(c(-c4c(F)c(F)c(F)c(F)c4F)c4ccc([nH]4)c(-c4c(F)c(F)c(F)c(F)c4F)c4nc(c(-c5c(F)c(F)c(F)c(F)c5F)c5ccc2[nH]5)C=C4)C=C3)cc1
REMARK SMILES IDX 15 1 14 2 13 3 11 4 12 5 2 6 1 7 3 8 4 9 5 10 10 11 6 12
REMARK SMILES IDX 9 13 7 14 8 15 16 18 17 19 18 20 19 21 20 22 21 23 22 24
REMARK SMILES IDX 23 25 84 26 24 27 83 28 25 29 26 30 27 31 77 32 28 33 82 34
REMARK SMILES IDX 76 35 78 36 29 37 81 38 75 39 74 40 30 42 62 43 42 44 61 45
REMARK SMILES IDX 43 46 46 47 60 48 79 49 44 50 45 51 59 53 80 54 47 55 31 56
REMARK SMILES IDX 32 57 40 58 33 59 34 60 38 61 41 62 35 63 36 64 39 65 37 66
REMARK SMILES IDX 63 67 64 68 72 69 65 70 66 71 70 72 73 73 67 74 68 75 71 76
REMARK SMILES IDX 69 77 48 78 49 79 57 80 50 81 51 82 55 83 58 84 52 85 53 86
REMARK SMILES IDX 56 87 54 88
REMARK H PARENT 8 16 8 17 78 41 46 52
REMARK Flexibility Score: inf
ROOT
ATOM      1  C   UNL A   1      41.563  21.599  26.241  1.00  0.00     0.202 C 
ENDROOT
BRANCH   1   2
ATOM      2  C   UNL A   1      40.166  21.964  26.749  1.00  0.00     0.261 C 
BRANCH   2   3
ATOM      3  O   UNL A   1      39.180  21.617  25.758  1.00  0.00    -0.463 OA
BRANCH   3   4
ATOM      4  C   UNL A   1      38.121  22.445  25.609  1.00  0.00     0.309 C 
ATOM      5  O   UNL A   1      38.037  23.564  26.101  1.00  0.00    -0.252 OA
BRANCH   4   6
ATOM      6  C   UNL A   1      37.005  21.831  24.778  1.00  0.00     0.100 C 
ATOM      7  C   UNL A   1      36.656  22.699  23.577  1.00  0.00     0.020 C 
BRANCH   6   8
ATOM      8  C   UNL A   1      35.787  21.258  25.533  1.00  0.00     0.050 C 
BRANCH   8   9
ATOM      9  C   UNL A   1      34.768  20.310  24.934  1.00  0.00    -0.047 A 
ATOM     10  C   UNL A   1      33.499  20.673  24.478  1.00  0.00     0.006 A 
ATOM     11  C   UNL A   1      35.146  18.964  24.780  1.00  0.00     0.006 A 
ATOM     12  C   UNL A   1      32.633  19.725  23.914  1.00  0.00     0.026 A 
ATOM     13  C   UNL A   1      34.286  18.025  24.198  1.00  0.00     0.026 A 
ATOM     14  C   UNL A   1      33.012  18.393  23.776  1.00  0.00     0.031 A 
BRANCH  14  15
ATOM     15  N   UNL A   1      32.192  17.492  23.120  1.00  0.00    -0.399 N 
ATOM     16  H   UNL A   1      31.371  17.168  23.555  1.00  0.00     0.156 HD
ATOM     17  H   UNL A   1      32.429  17.177  22.218  1.00  0.00     0.156 HD
ENDBRANCH  14  15
ENDBRANCH   8   9
ENDBRANCH   6   8
ENDBRANCH   4   6
ENDBRANCH   3   4
ENDBRANCH   2   3
ENDBRANCH   1   2
BRANCH   1  18
ATOM     18  O   UNL A   1      42.193  20.541  26.969  1.00  0.00    -0.374 OA
BRANCH  18  19
ATOM     19  C   UNL A   1      41.985  19.232  26.445  1.00  0.00     0.202 C 
BRANCH  19  20
ATOM     20  C   UNL A   1      43.191  18.630  25.716  1.00  0.00     0.261 C 
BRANCH  20  21
ATOM     21  O   UNL A   1      43.458  19.309  24.476  1.00  0.00    -0.460 OA
BRANCH  21  22
ATOM     22  C   UNL A   1      44.753  19.640  24.264  1.00  0.00     0.338 C 
ATOM     23  O   UNL A   1      45.613  18.970  23.714  1.00  0.00    -0.246 OA
BRANCH  22  24
ATOM     24  C   UNL A   1      44.969  21.043  24.662  1.00  0.00     0.060 A 
ATOM     25  C   UNL A   1      45.514  21.299  25.924  1.00  0.00     0.016 A 
ATOM     26  C   UNL A   1      44.608  22.098  23.824  1.00  0.00     0.016 A 
ATOM     27  C   UNL A   1      45.710  22.615  26.352  1.00  0.00     0.010 A 
ATOM     28  C   UNL A   1      44.801  23.413  24.259  1.00  0.00     0.010 A 
ATOM     29  C   UNL A   1      45.354  23.689  25.523  1.00  0.00    -0.014 A 
BRANCH  29  30
ATOM     30  C   UNL A   1      45.492  25.097  25.993  1.00  0.00     0.031 A 
ATOM     31  C   UNL A   1      46.833  25.781  25.909  1.00  0.00     0.074 A 
ATOM     32  C   UNL A   1      44.442  25.763  26.514  1.00  0.00     0.049 A 
ATOM     33  N   UNL A   1      47.190  26.965  26.340  1.00  0.00    -0.248 NA
ATOM     34  C   UNL A   1      47.920  25.022  25.273  1.00  0.00     0.031 C 
ATOM     35  C   UNL A   1      43.089  25.230  26.664  1.00  0.00     0.029 A 
ATOM     36  N   UNL A   1      44.353  27.037  27.025  1.00  0.00    -0.354 N 
ATOM     37  C   UNL A   1      48.544  27.080  26.052  1.00  0.00     0.074 A 
ATOM     38  C   UNL A   1      48.954  25.832  25.445  1.00  0.00     0.031 C 
ATOM     39  C   UNL A   1      42.305  26.168  27.222  1.00  0.00     0.029 A 
ATOM     40  C   UNL A   1      43.106  27.358  27.507  1.00  0.00     0.049 A 
ATOM     41  H   UNL A   1      45.114  27.662  27.046  1.00  0.00     0.167 HD
ATOM     42  C   UNL A   1      49.369  28.134  26.255  1.00  0.00     0.037 A 
ATOM     43  C   UNL A   1      42.664  28.474  28.122  1.00  0.00     0.037 A 
ATOM     44  C   UNL A   1      48.961  29.398  26.810  1.00  0.00     0.049 A 
ATOM     45  C   UNL A   1      43.613  29.623  28.358  1.00  0.00     0.074 A 
ATOM     46  C   UNL A   1      49.714  30.547  26.979  1.00  0.00     0.029 A 
ATOM     47  N   UNL A   1      47.690  29.680  27.284  1.00  0.00    -0.354 N 
ATOM     48  N   UNL A   1      44.874  29.740  28.021  1.00  0.00    -0.248 NA
ATOM     49  C   UNL A   1      43.075  30.798  29.063  1.00  0.00     0.031 C 
ATOM     50  C   UNL A   1      48.916  31.508  27.606  1.00  0.00     0.029 A 
ATOM     51  C   UNL A   1      47.649  30.974  27.778  1.00  0.00     0.049 A 
ATOM     52  H   UNL A   1      46.930  29.055  27.273  1.00  0.00     0.167 HD
ATOM     53  C   UNL A   1      45.268  31.004  28.448  1.00  0.00     0.074 A 
ATOM     54  C   UNL A   1      44.109  31.627  29.045  1.00  0.00     0.031 C 
ATOM     55  C   UNL A   1      46.486  31.593  28.359  1.00  0.00     0.037 A 
BRANCH  42  56
ATOM     56  C   UNL A   1      50.812  27.979  25.875  1.00  0.00     0.064 A 
ATOM     57  C   UNL A   1      51.253  28.164  24.557  1.00  0.00     0.173 A 
ATOM     58  C   UNL A   1      51.777  27.709  26.858  1.00  0.00     0.173 A 
ATOM     59  F   UNL A   1      50.369  28.413  23.578  1.00  0.00    -0.203 F 
ATOM     60  C   UNL A   1      52.603  28.066  24.233  1.00  0.00     0.198 A 
ATOM     61  C   UNL A   1      53.130  27.642  26.536  1.00  0.00     0.198 A 
ATOM     62  F   UNL A   1      51.409  27.531  28.136  1.00  0.00    -0.203 F 
ATOM     63  F   UNL A   1      52.997  28.208  22.959  1.00  0.00    -0.200 F 
ATOM     64  C   UNL A   1      53.541  27.815  25.223  1.00  0.00     0.200 A 
ATOM     65  F   UNL A   1      54.036  27.415  27.498  1.00  0.00    -0.200 F 
ATOM     66  F   UNL A   1      54.842  27.737  24.913  1.00  0.00    -0.200 F 
ENDBRANCH  42  56
BRANCH  43  67
ATOM     67  C   UNL A   1      41.253  28.571  28.593  1.00  0.00     0.064 A 
ATOM     68  C   UNL A   1      40.891  28.160  29.884  1.00  0.00     0.173 A 
ATOM     69  C   UNL A   1      40.230  29.006  27.739  1.00  0.00     0.173 A 
ATOM     70  F   UNL A   1      41.828  27.707  30.729  1.00  0.00    -0.203 F 
ATOM     71  C   UNL A   1      39.556  28.144  30.288  1.00  0.00     0.198 A 
ATOM     72  C   UNL A   1      38.900  29.023  28.156  1.00  0.00     0.198 A 
ATOM     73  F   UNL A   1      40.520  29.410  26.493  1.00  0.00    -0.203 F 
ATOM     74  F   UNL A   1      39.232  27.677  31.501  1.00  0.00    -0.200 F 
ATOM     75  C   UNL A   1      38.563  28.578  29.425  1.00  0.00     0.200 A 
ATOM     76  F   UNL A   1      37.944  29.455  27.322  1.00  0.00    -0.200 F 
ATOM     77  F   UNL A   1      37.280  28.552  29.810  1.00  0.00    -0.200 F 
ENDBRANCH  43  67
BRANCH  55  78
ATOM     78  C   UNL A   1      46.627  32.990  28.892  1.00  0.00     0.064 A 
ATOM     79  C   UNL A   1      47.035  33.236  30.213  1.00  0.00     0.173 A 
ATOM     80  C   UNL A   1      46.404  34.098  28.060  1.00  0.00     0.173 A 
ATOM     81  F   UNL A   1      47.247  32.212  31.054  1.00  0.00    -0.203 F 
ATOM     82  C   UNL A   1      47.190  34.537  30.685  1.00  0.00     0.198 A 
ATOM     83  C   UNL A   1      46.593  35.397  28.526  1.00  0.00     0.198 A 
ATOM     84  F   UNL A   1      46.021  33.921  26.786  1.00  0.00    -0.203 F 
ATOM     85  F   UNL A   1      47.537  34.746  31.963  1.00  0.00    -0.200 F 
ATOM     86  C   UNL A   1      46.979  35.615  29.839  1.00  0.00     0.200 A 
ATOM     87  F   UNL A   1      46.404  36.437  27.702  1.00  0.00    -0.200 F 
ATOM     88  F   UNL A   1      47.143  36.866  30.292  1.00  0.00    -0.200 F 
ENDBRANCH  55  78
ENDBRANCH  29  30
ENDBRANCH  22  24
ENDBRANCH  21  22
ENDBRANCH  20  21
ENDBRANCH  19  20
ENDBRANCH  18  19
ENDBRANCH   1  18
TORSDOF 17
ENDMDL
MODEL 3
REMARK VINA RESULT:     -10.3      3.196      6.377
REMARK SMILES C[C@H](Cc1ccc(N)cc1)C(=O)OCCOCCOC(=O)c1ccc(-c2c3nc(c(-c4c(F)c(F)c(F)c(F)c4F)c4ccc([nH]4)c(-c4c(F)c(F)c(F)c(F)c4F)c4nc(c(-c5c(F)c(F)c(F)c(F)c5F)c5ccc2[nH]5)C=C4)C=C3)cc1
REMARK SMILES IDX 15 1 14 2 13 3 11 4 12 5 2 6 1 7 3 8 4 9 5 10 10 11 6 12
REMARK SMILES IDX 9 13 7 14 8 15 16 18 17 19 18 20 19 21 20 22 21 23 22 24
REMARK SMILES IDX 23 25 84 26 24 27 83 28 25 29 26 30 27 31 77 32 28 33 82 34
REMARK SMILES IDX 76 35 78 36 29 37 81 38 75 39 74 40 30 42 62 43 42 44 61 45
REMARK SMILES IDX 43 46 46 47 60 48 79 49 44 50 45 51 59 53 80 54 47 55 31 56
REMARK SMILES IDX 32 57 40 58 33 59 34 60 38 61 41 62 35 63 36 64 39 65 37 66
REMARK SMILES IDX 63 67 64 68 72 69 65 70 66 71 70 72 73 73 67 74 68 75 71 76
REMARK SMILES IDX 69 77 48 78 49 79 57 80 50 81 51 82 55 83 58 84 52 85 53 86
REMARK SMILES IDX 56 87 54 88
REMARK H PARENT 8 16 8 17 78 41 46 52
REMARK Flexibility Score: inf
ROOT
ATOM      1  C   UNL A   1      42.651  19.591  25.979  1.00  0.00     0.202 C 
ENDROOT
BRANCH   1   2
ATOM      2  C   UNL A   1      43.878  19.089  25.214  1.00  0.00     0.261 C 
BRANCH   2   3
ATOM      3  O   UNL A   1      44.348  20.114  24.318  1.00  0.00    -0.463 OA
BRANCH   3   4
ATOM      4  C   UNL A   1      45.291  20.966  24.778  1.00  0.00     0.309 C 
ATOM      5  O   UNL A   1      46.270  20.632  25.436  1.00  0.00    -0.252 OA
BRANCH   4   6
ATOM      6  C   UNL A   1      45.003  22.416  24.420  1.00  0.00     0.100 C 
ATOM      7  C   UNL A   1      46.285  23.217  24.245  1.00  0.00     0.020 C 
BRANCH   6   8
ATOM      8  C   UNL A   1      43.895  23.139  25.215  1.00  0.00     0.050 C 
BRANCH   8   9
ATOM      9  C   UNL A   1      43.877  23.300  26.721  1.00  0.00    -0.047 A 
ATOM     10  C   UNL A   1      42.749  23.172  27.533  1.00  0.00     0.006 A 
ATOM     11  C   UNL A   1      45.104  23.552  27.361  1.00  0.00     0.006 A 
ATOM     12  C   UNL A   1      42.837  23.313  28.925  1.00  0.00     0.026 A 
ATOM     13  C   UNL A   1      45.192  23.672  28.752  1.00  0.00     0.026 A 
ATOM     14  C   UNL A   1      44.055  23.574  29.548  1.00  0.00     0.031 A 
BRANCH  14  15
ATOM     15  N   UNL A   1      44.146  23.604  30.928  1.00  0.00    -0.399 N 
ATOM     16  H   UNL A   1      43.896  24.419  31.420  1.00  0.00     0.156 HD
ATOM     17  H   UNL A   1      44.461  22.810  31.418  1.00  0.00     0.156 HD
ENDBRANCH  14  15
ENDBRANCH   8   9
ENDBRANCH   6   8
ENDBRANCH   4   6
ENDBRANCH   3   4
ENDBRANCH   2   3
ENDBRANCH   1   2
BRANCH   1  18
ATOM     18  O   UNL A   1      41.441  18.895  25.667  1.00  0.00    -0.374 OA
BRANCH  18  19
ATOM     19  C   UNL A   1      40.239  19.576  26.020  1.00  0.00     0.202 C 
BRANCH  19  20
ATOM     20  C   UNL A   1      40.319  21.105  25.948  1.00  0.00     0.261 C 
BRANCH  20  21
ATOM     21  O   UNL A   1      39.296  21.731  26.742  1.00  0.00    -0.460 OA
BRANCH  21  22
ATOM     22  C   UNL A   1      38.689  22.796  26.170  1.00  0.00     0.338 C 
ATOM     23  O   UNL A   1      37.691  22.795  25.465  1.00  0.00    -0.246 OA
BRANCH  22  24
ATOM     24  C   UNL A   1      39.322  24.036  26.652  1.00  0.00     0.060 A 
ATOM     25  C   UNL A   1      39.181  24.373  28.003  1.00  0.00     0.016 A 
ATOM     26  C   UNL A   1      40.017  24.880  25.786  1.00  0.00     0.016 A 
ATOM     27  C   UNL A   1      39.743  25.554  28.495  1.00  0.00     0.010 A 
ATOM     28  C   UNL A   1      40.573  26.063  26.282  1.00  0.00     0.010 A 
ATOM     29  C   UNL A   1      40.446  26.415  27.640  1.00  0.00    -0.014 A 
BRANCH  29  30
ATOM     30  C   UNL A   1      40.991  27.711  28.135  1.00  0.00     0.031 A 
ATOM     31  C   UNL A   1      42.481  27.930  28.160  1.00  0.00     0.074 A 
ATOM     32  C   UNL A   1      40.172  28.684  28.584  1.00  0.00     0.049 A 
ATOM     33  N   UNL A   1      43.165  28.943  28.632  1.00  0.00    -0.248 NA
ATOM     34  C   UNL A   1      43.314  26.855  27.599  1.00  0.00     0.031 C 
ATOM     35  C   UNL A   1      38.712  28.612  28.626  1.00  0.00     0.029 A 
ATOM     36  N   UNL A   1      40.456  29.925  29.103  1.00  0.00    -0.354 N 
ATOM     37  C   UNL A   1      44.502  28.616  28.447  1.00  0.00     0.074 A 
ATOM     38  C   UNL A   1      44.536  27.295  27.858  1.00  0.00     0.031 C 
ATOM     39  C   UNL A   1      38.229  29.759  29.136  1.00  0.00     0.029 A 
ATOM     40  C   UNL A   1      39.344  30.633  29.494  1.00  0.00     0.049 A 
ATOM     41  H   UNL A   1      41.373  30.275  29.188  1.00  0.00     0.167 HD
ATOM     42  C   UNL A   1      45.603  29.354  28.724  1.00  0.00     0.037 A 
ATOM     43  C   UNL A   1      39.237  31.840  30.088  1.00  0.00     0.037 A 
ATOM     44  C   UNL A   1      45.579  30.688  29.262  1.00  0.00     0.049 A 
ATOM     45  C   UNL A   1      40.484  32.628  30.408  1.00  0.00     0.074 A 
ATOM     46  C   UNL A   1      46.645  31.539  29.501  1.00  0.00     0.029 A 
ATOM     47  N   UNL A   1      44.433  31.368  29.643  1.00  0.00    -0.354 N 
ATOM     48  N   UNL A   1      41.737  32.333  30.168  1.00  0.00    -0.248 NA
ATOM     49  C   UNL A   1      40.297  33.923  31.085  1.00  0.00     0.031 C 
ATOM     50  C   UNL A   1      46.151  32.712  30.079  1.00  0.00     0.029 A 
ATOM     51  C   UNL A   1      44.770  32.613  30.149  1.00  0.00     0.049 A 
ATOM     52  H   UNL A   1      43.517  31.018  29.568  1.00  0.00     0.167 HD
ATOM     53  C   UNL A   1      42.481  33.410  30.638  1.00  0.00     0.074 A 
ATOM     54  C   UNL A   1      41.540  34.378  31.154  1.00  0.00     0.031 C 
ATOM     55  C   UNL A   1      43.826  33.578  30.648  1.00  0.00     0.037 A 
BRANCH  42  56
ATOM     56  C   UNL A   1      46.945  28.741  28.452  1.00  0.00     0.064 A 
ATOM     57  C   UNL A   1      47.571  28.859  27.202  1.00  0.00     0.173 A 
ATOM     58  C   UNL A   1      47.645  28.086  29.478  1.00  0.00     0.173 A 
ATOM     59  F   UNL A   1      46.940  29.467  26.186  1.00  0.00    -0.203 F 
ATOM     60  C   UNL A   1      48.839  28.328  26.984  1.00  0.00     0.198 A 
ATOM     61  C   UNL A   1      48.925  27.583  29.264  1.00  0.00     0.198 A 
ATOM     62  F   UNL A   1      47.094  27.953  30.694  1.00  0.00    -0.203 F 
ATOM     63  F   UNL A   1      49.401  28.419  25.770  1.00  0.00    -0.200 F 
ATOM     64  C   UNL A   1      49.518  27.699  28.016  1.00  0.00     0.200 A 
ATOM     65  F   UNL A   1      49.587  26.990  30.268  1.00  0.00    -0.200 F 
ATOM     66  F   UNL A   1      50.746  27.203  27.809  1.00  0.00    -0.200 F 
ENDBRANCH  42  56
BRANCH  43  67
ATOM     67  C   UNL A   1      37.900  32.388  30.452  1.00  0.00     0.064 A 
ATOM     68  C   UNL A   1      37.290  32.057  31.672  1.00  0.00     0.173 A 
ATOM     69  C   UNL A   1      37.176  33.192  29.561  1.00  0.00     0.173 A 
ATOM     70  F   UNL A   1      37.929  31.266  32.546  1.00  0.00    -0.203 F 
ATOM     71  C   UNL A   1      35.994  32.477  31.967  1.00  0.00     0.198 A 
ATOM     72  C   UNL A   1      35.894  33.640  29.872  1.00  0.00     0.198 A 
ATOM     73  F   UNL A   1      37.711  33.538  28.380  1.00  0.00    -0.203 F 
ATOM     74  F   UNL A   1      35.408  32.084  33.106  1.00  0.00    -0.200 F 
ATOM     75  C   UNL A   1      35.298  33.270  31.068  1.00  0.00     0.200 A 
ATOM     76  F   UNL A   1      35.229  34.416  29.005  1.00  0.00    -0.200 F 
ATOM     77  F   UNL A   1      34.048  33.664  31.347  1.00  0.00    -0.200 F 
ENDBRANCH  43  67
BRANCH  55  78
ATOM     78  C   UNL A   1      44.366  34.864  31.208  1.00  0.00     0.064 A 
ATOM     79  C   UNL A   1      44.885  34.939  32.510  1.00  0.00     0.173 A 
ATOM     80  C   UNL A   1      44.414  36.022  30.416  1.00  0.00     0.173 A 
ATOM     81  F   UNL A   1      44.850  33.864  33.313  1.00  0.00    -0.203 F 
ATOM     82  C   UNL A   1      45.409  36.130  33.005  1.00  0.00     0.198 A 
ATOM     83  C   UNL A   1      44.969  37.203  30.904  1.00  0.00     0.198 A 
ATOM     84  F   UNL A   1      43.939  36.004  29.162  1.00  0.00    -0.203 F 
ATOM     85  F   UNL A   1      45.857  36.188  34.267  1.00  0.00    -0.200 F 
ATOM     86  C   UNL A   1      45.460  37.257  32.199  1.00  0.00     0.200 A 
ATOM     87  F   UNL A   1      45.032  38.286  30.118  1.00  0.00    -0.200 F 
ATOM     88  F   UNL A   1      45.978  38.399  32.673  1.00  0.00    -0.200 F 
ENDBRANCH  55  78
ENDBRANCH  29  30
ENDBRANCH  22  24
ENDBRANCH  21  22
ENDBRANCH  20  21
ENDBRANCH  19  20
ENDBRANCH  18  19
ENDBRANCH   1  18
TORSDOF 17
ENDMDL
