MODEL 1
REMARK VINA RESULT:     -11.2      0.000      0.000
REMARK SMILES O=C(OCCOCCOC(=O)c1cc(OCc2ccc(F)cc2)cs1)c1ccc(-c2c3nc(c(-c4c(F)c(F)c(F)c(F)c4F)c4ccc([nH]4)c(-c4c(F)c(F)c(F)c(F)c4F)c4nc(c(-c5c(F)c(F)c(F)c(F)c5F)c5ccc2[nH]5)C=C4)C=C3)cc1
REMARK SMILES IDX 7 1 6 2 5 3 4 4 3 5 2 6 1 7 26 8 27 9 88 10 28 11 87 12
REMARK SMILES IDX 29 13 30 14 31 15 81 16 32 17 86 18 80 19 82 20 33 21 85 22
REMARK SMILES IDX 79 23 78 24 34 26 66 27 46 28 65 29 47 30 50 31 64 32 83 33
REMARK SMILES IDX 48 34 49 35 63 37 84 38 51 39 35 40 36 41 44 42 37 43 38 44
REMARK SMILES IDX 42 45 45 46 39 47 40 48 43 49 41 50 67 51 68 52 76 53 69 54
REMARK SMILES IDX 70 55 74 56 77 57 71 58 72 59 75 60 73 61 52 62 53 63 61 64
REMARK SMILES IDX 54 65 55 66 59 67 62 68 56 69 57 70 60 71 58 72 8 73 9 74
REMARK SMILES IDX 10 75 11 76 12 77 13 78 25 79 14 80 24 81 15 82 16 83 17 84
REMARK SMILES IDX 18 85 23 86 19 87 22 88 20 89 21 90
REMARK H PARENT 82 25 50 36
REMARK Flexibility Score: inf
ROOT
ATOM      1  C   UNL A   1      33.913  28.251  23.652  1.00  0.00     0.202 C 
ENDROOT
BRANCH   1   2
ATOM      2  O   UNL A   1      33.008  29.296  24.031  1.00  0.00    -0.374 OA
BRANCH   2   3
ATOM      3  C   UNL A   1      31.974  28.905  24.938  1.00  0.00     0.202 C 
BRANCH   3   4
ATOM      4  C   UNL A   1      31.816  29.836  26.144  1.00  0.00     0.261 C 
BRANCH   4   5
ATOM      5  O   UNL A   1      32.793  30.892  26.077  1.00  0.00    -0.460 OA
BRANCH   5   6
ATOM      6  C   UNL A   1      33.295  31.635  27.090  1.00  0.00     0.338 C 
ATOM      7  O   UNL A   1      32.745  32.696  27.374  1.00  0.00    -0.246 OA
BRANCH   6   8
ATOM      8  C   UNL A   1      34.521  31.256  27.858  1.00  0.00     0.060 A 
ATOM      9  C   UNL A   1      34.791  29.975  28.342  1.00  0.00     0.016 A 
ATOM     10  C   UNL A   1      35.521  32.237  27.997  1.00  0.00     0.016 A 
ATOM     11  C   UNL A   1      35.977  29.694  29.016  1.00  0.00     0.010 A 
ATOM     12  C   UNL A   1      36.744  31.944  28.616  1.00  0.00     0.010 A 
ATOM     13  C   UNL A   1      36.971  30.669  29.143  1.00  0.00    -0.014 A 
BRANCH  13  14
ATOM     14  C   UNL A   1      38.235  30.311  29.823  1.00  0.00     0.031 A 
ATOM     15  C   UNL A   1      38.496  30.789  31.218  1.00  0.00     0.074 A 
ATOM     16  C   UNL A   1      39.087  29.463  29.216  1.00  0.00     0.049 A 
ATOM     17  N   UNL A   1      39.508  30.529  32.004  1.00  0.00    -0.248 NA
ATOM     18  C   UNL A   1      37.477  31.665  31.818  1.00  0.00     0.031 C 
ATOM     19  C   UNL A   1      38.894  28.894  27.879  1.00  0.00     0.029 A 
ATOM     20  N   UNL A   1      40.254  28.893  29.654  1.00  0.00    -0.354 N 
ATOM     21  C   UNL A   1      39.249  31.203  33.187  1.00  0.00     0.074 A 
ATOM     22  C   UNL A   1      37.994  31.902  33.016  1.00  0.00     0.031 C 
ATOM     23  C   UNL A   1      39.874  28.011  27.633  1.00  0.00     0.029 A 
ATOM     24  C   UNL A   1      40.789  27.987  28.770  1.00  0.00     0.049 A 
ATOM     25  H   UNL A   1      40.668  29.111  30.520  1.00  0.00     0.167 HD
ATOM     26  C   UNL A   1      39.993  31.228  34.318  1.00  0.00     0.037 A 
ATOM     27  C   UNL A   1      41.893  27.225  28.870  1.00  0.00     0.037 A 
ATOM     28  C   UNL A   1      41.244  30.540  34.478  1.00  0.00     0.049 A 
ATOM     29  C   UNL A   1      42.733  27.327  30.113  1.00  0.00     0.074 A 
ATOM     30  C   UNL A   1      42.113  30.561  35.554  1.00  0.00     0.029 A 
ATOM     31  N   UNL A   1      41.801  29.694  33.528  1.00  0.00    -0.354 N 
ATOM     32  N   UNL A   1      42.506  28.013  31.208  1.00  0.00    -0.248 NA
ATOM     33  C   UNL A   1      43.992  26.570  30.127  1.00  0.00     0.031 C 
ATOM     34  C   UNL A   1      43.208  29.746  35.246  1.00  0.00     0.029 A 
ATOM     35  C   UNL A   1      43.007  29.196  33.990  1.00  0.00     0.049 A 
ATOM     36  H   UNL A   1      41.397  29.481  32.656  1.00  0.00     0.167 HD
ATOM     37  C   UNL A   1      43.592  27.776  32.037  1.00  0.00     0.074 A 
ATOM     38  C   UNL A   1      44.463  26.855  31.334  1.00  0.00     0.031 C 
ATOM     39  C   UNL A   1      43.854  28.286  33.264  1.00  0.00     0.037 A 
BRANCH  26  40
ATOM     40  C   UNL A   1      39.481  32.051  35.459  1.00  0.00     0.064 A 
ATOM     41  C   UNL A   1      39.857  33.396  35.592  1.00  0.00     0.173 A 
ATOM     42  C   UNL A   1      38.638  31.501  36.434  1.00  0.00     0.173 A 
ATOM     43  F   UNL A   1      40.658  33.966  34.680  1.00  0.00    -0.203 F 
ATOM     44  C   UNL A   1      39.411  34.159  36.667  1.00  0.00     0.198 A 
ATOM     45  C   UNL A   1      38.180  32.271  37.499  1.00  0.00     0.198 A 
ATOM     46  F   UNL A   1      38.236  30.224  36.336  1.00  0.00    -0.203 F 
ATOM     47  F   UNL A   1      39.790  35.439  36.781  1.00  0.00    -0.200 F 
ATOM     48  C   UNL A   1      38.571  33.598  37.618  1.00  0.00     0.200 A 
ATOM     49  F   UNL A   1      37.352  31.735  38.406  1.00  0.00    -0.200 F 
ATOM     50  F   UNL A   1      38.132  34.337  38.645  1.00  0.00    -0.200 F 
ENDBRANCH  26  40
BRANCH  27  51
ATOM     51  C   UNL A   1      42.268  26.304  27.765  1.00  0.00     0.064 A 
ATOM     52  C   UNL A   1      41.716  25.018  27.669  1.00  0.00     0.173 A 
ATOM     53  C   UNL A   1      43.188  26.694  26.783  1.00  0.00     0.173 A 
ATOM     54  F   UNL A   1      40.827  24.598  28.581  1.00  0.00    -0.203 F 
ATOM     55  C   UNL A   1      42.084  24.152  26.642  1.00  0.00     0.198 A 
ATOM     56  C   UNL A   1      43.536  25.835  25.742  1.00  0.00     0.198 A 
ATOM     57  F   UNL A   1      43.723  27.923  26.817  1.00  0.00    -0.203 F 
ATOM     58  F   UNL A   1      41.562  22.919  26.589  1.00  0.00    -0.200 F 
ATOM     59  C   UNL A   1      42.990  24.563  25.676  1.00  0.00     0.200 A 
ATOM     60  F   UNL A   1      44.391  26.245  24.795  1.00  0.00    -0.200 F 
ATOM     61  F   UNL A   1      43.330  23.735  24.678  1.00  0.00    -0.200 F 
ENDBRANCH  27  51
BRANCH  39  62
ATOM     62  C   UNL A   1      45.139  27.876  33.912  1.00  0.00     0.064 A 
ATOM     63  C   UNL A   1      45.193  26.747  34.741  1.00  0.00     0.173 A 
ATOM     64  C   UNL A   1      46.302  28.641  33.756  1.00  0.00     0.173 A 
ATOM     65  F   UNL A   1      44.103  25.988  34.924  1.00  0.00    -0.203 F 
ATOM     66  C   UNL A   1      46.370  26.405  35.401  1.00  0.00     0.198 A 
ATOM     67  C   UNL A   1      47.481  28.285  34.401  1.00  0.00     0.198 A 
ATOM     68  F   UNL A   1      46.298  29.721  32.960  1.00  0.00    -0.203 F 
ATOM     69  F   UNL A   1      46.398  25.334  36.206  1.00  0.00    -0.200 F 
ATOM     70  C   UNL A   1      47.513  27.172  35.228  1.00  0.00     0.200 A 
ATOM     71  F   UNL A   1      48.590  29.016  34.218  1.00  0.00    -0.200 F 
ATOM     72  F   UNL A   1      48.648  26.836  35.858  1.00  0.00    -0.200 F 
ENDBRANCH  39  62
ENDBRANCH  13  14
ENDBRANCH   6   8
ENDBRANCH   5   6
ENDBRANCH   4   5
ENDBRANCH   3   4
ENDBRANCH   2   3
ENDBRANCH   1   2
BRANCH   1  73
ATOM     73  C   UNL A   1      33.615  27.823  22.207  1.00  0.00     0.261 C 
BRANCH  73  74
ATOM     74  O   UNL A   1      34.105  26.485  22.012  1.00  0.00    -0.459 OA
BRANCH  74  75
ATOM     75  C   UNL A   1      33.165  25.590  21.579  1.00  0.00     0.348 C 
ATOM     76  O   UNL A   1      32.899  25.380  20.401  1.00  0.00    -0.245 OA
BRANCH  75  77
ATOM     77  C   UNL A   1      32.697  24.848  22.731  1.00  0.00     0.116 A 
ATOM     78  C   UNL A   1      33.434  24.063  23.599  1.00  0.00     0.074 A 
ATOM     79  S   UNL A   1      31.023  24.728  23.056  1.00  0.00    -0.133 S 
ATOM     80  C   UNL A   1      32.611  23.158  24.325  1.00  0.00     0.131 A 
ATOM     81  C   UNL A   1      31.274  23.433  24.148  1.00  0.00     0.112 A 
BRANCH  80  82
ATOM     82  O   UNL A   1      32.971  22.069  25.049  1.00  0.00    -0.488 OA
BRANCH  82  83
ATOM     83  C   UNL A   1      32.151  20.907  24.897  1.00  0.00     0.265 C 
BRANCH  83  84
ATOM     84  C   UNL A   1      32.818  19.680  24.287  1.00  0.00    -0.011 A 
ATOM     85  C   UNL A   1      33.996  19.105  24.795  1.00  0.00     0.010 A 
ATOM     86  C   UNL A   1      32.181  19.044  23.206  1.00  0.00     0.010 A 
ATOM     87  C   UNL A   1      34.502  17.917  24.263  1.00  0.00     0.039 A 
ATOM     88  C   UNL A   1      32.700  17.867  22.660  1.00  0.00     0.039 A 
ATOM     89  C   UNL A   1      33.849  17.308  23.202  1.00  0.00     0.123 A 
ATOM     90  F   UNL A   1      34.332  16.166  22.696  1.00  0.00    -0.207 F 
ENDBRANCH  83  84
ENDBRANCH  82  83
ENDBRANCH  80  82
ENDBRANCH  75  77
ENDBRANCH  74  75
ENDBRANCH  73  74
ENDBRANCH   1  73
TORSDOF 17
ENDMDL
MODEL 2
REMARK VINA RESULT:     -11.1      5.690      9.390
REMARK SMILES O=C(OCCOCCOC(=O)c1cc(OCc2ccc(F)cc2)cs1)c1ccc(-c2c3nc(c(-c4c(F)c(F)c(F)c(F)c4F)c4ccc([nH]4)c(-c4c(F)c(F)c(F)c(F)c4F)c4nc(c(-c5c(F)c(F)c(F)c(F)c5F)c5ccc2[nH]5)C=C4)C=C3)cc1
REMARK SMILES IDX 7 1 6 2 5 3 4 4 3 5 2 6 1 7 26 8 27 9 88 10 28 11 87 12
REMARK SMILES IDX 29 13 30 14 31 15 81 16 32 17 86 18 80 19 82 20 33 21 85 22
REMARK SMILES IDX 79 23 78 24 34 26 66 27 46 28 65 29 47 30 50 31 64 32 83 33
REMARK SMILES IDX 48 34 49 35 63 37 84 38 51 39 35 40 36 41 44 42 37 43 38 44
REMARK SMILES IDX 42 45 45 46 39 47 40 48 43 49 41 50 67 51 68 52 76 53 69 54
REMARK SMILES IDX 70 55 74 56 77 57 71 58 72 59 75 60 73 61 52 62 53 63 61 64
REMARK SMILES IDX 54 65 55 66 59 67 62 68 56 69 57 70 60 71 58 72 8 73 9 74
REMARK SMILES IDX 10 75 11 76 12 77 13 78 25 79 14 80 24 81 15 82 16 83 17 84
REMARK SMILES IDX 18 85 23 86 19 87 22 88 20 89 21 90
REMARK H PARENT 82 25 50 36
REMARK Flexibility Score: inf
ROOT
ATOM      1  C   UNL A   1      41.394  21.901  26.112  1.00  0.00     0.202 C 
ENDROOT
BRANCH   1   2
ATOM      2  O   UNL A   1      41.439  20.589  25.536  1.00  0.00    -0.374 OA
BRANCH   2   3
ATOM      3  C   UNL A   1      41.735  19.532  26.453  1.00  0.00     0.202 C 
BRANCH   3   4
ATOM      4  C   UNL A   1      42.824  18.569  25.968  1.00  0.00     0.261 C 
BRANCH   4   5
ATOM      5  O   UNL A   1      43.358  19.031  24.712  1.00  0.00    -0.460 OA
BRANCH   5   6
ATOM      6  C   UNL A   1      44.557  19.612  24.474  1.00  0.00     0.338 C 
ATOM      7  O   UNL A   1      45.468  18.924  24.021  1.00  0.00    -0.246 OA
BRANCH   6   8
ATOM      8  C   UNL A   1      44.849  21.046  24.780  1.00  0.00     0.060 A 
ATOM      9  C   UNL A   1      44.569  22.113  23.926  1.00  0.00     0.016 A 
ATOM     10  C   UNL A   1      45.335  21.342  26.068  1.00  0.00     0.016 A 
ATOM     11  C   UNL A   1      44.839  23.428  24.303  1.00  0.00     0.010 A 
ATOM     12  C   UNL A   1      45.546  22.665  26.477  1.00  0.00     0.010 A 
ATOM     13  C   UNL A   1      45.311  23.716  25.587  1.00  0.00    -0.014 A 
BRANCH  13  14
ATOM     14  C   UNL A   1      45.535  25.131  25.959  1.00  0.00     0.031 A 
ATOM     15  C   UNL A   1      44.431  25.922  26.592  1.00  0.00     0.074 A 
ATOM     16  C   UNL A   1      46.768  25.654  25.827  1.00  0.00     0.049 A 
ATOM     17  N   UNL A   1      44.451  27.147  27.048  1.00  0.00    -0.248 NA
ATOM     18  C   UNL A   1      43.135  25.242  26.747  1.00  0.00     0.031 C 
ATOM     19  C   UNL A   1      47.926  24.946  25.277  1.00  0.00     0.029 A 
ATOM     20  N   UNL A   1      47.269  26.879  26.187  1.00  0.00    -0.354 N 
ATOM     21  C   UNL A   1      43.178  27.384  27.545  1.00  0.00     0.074 A 
ATOM     22  C   UNL A   1      42.401  26.185  27.320  1.00  0.00     0.031 C 
ATOM     23  C   UNL A   1      49.013  25.724  25.393  1.00  0.00     0.029 A 
ATOM     24  C   UNL A   1      48.621  27.002  25.978  1.00  0.00     0.049 A 
ATOM     25  H   UNL A   1      46.712  27.601  26.560  1.00  0.00     0.167 HD
ATOM     26  C   UNL A   1      42.706  28.503  28.142  1.00  0.00     0.037 A 
ATOM     27  C   UNL A   1      49.448  28.033  26.233  1.00  0.00     0.037 A 
ATOM     28  C   UNL A   1      43.482  29.695  28.353  1.00  0.00     0.049 A 
ATOM     29  C   UNL A   1      48.878  29.287  26.836  1.00  0.00     0.074 A 
ATOM     30  C   UNL A   1      43.078  30.909  28.879  1.00  0.00     0.029 A 
ATOM     31  N   UNL A   1      44.832  29.816  28.053  1.00  0.00    -0.354 N 
ATOM     32  N   UNL A   1      47.656  29.521  27.252  1.00  0.00    -0.248 NA
ATOM     33  C   UNL A   1      49.793  30.427  26.983  1.00  0.00     0.031 C 
ATOM     34  C   UNL A   1      44.179  31.773  28.875  1.00  0.00     0.029 A 
ATOM     35  C   UNL A   1      45.274  31.088  28.372  1.00  0.00     0.049 A 
ATOM     36  H   UNL A   1      45.390  29.102  27.669  1.00  0.00     0.167 HD
ATOM     37  C   UNL A   1      47.653  30.831  27.705  1.00  0.00     0.074 A 
ATOM     38  C   UNL A   1      49.003  31.333  27.544  1.00  0.00     0.031 C 
ATOM     39  C   UNL A   1      46.622  31.560  28.195  1.00  0.00     0.037 A 
BRANCH  26  40
ATOM     40  C   UNL A   1      41.276  28.496  28.582  1.00  0.00     0.064 A 
ATOM     41  C   UNL A   1      40.265  28.956  27.726  1.00  0.00     0.173 A 
ATOM     42  C   UNL A   1      40.910  28.058  29.863  1.00  0.00     0.173 A 
ATOM     43  F   UNL A   1      40.568  29.381  26.491  1.00  0.00    -0.203 F 
ATOM     44  C   UNL A   1      38.936  28.982  28.140  1.00  0.00     0.198 A 
ATOM     45  C   UNL A   1      39.578  28.070  30.267  1.00  0.00     0.198 A 
ATOM     46  F   UNL A   1      41.841  27.590  30.708  1.00  0.00    -0.203 F 
ATOM     47  F   UNL A   1      37.986  29.435  27.310  1.00  0.00    -0.200 F 
ATOM     48  C   UNL A   1      38.593  28.537  29.408  1.00  0.00     0.200 A 
ATOM     49  F   UNL A   1      39.244  27.620  31.485  1.00  0.00    -0.200 F 
ATOM     50  F   UNL A   1      37.312  28.550  29.800  1.00  0.00    -0.200 F 
ENDBRANCH  26  40
BRANCH  27  51
ATOM     51  C   UNL A   1      50.897  27.924  25.918  1.00  0.00     0.064 A 
ATOM     52  C   UNL A   1      51.838  27.618  26.911  1.00  0.00     0.173 A 
ATOM     53  C   UNL A   1      51.368  28.124  24.613  1.00  0.00     0.173 A 
ATOM     54  F   UNL A   1      51.439  27.412  28.175  1.00  0.00    -0.203 F 
ATOM     55  C   UNL A   1      53.197  27.535  26.615  1.00  0.00     0.198 A 
ATOM     56  C   UNL A   1      52.724  28.016  24.314  1.00  0.00     0.198 A 
ATOM     57  F   UNL A   1      50.503  28.393  23.624  1.00  0.00    -0.203 F 
ATOM     58  F   UNL A   1      54.077  27.268  27.589  1.00  0.00    -0.200 F 
ATOM     59  C   UNL A   1      53.639  27.728  25.315  1.00  0.00     0.200 A 
ATOM     60  F   UNL A   1      53.145  28.177  23.051  1.00  0.00    -0.200 F 
ATOM     61  F   UNL A   1      54.943  27.630  25.028  1.00  0.00    -0.200 F 
ENDBRANCH  27  51
BRANCH  39  62
ATOM     62  C   UNL A   1      46.910  32.979  28.572  1.00  0.00     0.064 A 
ATOM     63  C   UNL A   1      46.794  34.009  27.628  1.00  0.00     0.173 A 
ATOM     64  C   UNL A   1      47.361  33.306  29.858  1.00  0.00     0.173 A 
ATOM     65  F   UNL A   1      46.371  33.742  26.383  1.00  0.00    -0.203 F 
ATOM     66  C   UNL A   1      47.131  35.318  27.959  1.00  0.00     0.198 A 
ATOM     67  C   UNL A   1      47.678  34.618  30.191  1.00  0.00     0.198 A 
ATOM     68  F   UNL A   1      47.473  32.353  30.796  1.00  0.00    -0.203 F 
ATOM     69  F   UNL A   1      47.033  36.287  27.037  1.00  0.00    -0.200 F 
ATOM     70  C   UNL A   1      47.569  35.622  29.239  1.00  0.00     0.200 A 
ATOM     71  F   UNL A   1      48.083  34.914  31.433  1.00  0.00    -0.200 F 
ATOM     72  F   UNL A   1      47.884  36.885  29.558  1.00  0.00    -0.200 F 
ENDBRANCH  39  62
ENDBRANCH  13  14
ENDBRANCH   6   8
ENDBRANCH   5   6
ENDBRANCH   4   5
ENDBRANCH   3   4
ENDBRANCH   2   3
ENDBRANCH   1   2
BRANCH   1  73
ATOM     73  C   UNL A   1      40.145  22.022  26.998  1.00  0.00     0.261 C 
BRANCH  73  74
ATOM     74  O   UNL A   1      38.980  22.012  26.156  1.00  0.00    -0.459 OA
BRANCH  74  75
ATOM     75  C   UNL A   1      38.253  23.172  26.171  1.00  0.00     0.348 C 
ATOM     76  O   UNL A   1      38.705  24.268  26.481  1.00  0.00    -0.245 OA
BRANCH  75  77
ATOM     77  C   UNL A   1      36.952  22.886  25.604  1.00  0.00     0.116 A 
ATOM     78  C   UNL A   1      35.811  22.456  26.257  1.00  0.00     0.074 A 
ATOM     79  S   UNL A   1      36.730  22.894  23.909  1.00  0.00    -0.133 S 
ATOM     80  C   UNL A   1      34.876  21.868  25.360  1.00  0.00     0.131 A 
ATOM     81  C   UNL A   1      35.237  22.067  24.047  1.00  0.00     0.112 A 
BRANCH  80  82
ATOM     82  O   UNL A   1      33.790  21.104  25.639  1.00  0.00    -0.488 OA
BRANCH  82  83
ATOM     83  C   UNL A   1      33.292  20.297  24.568  1.00  0.00     0.265 C 
BRANCH  83  84
ATOM     84  C   UNL A   1      33.455  18.789  24.722  1.00  0.00    -0.011 A 
ATOM     85  C   UNL A   1      34.614  18.092  24.342  1.00  0.00     0.010 A 
ATOM     86  C   UNL A   1      32.422  18.068  25.348  1.00  0.00     0.010 A 
ATOM     87  C   UNL A   1      34.752  16.727  24.607  1.00  0.00     0.039 A 
ATOM     88  C   UNL A   1      32.551  16.699  25.595  1.00  0.00     0.039 A 
ATOM     89  C   UNL A   1      33.720  16.044  25.233  1.00  0.00     0.123 A 
ATOM     90  F   UNL A   1      33.855  14.737  25.492  1.00  0.00    -0.207 F 
ENDBRANCH  83  84
ENDBRANCH  82  83
ENDBRANCH  80  82
ENDBRANCH  75  77
ENDBRANCH  74  75
ENDBRANCH  73  74
ENDBRANCH   1  73
TORSDOF 17
ENDMDL
MODEL 3
REMARK VINA RESULT:     -11.0      5.698      9.400
REMARK SMILES O=C(OCCOCCOC(=O)c1cc(OCc2ccc(F)cc2)cs1)c1ccc(-c2c3nc(c(-c4c(F)c(F)c(F)c(F)c4F)c4ccc([nH]4)c(-c4c(F)c(F)c(F)c(F)c4F)c4nc(c(-c5c(F)c(F)c(F)c(F)c5F)c5ccc2[nH]5)C=C4)C=C3)cc1
REMARK SMILES IDX 7 1 6 2 5 3 4 4 3 5 2 6 1 7 26 8 27 9 88 10 28 11 87 12
REMARK SMILES IDX 29 13 30 14 31 15 81 16 32 17 86 18 80 19 82 20 33 21 85 22
REMARK SMILES IDX 79 23 78 24 34 26 66 27 46 28 65 29 47 30 50 31 64 32 83 33
REMARK SMILES IDX 48 34 49 35 63 37 84 38 51 39 35 40 36 41 44 42 37 43 38 44
REMARK SMILES IDX 42 45 45 46 39 47 40 48 43 49 41 50 67 51 68 52 76 53 69 54
REMARK SMILES IDX 70 55 74 56 77 57 71 58 72 59 75 60 73 61 52 62 53 63 61 64
REMARK SMILES IDX 54 65 55 66 59 67 62 68 56 69 57 70 60 71 58 72 8 73 9 74
REMARK SMILES IDX 10 75 11 76 12 77 13 78 25 79 14 80 24 81 15 82 16 83 17 84
REMARK SMILES IDX 18 85 23 86 19 87 22 88 20 89 21 90
REMARK H PARENT 82 25 50 36
REMARK Flexibility Score: inf
ROOT
ATOM      1  C   UNL A   1      41.485  21.982  26.198  1.00  0.00     0.202 C 
ENDROOT
BRANCH   1   2
ATOM      2  O   UNL A   1      41.411  20.693  25.576  1.00  0.00    -0.374 OA
BRANCH   2   3
ATOM      3  C   UNL A   1      41.631  19.582  26.450  1.00  0.00     0.202 C 
BRANCH   3   4
ATOM      4  C   UNL A   1      42.785  18.670  26.024  1.00  0.00     0.261 C 
BRANCH   4   5
ATOM      5  O   UNL A   1      43.287  19.086  24.739  1.00  0.00    -0.460 OA
BRANCH   5   6
ATOM      6  C   UNL A   1      44.475  19.665  24.451  1.00  0.00     0.338 C 
ATOM      7  O   UNL A   1      45.359  18.979  23.944  1.00  0.00    -0.246 OA
BRANCH   6   8
ATOM      8  C   UNL A   1      44.790  21.094  24.762  1.00  0.00     0.060 A 
ATOM      9  C   UNL A   1      44.542  22.166  23.905  1.00  0.00     0.016 A 
ATOM     10  C   UNL A   1      45.261  21.380  26.057  1.00  0.00     0.016 A 
ATOM     11  C   UNL A   1      44.829  23.475  24.286  1.00  0.00     0.010 A 
ATOM     12  C   UNL A   1      45.490  22.699  26.470  1.00  0.00     0.010 A 
ATOM     13  C   UNL A   1      45.288  23.755  25.577  1.00  0.00    -0.014 A 
BRANCH  13  14
ATOM     14  C   UNL A   1      45.532  25.165  25.954  1.00  0.00     0.031 A 
ATOM     15  C   UNL A   1      44.443  25.967  26.597  1.00  0.00     0.074 A 
ATOM     16  C   UNL A   1      46.771  25.673  25.816  1.00  0.00     0.049 A 
ATOM     17  N   UNL A   1      44.481  27.190  27.058  1.00  0.00    -0.248 NA
ATOM     18  C   UNL A   1      43.139  25.303  26.758  1.00  0.00     0.031 C 
ATOM     19  C   UNL A   1      47.916  24.952  25.255  1.00  0.00     0.029 A 
ATOM     20  N   UNL A   1      47.290  26.890  26.178  1.00  0.00    -0.354 N 
ATOM     21  C   UNL A   1      43.215  27.441  27.564  1.00  0.00     0.074 A 
ATOM     22  C   UNL A   1      42.421  26.253  27.339  1.00  0.00     0.031 C 
ATOM     23  C   UNL A   1      49.014  25.716  25.367  1.00  0.00     0.029 A 
ATOM     24  C   UNL A   1      48.642  26.997  25.960  1.00  0.00     0.049 A 
ATOM     25  H   UNL A   1      46.745  27.617  26.557  1.00  0.00     0.167 HD
ATOM     26  C   UNL A   1      42.761  28.564  28.168  1.00  0.00     0.037 A 
ATOM     27  C   UNL A   1      49.484  28.016  26.214  1.00  0.00     0.037 A 
ATOM     28  C   UNL A   1      43.553  29.745  28.379  1.00  0.00     0.049 A 
ATOM     29  C   UNL A   1      48.934  29.274  26.825  1.00  0.00     0.074 A 
ATOM     30  C   UNL A   1      43.168  30.961  28.913  1.00  0.00     0.029 A 
ATOM     31  N   UNL A   1      44.902  29.850  28.071  1.00  0.00    -0.354 N 
ATOM     32  N   UNL A   1      47.718  29.522  27.251  1.00  0.00    -0.248 NA
ATOM     33  C   UNL A   1      49.864  30.402  26.972  1.00  0.00     0.031 C 
ATOM     34  C   UNL A   1      44.280  31.812  28.905  1.00  0.00     0.029 A 
ATOM     35  C   UNL A   1      45.363  31.115  28.392  1.00  0.00     0.049 A 
ATOM     36  H   UNL A   1      45.449  29.130  27.680  1.00  0.00     0.167 HD
ATOM     37  C   UNL A   1      47.734  30.830  27.709  1.00  0.00     0.074 A 
ATOM     38  C   UNL A   1      49.089  31.316  27.541  1.00  0.00     0.031 C 
ATOM     39  C   UNL A   1      46.715  31.571  28.208  1.00  0.00     0.037 A 
BRANCH  26  40
ATOM     40  C   UNL A   1      41.333  28.573  28.618  1.00  0.00     0.064 A 
ATOM     41  C   UNL A   1      40.993  28.158  29.914  1.00  0.00     0.173 A 
ATOM     42  C   UNL A   1      40.300  28.969  27.758  1.00  0.00     0.173 A 
ATOM     43  F   UNL A   1      41.948  27.774  30.773  1.00  0.00    -0.203 F 
ATOM     44  C   UNL A   1      39.664  28.134  30.330  1.00  0.00     0.198 A 
ATOM     45  C   UNL A   1      38.975  28.960  28.182  1.00  0.00     0.198 A 
ATOM     46  F   UNL A   1      40.582  29.394  26.516  1.00  0.00    -0.203 F 
ATOM     47  F   UNL A   1      39.359  27.724  31.568  1.00  0.00    -0.200 F 
ATOM     48  C   UNL A   1      38.657  28.537  29.465  1.00  0.00     0.200 A 
ATOM     49  F   UNL A   1      38.004  29.369  27.354  1.00  0.00    -0.200 F 
ATOM     50  F   UNL A   1      37.381  28.526  29.872  1.00  0.00    -0.200 F 
ENDBRANCH  26  40
BRANCH  27  51
ATOM     51  C   UNL A   1      50.929  27.889  25.889  1.00  0.00     0.064 A 
ATOM     52  C   UNL A   1      51.406  28.111  24.590  1.00  0.00     0.173 A 
ATOM     53  C   UNL A   1      51.862  27.542  26.876  1.00  0.00     0.173 A 
ATOM     54  F   UNL A   1      50.556  28.451  23.610  1.00  0.00    -0.203 F 
ATOM     55  C   UNL A   1      52.759  27.973  24.285  1.00  0.00     0.198 A 
ATOM     56  C   UNL A   1      53.217  27.428  26.575  1.00  0.00     0.198 A 
ATOM     57  F   UNL A   1      51.457  27.344  28.139  1.00  0.00    -0.203 F 
ATOM     58  F   UNL A   1      53.183  28.165  23.029  1.00  0.00    -0.200 F 
ATOM     59  C   UNL A   1      53.664  27.637  25.280  1.00  0.00     0.200 A 
ATOM     60  F   UNL A   1      54.094  27.129  27.545  1.00  0.00    -0.200 F 
ATOM     61  F   UNL A   1      54.968  27.521  24.990  1.00  0.00    -0.200 F 
ENDBRANCH  27  51
BRANCH  39  62
ATOM     62  C   UNL A   1      47.024  32.984  28.590  1.00  0.00     0.064 A 
ATOM     63  C   UNL A   1      47.427  33.302  29.894  1.00  0.00     0.173 A 
ATOM     64  C   UNL A   1      46.860  34.031  27.672  1.00  0.00     0.173 A 
ATOM     65  F   UNL A   1      47.593  32.332  30.806  1.00  0.00    -0.203 F 
ATOM     66  C   UNL A   1      47.646  34.624  30.269  1.00  0.00     0.198 A 
ATOM     67  C   UNL A   1      47.098  35.349  28.045  1.00  0.00     0.198 A 
ATOM     68  F   UNL A   1      46.489  33.770  26.410  1.00  0.00    -0.203 F 
ATOM     69  F   UNL A   1      48.012  34.911  31.526  1.00  0.00    -0.200 F 
ATOM     70  C   UNL A   1      47.484  35.646  29.345  1.00  0.00     0.200 A 
ATOM     71  F   UNL A   1      46.960  36.333  27.147  1.00  0.00    -0.200 F 
ATOM     72  F   UNL A   1      47.703  36.917  29.705  1.00  0.00    -0.200 F 
ENDBRANCH  39  62
ENDBRANCH  13  14
ENDBRANCH   6   8
ENDBRANCH   5   6
ENDBRANCH   4   5
ENDBRANCH   3   4
ENDBRANCH   2   3
ENDBRANCH   1   2
BRANCH   1  73
ATOM     73  C   UNL A   1      40.229  22.204  27.054  1.00  0.00     0.261 C 
BRANCH  73  74
ATOM     74  O   UNL A   1      39.073  22.141  26.201  1.00  0.00    -0.459 OA
BRANCH  74  75
ATOM     75  C   UNL A   1      38.324  23.286  26.169  1.00  0.00     0.348 C 
ATOM     76  O   UNL A   1      38.751  24.402  26.440  1.00  0.00    -0.245 OA
BRANCH  75  77
ATOM     77  C   UNL A   1      37.032  22.954  25.605  1.00  0.00     0.116 A 
ATOM     78  C   UNL A   1      35.927  22.430  26.251  1.00  0.00     0.074 A 
ATOM     79  S   UNL A   1      36.786  23.026  23.914  1.00  0.00    -0.133 S 
ATOM     80  C   UNL A   1      35.013  21.832  25.339  1.00  0.00     0.131 A 
ATOM     81  C   UNL A   1      35.344  22.110  24.032  1.00  0.00     0.112 A 
BRANCH  80  82
ATOM     82  O   UNL A   1      33.976  20.996  25.595  1.00  0.00    -0.488 OA
BRANCH  82  83
ATOM     83  C   UNL A   1      33.584  20.127  24.528  1.00  0.00     0.265 C 
BRANCH  83  84
ATOM     84  C   UNL A   1      33.558  18.636  24.842  1.00  0.00    -0.011 A 
ATOM     85  C   UNL A   1      32.550  18.023  25.605  1.00  0.00     0.010 A 
ATOM     86  C   UNL A   1      34.551  17.818  24.274  1.00  0.00     0.010 A 
ATOM     87  C   UNL A   1      32.517  16.635  25.769  1.00  0.00     0.039 A 
ATOM     88  C   UNL A   1      34.530  16.433  24.455  1.00  0.00     0.039 A 
ATOM     89  C   UNL A   1      33.506  15.853  25.191  1.00  0.00     0.123 A 
ATOM     90  F   UNL A   1      33.470  14.523  25.344  1.00  0.00    -0.207 F 
ENDBRANCH  83  84
ENDBRANCH  82  83
ENDBRANCH  80  82
ENDBRANCH  75  77
ENDBRANCH  74  75
ENDBRANCH  73  74
ENDBRANCH   1  73
TORSDOF 17
ENDMDL
