MODEL 1
REMARK VINA RESULT:     -13.2      0.000      0.000
REMARK SMILES Cc1ccc(C(=O)NC2CC2)cc1NC(=O)[C@@H]1[C@@H](C(=O)OCCOCCOC(=O)c2ccc(-c3c4nc(c(-c5c(F)c(F)c(F)c(F)c5F)c5ccc([nH]5)c(-c5c(F)c(F)c(F)c(F)c5F)c5nc(c(-c6c(F)c(F)c(F)c(F)c6F)c6ccc3[nH]6)C=C5)C=C4)cc2)[C@H]2C=C[C@@H]1C2
REMARK SMILES IDX 23 1 22 2 21 3 19 4 20 5 18 6 17 7 96 8 93 9 95 10 97 11
REMARK SMILES IDX 94 12 15 13 14 14 16 16 13 17 1 18 2 19 3 20 4 21 12 22 5 23
REMARK SMILES IDX 6 24 7 25 8 26 9 28 10 29 11 30 24 31 25 32 26 33 27 34
REMARK SMILES IDX 28 35 29 36 30 37 31 38 92 39 32 40 91 41 33 42 34 43 35 44
REMARK SMILES IDX 85 45 36 46 90 47 84 48 86 49 37 50 89 51 83 52 82 53 38 55
REMARK SMILES IDX 70 56 50 57 69 58 51 59 54 60 68 61 87 62 52 63 53 64 67 66
REMARK SMILES IDX 88 67 55 68 39 69 40 70 48 71 41 72 42 73 46 74 49 75 43 76
REMARK SMILES IDX 44 77 47 78 45 79 71 80 72 81 80 82 73 83 74 84 78 85 81 86
REMARK SMILES IDX 75 87 76 88 79 89 77 90 56 91 57 92 65 93 58 94 59 95 63 96
REMARK SMILES IDX 66 97 60 98 61 99 64 100 62 101
REMARK H PARENT 14 15 8 27 86 54 54 65
REMARK Flexibility Score: inf
ROOT
ATOM      1  C   UNL A   1      31.230  30.321  25.266  1.00  0.00     0.202 C 
ENDROOT
BRANCH   1   2
ATOM      2  C   UNL A   1      31.412  28.927  25.813  1.00  0.00     0.261 C 
BRANCH   2   3
ATOM      3  O   UNL A   1      32.143  28.107  24.891  1.00  0.00    -0.463 OA
BRANCH   3   4
ATOM      4  C   UNL A   1      32.555  26.899  25.364  1.00  0.00     0.310 C 
ATOM      5  O   UNL A   1      33.545  26.716  26.063  1.00  0.00    -0.252 OA
BRANCH   4   6
ATOM      6  C   UNL A   1      31.574  25.831  24.959  1.00  0.00     0.119 C 
ATOM      7  C   UNL A   1      32.183  24.393  25.059  1.00  0.00     0.100 C 
ATOM      8  C   UNL A   1      31.799  23.779  23.688  1.00  0.00     0.025 C 
ATOM      9  C   UNL A   1      31.161  25.918  23.472  1.00  0.00     0.027 C 
ATOM     10  C   UNL A   1      32.709  24.416  22.659  1.00  0.00    -0.027 C 
ATOM     11  C   UNL A   1      30.514  24.539  23.320  1.00  0.00     0.017 C 
ATOM     12  C   UNL A   1      32.350  25.705  22.556  1.00  0.00    -0.027 C 
BRANCH   7  13
ATOM     13  C   UNL A   1      31.744  23.578  26.267  1.00  0.00     0.228 C 
ATOM     14  N   UNL A   1      32.117  22.267  26.456  1.00  0.00    -0.326 N 
ATOM     15  H   UNL A   1      31.714  21.863  27.258  1.00  0.00     0.169 HD
ATOM     16  O   UNL A   1      31.006  24.080  27.122  1.00  0.00    -0.274 OA
BRANCH  14  17
ATOM     17  C   UNL A   1      32.955  21.372  25.743  1.00  0.00     0.044 A 
ATOM     18  C   UNL A   1      35.091  22.438  26.670  1.00  0.00     0.046 C 
ATOM     19  C   UNL A   1      34.344  21.392  25.894  1.00  0.00    -0.027 A 
ATOM     20  C   UNL A   1      35.116  20.392  25.259  1.00  0.00     0.006 A 
ATOM     21  C   UNL A   1      34.526  19.388  24.485  1.00  0.00     0.014 A 
ATOM     22  C   UNL A   1      32.433  20.457  24.833  1.00  0.00     0.040 A 
ATOM     23  C   UNL A   1      33.160  19.415  24.241  1.00  0.00     0.041 A 
BRANCH  23  24
ATOM     24  C   UNL A   1      32.573  18.294  23.419  1.00  0.00     0.251 C 
ATOM     25  O   UNL A   1      32.154  18.529  22.286  1.00  0.00    -0.269 OA
ATOM     26  N   UNL A   1      32.525  16.992  23.874  1.00  0.00    -0.349 N 
ATOM     27  H   UNL A   1      32.204  16.315  23.236  1.00  0.00     0.164 HD
BRANCH  26  28
ATOM     28  C   UNL A   1      32.882  16.531  25.150  1.00  0.00     0.082 C 
ATOM     29  C   UNL A   1      32.837  15.082  25.412  1.00  0.00     0.027 C 
ATOM     30  C   UNL A   1      34.129  15.828  25.566  1.00  0.00     0.027 C 
ENDBRANCH  26  28
ENDBRANCH  23  24
ENDBRANCH  14  17
ENDBRANCH   7  13
ENDBRANCH   4   6
ENDBRANCH   3   4
ENDBRANCH   2   3
ENDBRANCH   1   2
BRANCH   1  31
ATOM     31  O   UNL A   1      31.784  31.198  26.240  1.00  0.00    -0.374 OA
BRANCH  31  32
ATOM     32  C   UNL A   1      32.563  30.579  27.251  1.00  0.00     0.202 C 
BRANCH  32  33
ATOM     33  C   UNL A   1      33.848  31.344  27.591  1.00  0.00     0.261 C 
BRANCH  33  34
ATOM     34  O   UNL A   1      34.957  30.422  27.612  1.00  0.00    -0.460 OA
BRANCH  34  35
ATOM     35  C   UNL A   1      36.108  30.917  28.140  1.00  0.00     0.338 C 
ATOM     36  O   UNL A   1      36.408  32.096  28.202  1.00  0.00    -0.246 OA
BRANCH  35  37
ATOM     37  C   UNL A   1      37.070  29.801  28.368  1.00  0.00     0.060 A 
ATOM     38  C   UNL A   1      37.059  29.109  29.591  1.00  0.00     0.016 A 
ATOM     39  C   UNL A   1      38.139  29.637  27.491  1.00  0.00     0.016 A 
ATOM     40  C   UNL A   1      38.172  28.352  29.984  1.00  0.00     0.010 A 
ATOM     41  C   UNL A   1      39.268  28.971  27.925  1.00  0.00     0.010 A 
ATOM     42  C   UNL A   1      39.307  28.339  29.179  1.00  0.00    -0.014 A 
BRANCH  42  43
ATOM     43  C   UNL A   1      40.585  27.708  29.543  1.00  0.00     0.031 A 
ATOM     44  C   UNL A   1      40.846  26.331  29.028  1.00  0.00     0.074 A 
ATOM     45  C   UNL A   1      41.607  28.461  30.030  1.00  0.00     0.049 A 
ATOM     46  N   UNL A   1      41.898  25.631  29.275  1.00  0.00    -0.248 NA
ATOM     47  C   UNL A   1      39.944  25.649  28.108  1.00  0.00     0.031 C 
ATOM     48  C   UNL A   1      43.037  28.130  30.068  1.00  0.00     0.029 A 
ATOM     49  N   UNL A   1      41.600  29.762  30.566  1.00  0.00    -0.354 N 
ATOM     50  C   UNL A   1      42.001  24.639  28.317  1.00  0.00     0.074 A 
ATOM     51  C   UNL A   1      40.710  24.645  27.675  1.00  0.00     0.031 C 
ATOM     52  C   UNL A   1      43.719  29.051  30.766  1.00  0.00     0.029 A 
ATOM     53  C   UNL A   1      42.712  29.846  31.431  1.00  0.00     0.049 A 
ATOM     54  H   UNL A   1      40.946  30.474  30.376  1.00  0.00     0.167 HD
ATOM     55  C   UNL A   1      43.223  24.047  28.118  1.00  0.00     0.037 A 
ATOM     56  C   UNL A   1      42.530  29.868  32.780  1.00  0.00     0.037 A 
ATOM     57  C   UNL A   1      44.203  24.542  29.122  1.00  0.00     0.049 A 
ATOM     58  C   UNL A   1      43.135  28.604  33.348  1.00  0.00     0.074 A 
ATOM     59  C   UNL A   1      45.412  25.213  29.048  1.00  0.00     0.029 A 
ATOM     60  N   UNL A   1      43.850  24.578  30.485  1.00  0.00    -0.354 N 
ATOM     61  N   UNL A   1      43.078  27.435  32.752  1.00  0.00    -0.248 NA
ATOM     62  C   UNL A   1      44.094  28.645  34.447  1.00  0.00     0.031 C 
ATOM     63  C   UNL A   1      45.673  25.814  30.314  1.00  0.00     0.029 A 
ATOM     64  C   UNL A   1      44.685  25.416  31.206  1.00  0.00     0.049 A 
ATOM     65  H   UNL A   1      43.104  24.070  30.878  1.00  0.00     0.167 HD
ATOM     66  C   UNL A   1      44.099  26.659  33.235  1.00  0.00     0.074 A 
ATOM     67  C   UNL A   1      44.654  27.428  34.344  1.00  0.00     0.031 C 
ATOM     68  C   UNL A   1      44.607  25.527  32.658  1.00  0.00     0.037 A 
BRANCH  55  69
ATOM     69  C   UNL A   1      43.612  23.224  26.867  1.00  0.00     0.064 A 
ATOM     70  C   UNL A   1      43.153  21.898  26.678  1.00  0.00     0.173 A 
ATOM     71  C   UNL A   1      44.469  23.655  25.830  1.00  0.00     0.173 A 
ATOM     72  F   UNL A   1      42.215  21.365  27.469  1.00  0.00    -0.203 F 
ATOM     73  C   UNL A   1      43.602  21.063  25.638  1.00  0.00     0.198 A 
ATOM     74  C   UNL A   1      44.940  22.818  24.805  1.00  0.00     0.198 A 
ATOM     75  F   UNL A   1      44.832  24.928  25.690  1.00  0.00    -0.203 F 
ATOM     76  F   UNL A   1      43.125  19.815  25.531  1.00  0.00    -0.200 F 
ATOM     77  C   UNL A   1      44.520  21.514  24.717  1.00  0.00     0.200 A 
ATOM     78  F   UNL A   1      45.791  23.308  23.890  1.00  0.00    -0.200 F 
ATOM     79  F   UNL A   1      44.955  20.723  23.727  1.00  0.00    -0.200 F 
ENDBRANCH  55  69
BRANCH  56  80
ATOM     80  C   UNL A   1      41.298  30.621  33.151  1.00  0.00     0.064 A 
ATOM     81  C   UNL A   1      41.378  32.033  33.076  1.00  0.00     0.173 A 
ATOM     82  C   UNL A   1      40.020  30.055  33.097  1.00  0.00     0.173 A 
ATOM     83  F   UNL A   1      42.579  32.635  33.087  1.00  0.00    -0.203 F 
ATOM     84  C   UNL A   1      40.256  32.820  32.813  1.00  0.00     0.198 A 
ATOM     85  C   UNL A   1      38.894  30.852  32.843  1.00  0.00     0.198 A 
ATOM     86  F   UNL A   1      39.864  28.725  33.145  1.00  0.00    -0.203 F 
ATOM     87  F   UNL A   1      40.400  34.132  32.570  1.00  0.00    -0.200 F 
ATOM     88  C   UNL A   1      39.019  32.223  32.657  1.00  0.00     0.200 A 
ATOM     89  F   UNL A   1      37.694  30.278  32.668  1.00  0.00    -0.200 F 
ATOM     90  F   UNL A   1      37.968  32.953  32.256  1.00  0.00    -0.200 F 
ENDBRANCH  56  80
BRANCH  68  91
ATOM     91  C   UNL A   1      45.244  24.438  33.484  1.00  0.00     0.064 A 
ATOM     92  C   UNL A   1      44.569  23.244  33.791  1.00  0.00     0.173 A 
ATOM     93  C   UNL A   1      46.622  24.467  33.802  1.00  0.00     0.173 A 
ATOM     94  F   UNL A   1      43.290  23.052  33.440  1.00  0.00    -0.203 F 
ATOM     95  C   UNL A   1      45.209  22.182  34.424  1.00  0.00     0.198 A 
ATOM     96  C   UNL A   1      47.269  23.381  34.381  1.00  0.00     0.198 A 
ATOM     97  F   UNL A   1      47.398  25.523  33.525  1.00  0.00    -0.203 F 
ATOM     98  F   UNL A   1      44.510  21.080  34.728  1.00  0.00    -0.200 F 
ATOM     99  C   UNL A   1      46.559  22.244  34.705  1.00  0.00     0.200 A 
ATOM    100  F   UNL A   1      48.590  23.436  34.598  1.00  0.00    -0.200 F 
ATOM    101  F   UNL A   1      47.182  21.200  35.266  1.00  0.00    -0.200 F 
ENDBRANCH  68  91
ENDBRANCH  42  43
ENDBRANCH  35  37
ENDBRANCH  34  35
ENDBRANCH  33  34
ENDBRANCH  32  33
ENDBRANCH  31  32
ENDBRANCH   1  31
TORSDOF 18
ENDMDL
MODEL 2
REMARK VINA RESULT:     -13.0      1.810      2.406
REMARK SMILES Cc1ccc(C(=O)NC2CC2)cc1NC(=O)[C@@H]1[C@@H](C(=O)OCCOCCOC(=O)c2ccc(-c3c4nc(c(-c5c(F)c(F)c(F)c(F)c5F)c5ccc([nH]5)c(-c5c(F)c(F)c(F)c(F)c5F)c5nc(c(-c6c(F)c(F)c(F)c(F)c6F)c6ccc3[nH]6)C=C5)C=C4)cc2)[C@H]2C=C[C@@H]1C2
REMARK SMILES IDX 23 1 22 2 21 3 19 4 20 5 18 6 17 7 96 8 93 9 95 10 97 11
REMARK SMILES IDX 94 12 15 13 14 14 16 16 13 17 1 18 2 19 3 20 4 21 12 22 5 23
REMARK SMILES IDX 6 24 7 25 8 26 9 28 10 29 11 30 24 31 25 32 26 33 27 34
REMARK SMILES IDX 28 35 29 36 30 37 31 38 92 39 32 40 91 41 33 42 34 43 35 44
REMARK SMILES IDX 85 45 36 46 90 47 84 48 86 49 37 50 89 51 83 52 82 53 38 55
REMARK SMILES IDX 70 56 50 57 69 58 51 59 54 60 68 61 87 62 52 63 53 64 67 66
REMARK SMILES IDX 88 67 55 68 39 69 40 70 48 71 41 72 42 73 46 74 49 75 43 76
REMARK SMILES IDX 44 77 47 78 45 79 71 80 72 81 80 82 73 83 74 84 78 85 81 86
REMARK SMILES IDX 75 87 76 88 79 89 77 90 56 91 57 92 65 93 58 94 59 95 63 96
REMARK SMILES IDX 66 97 60 98 61 99 64 100 62 101
REMARK H PARENT 14 15 8 27 86 54 54 65
REMARK Flexibility Score: inf
ROOT
ATOM      1  C   UNL A   1      31.896  31.842  26.850  1.00  0.00     0.202 C 
ENDROOT
BRANCH   1   2
ATOM      2  C   UNL A   1      31.860  30.446  26.281  1.00  0.00     0.261 C 
BRANCH   2   3
ATOM      3  O   UNL A   1      32.885  30.270  25.292  1.00  0.00    -0.463 OA
BRANCH   3   4
ATOM      4  C   UNL A   1      32.805  29.135  24.546  1.00  0.00     0.310 C 
ATOM      5  O   UNL A   1      33.723  28.656  23.889  1.00  0.00    -0.252 OA
BRANCH   4   6
ATOM      6  C   UNL A   1      31.442  28.515  24.704  1.00  0.00     0.119 C 
ATOM      7  C   UNL A   1      31.511  26.961  24.881  1.00  0.00     0.100 C 
ATOM      8  C   UNL A   1      30.451  26.470  23.861  1.00  0.00     0.025 C 
ATOM      9  C   UNL A   1      30.555  28.671  23.449  1.00  0.00     0.027 C 
ATOM     10  C   UNL A   1      31.063  26.639  22.486  1.00  0.00    -0.027 C 
ATOM     11  C   UNL A   1      29.468  27.649  23.792  1.00  0.00     0.017 C 
ATOM     12  C   UNL A   1      31.158  27.958  22.255  1.00  0.00    -0.027 C 
BRANCH   7  13
ATOM     13  C   UNL A   1      31.311  26.454  26.302  1.00  0.00     0.228 C 
ATOM     14  N   UNL A   1      31.553  25.150  26.667  1.00  0.00    -0.326 N 
ATOM     15  H   UNL A   1      31.330  24.965  27.608  1.00  0.00     0.169 HD
ATOM     16  O   UNL A   1      30.894  27.216  27.182  1.00  0.00    -0.274 OA
BRANCH  14  17
ATOM     17  C   UNL A   1      32.053  24.014  25.981  1.00  0.00     0.044 A 
ATOM     18  C   UNL A   1      30.174  22.508  26.854  1.00  0.00     0.046 C 
ATOM     19  C   UNL A   1      31.375  22.792  25.999  1.00  0.00    -0.027 A 
ATOM     20  C   UNL A   1      31.850  21.734  25.191  1.00  0.00     0.006 A 
ATOM     21  C   UNL A   1      32.979  21.878  24.379  1.00  0.00     0.014 A 
ATOM     22  C   UNL A   1      33.259  24.055  25.290  1.00  0.00     0.040 A 
ATOM     23  C   UNL A   1      33.723  23.050  24.430  1.00  0.00     0.041 A 
BRANCH  23  24
ATOM     24  C   UNL A   1      34.918  23.161  23.515  1.00  0.00     0.251 C 
ATOM     25  O   UNL A   1      34.746  23.392  22.319  1.00  0.00    -0.269 OA
ATOM     26  N   UNL A   1      36.213  23.054  23.977  1.00  0.00    -0.349 N 
ATOM     27  H   UNL A   1      36.929  23.225  23.324  1.00  0.00     0.164 HD
BRANCH  26  28
ATOM     28  C   UNL A   1      36.620  22.724  25.279  1.00  0.00     0.082 C 
ATOM     29  C   UNL A   1      37.744  21.787  25.448  1.00  0.00     0.027 C 
ATOM     30  C   UNL A   1      37.838  23.175  26.011  1.00  0.00     0.027 C 
ENDBRANCH  26  28
ENDBRANCH  23  24
ENDBRANCH  14  17
ENDBRANCH   7  13
ENDBRANCH   4   6
ENDBRANCH   3   4
ENDBRANCH   2   3
ENDBRANCH   1   2
BRANCH   1  31
ATOM     31  O   UNL A   1      32.870  31.816  27.886  1.00  0.00    -0.374 OA
BRANCH  31  32
ATOM     32  C   UNL A   1      33.974  32.690  27.714  1.00  0.00     0.202 C 
BRANCH  32  33
ATOM     33  C   UNL A   1      35.331  32.023  27.973  1.00  0.00     0.261 C 
BRANCH  33  34
ATOM     34  O   UNL A   1      35.116  30.721  28.555  1.00  0.00    -0.460 OA
BRANCH  34  35
ATOM     35  C   UNL A   1      35.717  29.691  27.901  1.00  0.00     0.338 C 
ATOM     36  O   UNL A   1      35.145  28.853  27.227  1.00  0.00    -0.246 OA
BRANCH  35  37
ATOM     37  C   UNL A   1      37.129  29.567  28.362  1.00  0.00     0.060 A 
ATOM     38  C   UNL A   1      38.177  29.663  27.431  1.00  0.00     0.016 A 
ATOM     39  C   UNL A   1      37.385  29.086  29.643  1.00  0.00     0.016 A 
ATOM     40  C   UNL A   1      39.450  29.167  27.746  1.00  0.00     0.010 A 
ATOM     41  C   UNL A   1      38.612  28.512  29.912  1.00  0.00     0.010 A 
ATOM     42  C   UNL A   1      39.650  28.527  28.966  1.00  0.00    -0.014 A 
BRANCH  42  43
ATOM     43  C   UNL A   1      40.889  27.839  29.358  1.00  0.00     0.031 A 
ATOM     44  C   UNL A   1      41.085  26.441  28.870  1.00  0.00     0.074 A 
ATOM     45  C   UNL A   1      41.941  28.547  29.847  1.00  0.00     0.049 A 
ATOM     46  N   UNL A   1      42.096  25.693  29.144  1.00  0.00    -0.248 NA
ATOM     47  C   UNL A   1      40.162  25.790  27.949  1.00  0.00     0.031 C 
ATOM     48  C   UNL A   1      43.352  28.143  29.911  1.00  0.00     0.029 A 
ATOM     49  N   UNL A   1      41.994  29.855  30.360  1.00  0.00    -0.354 N 
ATOM     50  C   UNL A   1      42.161  24.680  28.205  1.00  0.00     0.074 A 
ATOM     51  C   UNL A   1      40.881  24.741  27.543  1.00  0.00     0.031 C 
ATOM     52  C   UNL A   1      44.072  29.041  30.602  1.00  0.00     0.029 A 
ATOM     53  C   UNL A   1      43.098  29.898  31.239  1.00  0.00     0.049 A 
ATOM     54  H   UNL A   1      41.380  30.596  30.149  1.00  0.00     0.167 HD
ATOM     55  C   UNL A   1      43.354  24.023  28.033  1.00  0.00     0.037 A 
ATOM     56  C   UNL A   1      42.899  29.953  32.585  1.00  0.00     0.037 A 
ATOM     57  C   UNL A   1      44.344  24.485  29.042  1.00  0.00     0.049 A 
ATOM     58  C   UNL A   1      43.431  28.670  33.183  1.00  0.00     0.074 A 
ATOM     59  C   UNL A   1      45.588  25.092  28.974  1.00  0.00     0.029 A 
ATOM     60  N   UNL A   1      43.976  24.562  30.399  1.00  0.00    -0.354 N 
ATOM     61  N   UNL A   1      43.322  27.495  32.606  1.00  0.00    -0.248 NA
ATOM     62  C   UNL A   1      44.376  28.681  34.295  1.00  0.00     0.031 C 
ATOM     63  C   UNL A   1      45.862  25.701  30.232  1.00  0.00     0.029 A 
ATOM     64  C   UNL A   1      44.843  25.369  31.117  1.00  0.00     0.049 A 
ATOM     65  H   UNL A   1      43.199  24.100  30.790  1.00  0.00     0.167 HD
ATOM     66  C   UNL A   1      44.295  26.676  33.117  1.00  0.00     0.074 A 
ATOM     67  C   UNL A   1      44.874  27.435  34.220  1.00  0.00     0.031 C 
ATOM     68  C   UNL A   1      44.751  25.509  32.566  1.00  0.00     0.037 A 
BRANCH  55  69
ATOM     69  C   UNL A   1      43.716  23.160  26.802  1.00  0.00     0.064 A 
ATOM     70  C   UNL A   1      43.247  21.831  26.661  1.00  0.00     0.173 A 
ATOM     71  C   UNL A   1      44.559  23.553  25.737  1.00  0.00     0.173 A 
ATOM     72  F   UNL A   1      42.319  21.328  27.484  1.00  0.00    -0.203 F 
ATOM     73  C   UNL A   1      43.673  20.961  25.640  1.00  0.00     0.198 A 
ATOM     74  C   UNL A   1      45.007  22.682  24.730  1.00  0.00     0.198 A 
ATOM     75  F   UNL A   1      44.927  24.819  25.551  1.00  0.00    -0.203 F 
ATOM     76  F   UNL A   1      43.187  19.714  25.580  1.00  0.00    -0.200 F 
ATOM     77  C   UNL A   1      44.577  21.379  24.690  1.00  0.00     0.200 A 
ATOM     78  F   UNL A   1      45.845  23.138  23.786  1.00  0.00    -0.200 F 
ATOM     79  F   UNL A   1      44.992  20.554  23.718  1.00  0.00    -0.200 F 
ENDBRANCH  55  69
BRANCH  56  80
ATOM     80  C   UNL A   1      41.703  30.774  32.927  1.00  0.00     0.064 A 
ATOM     81  C   UNL A   1      41.853  32.178  32.818  1.00  0.00     0.173 A 
ATOM     82  C   UNL A   1      40.398  30.271  32.873  1.00  0.00     0.173 A 
ATOM     83  F   UNL A   1      43.082  32.721  32.826  1.00  0.00    -0.203 F 
ATOM     84  C   UNL A   1      40.773  33.013  32.525  1.00  0.00     0.198 A 
ATOM     85  C   UNL A   1      39.315  31.115  32.590  1.00  0.00     0.198 A 
ATOM     86  F   UNL A   1      40.177  28.951  32.952  1.00  0.00    -0.203 F 
ATOM     87  F   UNL A   1      40.983  34.310  32.252  1.00  0.00    -0.200 F 
ATOM     88  C   UNL A   1      39.510  32.473  32.372  1.00  0.00     0.200 A 
ATOM     89  F   UNL A   1      38.090  30.597  32.417  1.00  0.00    -0.200 F 
ATOM     90  F   UNL A   1      38.500  33.244  31.943  1.00  0.00    -0.200 F 
ENDBRANCH  56  80
BRANCH  68  91
ATOM     91  C   UNL A   1      45.321  24.404  33.419  1.00  0.00     0.064 A 
ATOM     92  C   UNL A   1      44.598  23.232  33.700  1.00  0.00     0.173 A 
ATOM     93  C   UNL A   1      46.685  24.393  33.794  1.00  0.00     0.173 A 
ATOM     94  F   UNL A   1      43.329  23.077  33.296  1.00  0.00    -0.203 F 
ATOM     95  C   UNL A   1      45.179  22.152  34.360  1.00  0.00     0.198 A 
ATOM     96  C   UNL A   1      47.275  23.289  34.401  1.00  0.00     0.198 A 
ATOM     97  F   UNL A   1      47.503  25.424  33.548  1.00  0.00    -0.203 F 
ATOM     98  F   UNL A   1      44.436  21.073  34.635  1.00  0.00    -0.200 F 
ATOM     99  C   UNL A   1      46.518  22.175  34.697  1.00  0.00     0.200 A 
ATOM    100  F   UNL A   1      48.587  23.305  34.672  1.00  0.00    -0.200 F 
ATOM    101  F   UNL A   1      47.085  21.114  35.284  1.00  0.00    -0.200 F 
ENDBRANCH  68  91
ENDBRANCH  42  43
ENDBRANCH  35  37
ENDBRANCH  34  35
ENDBRANCH  33  34
ENDBRANCH  32  33
ENDBRANCH  31  32
ENDBRANCH   1  31
TORSDOF 18
ENDMDL
MODEL 3
REMARK VINA RESULT:     -12.9      4.070     10.548
REMARK SMILES Cc1ccc(C(=O)NC2CC2)cc1NC(=O)[C@@H]1[C@@H](C(=O)OCCOCCOC(=O)c2ccc(-c3c4nc(c(-c5c(F)c(F)c(F)c(F)c5F)c5ccc([nH]5)c(-c5c(F)c(F)c(F)c(F)c5F)c5nc(c(-c6c(F)c(F)c(F)c(F)c6F)c6ccc3[nH]6)C=C5)C=C4)cc2)[C@H]2C=C[C@@H]1C2
REMARK SMILES IDX 23 1 22 2 21 3 19 4 20 5 18 6 17 7 96 8 93 9 95 10 97 11
REMARK SMILES IDX 94 12 15 13 14 14 16 16 13 17 1 18 2 19 3 20 4 21 12 22 5 23
REMARK SMILES IDX 6 24 7 25 8 26 9 28 10 29 11 30 24 31 25 32 26 33 27 34
REMARK SMILES IDX 28 35 29 36 30 37 31 38 92 39 32 40 91 41 33 42 34 43 35 44
REMARK SMILES IDX 85 45 36 46 90 47 84 48 86 49 37 50 89 51 83 52 82 53 38 55
REMARK SMILES IDX 70 56 50 57 69 58 51 59 54 60 68 61 87 62 52 63 53 64 67 66
REMARK SMILES IDX 88 67 55 68 39 69 40 70 48 71 41 72 42 73 46 74 49 75 43 76
REMARK SMILES IDX 44 77 47 78 45 79 71 80 72 81 80 82 73 83 74 84 78 85 81 86
REMARK SMILES IDX 75 87 76 88 79 89 77 90 56 91 57 92 65 93 58 94 59 95 63 96
REMARK SMILES IDX 66 97 60 98 61 99 64 100 62 101
REMARK H PARENT 14 15 8 27 86 54 54 65
REMARK Flexibility Score: inf
ROOT
ATOM      1  C   UNL A   1      36.655  22.373  23.674  1.00  0.00     0.202 C 
ENDROOT
BRANCH   1   2
ATOM      2  C   UNL A   1      35.778  23.584  23.472  1.00  0.00     0.261 C 
BRANCH   2   3
ATOM      3  O   UNL A   1      34.558  23.461  24.217  1.00  0.00    -0.463 OA
BRANCH   3   4
ATOM      4  C   UNL A   1      33.637  22.595  23.714  1.00  0.00     0.310 C 
ATOM      5  O   UNL A   1      33.742  21.373  23.716  1.00  0.00    -0.252 OA
BRANCH   4   6
ATOM      6  C   UNL A   1      32.436  23.357  23.219  1.00  0.00     0.119 C 
ATOM      7  C   UNL A   1      32.573  24.899  23.451  1.00  0.00     0.100 C 
ATOM      8  C   UNL A   1      31.209  25.254  24.098  1.00  0.00     0.025 C 
ATOM      9  C   UNL A   1      31.141  23.016  23.990  1.00  0.00     0.027 C 
ATOM     10  C   UNL A   1      31.258  24.736  25.520  1.00  0.00    -0.027 C 
ATOM     11  C   UNL A   1      30.267  24.184  23.524  1.00  0.00     0.017 C 
ATOM     12  C   UNL A   1      31.253  23.395  25.453  1.00  0.00    -0.027 C 
BRANCH   7  13
ATOM     13  C   UNL A   1      32.924  25.718  22.217  1.00  0.00     0.228 C 
ATOM     14  N   UNL A   1      32.450  26.993  22.010  1.00  0.00    -0.326 N 
ATOM     15  H   UNL A   1      32.726  27.371  21.144  1.00  0.00     0.169 HD
ATOM     16  O   UNL A   1      33.648  25.238  21.336  1.00  0.00    -0.274 OA
BRANCH  14  17
ATOM     17  C   UNL A   1      31.646  27.878  22.772  1.00  0.00     0.044 A 
ATOM     18  C   UNL A   1      33.592  28.512  24.313  1.00  0.00     0.046 C 
ATOM     19  C   UNL A   1      32.187  28.651  23.804  1.00  0.00    -0.027 A 
ATOM     20  C   UNL A   1      31.367  29.610  24.442  1.00  0.00     0.006 A 
ATOM     21  C   UNL A   1      30.033  29.802  24.069  1.00  0.00     0.014 A 
ATOM     22  C   UNL A   1      30.277  27.989  22.553  1.00  0.00     0.040 A 
ATOM     23  C   UNL A   1      29.453  28.971  23.119  1.00  0.00     0.041 A 
BRANCH  23  24
ATOM     24  C   UNL A   1      28.018  29.238  22.739  1.00  0.00     0.251 C 
ATOM     25  O   UNL A   1      27.137  28.464  23.116  1.00  0.00    -0.269 OA
ATOM     26  N   UNL A   1      27.640  30.347  22.012  1.00  0.00    -0.349 N 
ATOM     27  H   UNL A   1      26.674  30.483  21.885  1.00  0.00     0.164 HD
BRANCH  26  28
ATOM     28  C   UNL A   1      28.488  31.304  21.432  1.00  0.00     0.082 C 
ATOM     29  C   UNL A   1      27.881  32.435  20.710  1.00  0.00     0.027 C 
ATOM     30  C   UNL A   1      28.768  32.694  21.892  1.00  0.00     0.027 C 
ENDBRANCH  26  28
ENDBRANCH  23  24
ENDBRANCH  14  17
ENDBRANCH   7  13
ENDBRANCH   4   6
ENDBRANCH   3   4
ENDBRANCH   2   3
ENDBRANCH   1   2
BRANCH   1  31
ATOM     31  O   UNL A   1      37.048  22.401  25.041  1.00  0.00    -0.374 OA
BRANCH  31  32
ATOM     32  C   UNL A   1      37.900  21.345  25.456  1.00  0.00     0.202 C 
BRANCH  32  33
ATOM     33  C   UNL A   1      39.204  21.828  26.106  1.00  0.00     0.261 C 
BRANCH  33  34
ATOM     34  O   UNL A   1      39.078  23.225  26.439  1.00  0.00    -0.460 OA
BRANCH  34  35
ATOM     35  C   UNL A   1      40.032  23.706  27.281  1.00  0.00     0.338 C 
ATOM     36  O   UNL A   1      40.793  23.027  27.948  1.00  0.00    -0.246 OA
BRANCH  35  37
ATOM     37  C   UNL A   1      39.822  25.167  27.488  1.00  0.00     0.060 A 
ATOM     38  C   UNL A   1      40.375  26.087  26.580  1.00  0.00     0.016 A 
ATOM     39  C   UNL A   1      39.325  25.615  28.709  1.00  0.00     0.016 A 
ATOM     40  C   UNL A   1      40.538  27.430  26.947  1.00  0.00     0.010 A 
ATOM     41  C   UNL A   1      39.577  26.915  29.100  1.00  0.00     0.010 A 
ATOM     42  C   UNL A   1      40.201  27.831  28.236  1.00  0.00    -0.014 A 
BRANCH  42  43
ATOM     43  C   UNL A   1      40.456  29.168  28.792  1.00  0.00     0.031 A 
ATOM     44  C   UNL A   1      39.321  30.138  28.805  1.00  0.00     0.074 A 
ATOM     45  C   UNL A   1      41.558  29.393  29.557  1.00  0.00     0.049 A 
ATOM     46  N   UNL A   1      39.385  31.352  29.230  1.00  0.00    -0.248 NA
ATOM     47  C   UNL A   1      37.970  29.776  28.395  1.00  0.00     0.031 C 
ATOM     48  C   UNL A   1      41.789  30.487  30.510  1.00  0.00     0.029 A 
ATOM     49  N   UNL A   1      42.734  28.635  29.699  1.00  0.00    -0.354 N 
ATOM     50  C   UNL A   1      38.102  31.791  29.499  1.00  0.00     0.074 A 
ATOM     51  C   UNL A   1      37.260  30.801  28.874  1.00  0.00     0.031 C 
ATOM     52  C   UNL A   1      43.054  30.466  30.958  1.00  0.00     0.029 A 
ATOM     53  C   UNL A   1      43.747  29.535  30.095  1.00  0.00     0.049 A 
ATOM     54  H   UNL A   1      42.832  27.667  29.550  1.00  0.00     0.167 HD
ATOM     55  C   UNL A   1      37.941  32.867  30.336  1.00  0.00     0.037 A 
ATOM     56  C   UNL A   1      44.724  29.895  29.219  1.00  0.00     0.037 A 
ATOM     57  C   UNL A   1      39.266  33.440  30.695  1.00  0.00     0.049 A 
ATOM     58  C   UNL A   1      44.568  31.371  28.934  1.00  0.00     0.074 A 
ATOM     59  C   UNL A   1      39.949  33.635  31.885  1.00  0.00     0.029 A 
ATOM     60  N   UNL A   1      40.215  33.695  29.686  1.00  0.00    -0.354 N 
ATOM     61  N   UNL A   1      43.408  31.975  28.821  1.00  0.00    -0.248 NA
ATOM     62  C   UNL A   1      45.689  32.297  29.070  1.00  0.00     0.031 C 
ATOM     63  C   UNL A   1      41.332  33.803  31.588  1.00  0.00     0.029 A 
ATOM     64  C   UNL A   1      41.490  33.832  30.208  1.00  0.00     0.049 A 
ATOM     65  H   UNL A   1      39.999  33.767  28.728  1.00  0.00     0.167 HD
ATOM     66  C   UNL A   1      43.595  33.310  29.065  1.00  0.00     0.074 A 
ATOM     67  C   UNL A   1      45.043  33.473  29.137  1.00  0.00     0.031 C 
ATOM     68  C   UNL A   1      42.628  34.225  29.384  1.00  0.00     0.037 A 
BRANCH  55  69
ATOM     69  C   UNL A   1      36.618  33.246  31.042  1.00  0.00     0.064 A 
ATOM     70  C   UNL A   1      35.547  33.851  30.340  1.00  0.00     0.173 A 
ATOM     71  C   UNL A   1      36.342  33.086  32.419  1.00  0.00     0.173 A 
ATOM     72  F   UNL A   1      35.555  33.949  29.006  1.00  0.00    -0.203 F 
ATOM     73  C   UNL A   1      34.392  34.351  30.969  1.00  0.00     0.198 A 
ATOM     74  C   UNL A   1      35.202  33.605  33.055  1.00  0.00     0.198 A 
ATOM     75  F   UNL A   1      37.108  32.345  33.217  1.00  0.00    -0.203 F 
ATOM     76  F   UNL A   1      33.425  34.918  30.234  1.00  0.00    -0.200 F 
ATOM     77  C   UNL A   1      34.232  34.253  32.332  1.00  0.00     0.200 A 
ATOM     78  F   UNL A   1      35.052  33.442  34.379  1.00  0.00    -0.200 F 
ATOM     79  F   UNL A   1      33.135  34.730  32.938  1.00  0.00    -0.200 F 
ENDBRANCH  55  69
BRANCH  56  80
ATOM     80  C   UNL A   1      45.108  28.758  28.334  1.00  0.00     0.064 A 
ATOM     81  C   UNL A   1      45.830  27.704  28.943  1.00  0.00     0.173 A 
ATOM     82  C   UNL A   1      44.426  28.457  27.150  1.00  0.00     0.173 A 
ATOM     83  F   UNL A   1      46.476  27.919  30.101  1.00  0.00    -0.203 F 
ATOM     84  C   UNL A   1      45.753  26.392  28.473  1.00  0.00     0.198 A 
ATOM     85  C   UNL A   1      44.361  27.139  26.675  1.00  0.00     0.198 A 
ATOM     86  F   UNL A   1      43.706  29.399  26.524  1.00  0.00    -0.203 F 
ATOM     87  F   UNL A   1      46.304  25.393  29.180  1.00  0.00    -0.200 F 
ATOM     88  C   UNL A   1      44.984  26.105  27.361  1.00  0.00     0.200 A 
ATOM     89  F   UNL A   1      43.599  26.849  25.611  1.00  0.00    -0.200 F 
ATOM     90  F   UNL A   1      44.784  24.830  26.996  1.00  0.00    -0.200 F 
ENDBRANCH  56  80
BRANCH  68  91
ATOM     91  C   UNL A   1      42.779  35.686  29.041  1.00  0.00     0.064 A 
ATOM     92  C   UNL A   1      42.129  36.263  27.937  1.00  0.00     0.173 A 
ATOM     93  C   UNL A   1      43.400  36.590  29.933  1.00  0.00     0.173 A 
ATOM     94  F   UNL A   1      41.412  35.522  27.080  1.00  0.00    -0.203 F 
ATOM     95  C   UNL A   1      42.149  37.636  27.709  1.00  0.00     0.198 A 
ATOM     96  C   UNL A   1      43.369  37.966  29.731  1.00  0.00     0.198 A 
ATOM     97  F   UNL A   1      44.019  36.183  31.049  1.00  0.00    -0.203 F 
ATOM     98  F   UNL A   1      41.545  38.131  26.621  1.00  0.00    -0.200 F 
ATOM     99  C   UNL A   1      42.755  38.487  28.612  1.00  0.00     0.200 A 
ATOM    100  F   UNL A   1      43.913  38.782  30.644  1.00  0.00    -0.200 F 
ATOM    101  F   UNL A   1      42.727  39.811  28.416  1.00  0.00    -0.200 F 
ENDBRANCH  68  91
ENDBRANCH  42  43
ENDBRANCH  35  37
ENDBRANCH  34  35
ENDBRANCH  33  34
ENDBRANCH  32  33
ENDBRANCH  31  32
ENDBRANCH   1  31
TORSDOF 18
ENDMDL
