MODEL 1
REMARK VINA RESULT:     -12.1      0.000      0.000
REMARK SMILES Cc1ccc(S(=O)(=O)N(C)c2cccc(C)c2C)cc1C(=O)OCCOCCOC(=O)c1ccc(-c2c3nc(c(-c4c(F)c(F)c(F)c(F)c4F)c4ccc([nH]4)c(-c4c(F)c(F)c(F)c(F)c4F)c4nc(c(-c5c(F)c(F)c(F)c(F)c5F)c5ccc2[nH]5)C=C4)C=C3)cc1
REMARK SMILES IDX 25 1 24 2 23 3 21 4 22 5 20 6 1 7 2 8 3 9 4 10 19 11 5 12
REMARK SMILES IDX 6 13 7 14 8 15 9 16 10 17 11 18 12 19 17 20 13 21 15 22
REMARK SMILES IDX 18 23 14 24 16 25 26 26 27 27 28 28 29 29 30 30 31 31 32 32
REMARK SMILES IDX 33 33 94 34 34 35 93 36 35 37 36 38 37 39 87 40 38 41 92 42
REMARK SMILES IDX 86 43 88 44 39 45 91 46 85 47 84 48 40 50 72 51 52 52 71 53
REMARK SMILES IDX 53 54 56 55 70 56 89 57 54 58 55 59 69 61 90 62 57 63 41 64
REMARK SMILES IDX 42 65 50 66 43 67 44 68 48 69 51 70 45 71 46 72 49 73 47 74
REMARK SMILES IDX 73 75 74 76 82 77 75 78 76 79 80 80 83 81 77 82 78 83 81 84
REMARK SMILES IDX 79 85 58 86 59 87 67 88 60 89 61 90 65 91 68 92 62 93 63 94
REMARK SMILES IDX 66 95 64 96
REMARK H PARENT 88 49 56 60
REMARK Flexibility Score: inf
ROOT
ATOM      1  C   UNL A   1      33.694  28.245  26.438  1.00  0.00     0.202 C 
ENDROOT
BRANCH   1   2
ATOM      2  C   UNL A   1      33.467  28.861  25.092  1.00  0.00     0.261 C 
BRANCH   2   3
ATOM      3  O   UNL A   1      34.258  28.173  24.121  1.00  0.00    -0.460 OA
BRANCH   3   4
ATOM      4  C   UNL A   1      33.669  27.885  22.940  1.00  0.00     0.338 C 
ATOM      5  O   UNL A   1      34.025  28.262  21.843  1.00  0.00    -0.246 OA
BRANCH   4   6
ATOM      6  C   UNL A   1      32.594  26.891  23.157  1.00  0.00     0.064 A 
ATOM      7  C   UNL A   1      30.511  28.424  22.793  1.00  0.00     0.045 C 
ATOM      8  C   UNL A   1      31.205  27.123  23.113  1.00  0.00    -0.036 A 
ATOM      9  C   UNL A   1      30.359  26.029  23.363  1.00  0.00     0.006 A 
ATOM     10  C   UNL A   1      30.872  24.754  23.622  1.00  0.00     0.022 A 
ATOM     11  C   UNL A   1      33.102  25.614  23.467  1.00  0.00     0.038 A 
ATOM     12  C   UNL A   1      32.254  24.542  23.656  1.00  0.00     0.088 A 
BRANCH  12  13
ATOM     13  S   UNL A   1      32.823  22.861  23.782  1.00  0.00     0.264 S 
ATOM     14  O   UNL A   1      31.620  22.050  23.754  1.00  0.00    -0.201 OA
ATOM     15  O   UNL A   1      33.821  22.748  22.736  1.00  0.00    -0.201 OA
BRANCH  13  16
ATOM     16  N   UNL A   1      33.601  22.584  25.307  1.00  0.00    -0.269 N 
ATOM     17  C   UNL A   1      33.188  23.446  26.452  1.00  0.00     0.164 C 
BRANCH  16  18
ATOM     18  C   UNL A   1      35.067  22.524  25.205  1.00  0.00     0.055 A 
ATOM     19  C   UNL A   1      35.840  23.651  25.533  1.00  0.00     0.027 A 
ATOM     20  C   UNL A   1      35.715  21.276  25.033  1.00  0.00    -0.024 A 
ATOM     21  C   UNL A   1      37.227  23.586  25.603  1.00  0.00     0.002 A 
ATOM     22  C   UNL A   1      37.131  21.210  25.133  1.00  0.00    -0.046 A 
ATOM     23  C   UNL A   1      34.904  20.022  24.825  1.00  0.00     0.047 C 
ATOM     24  C   UNL A   1      37.869  22.375  25.399  1.00  0.00     0.004 A 
ATOM     25  C   UNL A   1      37.891  19.918  24.988  1.00  0.00     0.044 C 
ENDBRANCH  16  18
ENDBRANCH  13  16
ENDBRANCH  12  13
ENDBRANCH   4   6
ENDBRANCH   3   4
ENDBRANCH   2   3
ENDBRANCH   1   2
BRANCH   1  26
ATOM     26  O   UNL A   1      32.929  29.033  27.341  1.00  0.00    -0.374 OA
BRANCH  26  27
ATOM     27  C   UNL A   1      32.461  30.265  26.830  1.00  0.00     0.202 C 
BRANCH  27  28
ATOM     28  C   UNL A   1      33.141  31.477  27.483  1.00  0.00     0.261 C 
BRANCH  28  29
ATOM     29  O   UNL A   1      34.568  31.397  27.276  1.00  0.00    -0.460 OA
BRANCH  29  30
ATOM     30  C   UNL A   1      35.356  31.576  28.374  1.00  0.00     0.338 C 
ATOM     31  O   UNL A   1      35.477  32.620  28.995  1.00  0.00    -0.246 OA
BRANCH  30  32
ATOM     32  C   UNL A   1      36.279  30.410  28.524  1.00  0.00     0.060 A 
ATOM     33  C   UNL A   1      36.368  29.727  29.756  1.00  0.00     0.016 A 
ATOM     34  C   UNL A   1      37.270  30.232  27.563  1.00  0.00     0.016 A 
ATOM     35  C   UNL A   1      37.523  28.993  30.078  1.00  0.00     0.010 A 
ATOM     36  C   UNL A   1      38.442  29.606  27.927  1.00  0.00     0.010 A 
ATOM     37  C   UNL A   1      38.596  29.008  29.191  1.00  0.00    -0.014 A 
BRANCH  37  38
ATOM     38  C   UNL A   1      39.970  28.564  29.461  1.00  0.00     0.031 A 
ATOM     39  C   UNL A   1      40.335  27.182  29.066  1.00  0.00     0.074 A 
ATOM     40  C   UNL A   1      40.952  29.470  29.711  1.00  0.00     0.049 A 
ATOM     41  N   UNL A   1      41.506  26.682  29.231  1.00  0.00    -0.248 NA
ATOM     42  C   UNL A   1      39.407  26.219  28.470  1.00  0.00     0.031 C 
ATOM     43  C   UNL A   1      42.379  29.366  29.382  1.00  0.00     0.029 A 
ATOM     44  N   UNL A   1      40.870  30.745  30.293  1.00  0.00    -0.354 N 
ATOM     45  C   UNL A   1      41.589  25.524  28.502  1.00  0.00     0.074 A 
ATOM     46  C   UNL A   1      40.228  25.211  28.155  1.00  0.00     0.031 C 
ATOM     47  C   UNL A   1      43.062  30.349  29.995  1.00  0.00     0.029 A 
ATOM     48  C   UNL A   1      42.124  31.054  30.847  1.00  0.00     0.049 A 
ATOM     49  H   UNL A   1      40.072  31.323  30.310  1.00  0.00     0.167 HD
ATOM     50  C   UNL A   1      42.833  25.056  28.206  1.00  0.00     0.037 A 
ATOM     51  C   UNL A   1      42.249  31.312  32.175  1.00  0.00     0.037 A 
ATOM     52  C   UNL A   1      43.845  25.805  28.970  1.00  0.00     0.049 A 
ATOM     53  C   UNL A   1      43.058  30.204  32.775  1.00  0.00     0.074 A 
ATOM     54  C   UNL A   1      44.804  26.745  28.637  1.00  0.00     0.029 A 
ATOM     55  N   UNL A   1      43.726  25.850  30.364  1.00  0.00    -0.354 N 
ATOM     56  N   UNL A   1      43.125  29.021  32.223  1.00  0.00    -0.248 NA
ATOM     57  C   UNL A   1      43.959  30.353  33.912  1.00  0.00     0.031 C 
ATOM     58  C   UNL A   1      45.178  27.425  29.837  1.00  0.00     0.029 A 
ATOM     59  C   UNL A   1      44.483  26.871  30.906  1.00  0.00     0.049 A 
ATOM     60  H   UNL A   1      43.172  25.232  30.893  1.00  0.00     0.167 HD
ATOM     61  C   UNL A   1      44.124  28.315  32.809  1.00  0.00     0.074 A 
ATOM     62  C   UNL A   1      44.580  29.159  33.900  1.00  0.00     0.031 C 
ATOM     63  C   UNL A   1      44.523  27.096  32.350  1.00  0.00     0.037 A 
BRANCH  50  64
ATOM     64  C   UNL A   1      43.175  24.024  27.149  1.00  0.00     0.064 A 
ATOM     65  C   UNL A   1      42.816  22.670  27.341  1.00  0.00     0.173 A 
ATOM     66  C   UNL A   1      43.918  24.264  25.971  1.00  0.00     0.173 A 
ATOM     67  F   UNL A   1      42.136  22.282  28.429  1.00  0.00    -0.203 F 
ATOM     68  C   UNL A   1      43.156  21.660  26.432  1.00  0.00     0.198 A 
ATOM     69  C   UNL A   1      44.212  23.263  25.038  1.00  0.00     0.198 A 
ATOM     70  F   UNL A   1      44.446  25.459  25.691  1.00  0.00    -0.203 F 
ATOM     71  F   UNL A   1      42.822  20.388  26.694  1.00  0.00    -0.200 F 
ATOM     72  C   UNL A   1      43.837  21.959  25.271  1.00  0.00     0.200 A 
ATOM     73  F   UNL A   1      44.885  23.576  23.920  1.00  0.00    -0.200 F 
ATOM     74  F   UNL A   1      44.151  20.997  24.393  1.00  0.00    -0.200 F 
ENDBRANCH  50  64
BRANCH  51  75
ATOM     75  C   UNL A   1      41.064  32.054  32.697  1.00  0.00     0.064 A 
ATOM     76  C   UNL A   1      40.214  31.319  33.558  1.00  0.00     0.173 A 
ATOM     77  C   UNL A   1      41.069  33.449  32.848  1.00  0.00     0.173 A 
ATOM     78  F   UNL A   1      40.190  29.978  33.485  1.00  0.00    -0.203 F 
ATOM     79  C   UNL A   1      39.532  31.930  34.610  1.00  0.00     0.198 A 
ATOM     80  C   UNL A   1      40.384  34.057  33.909  1.00  0.00     0.198 A 
ATOM     81  F   UNL A   1      41.865  34.209  32.082  1.00  0.00    -0.203 F 
ATOM     82  F   UNL A   1      38.886  31.179  35.515  1.00  0.00    -0.200 F 
ATOM     83  C   UNL A   1      39.651  33.294  34.808  1.00  0.00     0.200 A 
ATOM     84  F   UNL A   1      40.532  35.370  34.136  1.00  0.00    -0.200 F 
ATOM     85  F   UNL A   1      39.140  33.856  35.915  1.00  0.00    -0.200 F 
ENDBRANCH  51  75
BRANCH  63  86
ATOM     86  C   UNL A   1      45.043  26.039  33.280  1.00  0.00     0.064 A 
ATOM     87  C   UNL A   1      44.205  25.319  34.155  1.00  0.00     0.173 A 
ATOM     88  C   UNL A   1      46.371  25.574  33.182  1.00  0.00     0.173 A 
ATOM     89  F   UNL A   1      42.889  25.559  34.229  1.00  0.00    -0.203 F 
ATOM     90  C   UNL A   1      44.684  24.279  34.944  1.00  0.00     0.198 A 
ATOM     91  C   UNL A   1      46.826  24.485  33.916  1.00  0.00     0.198 A 
ATOM     92  F   UNL A   1      47.253  26.134  32.341  1.00  0.00    -0.203 F 
ATOM     93  F   UNL A   1      43.859  23.671  35.806  1.00  0.00    -0.200 F 
ATOM     94  C   UNL A   1      45.992  23.855  34.818  1.00  0.00     0.200 A 
ATOM     95  F   UNL A   1      48.073  24.030  33.725  1.00  0.00    -0.200 F 
ATOM     96  F   UNL A   1      46.439  22.824  35.544  1.00  0.00    -0.200 F 
ENDBRANCH  63  86
ENDBRANCH  37  38
ENDBRANCH  30  32
ENDBRANCH  29  30
ENDBRANCH  28  29
ENDBRANCH  27  28
ENDBRANCH  26  27
ENDBRANCH   1  26
TORSDOF 17
ENDMDL
MODEL 2
REMARK VINA RESULT:     -12.0      0.937      1.812
REMARK SMILES Cc1ccc(S(=O)(=O)N(C)c2cccc(C)c2C)cc1C(=O)OCCOCCOC(=O)c1ccc(-c2c3nc(c(-c4c(F)c(F)c(F)c(F)c4F)c4ccc([nH]4)c(-c4c(F)c(F)c(F)c(F)c4F)c4nc(c(-c5c(F)c(F)c(F)c(F)c5F)c5ccc2[nH]5)C=C4)C=C3)cc1
REMARK SMILES IDX 25 1 24 2 23 3 21 4 22 5 20 6 1 7 2 8 3 9 4 10 19 11 5 12
REMARK SMILES IDX 6 13 7 14 8 15 9 16 10 17 11 18 12 19 17 20 13 21 15 22
REMARK SMILES IDX 18 23 14 24 16 25 26 26 27 27 28 28 29 29 30 30 31 31 32 32
REMARK SMILES IDX 33 33 94 34 34 35 93 36 35 37 36 38 37 39 87 40 38 41 92 42
REMARK SMILES IDX 86 43 88 44 39 45 91 46 85 47 84 48 40 50 72 51 52 52 71 53
REMARK SMILES IDX 53 54 56 55 70 56 89 57 54 58 55 59 69 61 90 62 57 63 41 64
REMARK SMILES IDX 42 65 50 66 43 67 44 68 48 69 51 70 45 71 46 72 49 73 47 74
REMARK SMILES IDX 73 75 74 76 82 77 75 78 76 79 80 80 83 81 77 82 78 83 81 84
REMARK SMILES IDX 79 85 58 86 59 87 67 88 60 89 61 90 65 91 68 92 62 93 63 94
REMARK SMILES IDX 66 95 64 96
REMARK H PARENT 88 49 56 60
REMARK Flexibility Score: inf
ROOT
ATOM      1  C   UNL A   1      33.676  28.334  26.914  1.00  0.00     0.202 C 
ENDROOT
BRANCH   1   2
ATOM      2  C   UNL A   1      33.970  28.770  25.512  1.00  0.00     0.261 C 
BRANCH   2   3
ATOM      3  O   UNL A   1      33.801  27.659  24.629  1.00  0.00    -0.460 OA
BRANCH   3   4
ATOM      4  C   UNL A   1      32.799  27.735  23.728  1.00  0.00     0.338 C 
ATOM      5  O   UNL A   1      32.557  28.670  22.992  1.00  0.00    -0.246 OA
BRANCH   4   6
ATOM      6  C   UNL A   1      32.112  26.427  23.645  1.00  0.00     0.064 A 
ATOM      7  C   UNL A   1      29.644  27.250  23.416  1.00  0.00     0.045 C 
ATOM      8  C   UNL A   1      30.726  26.205  23.528  1.00  0.00    -0.036 A 
ATOM      9  C   UNL A   1      30.287  24.870  23.478  1.00  0.00     0.006 A 
ATOM     10  C   UNL A   1      31.191  23.803  23.518  1.00  0.00     0.022 A 
ATOM     11  C   UNL A   1      33.011  25.345  23.735  1.00  0.00     0.038 A 
ATOM     12  C   UNL A   1      32.564  24.044  23.630  1.00  0.00     0.088 A 
BRANCH  12  13
ATOM     13  S   UNL A   1      33.656  22.650  23.464  1.00  0.00     0.264 S 
ATOM     14  O   UNL A   1      32.827  21.576  22.952  1.00  0.00    -0.201 OA
ATOM     15  O   UNL A   1      34.770  23.165  22.690  1.00  0.00    -0.201 OA
BRANCH  13  16
ATOM     16  N   UNL A   1      34.259  22.148  25.012  1.00  0.00    -0.269 N 
ATOM     17  C   UNL A   1      33.423  22.465  26.206  1.00  0.00     0.164 C 
BRANCH  16  18
ATOM     18  C   UNL A   1      35.658  22.537  25.240  1.00  0.00     0.055 A 
ATOM     19  C   UNL A   1      35.961  23.825  25.714  1.00  0.00     0.027 A 
ATOM     20  C   UNL A   1      36.676  21.552  25.240  1.00  0.00    -0.024 A 
ATOM     21  C   UNL A   1      37.252  24.176  26.093  1.00  0.00     0.002 A 
ATOM     22  C   UNL A   1      37.988  21.908  25.654  1.00  0.00    -0.046 A 
ATOM     23  C   UNL A   1      36.351  20.124  24.878  1.00  0.00     0.047 C 
ATOM     24  C   UNL A   1      38.259  23.226  26.059  1.00  0.00     0.004 A 
ATOM     25  C   UNL A   1      39.117  20.914  25.706  1.00  0.00     0.044 C 
ENDBRANCH  16  18
ENDBRANCH  13  16
ENDBRANCH  12  13
ENDBRANCH   4   6
ENDBRANCH   3   4
ENDBRANCH   2   3
ENDBRANCH   1   2
BRANCH   1  26
ATOM     26  O   UNL A   1      32.817  29.336  27.442  1.00  0.00    -0.374 OA
BRANCH  26  27
ATOM     27  C   UNL A   1      32.905  30.604  26.823  1.00  0.00     0.202 C 
BRANCH  27  28
ATOM     28  C   UNL A   1      33.667  31.630  27.672  1.00  0.00     0.261 C 
BRANCH  28  29
ATOM     29  O   UNL A   1      35.080  31.336  27.629  1.00  0.00    -0.460 OA
BRANCH  29  30
ATOM     30  C   UNL A   1      35.740  31.327  28.822  1.00  0.00     0.338 C 
ATOM     31  O   UNL A   1      35.781  32.255  29.614  1.00  0.00    -0.246 OA
BRANCH  30  32
ATOM     32  C   UNL A   1      36.651  30.144  28.883  1.00  0.00     0.060 A 
ATOM     33  C   UNL A   1      36.735  29.371  30.060  1.00  0.00     0.016 A 
ATOM     34  C   UNL A   1      37.638  30.028  27.908  1.00  0.00     0.016 A 
ATOM     35  C   UNL A   1      37.883  28.603  30.324  1.00  0.00     0.010 A 
ATOM     36  C   UNL A   1      38.804  29.365  28.221  1.00  0.00     0.010 A 
ATOM     37  C   UNL A   1      38.955  28.673  29.437  1.00  0.00    -0.014 A 
BRANCH  37  38
ATOM     38  C   UNL A   1      40.324  28.197  29.670  1.00  0.00     0.031 A 
ATOM     39  C   UNL A   1      40.678  26.849  29.161  1.00  0.00     0.074 A 
ATOM     40  C   UNL A   1      41.314  29.070  29.994  1.00  0.00     0.049 A 
ATOM     41  N   UNL A   1      41.845  26.327  29.285  1.00  0.00    -0.248 NA
ATOM     42  C   UNL A   1      39.743  25.947  28.487  1.00  0.00     0.031 C 
ATOM     43  C   UNL A   1      42.741  28.982  29.659  1.00  0.00     0.029 A 
ATOM     44  N   UNL A   1      41.242  30.293  30.680  1.00  0.00    -0.354 N 
ATOM     45  C   UNL A   1      41.919  25.233  28.462  1.00  0.00     0.074 A 
ATOM     46  C   UNL A   1      40.556  24.962  28.090  1.00  0.00     0.031 C 
ATOM     47  C   UNL A   1      43.432  29.904  30.352  1.00  0.00     0.029 A 
ATOM     48  C   UNL A   1      42.499  30.544  31.259  1.00  0.00     0.049 A 
ATOM     49  H   UNL A   1      40.449  30.874  30.745  1.00  0.00     0.167 HD
ATOM     50  C   UNL A   1      43.160  24.781  28.129  1.00  0.00     0.037 A 
ATOM     51  C   UNL A   1      42.624  30.690  32.603  1.00  0.00     0.037 A 
ATOM     52  C   UNL A   1      44.177  25.455  28.953  1.00  0.00     0.049 A 
ATOM     53  C   UNL A   1      43.423  29.529  33.110  1.00  0.00     0.074 A 
ATOM     54  C   UNL A   1      45.143  26.411  28.699  1.00  0.00     0.029 A 
ATOM     55  N   UNL A   1      44.057  25.385  30.346  1.00  0.00    -0.354 N 
ATOM     56  N   UNL A   1      43.481  28.395  32.462  1.00  0.00    -0.248 NA
ATOM     57  C   UNL A   1      44.324  29.575  34.255  1.00  0.00     0.031 C 
ATOM     58  C   UNL A   1      45.522  26.986  29.952  1.00  0.00     0.029 A 
ATOM     59  C   UNL A   1      44.822  26.351  30.971  1.00  0.00     0.049 A 
ATOM     60  H   UNL A   1      43.496  24.730  30.821  1.00  0.00     0.167 HD
ATOM     61  C   UNL A   1      44.473  27.634  32.987  1.00  0.00     0.074 A 
ATOM     62  C   UNL A   1      44.935  28.381  34.144  1.00  0.00     0.031 C 
ATOM     63  C   UNL A   1      44.862  26.454  32.428  1.00  0.00     0.037 A 
BRANCH  50  64
ATOM     64  C   UNL A   1      43.493  23.837  26.989  1.00  0.00     0.064 A 
ATOM     65  C   UNL A   1      43.032  22.502  27.020  1.00  0.00     0.173 A 
ATOM     66  C   UNL A   1      44.321  24.138  25.884  1.00  0.00     0.173 A 
ATOM     67  F   UNL A   1      42.261  22.058  28.024  1.00  0.00    -0.203 F 
ATOM     68  C   UNL A   1      43.356  21.565  26.030  1.00  0.00     0.198 A 
ATOM     69  C   UNL A   1      44.602  23.217  24.869  1.00  0.00     0.198 A 
ATOM     70  F   UNL A   1      44.946  25.312  25.759  1.00  0.00    -0.203 F 
ATOM     71  F   UNL A   1      42.921  20.301  26.140  1.00  0.00    -0.200 F 
ATOM     72  C   UNL A   1      44.126  21.927  24.944  1.00  0.00     0.200 A 
ATOM     73  F   UNL A   1      45.362  23.588  23.828  1.00  0.00    -0.200 F 
ATOM     74  F   UNL A   1      44.426  21.037  23.989  1.00  0.00    -0.200 F 
ENDBRANCH  50  64
BRANCH  51  75
ATOM     75  C   UNL A   1      41.445  31.396  33.185  1.00  0.00     0.064 A 
ATOM     76  C   UNL A   1      41.383  32.788  32.939  1.00  0.00     0.173 A 
ATOM     77  C   UNL A   1      40.228  30.737  33.422  1.00  0.00     0.173 A 
ATOM     78  F   UNL A   1      42.510  33.469  32.673  1.00  0.00    -0.203 F 
ATOM     79  C   UNL A   1      40.166  33.451  32.782  1.00  0.00     0.198 A 
ATOM     80  C   UNL A   1      39.009  31.407  33.260  1.00  0.00     0.198 A 
ATOM     81  F   UNL A   1      40.208  29.415  33.642  1.00  0.00    -0.203 F 
ATOM     82  F   UNL A   1      40.147  34.726  32.367  1.00  0.00    -0.200 F 
ATOM     83  C   UNL A   1      38.979  32.749  32.903  1.00  0.00     0.200 A 
ATOM     84  F   UNL A   1      37.856  30.725  33.328  1.00  0.00    -0.200 F 
ATOM     85  F   UNL A   1      37.818  33.340  32.583  1.00  0.00    -0.200 F 
ENDBRANCH  51  75
BRANCH  63  86
ATOM     86  C   UNL A   1      45.372  25.320  33.267  1.00  0.00     0.064 A 
ATOM     87  C   UNL A   1      46.744  25.113  33.512  1.00  0.00     0.173 A 
ATOM     88  C   UNL A   1      44.488  24.518  34.019  1.00  0.00     0.173 A 
ATOM     89  F   UNL A   1      47.683  25.907  32.979  1.00  0.00    -0.203 F 
ATOM     90  C   UNL A   1      47.198  24.114  34.366  1.00  0.00     0.198 A 
ATOM     91  C   UNL A   1      44.945  23.573  34.931  1.00  0.00     0.198 A 
ATOM     92  F   UNL A   1      43.157  24.657  33.925  1.00  0.00    -0.203 F 
ATOM     93  F   UNL A   1      48.515  23.919  34.512  1.00  0.00    -0.200 F 
ATOM     94  C   UNL A   1      46.299  23.351  35.084  1.00  0.00     0.200 A 
ATOM     95  F   UNL A   1      44.065  22.895  35.681  1.00  0.00    -0.200 F 
ATOM     96  F   UNL A   1      46.738  22.421  35.941  1.00  0.00    -0.200 F 
ENDBRANCH  63  86
ENDBRANCH  37  38
ENDBRANCH  30  32
ENDBRANCH  29  30
ENDBRANCH  28  29
ENDBRANCH  27  28
ENDBRANCH  26  27
ENDBRANCH   1  26
TORSDOF 17
ENDMDL
MODEL 3
REMARK VINA RESULT:     -11.8      1.795      2.767
REMARK SMILES Cc1ccc(S(=O)(=O)N(C)c2cccc(C)c2C)cc1C(=O)OCCOCCOC(=O)c1ccc(-c2c3nc(c(-c4c(F)c(F)c(F)c(F)c4F)c4ccc([nH]4)c(-c4c(F)c(F)c(F)c(F)c4F)c4nc(c(-c5c(F)c(F)c(F)c(F)c5F)c5ccc2[nH]5)C=C4)C=C3)cc1
REMARK SMILES IDX 25 1 24 2 23 3 21 4 22 5 20 6 1 7 2 8 3 9 4 10 19 11 5 12
REMARK SMILES IDX 6 13 7 14 8 15 9 16 10 17 11 18 12 19 17 20 13 21 15 22
REMARK SMILES IDX 18 23 14 24 16 25 26 26 27 27 28 28 29 29 30 30 31 31 32 32
REMARK SMILES IDX 33 33 94 34 34 35 93 36 35 37 36 38 37 39 87 40 38 41 92 42
REMARK SMILES IDX 86 43 88 44 39 45 91 46 85 47 84 48 40 50 72 51 52 52 71 53
REMARK SMILES IDX 53 54 56 55 70 56 89 57 54 58 55 59 69 61 90 62 57 63 41 64
REMARK SMILES IDX 42 65 50 66 43 67 44 68 48 69 51 70 45 71 46 72 49 73 47 74
REMARK SMILES IDX 73 75 74 76 82 77 75 78 76 79 80 80 83 81 77 82 78 83 81 84
REMARK SMILES IDX 79 85 58 86 59 87 67 88 60 89 61 90 65 91 68 92 62 93 63 94
REMARK SMILES IDX 66 95 64 96
REMARK H PARENT 88 49 56 60
REMARK Flexibility Score: inf
ROOT
ATOM      1  C   UNL A   1      31.778  27.959  27.563  1.00  0.00     0.202 C 
ENDROOT
BRANCH   1   2
ATOM      2  C   UNL A   1      31.246  26.992  26.551  1.00  0.00     0.261 C 
BRANCH   2   3
ATOM      3  O   UNL A   1      31.728  25.681  26.854  1.00  0.00    -0.460 OA
BRANCH   3   4
ATOM      4  C   UNL A   1      30.977  24.638  26.441  1.00  0.00     0.338 C 
ATOM      5  O   UNL A   1      29.853  24.365  26.808  1.00  0.00    -0.246 OA
BRANCH   4   6
ATOM      6  C   UNL A   1      31.669  23.943  25.333  1.00  0.00     0.064 A 
ATOM      7  C   UNL A   1      30.369  24.958  23.309  1.00  0.00     0.045 C 
ATOM      8  C   UNL A   1      31.396  24.063  23.957  1.00  0.00    -0.036 A 
ATOM      9  C   UNL A   1      32.174  23.294  23.074  1.00  0.00     0.006 A 
ATOM     10  C   UNL A   1      33.197  22.461  23.539  1.00  0.00     0.022 A 
ATOM     11  C   UNL A   1      32.668  23.063  25.796  1.00  0.00     0.038 A 
ATOM     12  C   UNL A   1      33.457  22.359  24.909  1.00  0.00     0.088 A 
BRANCH  12  13
ATOM     13  S   UNL A   1      34.902  21.447  25.404  1.00  0.00     0.264 S 
ATOM     14  O   UNL A   1      34.888  21.472  26.854  1.00  0.00    -0.201 OA
ATOM     15  O   UNL A   1      34.794  20.196  24.679  1.00  0.00    -0.201 OA
BRANCH  13  16
ATOM     16  N   UNL A   1      36.349  22.252  24.885  1.00  0.00    -0.269 N 
ATOM     17  C   UNL A   1      36.490  22.530  23.427  1.00  0.00     0.164 C 
BRANCH  16  18
ATOM     18  C   UNL A   1      37.574  21.636  25.417  1.00  0.00     0.055 A 
ATOM     19  C   UNL A   1      37.918  20.325  25.047  1.00  0.00     0.027 A 
ATOM     20  C   UNL A   1      38.536  22.434  26.082  1.00  0.00    -0.024 A 
ATOM     21  C   UNL A   1      39.142  19.768  25.399  1.00  0.00     0.002 A 
ATOM     22  C   UNL A   1      39.797  21.869  26.415  1.00  0.00    -0.046 A 
ATOM     23  C   UNL A   1      38.254  23.889  26.363  1.00  0.00     0.047 C 
ATOM     24  C   UNL A   1      40.073  20.533  26.083  1.00  0.00     0.004 A 
ATOM     25  C   UNL A   1      40.881  22.659  27.099  1.00  0.00     0.044 C 
ENDBRANCH  16  18
ENDBRANCH  13  16
ENDBRANCH  12  13
ENDBRANCH   4   6
ENDBRANCH   3   4
ENDBRANCH   2   3
ENDBRANCH   1   2
BRANCH   1  26
ATOM     26  O   UNL A   1      32.483  28.936  26.808  1.00  0.00    -0.374 OA
BRANCH  26  27
ATOM     27  C   UNL A   1      31.946  30.243  26.849  1.00  0.00     0.202 C 
BRANCH  27  28
ATOM     28  C   UNL A   1      32.990  31.304  27.223  1.00  0.00     0.261 C 
BRANCH  28  29
ATOM     29  O   UNL A   1      34.315  30.760  27.039  1.00  0.00    -0.460 OA
BRANCH  29  30
ATOM     30  C   UNL A   1      35.311  31.310  27.791  1.00  0.00     0.338 C 
ATOM     31  O   UNL A   1      35.515  32.505  27.931  1.00  0.00    -0.246 OA
BRANCH  30  32
ATOM     32  C   UNL A   1      36.296  30.250  28.168  1.00  0.00     0.060 A 
ATOM     33  C   UNL A   1      36.256  29.666  29.451  1.00  0.00     0.016 A 
ATOM     34  C   UNL A   1      37.433  30.103  27.377  1.00  0.00     0.016 A 
ATOM     35  C   UNL A   1      37.408  29.070  29.996  1.00  0.00     0.010 A 
ATOM     36  C   UNL A   1      38.585  29.619  27.956  1.00  0.00     0.010 A 
ATOM     37  C   UNL A   1      38.597  29.127  29.274  1.00  0.00    -0.014 A 
BRANCH  37  38
ATOM     38  C   UNL A   1      39.947  28.837  29.774  1.00  0.00     0.031 A 
ATOM     39  C   UNL A   1      40.663  27.678  29.185  1.00  0.00     0.074 A 
ATOM     40  C   UNL A   1      40.648  29.780  30.457  1.00  0.00     0.049 A 
ATOM     41  N   UNL A   1      41.852  27.333  29.524  1.00  0.00    -0.248 NA
ATOM     42  C   UNL A   1      40.097  26.780  28.177  1.00  0.00     0.031 C 
ATOM     43  C   UNL A   1      42.102  29.980  30.482  1.00  0.00     0.029 A 
ATOM     44  N   UNL A   1      40.187  30.828  31.268  1.00  0.00    -0.354 N 
ATOM     45  C   UNL A   1      42.321  26.435  28.600  1.00  0.00     0.074 A 
ATOM     46  C   UNL A   1      41.155  26.026  27.862  1.00  0.00     0.031 C 
ATOM     47  C   UNL A   1      42.427  30.855  31.450  1.00  0.00     0.029 A 
ATOM     48  C   UNL A   1      41.209  31.163  32.174  1.00  0.00     0.049 A 
ATOM     49  H   UNL A   1      39.301  31.256  31.213  1.00  0.00     0.167 HD
ATOM     50  C   UNL A   1      43.669  26.252  28.530  1.00  0.00     0.037 A 
ATOM     51  C   UNL A   1      41.001  31.076  33.514  1.00  0.00     0.037 A 
ATOM     52  C   UNL A   1      44.325  26.914  29.670  1.00  0.00     0.049 A 
ATOM     53  C   UNL A   1      41.880  29.982  34.036  1.00  0.00     0.074 A 
ATOM     54  C   UNL A   1      45.116  28.040  29.805  1.00  0.00     0.029 A 
ATOM     55  N   UNL A   1      43.915  26.570  30.964  1.00  0.00    -0.354 N 
ATOM     56  N   UNL A   1      42.302  29.010  33.270  1.00  0.00    -0.248 NA
ATOM     57  C   UNL A   1      42.477  29.956  35.366  1.00  0.00     0.031 C 
ATOM     58  C   UNL A   1      45.086  28.426  31.181  1.00  0.00     0.029 A 
ATOM     59  C   UNL A   1      44.316  27.513  31.891  1.00  0.00     0.049 A 
ATOM     60  H   UNL A   1      43.403  25.759  31.185  1.00  0.00     0.167 HD
ATOM     61  C   UNL A   1      43.283  28.331  33.914  1.00  0.00     0.074 A 
ATOM     62  C   UNL A   1      43.320  28.915  35.245  1.00  0.00     0.031 C 
ATOM     63  C   UNL A   1      44.011  27.350  33.311  1.00  0.00     0.037 A 
BRANCH  50  64
ATOM     64  C   UNL A   1      44.426  25.599  27.390  1.00  0.00     0.064 A 
ATOM     65  C   UNL A   1      44.559  24.193  27.343  1.00  0.00     0.173 A 
ATOM     66  C   UNL A   1      45.115  26.280  26.360  1.00  0.00     0.173 A 
ATOM     67  F   UNL A   1      43.987  23.413  28.271  1.00  0.00    -0.203 F 
ATOM     68  C   UNL A   1      45.297  23.533  26.351  1.00  0.00     0.198 A 
ATOM     69  C   UNL A   1      45.809  25.617  25.340  1.00  0.00     0.198 A 
ATOM     70  F   UNL A   1      45.204  27.612  26.320  1.00  0.00    -0.203 F 
ATOM     71  F   UNL A   1      45.418  22.198  26.388  1.00  0.00    -0.200 F 
ATOM     72  C   UNL A   1      45.906  24.244  25.339  1.00  0.00     0.200 A 
ATOM     73  F   UNL A   1      46.403  26.330  24.372  1.00  0.00    -0.200 F 
ATOM     74  F   UNL A   1      46.600  23.615  24.381  1.00  0.00    -0.200 F 
ENDBRANCH  50  64
BRANCH  51  75
ATOM     75  C   UNL A   1      39.607  31.468  33.874  1.00  0.00     0.064 A 
ATOM     76  C   UNL A   1      39.367  32.861  33.963  1.00  0.00     0.173 A 
ATOM     77  C   UNL A   1      38.506  30.651  33.576  1.00  0.00     0.173 A 
ATOM     78  F   UNL A   1      40.388  33.698  34.213  1.00  0.00    -0.203 F 
ATOM     79  C   UNL A   1      38.135  33.415  33.618  1.00  0.00     0.198 A 
ATOM     80  C   UNL A   1      37.271  31.214  33.227  1.00  0.00     0.198 A 
ATOM     81  F   UNL A   1      38.661  29.325  33.454  1.00  0.00    -0.203 F 
ATOM     82  F   UNL A   1      37.999  34.747  33.535  1.00  0.00    -0.200 F 
ATOM     83  C   UNL A   1      37.100  32.592  33.210  1.00  0.00     0.200 A 
ATOM     84  F   UNL A   1      36.278  30.428  32.785  1.00  0.00    -0.200 F 
ATOM     85  F   UNL A   1      35.974  33.129  32.714  1.00  0.00    -0.200 F 
ENDBRANCH  51  75
BRANCH  63  86
ATOM     86  C   UNL A   1      44.534  26.175  34.083  1.00  0.00     0.064 A 
ATOM     87  C   UNL A   1      43.688  25.203  34.653  1.00  0.00     0.173 A 
ATOM     88  C   UNL A   1      45.913  25.876  34.105  1.00  0.00     0.173 A 
ATOM     89  F   UNL A   1      42.354  25.289  34.565  1.00  0.00    -0.203 F 
ATOM     90  C   UNL A   1      44.189  24.070  35.286  1.00  0.00     0.198 A 
ATOM     91  C   UNL A   1      46.403  24.704  34.670  1.00  0.00     0.198 A 
ATOM     92  F   UNL A   1      46.819  26.689  33.542  1.00  0.00    -0.203 F 
ATOM     93  F   UNL A   1      43.342  23.211  35.867  1.00  0.00    -0.200 F 
ATOM     94  C   UNL A   1      45.545  23.815  35.285  1.00  0.00     0.200 A 
ATOM     95  F   UNL A   1      47.713  24.428  34.592  1.00  0.00    -0.200 F 
ATOM     96  F   UNL A   1      46.021  22.701  35.854  1.00  0.00    -0.200 F 
ENDBRANCH  63  86
ENDBRANCH  37  38
ENDBRANCH  30  32
ENDBRANCH  29  30
ENDBRANCH  28  29
ENDBRANCH  27  28
ENDBRANCH  26  27
ENDBRANCH   1  26
TORSDOF 17
ENDMDL
