MODEL 1
REMARK VINA RESULT:     -10.6      0.000      0.000
REMARK SMILES O=C(OCCOCCOC(=O)c1ccc(S(=O)(=O)NCC[NH+]2CCCC2)c(F)c1)c1ccc(-c2c3nc(c(-c4c(F)c(F)c(F)c(F)c4F)c4ccc([nH]4)c(-c4c(F)c(F)c(F)c(F)c4F)c4nc(c(-c5c(F)c(F)c(F)c(F)c5F)c5ccc2[nH]5)C=C4)C=C3)cc1
REMARK SMILES IDX 7 1 6 2 5 3 4 4 3 5 2 6 1 7 30 8 31 9 92 10 32 11 91 12
REMARK SMILES IDX 33 13 34 14 35 15 85 16 36 17 90 18 84 19 86 20 37 21 89 22
REMARK SMILES IDX 83 23 82 24 38 26 70 27 50 28 69 29 51 30 54 31 68 32 87 33
REMARK SMILES IDX 52 34 53 35 67 37 88 38 55 39 39 40 40 41 48 42 41 43 42 44
REMARK SMILES IDX 46 45 49 46 43 47 44 48 47 49 45 50 71 51 72 52 80 53 73 54
REMARK SMILES IDX 74 55 78 56 81 57 75 58 76 59 79 60 77 61 56 62 57 63 65 64
REMARK SMILES IDX 58 65 59 66 63 67 66 68 60 69 61 70 64 71 62 72 8 73 9 74
REMARK SMILES IDX 10 75 11 76 12 77 13 78 29 79 14 80 27 81 15 82 28 83 16 84
REMARK SMILES IDX 17 85 18 86 19 87 20 89 21 90 22 91 23 92 26 93 24 95 25 96
REMARK H PARENT 86 25 54 36 19 88 22 94
REMARK Flexibility Score: inf
ROOT
ATOM      1  C   UNL A   1      34.540  34.135  28.024  1.00  0.00     0.202 C 
ENDROOT
BRANCH   1   2
ATOM      2  O   UNL A   1      34.305  35.465  28.508  1.00  0.00    -0.374 OA
BRANCH   2   3
ATOM      3  C   UNL A   1      33.099  35.653  29.251  1.00  0.00     0.202 C 
BRANCH   3   4
ATOM      4  C   UNL A   1      33.005  36.977  30.018  1.00  0.00     0.261 C 
BRANCH   4   5
ATOM      5  O   UNL A   1      32.532  36.759  31.359  1.00  0.00    -0.460 OA
BRANCH   5   6
ATOM      6  C   UNL A   1      32.633  35.638  32.112  1.00  0.00     0.338 C 
ATOM      7  O   UNL A   1      31.607  35.139  32.571  1.00  0.00    -0.246 OA
BRANCH   6   8
ATOM      8  C   UNL A   1      33.934  34.977  32.433  1.00  0.00     0.060 A 
ATOM      9  C   UNL A   1      35.179  35.592  32.314  1.00  0.00     0.016 A 
ATOM     10  C   UNL A   1      33.893  33.682  32.980  1.00  0.00     0.016 A 
ATOM     11  C   UNL A   1      36.350  34.936  32.642  1.00  0.00     0.010 A 
ATOM     12  C   UNL A   1      35.069  33.031  33.380  1.00  0.00     0.010 A 
ATOM     13  C   UNL A   1      36.303  33.662  33.199  1.00  0.00    -0.014 A 
BRANCH  13  14
ATOM     14  C   UNL A   1      37.597  33.035  33.517  1.00  0.00     0.031 A 
ATOM     15  C   UNL A   1      38.191  33.263  34.870  1.00  0.00     0.074 A 
ATOM     16  C   UNL A   1      38.092  32.113  32.668  1.00  0.00     0.049 A 
ATOM     17  N   UNL A   1      39.280  32.763  35.386  1.00  0.00    -0.248 NA
ATOM     18  C   UNL A   1      37.445  34.150  35.780  1.00  0.00     0.031 C 
ATOM     19  C   UNL A   1      37.478  31.735  31.391  1.00  0.00     0.029 A 
ATOM     20  N   UNL A   1      39.172  31.279  32.774  1.00  0.00    -0.354 N 
ATOM     21  C   UNL A   1      39.360  33.285  36.668  1.00  0.00     0.074 A 
ATOM     22  C   UNL A   1      38.215  34.145  36.858  1.00  0.00     0.031 C 
ATOM     23  C   UNL A   1      38.158  30.707  30.861  1.00  0.00     0.029 A 
ATOM     24  C   UNL A   1      39.302  30.411  31.715  1.00  0.00     0.049 A 
ATOM     25  H   UNL A   1      39.797  31.300  33.533  1.00  0.00     0.167 HD
ATOM     26  C   UNL A   1      40.315  33.056  37.595  1.00  0.00     0.037 A 
ATOM     27  C   UNL A   1      40.257  29.498  31.461  1.00  0.00     0.037 A 
ATOM     28  C   UNL A   1      41.438  32.186  37.374  1.00  0.00     0.049 A 
ATOM     29  C   UNL A   1      41.369  29.358  32.465  1.00  0.00     0.074 A 
ATOM     30  C   UNL A   1      42.516  31.938  38.201  1.00  0.00     0.029 A 
ATOM     31  N   UNL A   1      41.614  31.412  36.234  1.00  0.00    -0.354 N 
ATOM     32  N   UNL A   1      41.494  29.924  33.642  1.00  0.00    -0.248 NA
ATOM     33  C   UNL A   1      42.483  28.475  32.101  1.00  0.00     0.031 C 
ATOM     34  C   UNL A   1      43.367  31.046  37.543  1.00  0.00     0.029 A 
ATOM     35  C   UNL A   1      42.795  30.699  36.328  1.00  0.00     0.049 A 
ATOM     36  H   UNL A   1      40.991  31.376  35.473  1.00  0.00     0.167 HD
ATOM     37  C   UNL A   1      42.694  29.467  34.162  1.00  0.00     0.074 A 
ATOM     38  C   UNL A   1      43.243  28.546  33.185  1.00  0.00     0.031 C 
ATOM     39  C   UNL A   1      43.300  29.786  35.332  1.00  0.00     0.037 A 
BRANCH  26  40
ATOM     40  C   UNL A   1      40.218  33.795  38.894  1.00  0.00     0.064 A 
ATOM     41  C   UNL A   1      39.401  33.304  39.923  1.00  0.00     0.173 A 
ATOM     42  C   UNL A   1      40.900  35.000  39.115  1.00  0.00     0.173 A 
ATOM     43  F   UNL A   1      38.737  32.148  39.765  1.00  0.00    -0.203 F 
ATOM     44  C   UNL A   1      39.253  34.002  41.118  1.00  0.00     0.198 A 
ATOM     45  C   UNL A   1      40.767  35.686  40.321  1.00  0.00     0.198 A 
ATOM     46  F   UNL A   1      41.718  35.496  38.174  1.00  0.00    -0.203 F 
ATOM     47  F   UNL A   1      38.448  33.523  42.077  1.00  0.00    -0.200 F 
ATOM     48  C   UNL A   1      39.938  35.191  41.316  1.00  0.00     0.200 A 
ATOM     49  F   UNL A   1      41.451  36.820  40.524  1.00  0.00    -0.200 F 
ATOM     50  F   UNL A   1      39.803  35.858  42.471  1.00  0.00    -0.200 F 
ENDBRANCH  26  40
BRANCH  27  51
ATOM     51  C   UNL A   1      40.240  28.708  30.198  1.00  0.00     0.064 A 
ATOM     52  C   UNL A   1      39.597  27.461  30.130  1.00  0.00     0.173 A 
ATOM     53  C   UNL A   1      40.842  29.188  29.026  1.00  0.00     0.173 A 
ATOM     54  F   UNL A   1      38.996  26.953  31.215  1.00  0.00    -0.203 F 
ATOM     55  C   UNL A   1      39.573  26.721  28.949  1.00  0.00     0.198 A 
ATOM     56  C   UNL A   1      40.786  28.462  27.836  1.00  0.00     0.198 A 
ATOM     57  F   UNL A   1      41.449  30.384  29.026  1.00  0.00    -0.203 F 
ATOM     58  F   UNL A   1      38.976  25.521  28.926  1.00  0.00    -0.200 F 
ATOM     59  C   UNL A   1      40.158  27.226  27.800  1.00  0.00     0.200 A 
ATOM     60  F   UNL A   1      41.323  28.970  26.719  1.00  0.00    -0.200 F 
ATOM     61  F   UNL A   1      40.105  26.530  26.657  1.00  0.00    -0.200 F 
ENDBRANCH  27  51
BRANCH  39  62
ATOM     62  C   UNL A   1      44.614  29.128  35.619  1.00  0.00     0.064 A 
ATOM     63  C   UNL A   1      45.808  29.695  35.152  1.00  0.00     0.173 A 
ATOM     64  C   UNL A   1      44.682  27.899  36.292  1.00  0.00     0.173 A 
ATOM     65  F   UNL A   1      45.790  30.864  34.495  1.00  0.00    -0.203 F 
ATOM     66  C   UNL A   1      47.023  29.045  35.334  1.00  0.00     0.198 A 
ATOM     67  C   UNL A   1      45.903  27.269  36.500  1.00  0.00     0.198 A 
ATOM     68  F   UNL A   1      43.564  27.328  36.768  1.00  0.00    -0.203 F 
ATOM     69  F   UNL A   1      48.149  29.585  34.845  1.00  0.00    -0.200 F 
ATOM     70  C   UNL A   1      47.071  27.836  36.012  1.00  0.00     0.200 A 
ATOM     71  F   UNL A   1      45.951  26.114  37.179  1.00  0.00    -0.200 F 
ATOM     72  F   UNL A   1      48.245  27.217  36.197  1.00  0.00    -0.200 F 
ENDBRANCH  39  62
ENDBRANCH  13  14
ENDBRANCH   6   8
ENDBRANCH   5   6
ENDBRANCH   4   5
ENDBRANCH   3   4
ENDBRANCH   2   3
ENDBRANCH   1   2
BRANCH   1  73
ATOM     73  C   UNL A   1      34.384  33.134  29.172  1.00  0.00     0.261 C 
BRANCH  73  74
ATOM     74  O   UNL A   1      33.759  31.951  28.651  1.00  0.00    -0.460 OA
BRANCH  74  75
ATOM     75  C   UNL A   1      34.614  31.067  28.076  1.00  0.00     0.338 C 
ATOM     76  O   UNL A   1      35.739  30.771  28.443  1.00  0.00    -0.246 OA
BRANCH  75  77
ATOM     77  C   UNL A   1      33.845  30.313  27.063  1.00  0.00     0.063 A 
ATOM     78  C   UNL A   1      34.376  29.169  26.457  1.00  0.00     0.017 A 
ATOM     79  C   UNL A   1      32.618  30.835  26.636  1.00  0.00     0.056 A 
ATOM     80  C   UNL A   1      33.684  28.562  25.414  1.00  0.00     0.026 A 
ATOM     81  C   UNL A   1      31.937  30.230  25.584  1.00  0.00     0.144 A 
ATOM     82  C   UNL A   1      32.465  29.099  24.978  1.00  0.00     0.118 A 
ATOM     83  F   UNL A   1      30.785  30.778  25.177  1.00  0.00    -0.205 F 
BRANCH  82  84
ATOM     84  S   UNL A   1      31.621  28.267  23.682  1.00  0.00     0.243 S 
ATOM     85  O   UNL A   1      31.982  28.948  22.460  1.00  0.00    -0.207 OA
ATOM     86  O   UNL A   1      31.886  26.859  23.873  1.00  0.00    -0.207 OA
BRANCH  84  87
ATOM     87  N   UNL A   1      29.995  28.478  23.944  1.00  0.00    -0.205 NA
ATOM     88  H   UNL A   1      29.824  29.475  23.818  1.00  0.00     0.141 HD
BRANCH  87  89
ATOM     89  C   UNL A   1      28.948  27.800  23.188  1.00  0.00     0.160 C 
BRANCH  89  90
ATOM     90  C   UNL A   1      27.574  28.505  23.163  1.00  0.00     0.278 C 
BRANCH  90  91
ATOM     91  N   UNL A   1      27.376  29.841  22.602  1.00  0.00    -0.334 N 
ATOM     92  C   UNL A   1      28.108  30.258  21.421  1.00  0.00     0.262 C 
ATOM     93  C   UNL A   1      27.389  30.940  23.563  1.00  0.00     0.262 C 
ATOM     94  H   UNL A   1      26.428  29.656  22.271  1.00  0.00     0.348 HD
ATOM     95  C   UNL A   1      29.108  31.303  21.887  1.00  0.00     0.067 C 
ATOM     96  C   UNL A   1      28.570  31.828  23.207  1.00  0.00     0.067 C 
ENDBRANCH  90  91
ENDBRANCH  89  90
ENDBRANCH  87  89
ENDBRANCH  84  87
ENDBRANCH  82  84
ENDBRANCH  75  77
ENDBRANCH  74  75
ENDBRANCH  73  74
ENDBRANCH   1  73
TORSDOF 19
ENDMDL
MODEL 2
REMARK VINA RESULT:     -10.6      1.554      7.657
REMARK SMILES O=C(OCCOCCOC(=O)c1ccc(S(=O)(=O)NCC[NH+]2CCCC2)c(F)c1)c1ccc(-c2c3nc(c(-c4c(F)c(F)c(F)c(F)c4F)c4ccc([nH]4)c(-c4c(F)c(F)c(F)c(F)c4F)c4nc(c(-c5c(F)c(F)c(F)c(F)c5F)c5ccc2[nH]5)C=C4)C=C3)cc1
REMARK SMILES IDX 7 1 6 2 5 3 4 4 3 5 2 6 1 7 30 8 31 9 92 10 32 11 91 12
REMARK SMILES IDX 33 13 34 14 35 15 85 16 36 17 90 18 84 19 86 20 37 21 89 22
REMARK SMILES IDX 83 23 82 24 38 26 70 27 50 28 69 29 51 30 54 31 68 32 87 33
REMARK SMILES IDX 52 34 53 35 67 37 88 38 55 39 39 40 40 41 48 42 41 43 42 44
REMARK SMILES IDX 46 45 49 46 43 47 44 48 47 49 45 50 71 51 72 52 80 53 73 54
REMARK SMILES IDX 74 55 78 56 81 57 75 58 76 59 79 60 77 61 56 62 57 63 65 64
REMARK SMILES IDX 58 65 59 66 63 67 66 68 60 69 61 70 64 71 62 72 8 73 9 74
REMARK SMILES IDX 10 75 11 76 12 77 13 78 29 79 14 80 27 81 15 82 28 83 16 84
REMARK SMILES IDX 17 85 18 86 19 87 20 89 21 90 22 91 23 92 26 93 24 95 25 96
REMARK H PARENT 86 25 54 36 19 88 22 94
REMARK Flexibility Score: inf
ROOT
ATOM      1  C   UNL A   1      33.843  33.063  28.626  1.00  0.00     0.202 C 
ENDROOT
BRANCH   1   2
ATOM      2  O   UNL A   1      34.758  34.160  28.759  1.00  0.00    -0.374 OA
BRANCH   2   3
ATOM      3  C   UNL A   1      34.197  35.463  28.587  1.00  0.00     0.202 C 
BRANCH   3   4
ATOM      4  C   UNL A   1      32.820  35.671  29.228  1.00  0.00     0.261 C 
BRANCH   4   5
ATOM      5  O   UNL A   1      32.950  36.162  30.573  1.00  0.00    -0.460 OA
BRANCH   5   6
ATOM      6  C   UNL A   1      32.972  35.451  31.727  1.00  0.00     0.338 C 
ATOM      7  O   UNL A   1      31.962  35.431  32.428  1.00  0.00    -0.246 OA
BRANCH   6   8
ATOM      8  C   UNL A   1      34.170  34.698  32.206  1.00  0.00     0.060 A 
ATOM      9  C   UNL A   1      34.137  33.388  32.682  1.00  0.00     0.016 A 
ATOM     10  C   UNL A   1      35.427  35.317  32.080  1.00  0.00     0.016 A 
ATOM     11  C   UNL A   1      35.281  32.735  33.097  1.00  0.00     0.010 A 
ATOM     12  C   UNL A   1      36.602  34.639  32.433  1.00  0.00     0.010 A 
ATOM     13  C   UNL A   1      36.524  33.344  32.953  1.00  0.00    -0.014 A 
BRANCH  13  14
ATOM     14  C   UNL A   1      37.690  32.578  33.422  1.00  0.00     0.031 A 
ATOM     15  C   UNL A   1      38.333  31.606  32.485  1.00  0.00     0.074 A 
ATOM     16  C   UNL A   1      38.266  32.930  34.588  1.00  0.00     0.049 A 
ATOM     17  N   UNL A   1      39.400  30.876  32.661  1.00  0.00    -0.248 NA
ATOM     18  C   UNL A   1      37.710  31.453  31.159  1.00  0.00     0.031 C 
ATOM     19  C   UNL A   1      37.768  33.979  35.485  1.00  0.00     0.029 A 
ATOM     20  N   UNL A   1      39.421  32.505  35.187  1.00  0.00    -0.354 N 
ATOM     21  C   UNL A   1      39.567  30.168  31.480  1.00  0.00     0.074 A 
ATOM     22  C   UNL A   1      38.492  30.547  30.592  1.00  0.00     0.031 C 
ATOM     23  C   UNL A   1      38.643  34.154  36.487  1.00  0.00     0.029 A 
ATOM     24  C   UNL A   1      39.714  33.175  36.352  1.00  0.00     0.049 A 
ATOM     25  H   UNL A   1      39.986  31.788  34.820  1.00  0.00     0.167 HD
ATOM     26  C   UNL A   1      40.539  29.280  31.180  1.00  0.00     0.037 A 
ATOM     27  C   UNL A   1      40.727  32.992  37.219  1.00  0.00     0.037 A 
ATOM     28  C   UNL A   1      41.599  28.933  32.086  1.00  0.00     0.049 A 
ATOM     29  C   UNL A   1      41.725  31.911  36.905  1.00  0.00     0.074 A 
ATOM     30  C   UNL A   1      42.594  27.987  31.933  1.00  0.00     0.029 A 
ATOM     31  N   UNL A   1      41.801  29.537  33.321  1.00  0.00    -0.354 N 
ATOM     32  N   UNL A   1      41.829  31.172  35.825  1.00  0.00    -0.248 NA
ATOM     33  C   UNL A   1      42.730  31.617  37.933  1.00  0.00     0.031 C 
ATOM     34  C   UNL A   1      43.372  27.988  33.093  1.00  0.00     0.029 A 
ATOM     35  C   UNL A   1      42.895  28.970  33.950  1.00  0.00     0.049 A 
ATOM     36  H   UNL A   1      41.247  30.262  33.693  1.00  0.00     0.167 HD
ATOM     37  C   UNL A   1      42.909  30.331  36.039  1.00  0.00     0.074 A 
ATOM     38  C   UNL A   1      43.450  30.675  37.339  1.00  0.00     0.031 C 
ATOM     39  C   UNL A   1      43.403  29.351  35.244  1.00  0.00     0.037 A 
BRANCH  26  40
ATOM     40  C   UNL A   1      40.467  28.588  29.854  1.00  0.00     0.064 A 
ATOM     41  C   UNL A   1      39.721  27.408  29.717  1.00  0.00     0.173 A 
ATOM     42  C   UNL A   1      41.157  29.064  28.730  1.00  0.00     0.173 A 
ATOM     43  F   UNL A   1      39.034  26.917  30.760  1.00  0.00    -0.203 F 
ATOM     44  C   UNL A   1      39.683  26.719  28.508  1.00  0.00     0.198 A 
ATOM     45  C   UNL A   1      41.099  28.384  27.515  1.00  0.00     0.198 A 
ATOM     46  F   UNL A   1      41.859  30.205  28.802  1.00  0.00    -0.203 F 
ATOM     47  F   UNL A   1      38.981  25.581  28.408  1.00  0.00    -0.200 F 
ATOM     48  C   UNL A   1      40.371  27.208  27.408  1.00  0.00     0.200 A 
ATOM     49  F   UNL A   1      41.740  28.873  26.445  1.00  0.00    -0.200 F 
ATOM     50  F   UNL A   1      40.327  26.549  26.242  1.00  0.00    -0.200 F 
ENDBRANCH  26  40
BRANCH  27  51
ATOM     51  C   UNL A   1      40.810  33.792  38.473  1.00  0.00     0.064 A 
ATOM     52  C   UNL A   1      41.654  34.910  38.567  1.00  0.00     0.173 A 
ATOM     53  C   UNL A   1      40.032  33.476  39.596  1.00  0.00     0.173 A 
ATOM     54  F   UNL A   1      42.416  35.269  37.524  1.00  0.00    -0.203 F 
ATOM     55  C   UNL A   1      41.731  35.666  39.736  1.00  0.00     0.198 A 
ATOM     56  C   UNL A   1      40.084  34.254  40.753  1.00  0.00     0.198 A 
ATOM     57  F   UNL A   1      39.190  32.433  39.556  1.00  0.00    -0.203 F 
ATOM     58  F   UNL A   1      42.569  36.710  39.802  1.00  0.00    -0.200 F 
ATOM     59  C   UNL A   1      40.938  35.343  40.825  1.00  0.00     0.200 A 
ATOM     60  F   UNL A   1      39.290  33.959  41.791  1.00  0.00    -0.200 F 
ATOM     61  F   UNL A   1      40.987  36.090  41.936  1.00  0.00    -0.200 F 
ENDBRANCH  27  51
BRANCH  39  62
ATOM     62  C   UNL A   1      44.590  28.594  35.755  1.00  0.00     0.064 A 
ATOM     63  C   UNL A   1      45.889  29.001  35.418  1.00  0.00     0.173 A 
ATOM     64  C   UNL A   1      44.437  27.427  36.517  1.00  0.00     0.173 A 
ATOM     65  F   UNL A   1      46.083  30.105  34.682  1.00  0.00    -0.203 F 
ATOM     66  C   UNL A   1      46.993  28.253  35.811  1.00  0.00     0.198 A 
ATOM     67  C   UNL A   1      45.545  26.700  36.936  1.00  0.00     0.198 A 
ATOM     68  F   UNL A   1      43.212  27.010  36.874  1.00  0.00    -0.203 F 
ATOM     69  F   UNL A   1      48.224  28.636  35.445  1.00  0.00    -0.200 F 
ATOM     70  C   UNL A   1      46.821  27.107  36.574  1.00  0.00     0.200 A 
ATOM     71  F   UNL A   1      45.379  25.609  37.695  1.00  0.00    -0.200 F 
ATOM     72  F   UNL A   1      47.887  26.394  36.963  1.00  0.00    -0.200 F 
ENDBRANCH  39  62
ENDBRANCH  13  14
ENDBRANCH   6   8
ENDBRANCH   5   6
ENDBRANCH   4   5
ENDBRANCH   3   4
ENDBRANCH   2   3
ENDBRANCH   1   2
BRANCH   1  73
ATOM     73  C   UNL A   1      34.419  32.026  27.658  1.00  0.00     0.261 C 
BRANCH  73  74
ATOM     74  O   UNL A   1      33.602  30.848  27.728  1.00  0.00    -0.460 OA
BRANCH  74  75
ATOM     75  C   UNL A   1      34.114  29.767  27.086  1.00  0.00     0.338 C 
ATOM     76  O   UNL A   1      35.029  29.047  27.451  1.00  0.00    -0.246 OA
BRANCH  75  77
ATOM     77  C   UNL A   1      33.191  29.439  25.978  1.00  0.00     0.063 A 
ATOM     78  C   UNL A   1      31.873  29.044  26.228  1.00  0.00     0.017 A 
ATOM     79  C   UNL A   1      33.701  29.420  24.674  1.00  0.00     0.056 A 
ATOM     80  C   UNL A   1      31.074  28.615  25.173  1.00  0.00     0.026 A 
ATOM     81  C   UNL A   1      32.900  28.978  23.625  1.00  0.00     0.144 A 
ATOM     82  C   UNL A   1      31.594  28.579  23.872  1.00  0.00     0.118 A 
ATOM     83  F   UNL A   1      33.431  28.937  22.397  1.00  0.00    -0.205 F 
BRANCH  82  84
ATOM     84  S   UNL A   1      30.525  28.063  22.577  1.00  0.00     0.243 S 
ATOM     85  O   UNL A   1      29.532  27.210  23.188  1.00  0.00    -0.207 OA
ATOM     86  O   UNL A   1      30.158  29.263  21.861  1.00  0.00    -0.207 OA
BRANCH  84  87
ATOM     87  N   UNL A   1      31.433  27.150  21.530  1.00  0.00    -0.205 NA
ATOM     88  H   UNL A   1      32.336  27.621  21.467  1.00  0.00     0.141 HD
BRANCH  87  89
ATOM     89  C   UNL A   1      31.739  25.738  21.726  1.00  0.00     0.160 C 
BRANCH  89  90
ATOM     90  C   UNL A   1      33.068  25.432  22.452  1.00  0.00     0.278 C 
BRANCH  90  91
ATOM     91  N   UNL A   1      33.133  24.697  23.715  1.00  0.00    -0.334 N 
ATOM     92  C   UNL A   1      32.451  25.200  24.893  1.00  0.00     0.262 C 
ATOM     93  C   UNL A   1      34.459  24.237  24.113  1.00  0.00     0.262 C 
ATOM     94  H   UNL A   1      32.557  23.919  23.391  1.00  0.00     0.348 HD
ATOM     95  C   UNL A   1      33.538  25.662  25.849  1.00  0.00     0.067 C 
ATOM     96  C   UNL A   1      34.802  24.939  25.417  1.00  0.00     0.067 C 
ENDBRANCH  90  91
ENDBRANCH  89  90
ENDBRANCH  87  89
ENDBRANCH  84  87
ENDBRANCH  82  84
ENDBRANCH  75  77
ENDBRANCH  74  75
ENDBRANCH  73  74
ENDBRANCH   1  73
TORSDOF 19
ENDMDL
MODEL 3
REMARK VINA RESULT:     -10.5      2.226      7.864
REMARK SMILES O=C(OCCOCCOC(=O)c1ccc(S(=O)(=O)NCC[NH+]2CCCC2)c(F)c1)c1ccc(-c2c3nc(c(-c4c(F)c(F)c(F)c(F)c4F)c4ccc([nH]4)c(-c4c(F)c(F)c(F)c(F)c4F)c4nc(c(-c5c(F)c(F)c(F)c(F)c5F)c5ccc2[nH]5)C=C4)C=C3)cc1
REMARK SMILES IDX 7 1 6 2 5 3 4 4 3 5 2 6 1 7 30 8 31 9 92 10 32 11 91 12
REMARK SMILES IDX 33 13 34 14 35 15 85 16 36 17 90 18 84 19 86 20 37 21 89 22
REMARK SMILES IDX 83 23 82 24 38 26 70 27 50 28 69 29 51 30 54 31 68 32 87 33
REMARK SMILES IDX 52 34 53 35 67 37 88 38 55 39 39 40 40 41 48 42 41 43 42 44
REMARK SMILES IDX 46 45 49 46 43 47 44 48 47 49 45 50 71 51 72 52 80 53 73 54
REMARK SMILES IDX 74 55 78 56 81 57 75 58 76 59 79 60 77 61 56 62 57 63 65 64
REMARK SMILES IDX 58 65 59 66 63 67 66 68 60 69 61 70 64 71 62 72 8 73 9 74
REMARK SMILES IDX 10 75 11 76 12 77 13 78 29 79 14 80 27 81 15 82 28 83 16 84
REMARK SMILES IDX 17 85 18 86 19 87 20 89 21 90 22 91 23 92 26 93 24 95 25 96
REMARK H PARENT 86 25 54 36 19 88 22 94
REMARK Flexibility Score: inf
ROOT
ATOM      1  C   UNL A   1      34.317  33.283  28.032  1.00  0.00     0.202 C 
ENDROOT
BRANCH   1   2
ATOM      2  O   UNL A   1      34.180  34.116  29.191  1.00  0.00    -0.374 OA
BRANCH   2   3
ATOM      3  C   UNL A   1      33.006  34.930  29.238  1.00  0.00     0.202 C 
BRANCH   3   4
ATOM      4  C   UNL A   1      33.221  36.358  29.753  1.00  0.00     0.261 C 
BRANCH   4   5
ATOM      5  O   UNL A   1      32.820  36.473  31.129  1.00  0.00    -0.460 OA
BRANCH   5   6
ATOM      6  C   UNL A   1      32.796  35.507  32.079  1.00  0.00     0.338 C 
ATOM      7  O   UNL A   1      31.723  35.224  32.608  1.00  0.00    -0.246 OA
BRANCH   6   8
ATOM      8  C   UNL A   1      34.015  34.772  32.535  1.00  0.00     0.060 A 
ATOM      9  C   UNL A   1      34.012  33.459  33.002  1.00  0.00     0.016 A 
ATOM     10  C   UNL A   1      35.258  35.415  32.395  1.00  0.00     0.016 A 
ATOM     11  C   UNL A   1      35.174  32.824  33.395  1.00  0.00     0.010 A 
ATOM     12  C   UNL A   1      36.450  34.757  32.727  1.00  0.00     0.010 A 
ATOM     13  C   UNL A   1      36.403  33.457  33.238  1.00  0.00    -0.014 A 
BRANCH  13  14
ATOM     14  C   UNL A   1      37.590  32.709  33.684  1.00  0.00     0.031 A 
ATOM     15  C   UNL A   1      38.241  31.761  32.728  1.00  0.00     0.074 A 
ATOM     16  C   UNL A   1      38.173  33.059  34.847  1.00  0.00     0.049 A 
ATOM     17  N   UNL A   1      39.325  31.051  32.883  1.00  0.00    -0.248 NA
ATOM     18  C   UNL A   1      37.606  31.611  31.407  1.00  0.00     0.031 C 
ATOM     19  C   UNL A   1      37.665  34.087  35.762  1.00  0.00     0.029 A 
ATOM     20  N   UNL A   1      39.343  32.651  35.428  1.00  0.00    -0.354 N 
ATOM     21  C   UNL A   1      39.492  30.361  31.692  1.00  0.00     0.074 A 
ATOM     22  C   UNL A   1      38.399  30.728  30.820  1.00  0.00     0.031 C 
ATOM     23  C   UNL A   1      38.547  34.268  36.756  1.00  0.00     0.029 A 
ATOM     24  C   UNL A   1      39.637  33.312  36.597  1.00  0.00     0.049 A 
ATOM     25  H   UNL A   1      39.918  31.950  35.046  1.00  0.00     0.167 HD
ATOM     26  C   UNL A   1      40.478  29.495  31.370  1.00  0.00     0.037 A 
ATOM     27  C   UNL A   1      40.663  33.140  37.450  1.00  0.00     0.037 A 
ATOM     28  C   UNL A   1      41.555  29.160  32.260  1.00  0.00     0.049 A 
ATOM     29  C   UNL A   1      41.678  32.083  37.111  1.00  0.00     0.074 A 
ATOM     30  C   UNL A   1      42.567  28.236  32.083  1.00  0.00     0.029 A 
ATOM     31  N   UNL A   1      41.760  29.753  33.499  1.00  0.00    -0.354 N 
ATOM     32  N   UNL A   1      41.784  31.359  36.022  1.00  0.00    -0.248 NA
ATOM     33  C   UNL A   1      42.701  31.797  38.125  1.00  0.00     0.031 C 
ATOM     34  C   UNL A   1      43.359  28.239  33.235  1.00  0.00     0.029 A 
ATOM     35  C   UNL A   1      42.872  29.201  34.108  1.00  0.00     0.049 A 
ATOM     36  H   UNL A   1      41.196  30.462  33.886  1.00  0.00     0.167 HD
ATOM     37  C   UNL A   1      42.883  30.537  36.213  1.00  0.00     0.074 A 
ATOM     38  C   UNL A   1      43.433  30.877  37.511  1.00  0.00     0.031 C 
ATOM     39  C   UNL A   1      43.388  29.577  35.400  1.00  0.00     0.037 A 
BRANCH  26  40
ATOM     40  C   UNL A   1      40.404  28.818  30.036  1.00  0.00     0.064 A 
ATOM     41  C   UNL A   1      39.666  27.633  29.890  1.00  0.00     0.173 A 
ATOM     42  C   UNL A   1      41.083  29.312  28.914  1.00  0.00     0.173 A 
ATOM     43  F   UNL A   1      38.989  27.126  30.931  1.00  0.00    -0.203 F 
ATOM     44  C   UNL A   1      39.628  26.958  28.674  1.00  0.00     0.198 A 
ATOM     45  C   UNL A   1      41.025  28.645  27.692  1.00  0.00     0.198 A 
ATOM     46  F   UNL A   1      41.777  30.458  28.995  1.00  0.00    -0.203 F 
ATOM     47  F   UNL A   1      38.934  25.816  28.565  1.00  0.00    -0.200 F 
ATOM     48  C   UNL A   1      40.306  27.465  27.576  1.00  0.00     0.200 A 
ATOM     49  F   UNL A   1      41.656  29.151  26.624  1.00  0.00    -0.200 F 
ATOM     50  F   UNL A   1      40.260  26.819  26.403  1.00  0.00    -0.200 F 
ENDBRANCH  26  40
BRANCH  27  51
ATOM     51  C   UNL A   1      40.744  33.927  38.712  1.00  0.00     0.064 A 
ATOM     52  C   UNL A   1      41.513  35.100  38.789  1.00  0.00     0.173 A 
ATOM     53  C   UNL A   1      40.040  33.541  39.862  1.00  0.00     0.173 A 
ATOM     54  F   UNL A   1      42.202  35.525  37.721  1.00  0.00    -0.203 F 
ATOM     55  C   UNL A   1      41.588  35.843  39.966  1.00  0.00     0.198 A 
ATOM     56  C   UNL A   1      40.088  34.305  41.028  1.00  0.00     0.198 A 
ATOM     57  F   UNL A   1      39.271  32.443  39.840  1.00  0.00    -0.203 F 
ATOM     58  F   UNL A   1      42.354  36.942  40.014  1.00  0.00    -0.200 F 
ATOM     59  C   UNL A   1      40.867  35.451  41.082  1.00  0.00     0.200 A 
ATOM     60  F   UNL A   1      39.362  33.942  42.095  1.00  0.00    -0.200 F 
ATOM     61  F   UNL A   1      40.912  36.184  42.203  1.00  0.00    -0.200 F 
ENDBRANCH  27  51
BRANCH  39  62
ATOM     62  C   UNL A   1      44.596  28.838  35.889  1.00  0.00     0.064 A 
ATOM     63  C   UNL A   1      45.883  29.283  35.553  1.00  0.00     0.173 A 
ATOM     64  C   UNL A   1      44.475  27.651  36.626  1.00  0.00     0.173 A 
ATOM     65  F   UNL A   1      46.046  30.407  34.841  1.00  0.00    -0.203 F 
ATOM     66  C   UNL A   1      47.006  28.554  35.925  1.00  0.00     0.198 A 
ATOM     67  C   UNL A   1      45.603  26.943  37.024  1.00  0.00     0.198 A 
ATOM     68  F   UNL A   1      43.263  27.197  36.981  1.00  0.00    -0.203 F 
ATOM     69  F   UNL A   1      48.226  28.975  35.560  1.00  0.00    -0.200 F 
ATOM     70  C   UNL A   1      46.867  27.388  36.663  1.00  0.00     0.200 A 
ATOM     71  F   UNL A   1      45.468  25.832  37.760  1.00  0.00    -0.200 F 
ATOM     72  F   UNL A   1      47.952  26.693  37.031  1.00  0.00    -0.200 F 
ENDBRANCH  39  62
ENDBRANCH  13  14
ENDBRANCH   6   8
ENDBRANCH   5   6
ENDBRANCH   4   5
ENDBRANCH   3   4
ENDBRANCH   2   3
ENDBRANCH   1   2
BRANCH   1  73
ATOM     73  C   UNL A   1      34.798  31.891  28.452  1.00  0.00     0.261 C 
BRANCH  73  74
ATOM     74  O   UNL A   1      34.196  30.927  27.575  1.00  0.00    -0.460 OA
BRANCH  74  75
ATOM     75  C   UNL A   1      34.808  29.716  27.563  1.00  0.00     0.338 C 
ATOM     76  O   UNL A   1      35.876  29.414  28.069  1.00  0.00    -0.246 OA
BRANCH  75  77
ATOM     77  C   UNL A   1      33.826  28.736  27.051  1.00  0.00     0.063 A 
ATOM     78  C   UNL A   1      32.510  28.716  27.525  1.00  0.00     0.017 A 
ATOM     79  C   UNL A   1      34.273  27.748  26.165  1.00  0.00     0.056 A 
ATOM     80  C   UNL A   1      31.651  27.699  27.124  1.00  0.00     0.026 A 
ATOM     81  C   UNL A   1      33.412  26.726  25.776  1.00  0.00     0.144 A 
ATOM     82  C   UNL A   1      32.109  26.702  26.251  1.00  0.00     0.118 A 
ATOM     83  F   UNL A   1      33.884  25.778  24.957  1.00  0.00    -0.205 F 
BRANCH  82  84
ATOM     84  S   UNL A   1      30.967  25.465  25.751  1.00  0.00     0.243 S 
ATOM     85  O   UNL A   1      29.724  25.765  26.424  1.00  0.00    -0.207 OA
ATOM     86  O   UNL A   1      31.053  25.401  24.310  1.00  0.00    -0.207 OA
BRANCH  84  87
ATOM     87  N   UNL A   1      31.538  24.014  26.320  1.00  0.00    -0.205 NA
ATOM     88  H   UNL A   1      31.150  23.914  27.257  1.00  0.00     0.141 HD
BRANCH  87  89
ATOM     89  C   UNL A   1      31.316  22.731  25.664  1.00  0.00     0.160 C 
BRANCH  89  90
ATOM     90  C   UNL A   1      32.529  21.775  25.628  1.00  0.00     0.278 C 
BRANCH  90  91
ATOM     91  N   UNL A   1      33.324  21.544  24.422  1.00  0.00    -0.334 N 
ATOM     92  C   UNL A   1      34.765  21.713  24.449  1.00  0.00     0.262 C 
ATOM     93  C   UNL A   1      32.812  22.156  23.200  1.00  0.00     0.262 C 
ATOM     94  H   UNL A   1      33.178  20.535  24.415  1.00  0.00     0.348 HD
ATOM     95  C   UNL A   1      35.063  22.958  23.631  1.00  0.00     0.067 C 
ATOM     96  C   UNL A   1      33.852  23.164  22.737  1.00  0.00     0.067 C 
ENDBRANCH  90  91
ENDBRANCH  89  90
ENDBRANCH  87  89
ENDBRANCH  84  87
ENDBRANCH  82  84
ENDBRANCH  75  77
ENDBRANCH  74  75
ENDBRANCH  73  74
ENDBRANCH   1  73
TORSDOF 19
ENDMDL
