MODEL 1
REMARK VINA RESULT:     -10.5      0.000      0.000
REMARK SMILES C[C@H](Cc1cccs1)N(C)C(=O)N1CC[C@@H](CC(=O)OCCOCCOC(=O)c2ccc(-c3c4nc(c(-c5c(F)c(F)c(F)c(F)c5F)c5ccc([nH]5)c(-c5c(F)c(F)c(F)c(F)c5F)c5nc(c(-c6c(F)c(F)c(F)c(F)c6F)c6ccc3[nH]6)C=C5)C=C4)cc2)C1
REMARK SMILES IDX 21 1 20 2 18 3 19 4 17 5 16 6 13 7 14 8 92 9 15 10 11 11
REMARK SMILES IDX 12 12 9 13 10 14 2 15 1 16 3 17 4 18 5 19 8 20 6 21 7 22
REMARK SMILES IDX 22 23 23 24 24 25 25 26 26 27 27 28 28 29 29 30 30 31 91 32
REMARK SMILES IDX 31 33 90 34 32 35 33 36 34 37 84 38 35 39 89 40 83 41 85 42
REMARK SMILES IDX 36 43 88 44 82 45 81 46 37 48 69 49 49 50 68 51 50 52 53 53
REMARK SMILES IDX 67 54 86 55 51 56 52 57 66 59 87 60 54 61 38 62 39 63 47 64
REMARK SMILES IDX 40 65 41 66 45 67 48 68 42 69 43 70 46 71 44 72 70 73 71 74
REMARK SMILES IDX 79 75 72 76 73 77 77 78 80 79 74 80 75 81 78 82 76 83 55 84
REMARK SMILES IDX 56 85 64 86 57 87 58 88 62 89 65 90 59 91 60 92 63 93 61 94
REMARK H PARENT 85 47 53 58
REMARK Flexibility Score: inf
ROOT
ATOM      1  C   UNL A   1      40.579  22.134  26.704  1.00  0.00     0.261 C 
ENDROOT
BRANCH   1   2
ATOM      2  O   UNL A   1      39.245  21.800  26.272  1.00  0.00    -0.463 OA
BRANCH   2   3
ATOM      3  C   UNL A   1      38.431  22.863  26.100  1.00  0.00     0.306 C 
ATOM      4  O   UNL A   1      38.544  23.926  26.706  1.00  0.00    -0.252 OA
BRANCH   3   5
ATOM      5  C   UNL A   1      37.295  22.660  25.122  1.00  0.00     0.128 C 
BRANCH   5   6
ATOM      6  C   UNL A   1      35.805  22.952  25.372  1.00  0.00     0.021 C 
ATOM      7  N   UNL A   1      33.610  22.319  24.709  1.00  0.00    -0.324 N 
ATOM      8  C   UNL A   1      34.078  21.270  25.589  1.00  0.00     0.122 C 
ATOM      9  C   UNL A   1      34.780  23.056  24.238  1.00  0.00     0.125 C 
ATOM     10  C   UNL A   1      35.163  21.974  26.380  1.00  0.00     0.027 C 
BRANCH   7  11
ATOM     11  C   UNL A   1      32.405  22.525  24.089  1.00  0.00     0.320 C 
ATOM     12  O   UNL A   1      32.057  21.708  23.240  1.00  0.00    -0.248 OA
BRANCH  11  13
ATOM     13  N   UNL A   1      31.615  23.616  24.389  1.00  0.00    -0.325 N 
ATOM     14  C   UNL A   1      30.728  24.260  23.436  1.00  0.00     0.149 C 
BRANCH  13  15
ATOM     15  C   UNL A   1      31.650  24.241  25.748  1.00  0.00     0.088 C 
ATOM     16  C   UNL A   1      31.175  23.251  26.805  1.00  0.00     0.031 C 
BRANCH  15  17
ATOM     17  C   UNL A   1      31.175  25.715  25.916  1.00  0.00     0.071 C 
BRANCH  17  18
ATOM     18  C   UNL A   1      32.011  26.863  25.402  1.00  0.00     0.007 A 
ATOM     19  C   UNL A   1      31.727  27.826  24.451  1.00  0.00     0.015 A 
ATOM     20  S   UNL A   1      33.531  27.194  26.154  1.00  0.00    -0.149 S 
ATOM     21  C   UNL A   1      32.821  28.719  24.227  1.00  0.00     0.012 A 
ATOM     22  C   UNL A   1      33.883  28.452  25.056  1.00  0.00     0.065 A 
ENDBRANCH  17  18
ENDBRANCH  15  17
ENDBRANCH  13  15
ENDBRANCH  11  13
ENDBRANCH   7  11
ENDBRANCH   5   6
ENDBRANCH   3   5
ENDBRANCH   2   3
ENDBRANCH   1   2
BRANCH   1  23
ATOM     23  C   UNL A   1      41.625  21.079  26.331  1.00  0.00     0.202 C 
BRANCH  23  24
ATOM     24  O   UNL A   1      42.553  21.396  25.298  1.00  0.00    -0.374 OA
BRANCH  24  25
ATOM     25  C   UNL A   1      43.946  21.380  25.611  1.00  0.00     0.202 C 
BRANCH  25  26
ATOM     26  C   UNL A   1      44.731  22.684  25.407  1.00  0.00     0.261 C 
BRANCH  26  27
ATOM     27  O   UNL A   1      43.882  23.754  24.969  1.00  0.00    -0.460 OA
BRANCH  27  28
ATOM     28  C   UNL A   1      44.385  24.995  25.150  1.00  0.00     0.338 C 
ATOM     29  O   UNL A   1      45.377  25.471  24.607  1.00  0.00    -0.246 OA
BRANCH  28  30
ATOM     30  C   UNL A   1      43.503  25.818  26.007  1.00  0.00     0.060 A 
ATOM     31  C   UNL A   1      43.900  27.135  26.274  1.00  0.00     0.016 A 
ATOM     32  C   UNL A   1      42.364  25.303  26.620  1.00  0.00     0.016 A 
ATOM     33  C   UNL A   1      43.250  27.879  27.257  1.00  0.00     0.010 A 
ATOM     34  C   UNL A   1      41.723  26.042  27.615  1.00  0.00     0.010 A 
ATOM     35  C   UNL A   1      42.207  27.300  27.983  1.00  0.00    -0.014 A 
BRANCH  35  36
ATOM     36  C   UNL A   1      41.675  27.954  29.194  1.00  0.00     0.031 A 
ATOM     37  C   UNL A   1      42.347  27.733  30.518  1.00  0.00     0.074 A 
ATOM     38  C   UNL A   1      40.560  28.691  29.109  1.00  0.00     0.049 A 
ATOM     39  N   UNL A   1      42.108  28.291  31.677  1.00  0.00    -0.248 NA
ATOM     40  C   UNL A   1      43.416  26.726  30.547  1.00  0.00     0.031 C 
ATOM     41  C   UNL A   1      39.783  28.897  27.891  1.00  0.00     0.029 A 
ATOM     42  N   UNL A   1      39.888  29.395  30.071  1.00  0.00    -0.354 N 
ATOM     43  C   UNL A   1      43.009  27.717  32.566  1.00  0.00     0.074 A 
ATOM     44  C   UNL A   1      43.750  26.718  31.829  1.00  0.00     0.031 C 
ATOM     45  C   UNL A   1      38.743  29.697  28.173  1.00  0.00     0.029 A 
ATOM     46  C   UNL A   1      38.789  30.057  29.589  1.00  0.00     0.049 A 
ATOM     47  H   UNL A   1      40.166  29.424  31.015  1.00  0.00     0.167 HD
ATOM     48  C   UNL A   1      43.210  28.022  33.872  1.00  0.00     0.037 A 
ATOM     49  C   UNL A   1      37.937  30.883  30.221  1.00  0.00     0.037 A 
ATOM     50  C   UNL A   1      42.444  29.013  34.585  1.00  0.00     0.049 A 
ATOM     51  C   UNL A   1      38.178  31.218  31.667  1.00  0.00     0.074 A 
ATOM     52  C   UNL A   1      42.614  29.477  35.878  1.00  0.00     0.029 A 
ATOM     53  N   UNL A   1      41.338  29.675  34.067  1.00  0.00    -0.354 N 
ATOM     54  N   UNL A   1      39.124  30.791  32.470  1.00  0.00    -0.248 NA
ATOM     55  C   UNL A   1      37.247  32.169  32.285  1.00  0.00     0.031 C 
ATOM     56  C   UNL A   1      41.571  30.365  36.165  1.00  0.00     0.029 A 
ATOM     57  C   UNL A   1      40.789  30.511  35.028  1.00  0.00     0.049 A 
ATOM     58  H   UNL A   1      40.994  29.566  33.152  1.00  0.00     0.167 HD
ATOM     59  C   UNL A   1      38.924  31.447  33.678  1.00  0.00     0.074 A 
ATOM     60  C   UNL A   1      37.772  32.308  33.494  1.00  0.00     0.031 C 
ATOM     61  C   UNL A   1      39.634  31.352  34.830  1.00  0.00     0.037 A 
BRANCH  48  62
ATOM     62  C   UNL A   1      44.291  27.278  34.610  1.00  0.00     0.064 A 
ATOM     63  C   UNL A   1      44.030  26.083  35.301  1.00  0.00     0.173 A 
ATOM     64  C   UNL A   1      45.615  27.743  34.599  1.00  0.00     0.173 A 
ATOM     65  F   UNL A   1      42.784  25.588  35.347  1.00  0.00    -0.203 F 
ATOM     66  C   UNL A   1      45.040  25.409  35.984  1.00  0.00     0.198 A 
ATOM     67  C   UNL A   1      46.630  27.047  35.252  1.00  0.00     0.198 A 
ATOM     68  F   UNL A   1      45.932  28.873  33.946  1.00  0.00    -0.203 F 
ATOM     69  F   UNL A   1      44.751  24.302  36.683  1.00  0.00    -0.200 F 
ATOM     70  C   UNL A   1      46.341  25.887  35.953  1.00  0.00     0.200 A 
ATOM     71  F   UNL A   1      47.891  27.500  35.203  1.00  0.00    -0.200 F 
ATOM     72  F   UNL A   1      47.313  25.233  36.605  1.00  0.00    -0.200 F 
ENDBRANCH  48  62
BRANCH  49  73
ATOM     73  C   UNL A   1      36.848  31.521  29.443  1.00  0.00     0.064 A 
ATOM     74  C   UNL A   1      35.750  30.767  29.008  1.00  0.00     0.173 A 
ATOM     75  C   UNL A   1      36.847  32.897  29.179  1.00  0.00     0.173 A 
ATOM     76  F   UNL A   1      35.714  29.445  29.233  1.00  0.00    -0.203 F 
ATOM     77  C   UNL A   1      34.691  31.367  28.330  1.00  0.00     0.198 A 
ATOM     78  C   UNL A   1      35.776  33.499  28.523  1.00  0.00     0.198 A 
ATOM     79  F   UNL A   1      37.869  33.661  29.590  1.00  0.00    -0.203 F 
ATOM     80  F   UNL A   1      33.663  30.621  27.906  1.00  0.00    -0.200 F 
ATOM     81  C   UNL A   1      34.701  32.734  28.097  1.00  0.00     0.200 A 
ATOM     82  F   UNL A   1      35.778  34.824  28.319  1.00  0.00    -0.200 F 
ATOM     83  F   UNL A   1      33.673  33.314  27.462  1.00  0.00    -0.200 F 
ENDBRANCH  49  73
BRANCH  61  84
ATOM     84  C   UNL A   1      39.197  32.221  35.977  1.00  0.00     0.064 A 
ATOM     85  C   UNL A   1      39.674  33.531  36.135  1.00  0.00     0.173 A 
ATOM     86  C   UNL A   1      38.267  31.744  36.915  1.00  0.00     0.173 A 
ATOM     87  F   UNL A   1      40.574  34.030  35.274  1.00  0.00    -0.203 F 
ATOM     88  C   UNL A   1      39.264  34.318  37.209  1.00  0.00     0.198 A 
ATOM     89  C   UNL A   1      37.833  32.547  37.967  1.00  0.00     0.198 A 
ATOM     90  F   UNL A   1      37.773  30.502  36.808  1.00  0.00    -0.203 F 
ATOM     91  F   UNL A   1      39.779  35.544  37.372  1.00  0.00    -0.200 F 
ATOM     92  C   UNL A   1      38.339  33.828  38.119  1.00  0.00     0.200 A 
ATOM     93  F   UNL A   1      36.926  32.077  38.835  1.00  0.00    -0.200 F 
ATOM     94  F   UNL A   1      37.943  34.589  39.148  1.00  0.00    -0.200 F 
ENDBRANCH  61  84
ENDBRANCH  35  36
ENDBRANCH  28  30
ENDBRANCH  27  28
ENDBRANCH  26  27
ENDBRANCH  25  26
ENDBRANCH  24  25
ENDBRANCH  23  24
ENDBRANCH   1  23
TORSDOF 20
ENDMDL
MODEL 2
REMARK VINA RESULT:     -10.3      3.458      8.556
REMARK SMILES C[C@H](Cc1cccs1)N(C)C(=O)N1CC[C@@H](CC(=O)OCCOCCOC(=O)c2ccc(-c3c4nc(c(-c5c(F)c(F)c(F)c(F)c5F)c5ccc([nH]5)c(-c5c(F)c(F)c(F)c(F)c5F)c5nc(c(-c6c(F)c(F)c(F)c(F)c6F)c6ccc3[nH]6)C=C5)C=C4)cc2)C1
REMARK SMILES IDX 21 1 20 2 18 3 19 4 17 5 16 6 13 7 14 8 92 9 15 10 11 11
REMARK SMILES IDX 12 12 9 13 10 14 2 15 1 16 3 17 4 18 5 19 8 20 6 21 7 22
REMARK SMILES IDX 22 23 23 24 24 25 25 26 26 27 27 28 28 29 29 30 30 31 91 32
REMARK SMILES IDX 31 33 90 34 32 35 33 36 34 37 84 38 35 39 89 40 83 41 85 42
REMARK SMILES IDX 36 43 88 44 82 45 81 46 37 48 69 49 49 50 68 51 50 52 53 53
REMARK SMILES IDX 67 54 86 55 51 56 52 57 66 59 87 60 54 61 38 62 39 63 47 64
REMARK SMILES IDX 40 65 41 66 45 67 48 68 42 69 43 70 46 71 44 72 70 73 71 74
REMARK SMILES IDX 79 75 72 76 73 77 77 78 80 79 74 80 75 81 78 82 76 83 55 84
REMARK SMILES IDX 56 85 64 86 57 87 58 88 62 89 65 90 59 91 60 92 63 93 61 94
REMARK H PARENT 85 47 53 58
REMARK Flexibility Score: inf
ROOT
ATOM      1  C   UNL A   1      32.802  26.899  25.589  1.00  0.00     0.261 C 
ENDROOT
BRANCH   1   2
ATOM      2  O   UNL A   1      31.568  26.458  24.987  1.00  0.00    -0.463 OA
BRANCH   2   3
ATOM      3  C   UNL A   1      31.371  25.123  25.034  1.00  0.00     0.306 C 
ATOM      4  O   UNL A   1      30.641  24.504  24.264  1.00  0.00    -0.252 OA
BRANCH   3   5
ATOM      5  C   UNL A   1      32.080  24.401  26.158  1.00  0.00     0.128 C 
BRANCH   5   6
ATOM      6  C   UNL A   1      31.913  22.922  26.549  1.00  0.00     0.021 C 
ATOM      7  N   UNL A   1      32.868  20.762  26.260  1.00  0.00    -0.324 N 
ATOM      8  C   UNL A   1      33.715  21.449  27.212  1.00  0.00     0.122 C 
ATOM      9  C   UNL A   1      32.092  21.776  25.548  1.00  0.00     0.125 C 
ATOM     10  C   UNL A   1      32.787  22.517  27.755  1.00  0.00     0.027 C 
BRANCH   7  11
ATOM     11  C   UNL A   1      32.887  19.482  25.772  1.00  0.00     0.320 C 
ATOM     12  O   UNL A   1      32.481  18.587  26.510  1.00  0.00    -0.248 OA
BRANCH  11  13
ATOM     13  N   UNL A   1      33.359  19.198  24.507  1.00  0.00    -0.325 N 
ATOM     14  C   UNL A   1      32.529  19.202  23.314  1.00  0.00     0.149 C 
BRANCH  13  15
ATOM     15  C   UNL A   1      34.790  18.826  24.284  1.00  0.00     0.088 C 
ATOM     16  C   UNL A   1      34.956  17.311  24.284  1.00  0.00     0.031 C 
BRANCH  15  17
ATOM     17  C   UNL A   1      35.906  19.645  24.999  1.00  0.00     0.071 C 
BRANCH  17  18
ATOM     18  C   UNL A   1      36.122  21.106  24.680  1.00  0.00     0.007 A 
ATOM     19  C   UNL A   1      35.304  22.015  24.034  1.00  0.00     0.015 A 
ATOM     20  S   UNL A   1      37.528  21.898  25.296  1.00  0.00    -0.149 S 
ATOM     21  C   UNL A   1      35.910  23.302  23.900  1.00  0.00     0.012 A 
ATOM     22  C   UNL A   1      37.144  23.358  24.502  1.00  0.00     0.065 A 
ENDBRANCH  17  18
ENDBRANCH  15  17
ENDBRANCH  13  15
ENDBRANCH  11  13
ENDBRANCH   7  11
ENDBRANCH   5   6
ENDBRANCH   3   5
ENDBRANCH   2   3
ENDBRANCH   1   2
BRANCH   1  23
ATOM     23  C   UNL A   1      33.332  28.212  25.005  1.00  0.00     0.202 C 
BRANCH  23  24
ATOM     24  O   UNL A   1      32.383  29.176  24.560  1.00  0.00    -0.374 OA
BRANCH  24  25
ATOM     25  C   UNL A   1      31.493  29.744  25.521  1.00  0.00     0.202 C 
BRANCH  25  26
ATOM     26  C   UNL A   1      31.896  31.084  26.151  1.00  0.00     0.261 C 
BRANCH  26  27
ATOM     27  O   UNL A   1      32.715  30.901  27.315  1.00  0.00    -0.460 OA
BRANCH  27  28
ATOM     28  C   UNL A   1      33.549  31.926  27.596  1.00  0.00     0.338 C 
ATOM     29  O   UNL A   1      33.240  33.107  27.731  1.00  0.00    -0.246 OA
BRANCH  28  30
ATOM     30  C   UNL A   1      34.921  31.450  27.876  1.00  0.00     0.060 A 
ATOM     31  C   UNL A   1      35.126  30.067  27.963  1.00  0.00     0.016 A 
ATOM     32  C   UNL A   1      35.974  32.322  28.145  1.00  0.00     0.016 A 
ATOM     33  C   UNL A   1      36.328  29.565  28.457  1.00  0.00     0.010 A 
ATOM     34  C   UNL A   1      37.171  31.819  28.654  1.00  0.00     0.010 A 
ATOM     35  C   UNL A   1      37.324  30.449  28.877  1.00  0.00    -0.014 A 
BRANCH  35  36
ATOM     36  C   UNL A   1      38.490  29.965  29.640  1.00  0.00     0.031 A 
ATOM     37  C   UNL A   1      38.715  30.445  31.045  1.00  0.00     0.074 A 
ATOM     38  C   UNL A   1      39.373  29.147  29.050  1.00  0.00     0.049 A 
ATOM     39  N   UNL A   1      39.610  30.067  31.921  1.00  0.00    -0.248 NA
ATOM     40  C   UNL A   1      37.826  31.515  31.518  1.00  0.00     0.031 C 
ATOM     41  C   UNL A   1      39.294  28.692  27.665  1.00  0.00     0.029 A 
ATOM     42  N   UNL A   1      40.508  28.564  29.542  1.00  0.00    -0.354 N 
ATOM     43  C   UNL A   1      39.379  30.840  33.054  1.00  0.00     0.074 A 
ATOM     44  C   UNL A   1      38.307  31.755  32.729  1.00  0.00     0.031 C 
ATOM     45  C   UNL A   1      40.333  27.879  27.420  1.00  0.00     0.029 A 
ATOM     46  C   UNL A   1      41.141  27.758  28.633  1.00  0.00     0.049 A 
ATOM     47  H   UNL A   1      40.838  28.709  30.458  1.00  0.00     0.167 HD
ATOM     48  C   UNL A   1      39.994  30.766  34.260  1.00  0.00     0.037 A 
ATOM     49  C   UNL A   1      42.233  26.988  28.780  1.00  0.00     0.037 A 
ATOM     50  C   UNL A   1      41.071  29.854  34.550  1.00  0.00     0.049 A 
ATOM     51  C   UNL A   1      42.899  26.911  30.125  1.00  0.00     0.074 A 
ATOM     52  C   UNL A   1      41.710  29.619  35.755  1.00  0.00     0.029 A 
ATOM     53  N   UNL A   1      41.689  29.041  33.607  1.00  0.00    -0.354 N 
ATOM     54  N   UNL A   1      42.588  27.527  31.241  1.00  0.00    -0.248 NA
ATOM     55  C   UNL A   1      44.053  26.010  30.237  1.00  0.00     0.031 C 
ATOM     56  C   UNL A   1      42.758  28.719  35.527  1.00  0.00     0.029 A 
ATOM     57  C   UNL A   1      42.729  28.336  34.194  1.00  0.00     0.049 A 
ATOM     58  H   UNL A   1      41.426  28.975  32.662  1.00  0.00     0.167 HD
ATOM     59  C   UNL A   1      43.483  27.065  32.196  1.00  0.00     0.074 A 
ATOM     60  C   UNL A   1      44.342  26.107  31.526  1.00  0.00     0.031 C 
ATOM     61  C   UNL A   1      43.582  27.395  33.508  1.00  0.00     0.037 A 
BRANCH  48  62
ATOM     62  C   UNL A   1      39.522  31.694  35.348  1.00  0.00     0.064 A 
ATOM     63  C   UNL A   1      40.038  32.993  35.489  1.00  0.00     0.173 A 
ATOM     64  C   UNL A   1      38.516  31.295  36.242  1.00  0.00     0.173 A 
ATOM     65  F   UNL A   1      41.001  33.432  34.665  1.00  0.00    -0.203 F 
ATOM     66  C   UNL A   1      39.595  33.839  36.505  1.00  0.00     0.198 A 
ATOM     67  C   UNL A   1      38.050  32.156  37.233  1.00  0.00     0.198 A 
ATOM     68  F   UNL A   1      37.975  30.070  36.151  1.00  0.00    -0.203 F 
ATOM     69  F   UNL A   1      40.145  35.052  36.652  1.00  0.00    -0.200 F 
ATOM     70  C   UNL A   1      38.597  33.422  37.372  1.00  0.00     0.200 A 
ATOM     71  F   UNL A   1      37.069  31.759  38.057  1.00  0.00    -0.200 F 
ATOM     72  F   UNL A   1      38.166  34.239  38.344  1.00  0.00    -0.200 F 
ENDBRANCH  48  62
BRANCH  49  73
ATOM     73  C   UNL A   1      42.683  26.158  27.637  1.00  0.00     0.064 A 
ATOM     74  C   UNL A   1      42.097  24.909  27.391  1.00  0.00     0.173 A 
ATOM     75  C   UNL A   1      43.650  26.619  26.734  1.00  0.00     0.173 A 
ATOM     76  F   UNL A   1      41.172  24.426  28.235  1.00  0.00    -0.203 F 
ATOM     77  C   UNL A   1      42.467  24.147  26.286  1.00  0.00     0.198 A 
ATOM     78  C   UNL A   1      44.001  25.867  25.615  1.00  0.00     0.198 A 
ATOM     79  F   UNL A   1      44.227  27.815  26.919  1.00  0.00    -0.203 F 
ATOM     80  F   UNL A   1      41.907  22.947  26.085  1.00  0.00    -0.200 F 
ATOM     81  C   UNL A   1      43.412  24.631  25.394  1.00  0.00     0.200 A 
ATOM     82  F   UNL A   1      44.898  26.347  24.743  1.00  0.00    -0.200 F 
ATOM     83  F   UNL A   1      43.754  23.907  24.319  1.00  0.00    -0.200 F 
ENDBRANCH  49  73
BRANCH  61  84
ATOM     84  C   UNL A   1      44.642  26.697  34.313  1.00  0.00     0.064 A 
ATOM     85  C   UNL A   1      45.930  27.232  34.461  1.00  0.00     0.173 A 
ATOM     86  C   UNL A   1      44.356  25.488  34.968  1.00  0.00     0.173 A 
ATOM     87  F   UNL A   1      46.260  28.378  33.846  1.00  0.00    -0.203 F 
ATOM     88  C   UNL A   1      46.902  26.567  35.204  1.00  0.00     0.198 A 
ATOM     89  C   UNL A   1      45.319  24.844  35.739  1.00  0.00     0.198 A 
ATOM     90  F   UNL A   1      43.138  24.935  34.866  1.00  0.00    -0.203 F 
ATOM     91  F   UNL A   1      48.143  27.067  35.282  1.00  0.00    -0.200 F 
ATOM     92  C   UNL A   1      46.594  25.377  35.848  1.00  0.00     0.200 A 
ATOM     93  F   UNL A   1      45.014  23.703  36.374  1.00  0.00    -0.200 F 
ATOM     94  F   UNL A   1      47.529  24.741  36.567  1.00  0.00    -0.200 F 
ENDBRANCH  61  84
ENDBRANCH  35  36
ENDBRANCH  28  30
ENDBRANCH  27  28
ENDBRANCH  26  27
ENDBRANCH  25  26
ENDBRANCH  24  25
ENDBRANCH  23  24
ENDBRANCH   1  23
TORSDOF 20
ENDMDL
MODEL 3
REMARK VINA RESULT:     -10.3      3.451      8.948
REMARK SMILES C[C@H](Cc1cccs1)N(C)C(=O)N1CC[C@@H](CC(=O)OCCOCCOC(=O)c2ccc(-c3c4nc(c(-c5c(F)c(F)c(F)c(F)c5F)c5ccc([nH]5)c(-c5c(F)c(F)c(F)c(F)c5F)c5nc(c(-c6c(F)c(F)c(F)c(F)c6F)c6ccc3[nH]6)C=C5)C=C4)cc2)C1
REMARK SMILES IDX 21 1 20 2 18 3 19 4 17 5 16 6 13 7 14 8 92 9 15 10 11 11
REMARK SMILES IDX 12 12 9 13 10 14 2 15 1 16 3 17 4 18 5 19 8 20 6 21 7 22
REMARK SMILES IDX 22 23 23 24 24 25 25 26 26 27 27 28 28 29 29 30 30 31 91 32
REMARK SMILES IDX 31 33 90 34 32 35 33 36 34 37 84 38 35 39 89 40 83 41 85 42
REMARK SMILES IDX 36 43 88 44 82 45 81 46 37 48 69 49 49 50 68 51 50 52 53 53
REMARK SMILES IDX 67 54 86 55 51 56 52 57 66 59 87 60 54 61 38 62 39 63 47 64
REMARK SMILES IDX 40 65 41 66 45 67 48 68 42 69 43 70 46 71 44 72 70 73 71 74
REMARK SMILES IDX 79 75 72 76 73 77 77 78 80 79 74 80 75 81 78 82 76 83 55 84
REMARK SMILES IDX 56 85 64 86 57 87 58 88 62 89 65 90 59 91 60 92 63 93 61 94
REMARK H PARENT 85 47 53 58
REMARK Flexibility Score: inf
ROOT
ATOM      1  C   UNL A   1      33.163  28.778  25.802  1.00  0.00     0.261 C 
ENDROOT
BRANCH   1   2
ATOM      2  O   UNL A   1      32.372  28.435  24.647  1.00  0.00    -0.463 OA
BRANCH   2   3
ATOM      3  C   UNL A   1      33.074  28.345  23.497  1.00  0.00     0.306 C 
ATOM      4  O   UNL A   1      33.834  29.215  23.079  1.00  0.00    -0.252 OA
BRANCH   3   5
ATOM      5  C   UNL A   1      32.834  27.090  22.687  1.00  0.00     0.128 C 
BRANCH   5   6
ATOM      6  C   UNL A   1      33.237  25.656  23.073  1.00  0.00     0.021 C 
ATOM      7  N   UNL A   1      32.951  23.989  24.747  1.00  0.00    -0.324 N 
ATOM      8  C   UNL A   1      31.733  23.984  23.966  1.00  0.00     0.122 C 
ATOM      9  C   UNL A   1      33.627  25.262  24.502  1.00  0.00     0.125 C 
ATOM     10  C   UNL A   1      32.185  24.604  22.660  1.00  0.00     0.027 C 
BRANCH   7  11
ATOM     11  C   UNL A   1      33.378  23.204  25.786  1.00  0.00     0.320 C 
ATOM     12  O   UNL A   1      32.642  23.107  26.764  1.00  0.00    -0.248 OA
BRANCH  11  13
ATOM     13  N   UNL A   1      34.596  22.556  25.748  1.00  0.00    -0.325 N 
ATOM     14  C   UNL A   1      35.870  23.212  25.987  1.00  0.00     0.149 C 
BRANCH  13  15
ATOM     15  C   UNL A   1      34.684  21.100  25.417  1.00  0.00     0.088 C 
ATOM     16  C   UNL A   1      36.108  20.724  25.025  1.00  0.00     0.031 C 
BRANCH  15  17
ATOM     17  C   UNL A   1      33.540  20.442  24.589  1.00  0.00     0.071 C 
BRANCH  17  18
ATOM     18  C   UNL A   1      33.259  18.961  24.694  1.00  0.00     0.007 A 
ATOM     19  C   UNL A   1      32.915  18.187  25.786  1.00  0.00     0.015 A 
ATOM     20  S   UNL A   1      33.201  18.017  23.248  1.00  0.00    -0.149 S 
ATOM     21  C   UNL A   1      32.776  16.803  25.458  1.00  0.00     0.012 A 
ATOM     22  C   UNL A   1      32.956  16.569  24.117  1.00  0.00     0.065 A 
ENDBRANCH  17  18
ENDBRANCH  15  17
ENDBRANCH  13  15
ENDBRANCH  11  13
ENDBRANCH   7  11
ENDBRANCH   5   6
ENDBRANCH   3   5
ENDBRANCH   2   3
ENDBRANCH   1   2
BRANCH   1  23
ATOM     23  C   UNL A   1      32.845  30.165  26.370  1.00  0.00     0.202 C 
BRANCH  23  24
ATOM     24  O   UNL A   1      31.484  30.586  26.381  1.00  0.00    -0.374 OA
BRANCH  24  25
ATOM     25  C   UNL A   1      31.207  31.975  26.561  1.00  0.00     0.202 C 
BRANCH  25  26
ATOM     26  C   UNL A   1      32.403  32.910  26.790  1.00  0.00     0.261 C 
BRANCH  26  27
ATOM     27  O   UNL A   1      32.338  33.555  28.071  1.00  0.00    -0.460 OA
BRANCH  27  28
ATOM     28  C   UNL A   1      33.428  34.280  28.402  1.00  0.00     0.338 C 
ATOM     29  O   UNL A   1      33.467  35.486  28.627  1.00  0.00    -0.246 OA
BRANCH  28  30
ATOM     30  C   UNL A   1      34.611  33.416  28.616  1.00  0.00     0.060 A 
ATOM     31  C   UNL A   1      34.411  32.186  29.254  1.00  0.00     0.016 A 
ATOM     32  C   UNL A   1      35.902  33.825  28.293  1.00  0.00     0.016 A 
ATOM     33  C   UNL A   1      35.502  31.440  29.699  1.00  0.00     0.010 A 
ATOM     34  C   UNL A   1      36.993  33.086  28.751  1.00  0.00     0.010 A 
ATOM     35  C   UNL A   1      36.795  31.933  29.513  1.00  0.00    -0.014 A 
BRANCH  35  36
ATOM     36  C   UNL A   1      37.946  31.309  30.194  1.00  0.00     0.031 A 
ATOM     37  C   UNL A   1      38.295  31.715  31.597  1.00  0.00     0.074 A 
ATOM     38  C   UNL A   1      38.707  30.428  29.530  1.00  0.00     0.049 A 
ATOM     39  N   UNL A   1      39.193  31.219  32.409  1.00  0.00    -0.248 NA
ATOM     40  C   UNL A   1      37.547  32.852  32.151  1.00  0.00     0.031 C 
ATOM     41  C   UNL A   1      38.508  30.032  28.139  1.00  0.00     0.029 A 
ATOM     42  N   UNL A   1      39.802  29.718  29.939  1.00  0.00    -0.354 N 
ATOM     43  C   UNL A   1      39.104  31.971  33.574  1.00  0.00     0.074 A 
ATOM     44  C   UNL A   1      38.115  33.000  33.339  1.00  0.00     0.031 C 
ATOM     45  C   UNL A   1      39.443  29.127  27.812  1.00  0.00     0.029 A 
ATOM     46  C   UNL A   1      40.299  28.884  28.971  1.00  0.00     0.049 A 
ATOM     47  H   UNL A   1      40.194  29.797  30.838  1.00  0.00     0.167 HD
ATOM     48  C   UNL A   1      39.773  31.795  34.740  1.00  0.00     0.037 A 
ATOM     49  C   UNL A   1      41.314  28.004  29.032  1.00  0.00     0.037 A 
ATOM     50  C   UNL A   1      40.766  30.770  34.941  1.00  0.00     0.049 A 
ATOM     51  C   UNL A   1      42.041  27.814  30.335  1.00  0.00     0.074 A 
ATOM     52  C   UNL A   1      41.442  30.430  36.100  1.00  0.00     0.029 A 
ATOM     53  N   UNL A   1      41.246  29.932  33.941  1.00  0.00    -0.354 N 
ATOM     54  N   UNL A   1      41.856  28.420  31.484  1.00  0.00    -0.248 NA
ATOM     55  C   UNL A   1      43.101  26.800  30.353  1.00  0.00     0.031 C 
ATOM     56  C   UNL A   1      42.379  29.438  35.786  1.00  0.00     0.029 A 
ATOM     57  C   UNL A   1      42.239  29.107  34.446  1.00  0.00     0.049 A 
ATOM     58  H   UNL A   1      40.926  29.925  33.011  1.00  0.00     0.167 HD
ATOM     59  C   UNL A   1      42.750  27.837  32.372  1.00  0.00     0.074 A 
ATOM     60  C   UNL A   1      43.469  26.822  31.626  1.00  0.00     0.031 C 
ATOM     61  C   UNL A   1      42.953  28.110  33.685  1.00  0.00     0.037 A 
BRANCH  48  62
ATOM     62  C   UNL A   1      39.458  32.726  35.881  1.00  0.00     0.064 A 
ATOM     63  C   UNL A   1      40.149  33.936  36.061  1.00  0.00     0.173 A 
ATOM     64  C   UNL A   1      38.429  32.427  36.786  1.00  0.00     0.173 A 
ATOM     65  F   UNL A   1      41.143  34.279  35.228  1.00  0.00    -0.203 F 
ATOM     66  C   UNL A   1      39.850  34.786  37.125  1.00  0.00     0.198 A 
ATOM     67  C   UNL A   1      38.108  33.296  37.827  1.00  0.00     0.198 A 
ATOM     68  F   UNL A   1      37.724  31.292  36.660  1.00  0.00    -0.203 F 
ATOM     69  F   UNL A   1      40.564  35.906  37.307  1.00  0.00    -0.200 F 
ATOM     70  C   UNL A   1      38.826  34.469  38.002  1.00  0.00     0.200 A 
ATOM     71  F   UNL A   1      37.103  32.998  38.662  1.00  0.00    -0.200 F 
ATOM     72  F   UNL A   1      38.534  35.291  39.021  1.00  0.00    -0.200 F 
ENDBRANCH  48  62
BRANCH  49  73
ATOM     73  C   UNL A   1      41.614  27.174  27.842  1.00  0.00     0.064 A 
ATOM     74  C   UNL A   1      42.547  27.606  26.891  1.00  0.00     0.173 A 
ATOM     75  C   UNL A   1      41.032  25.911  27.666  1.00  0.00     0.173 A 
ATOM     76  F   UNL A   1      43.122  28.811  27.016  1.00  0.00    -0.203 F 
ATOM     77  C   UNL A   1      42.884  26.807  25.800  1.00  0.00     0.198 A 
ATOM     78  C   UNL A   1      41.389  25.103  26.589  1.00  0.00     0.198 A 
ATOM     79  F   UNL A   1      40.147  25.448  28.559  1.00  0.00    -0.203 F 
ATOM     80  F   UNL A   1      43.763  27.252  24.893  1.00  0.00    -0.200 F 
ATOM     81  C   UNL A   1      42.311  25.552  25.655  1.00  0.00     0.200 A 
ATOM     82  F   UNL A   1      40.851  23.882  26.464  1.00  0.00    -0.200 F 
ATOM     83  F   UNL A   1      42.650  24.776  24.618  1.00  0.00    -0.200 F 
ENDBRANCH  49  73
BRANCH  61  84
ATOM     84  C   UNL A   1      43.979  27.281  34.407  1.00  0.00     0.064 A 
ATOM     85  C   UNL A   1      43.655  26.045  34.986  1.00  0.00     0.173 A 
ATOM     86  C   UNL A   1      45.310  27.718  34.497  1.00  0.00     0.173 A 
ATOM     87  F   UNL A   1      42.394  25.587  34.940  1.00  0.00    -0.203 F 
ATOM     88  C   UNL A   1      44.617  25.294  35.658  1.00  0.00     0.198 A 
ATOM     89  C   UNL A   1      46.277  26.949  35.138  1.00  0.00     0.198 A 
ATOM     90  F   UNL A   1      45.676  28.889  33.954  1.00  0.00    -0.203 F 
ATOM     91  F   UNL A   1      44.271  24.146  36.255  1.00  0.00    -0.200 F 
ATOM     92  C   UNL A   1      45.928  25.743  35.727  1.00  0.00     0.200 A 
ATOM     93  F   UNL A   1      47.546  27.377  35.188  1.00  0.00    -0.200 F 
ATOM     94  F   UNL A   1      46.853  25.017  36.370  1.00  0.00    -0.200 F 
ENDBRANCH  61  84
ENDBRANCH  35  36
ENDBRANCH  28  30
ENDBRANCH  27  28
ENDBRANCH  26  27
ENDBRANCH  25  26
ENDBRANCH  24  25
ENDBRANCH  23  24
ENDBRANCH   1  23
TORSDOF 20
ENDMDL
