MODEL 1
REMARK VINA RESULT:     -11.7      0.000      0.000
REMARK SMILES COc1cccc(NC(=O)[C@@H]2[C@@H](C(=O)OCCOCCOC(=O)c3ccc(-c4c5nc(c(-c6c(F)c(F)c(F)c(F)c6F)c6ccc([nH]6)c(-c6c(F)c(F)c(F)c(F)c6F)c6nc(c(-c7c(F)c(F)c(F)c(F)c7F)c7ccc4[nH]7)C=C6)C=C5)cc3)[C@H]3C=C[C@@H]2C3)c1
REMARK SMILES IDX 17 1 16 2 15 3 13 4 14 5 12 6 11 7 90 8 87 9 89 10 91 11
REMARK SMILES IDX 88 12 9 13 8 14 10 16 7 17 3 18 4 19 92 20 5 21 6 22 2 23
REMARK SMILES IDX 1 24 18 25 19 26 20 27 21 28 22 29 23 30 24 31 25 32 86 33
REMARK SMILES IDX 26 34 85 35 27 36 28 37 29 38 79 39 30 40 84 41 78 42 80 43
REMARK SMILES IDX 31 44 83 45 77 46 76 47 32 49 64 50 44 51 63 52 45 53 48 54
REMARK SMILES IDX 62 55 81 56 46 57 47 58 61 60 82 61 49 62 33 63 34 64 42 65
REMARK SMILES IDX 35 66 36 67 40 68 43 69 37 70 38 71 41 72 39 73 65 74 66 75
REMARK SMILES IDX 74 76 67 77 68 78 72 79 75 80 69 81 70 82 73 83 71 84 50 85
REMARK SMILES IDX 51 86 59 87 52 88 53 89 57 90 60 91 54 92 55 93 58 94 56 95
REMARK H PARENT 8 15 80 48 48 59
REMARK Flexibility Score: inf
ROOT
ATOM      1  C   UNL A   1      34.692  33.198  28.889  1.00  0.00     0.202 C 
ENDROOT
BRANCH   1   2
ATOM      2  C   UNL A   1      34.448  31.693  28.740  1.00  0.00     0.261 C 
BRANCH   2   3
ATOM      3  O   UNL A   1      34.535  31.164  27.402  1.00  0.00    -0.463 OA
BRANCH   3   4
ATOM      4  C   UNL A   1      33.331  30.859  26.832  1.00  0.00     0.310 C 
ATOM      5  O   UNL A   1      32.301  31.466  27.088  1.00  0.00    -0.252 OA
BRANCH   4   6
ATOM      6  C   UNL A   1      33.440  29.674  25.864  1.00  0.00     0.119 C 
ATOM      7  C   UNL A   1      32.115  29.289  25.069  1.00  0.00     0.100 C 
ATOM      8  C   UNL A   1      31.887  27.832  25.588  1.00  0.00     0.025 C 
ATOM      9  C   UNL A   1      33.750  28.387  26.697  1.00  0.00     0.027 C 
ATOM     10  C   UNL A   1      31.532  27.883  27.056  1.00  0.00    -0.027 C 
ATOM     11  C   UNL A   1      33.322  27.283  25.743  1.00  0.00     0.017 C 
ATOM     12  C   UNL A   1      32.662  28.160  27.725  1.00  0.00    -0.027 C 
BRANCH   7  13
ATOM     13  C   UNL A   1      32.321  29.190  23.546  1.00  0.00     0.228 C 
ATOM     14  N   UNL A   1      31.376  29.214  22.576  1.00  0.00    -0.326 N 
ATOM     15  H   UNL A   1      31.786  29.132  21.685  1.00  0.00     0.169 HD
ATOM     16  O   UNL A   1      33.470  29.144  23.080  1.00  0.00    -0.274 OA
BRANCH  14  17
ATOM     17  C   UNL A   1      29.985  29.320  22.475  1.00  0.00     0.044 A 
ATOM     18  C   UNL A   1      28.188  30.919  22.091  1.00  0.00     0.120 A 
ATOM     19  C   UNL A   1      27.263  30.005  22.581  1.00  0.00     0.046 A 
ATOM     20  C   UNL A   1      29.530  30.558  21.972  1.00  0.00     0.072 A 
ATOM     21  C   UNL A   1      27.691  28.722  22.949  1.00  0.00     0.006 A 
ATOM     22  C   UNL A   1      29.057  28.383  22.921  1.00  0.00     0.026 A 
BRANCH  18  23
ATOM     23  O   UNL A   1      27.861  32.250  22.051  1.00  0.00    -0.497 OA
ATOM     24  C   UNL A   1      28.778  33.056  22.778  1.00  0.00     0.278 C 
ENDBRANCH  18  23
ENDBRANCH  14  17
ENDBRANCH   7  13
ENDBRANCH   4   6
ENDBRANCH   3   4
ENDBRANCH   2   3
ENDBRANCH   1   2
BRANCH   1  25
ATOM     25  O   UNL A   1      33.649  34.068  28.511  1.00  0.00    -0.374 OA
BRANCH  25  26
ATOM     26  C   UNL A   1      33.660  35.433  28.895  1.00  0.00     0.202 C 
BRANCH  26  27
ATOM     27  C   UNL A   1      32.759  35.999  29.997  1.00  0.00     0.261 C 
BRANCH  27  28
ATOM     28  O   UNL A   1      32.455  35.183  31.104  1.00  0.00    -0.460 OA
BRANCH  28  29
ATOM     29  C   UNL A   1      32.806  35.710  32.292  1.00  0.00     0.338 C 
ATOM     30  O   UNL A   1      32.200  36.482  33.011  1.00  0.00    -0.246 OA
BRANCH  29  31
ATOM     31  C   UNL A   1      34.041  35.016  32.612  1.00  0.00     0.060 A 
ATOM     32  C   UNL A   1      33.943  33.695  33.043  1.00  0.00     0.016 A 
ATOM     33  C   UNL A   1      35.267  35.634  32.342  1.00  0.00     0.016 A 
ATOM     34  C   UNL A   1      35.106  32.973  33.231  1.00  0.00     0.010 A 
ATOM     35  C   UNL A   1      36.431  34.904  32.522  1.00  0.00     0.010 A 
ATOM     36  C   UNL A   1      36.345  33.581  32.982  1.00  0.00    -0.014 A 
BRANCH  36  37
ATOM     37  C   UNL A   1      37.572  32.842  33.306  1.00  0.00     0.031 A 
ATOM     38  C   UNL A   1      38.256  33.138  34.601  1.00  0.00     0.074 A 
ATOM     39  C   UNL A   1      38.014  31.907  32.450  1.00  0.00     0.049 A 
ATOM     40  N   UNL A   1      39.339  32.608  35.101  1.00  0.00    -0.248 NA
ATOM     41  C   UNL A   1      37.641  34.175  35.447  1.00  0.00     0.031 C 
ATOM     42  C   UNL A   1      37.379  31.561  31.177  1.00  0.00     0.029 A 
ATOM     43  N   UNL A   1      39.096  31.073  32.525  1.00  0.00    -0.354 N 
ATOM     44  C   UNL A   1      39.536  33.249  36.316  1.00  0.00     0.074 A 
ATOM     45  C   UNL A   1      38.488  34.233  36.464  1.00  0.00     0.031 C 
ATOM     46  C   UNL A   1      38.082  30.577  30.592  1.00  0.00     0.029 A 
ATOM     47  C   UNL A   1      39.230  30.254  31.433  1.00  0.00     0.049 A 
ATOM     48  H   UNL A   1      39.717  31.062  33.289  1.00  0.00     0.167 HD
ATOM     49  C   UNL A   1      40.508  33.016  37.226  1.00  0.00     0.037 A 
ATOM     50  C   UNL A   1      40.192  29.358  31.152  1.00  0.00     0.037 A 
ATOM     51  C   UNL A   1      41.536  32.028  37.043  1.00  0.00     0.049 A 
ATOM     52  C   UNL A   1      41.289  29.158  32.164  1.00  0.00     0.074 A 
ATOM     53  C   UNL A   1      42.567  31.685  37.898  1.00  0.00     0.029 A 
ATOM     54  N   UNL A   1      41.662  31.227  35.914  1.00  0.00    -0.354 N 
ATOM     55  N   UNL A   1      41.455  29.737  33.331  1.00  0.00    -0.248 NA
ATOM     56  C   UNL A   1      42.330  28.181  31.826  1.00  0.00     0.031 C 
ATOM     57  C   UNL A   1      43.351  30.718  37.261  1.00  0.00     0.029 A 
ATOM     58  C   UNL A   1      42.771  30.408  36.038  1.00  0.00     0.049 A 
ATOM     59  H   UNL A   1      41.053  31.239  35.141  1.00  0.00     0.167 HD
ATOM     60  C   UNL A   1      42.598  29.173  33.880  1.00  0.00     0.074 A 
ATOM     61  C   UNL A   1      43.072  28.193  32.922  1.00  0.00     0.031 C 
ATOM     62  C   UNL A   1      43.204  29.437  35.064  1.00  0.00     0.037 A 
BRANCH  49  63
ATOM     63  C   UNL A   1      40.520  33.859  38.467  1.00  0.00     0.064 A 
ATOM     64  C   UNL A   1      41.292  35.027  38.562  1.00  0.00     0.173 A 
ATOM     65  C   UNL A   1      39.728  33.507  39.570  1.00  0.00     0.173 A 
ATOM     66  F   UNL A   1      42.085  35.399  37.545  1.00  0.00    -0.203 F 
ATOM     67  C   UNL A   1      41.285  35.799  39.722  1.00  0.00     0.198 A 
ATOM     68  C   UNL A   1      39.699  34.296  40.715  1.00  0.00     0.198 A 
ATOM     69  F   UNL A   1      38.975  32.396  39.534  1.00  0.00    -0.203 F 
ATOM     70  F   UNL A   1      42.067  36.884  39.808  1.00  0.00    -0.200 F 
ATOM     71  C   UNL A   1      40.482  35.439  40.794  1.00  0.00     0.200 A 
ATOM     72  F   UNL A   1      38.916  33.951  41.746  1.00  0.00    -0.200 F 
ATOM     73  F   UNL A   1      40.469  36.186  41.905  1.00  0.00    -0.200 F 
ENDBRANCH  49  63
BRANCH  50  74
ATOM     74  C   UNL A   1      40.161  28.597  29.875  1.00  0.00     0.064 A 
ATOM     75  C   UNL A   1      39.495  27.367  29.779  1.00  0.00     0.173 A 
ATOM     76  C   UNL A   1      40.809  29.076  28.726  1.00  0.00     0.173 A 
ATOM     77  F   UNL A   1      38.872  26.857  30.852  1.00  0.00    -0.203 F 
ATOM     78  C   UNL A   1      39.505  26.632  28.594  1.00  0.00     0.198 A 
ATOM     79  C   UNL A   1      40.789  28.357  27.533  1.00  0.00     0.198 A 
ATOM     80  F   UNL A   1      41.454  30.251  28.759  1.00  0.00    -0.203 F 
ATOM     81  F   UNL A   1      38.907  25.434  28.549  1.00  0.00    -0.200 F 
ATOM     82  C   UNL A   1      40.147  27.130  27.471  1.00  0.00     0.200 A 
ATOM     83  F   UNL A   1      41.396  28.852  26.446  1.00  0.00    -0.200 F 
ATOM     84  F   UNL A   1      40.156  26.424  26.333  1.00  0.00    -0.200 F 
ENDBRANCH  50  74
BRANCH  62  85
ATOM     85  C   UNL A   1      44.418  28.624  35.400  1.00  0.00     0.064 A 
ATOM     86  C   UNL A   1      44.323  27.400  36.077  1.00  0.00     0.173 A 
ATOM     87  C   UNL A   1      45.690  29.059  34.999  1.00  0.00     0.173 A 
ATOM     88  F   UNL A   1      43.130  26.949  36.494  1.00  0.00    -0.203 F 
ATOM     89  C   UNL A   1      45.462  26.656  36.370  1.00  0.00     0.198 A 
ATOM     90  C   UNL A   1      46.823  28.293  35.259  1.00  0.00     0.198 A 
ATOM     91  F   UNL A   1      45.833  30.218  34.338  1.00  0.00    -0.203 F 
ATOM     92  F   UNL A   1      45.354  25.518  37.068  1.00  0.00    -0.200 F 
ATOM     93  C   UNL A   1      46.709  27.099  35.953  1.00  0.00     0.200 A 
ATOM     94  F   UNL A   1      48.024  28.713  34.838  1.00  0.00    -0.200 F 
ATOM     95  F   UNL A   1      47.803  26.376  36.227  1.00  0.00    -0.200 F 
ENDBRANCH  62  85
ENDBRANCH  36  37
ENDBRANCH  29  31
ENDBRANCH  28  29
ENDBRANCH  27  28
ENDBRANCH  26  27
ENDBRANCH  25  26
ENDBRANCH   1  25
TORSDOF 17
ENDMDL
MODEL 2
REMARK VINA RESULT:     -11.5      4.179      6.092
REMARK SMILES COc1cccc(NC(=O)[C@@H]2[C@@H](C(=O)OCCOCCOC(=O)c3ccc(-c4c5nc(c(-c6c(F)c(F)c(F)c(F)c6F)c6ccc([nH]6)c(-c6c(F)c(F)c(F)c(F)c6F)c6nc(c(-c7c(F)c(F)c(F)c(F)c7F)c7ccc4[nH]7)C=C6)C=C5)cc3)[C@H]3C=C[C@@H]2C3)c1
REMARK SMILES IDX 17 1 16 2 15 3 13 4 14 5 12 6 11 7 90 8 87 9 89 10 91 11
REMARK SMILES IDX 88 12 9 13 8 14 10 16 7 17 3 18 4 19 92 20 5 21 6 22 2 23
REMARK SMILES IDX 1 24 18 25 19 26 20 27 21 28 22 29 23 30 24 31 25 32 86 33
REMARK SMILES IDX 26 34 85 35 27 36 28 37 29 38 79 39 30 40 84 41 78 42 80 43
REMARK SMILES IDX 31 44 83 45 77 46 76 47 32 49 64 50 44 51 63 52 45 53 48 54
REMARK SMILES IDX 62 55 81 56 46 57 47 58 61 60 82 61 49 62 33 63 34 64 42 65
REMARK SMILES IDX 35 66 36 67 40 68 43 69 37 70 38 71 41 72 39 73 65 74 66 75
REMARK SMILES IDX 74 76 67 77 68 78 72 79 75 80 69 81 70 82 73 83 71 84 50 85
REMARK SMILES IDX 51 86 59 87 52 88 53 89 57 90 60 91 54 92 55 93 58 94 56 95
REMARK H PARENT 8 15 80 48 48 59
REMARK Flexibility Score: inf
ROOT
ATOM      1  C   UNL A   1      32.081  27.835  25.189  1.00  0.00     0.202 C 
ENDROOT
BRANCH   1   2
ATOM      2  C   UNL A   1      33.511  27.288  25.232  1.00  0.00     0.261 C 
BRANCH   2   3
ATOM      3  O   UNL A   1      33.740  26.173  26.116  1.00  0.00    -0.463 OA
BRANCH   3   4
ATOM      4  C   UNL A   1      33.745  24.952  25.501  1.00  0.00     0.310 C 
ATOM      5  O   UNL A   1      34.304  24.746  24.434  1.00  0.00    -0.252 OA
BRANCH   4   6
ATOM      6  C   UNL A   1      32.961  23.906  26.303  1.00  0.00     0.119 C 
ATOM      7  C   UNL A   1      32.859  22.454  25.657  1.00  0.00     0.100 C 
ATOM      8  C   UNL A   1      31.311  22.331  25.479  1.00  0.00     0.025 C 
ATOM      9  C   UNL A   1      31.469  24.369  26.389  1.00  0.00     0.027 C 
ATOM     10  C   UNL A   1      30.856  23.322  24.433  1.00  0.00    -0.027 C 
ATOM     11  C   UNL A   1      30.753  23.068  26.716  1.00  0.00     0.017 C 
ATOM     12  C   UNL A   1      30.898  24.538  24.998  1.00  0.00    -0.027 C 
BRANCH   7  13
ATOM     13  C   UNL A   1      33.286  21.325  26.614  1.00  0.00     0.228 C 
ATOM     14  N   UNL A   1      33.301  19.992  26.374  1.00  0.00    -0.326 N 
ATOM     15  H   UNL A   1      33.620  19.498  27.163  1.00  0.00     0.169 HD
ATOM     16  O   UNL A   1      33.742  21.605  27.734  1.00  0.00    -0.274 OA
BRANCH  14  17
ATOM     17  C   UNL A   1      32.993  19.115  25.329  1.00  0.00     0.044 A 
ATOM     18  C   UNL A   1      33.219  16.797  24.618  1.00  0.00     0.120 A 
ATOM     19  C   UNL A   1      32.903  17.161  23.314  1.00  0.00     0.046 A 
ATOM     20  C   UNL A   1      33.197  17.752  25.634  1.00  0.00     0.072 A 
ATOM     21  C   UNL A   1      32.561  18.491  23.034  1.00  0.00     0.006 A 
ATOM     22  C   UNL A   1      32.629  19.478  24.036  1.00  0.00     0.026 A 
BRANCH  18  23
ATOM     23  O   UNL A   1      33.872  15.612  24.846  1.00  0.00    -0.497 OA
ATOM     24  C   UNL A   1      35.227  15.804  25.225  1.00  0.00     0.278 C 
ENDBRANCH  18  23
ENDBRANCH  14  17
ENDBRANCH   7  13
ENDBRANCH   4   6
ENDBRANCH   3   4
ENDBRANCH   2   3
ENDBRANCH   1   2
BRANCH   1  25
ATOM     25  O   UNL A   1      31.437  28.074  26.421  1.00  0.00    -0.374 OA
BRANCH  25  26
ATOM     26  C   UNL A   1      31.762  29.208  27.207  1.00  0.00     0.202 C 
BRANCH  26  27
ATOM     27  C   UNL A   1      32.230  30.536  26.604  1.00  0.00     0.261 C 
BRANCH  27  28
ATOM     28  O   UNL A   1      33.598  30.864  26.678  1.00  0.00    -0.460 OA
BRANCH  28  29
ATOM     29  C   UNL A   1      33.874  31.910  27.480  1.00  0.00     0.338 C 
ATOM     30  O   UNL A   1      33.235  32.925  27.683  1.00  0.00    -0.246 OA
BRANCH  29  31
ATOM     31  C   UNL A   1      35.067  31.481  28.187  1.00  0.00     0.060 A 
ATOM     32  C   UNL A   1      35.099  30.171  28.660  1.00  0.00     0.016 A 
ATOM     33  C   UNL A   1      36.179  32.330  28.239  1.00  0.00     0.016 A 
ATOM     34  C   UNL A   1      36.269  29.699  29.223  1.00  0.00     0.010 A 
ATOM     35  C   UNL A   1      37.353  31.851  28.795  1.00  0.00     0.010 A 
ATOM     36  C   UNL A   1      37.388  30.542  29.300  1.00  0.00    -0.014 A 
BRANCH  36  37
ATOM     37  C   UNL A   1      38.581  30.066  30.011  1.00  0.00     0.031 A 
ATOM     38  C   UNL A   1      38.821  30.562  31.401  1.00  0.00     0.074 A 
ATOM     39  C   UNL A   1      39.392  29.182  29.408  1.00  0.00     0.049 A 
ATOM     40  N   UNL A   1      39.795  30.276  32.221  1.00  0.00    -0.248 NA
ATOM     41  C   UNL A   1      37.834  31.513  31.939  1.00  0.00     0.031 C 
ATOM     42  C   UNL A   1      39.200  28.649  28.057  1.00  0.00     0.029 A 
ATOM     43  N   UNL A   1      40.532  28.573  29.853  1.00  0.00    -0.354 N 
ATOM     44  C   UNL A   1      39.539  31.013  33.369  1.00  0.00     0.074 A 
ATOM     45  C   UNL A   1      38.344  31.789  33.130  1.00  0.00     0.031 C 
ATOM     46  C   UNL A   1      40.190  27.782  27.788  1.00  0.00     0.029 A 
ATOM     47  C   UNL A   1      41.097  27.731  28.929  1.00  0.00     0.049 A 
ATOM     48  H   UNL A   1      40.910  28.724  30.750  1.00  0.00     0.167 HD
ATOM     49  C   UNL A   1      40.245  31.021  34.521  1.00  0.00     0.037 A 
ATOM     50  C   UNL A   1      42.233  27.016  29.008  1.00  0.00     0.037 A 
ATOM     51  C   UNL A   1      41.432  30.235  34.722  1.00  0.00     0.049 A 
ATOM     52  C   UNL A   1      43.024  27.087  30.288  1.00  0.00     0.074 A 
ATOM     53  C   UNL A   1      42.227  30.143  35.849  1.00  0.00     0.029 A 
ATOM     54  N   UNL A   1      41.996  29.407  33.759  1.00  0.00    -0.354 N 
ATOM     55  N   UNL A   1      42.761  27.754  31.389  1.00  0.00    -0.248 NA
ATOM     56  C   UNL A   1      44.263  26.304  30.342  1.00  0.00     0.031 C 
ATOM     57  C   UNL A   1      43.306  29.305  35.548  1.00  0.00     0.029 A 
ATOM     58  C   UNL A   1      43.147  28.820  34.257  1.00  0.00     0.049 A 
ATOM     59  H   UNL A   1      41.632  29.259  32.857  1.00  0.00     0.167 HD
ATOM     60  C   UNL A   1      43.784  27.449  32.275  1.00  0.00     0.074 A 
ATOM     61  C   UNL A   1      44.661  26.520  31.587  1.00  0.00     0.031 C 
ATOM     62  C   UNL A   1      43.987  27.892  33.541  1.00  0.00     0.037 A 
BRANCH  49  63
ATOM     63  C   UNL A   1      39.773  31.923  35.623  1.00  0.00     0.064 A 
ATOM     64  C   UNL A   1      40.316  33.204  35.817  1.00  0.00     0.173 A 
ATOM     65  C   UNL A   1      38.746  31.511  36.485  1.00  0.00     0.173 A 
ATOM     66  F   UNL A   1      41.316  33.640  35.036  1.00  0.00    -0.203 F 
ATOM     67  C   UNL A   1      39.860  34.027  36.843  1.00  0.00     0.198 A 
ATOM     68  C   UNL A   1      38.272  32.349  37.490  1.00  0.00     0.198 A 
ATOM     69  F   UNL A   1      38.197  30.294  36.348  1.00  0.00    -0.203 F 
ATOM     70  F   UNL A   1      40.425  35.227  37.039  1.00  0.00    -0.200 F 
ATOM     71  C   UNL A   1      38.833  33.604  37.673  1.00  0.00     0.200 A 
ATOM     72  F   UNL A   1      37.274  31.940  38.285  1.00  0.00    -0.200 F 
ATOM     73  F   UNL A   1      38.389  34.401  38.654  1.00  0.00    -0.200 F 
ENDBRANCH  49  63
BRANCH  50  74
ATOM     74  C   UNL A   1      42.682  26.189  27.858  1.00  0.00     0.064 A 
ATOM     75  C   UNL A   1      42.294  24.848  27.733  1.00  0.00     0.173 A 
ATOM     76  C   UNL A   1      43.523  26.717  26.866  1.00  0.00     0.173 A 
ATOM     77  F   UNL A   1      41.502  24.290  28.660  1.00  0.00    -0.203 F 
ATOM     78  C   UNL A   1      42.753  24.060  26.678  1.00  0.00     0.198 A 
ATOM     79  C   UNL A   1      43.954  25.938  25.795  1.00  0.00     0.198 A 
ATOM     80  F   UNL A   1      43.920  27.997  26.933  1.00  0.00    -0.203 F 
ATOM     81  F   UNL A   1      42.409  22.767  26.614  1.00  0.00    -0.200 F 
ATOM     82  C   UNL A   1      43.578  24.607  25.708  1.00  0.00     0.200 A 
ATOM     83  F   UNL A   1      44.737  26.477  24.850  1.00  0.00    -0.200 F 
ATOM     84  F   UNL A   1      44.018  23.850  24.694  1.00  0.00    -0.200 F 
ENDBRANCH  50  74
BRANCH  62  85
ATOM     85  C   UNL A   1      45.177  27.342  34.269  1.00  0.00     0.064 A 
ATOM     86  C   UNL A   1      45.099  26.167  35.029  1.00  0.00     0.173 A 
ATOM     87  C   UNL A   1      46.421  27.982  34.167  1.00  0.00     0.173 A 
ATOM     88  F   UNL A   1      43.928  25.528  35.168  1.00  0.00    -0.203 F 
ATOM     89  C   UNL A   1      46.219  25.669  35.689  1.00  0.00     0.198 A 
ATOM     90  C   UNL A   1      47.547  27.459  34.796  1.00  0.00     0.198 A 
ATOM     91  F   UNL A   1      46.550  29.104  33.443  1.00  0.00    -0.203 F 
ATOM     92  F   UNL A   1      46.110  24.576  36.456  1.00  0.00    -0.200 F 
ATOM     93  C   UNL A   1      47.443  26.310  35.564  1.00  0.00     0.200 A 
ATOM     94  F   UNL A   1      48.732  28.070  34.659  1.00  0.00    -0.200 F 
ATOM     95  F   UNL A   1      48.522  25.823  36.192  1.00  0.00    -0.200 F 
ENDBRANCH  62  85
ENDBRANCH  36  37
ENDBRANCH  29  31
ENDBRANCH  28  29
ENDBRANCH  27  28
ENDBRANCH  26  27
ENDBRANCH  25  26
ENDBRANCH   1  25
TORSDOF 17
ENDMDL
MODEL 3
REMARK VINA RESULT:     -11.4      5.174     10.105
REMARK SMILES COc1cccc(NC(=O)[C@@H]2[C@@H](C(=O)OCCOCCOC(=O)c3ccc(-c4c5nc(c(-c6c(F)c(F)c(F)c(F)c6F)c6ccc([nH]6)c(-c6c(F)c(F)c(F)c(F)c6F)c6nc(c(-c7c(F)c(F)c(F)c(F)c7F)c7ccc4[nH]7)C=C6)C=C5)cc3)[C@H]3C=C[C@@H]2C3)c1
REMARK SMILES IDX 17 1 16 2 15 3 13 4 14 5 12 6 11 7 90 8 87 9 89 10 91 11
REMARK SMILES IDX 88 12 9 13 8 14 10 16 7 17 3 18 4 19 92 20 5 21 6 22 2 23
REMARK SMILES IDX 1 24 18 25 19 26 20 27 21 28 22 29 23 30 24 31 25 32 86 33
REMARK SMILES IDX 26 34 85 35 27 36 28 37 29 38 79 39 30 40 84 41 78 42 80 43
REMARK SMILES IDX 31 44 83 45 77 46 76 47 32 49 64 50 44 51 63 52 45 53 48 54
REMARK SMILES IDX 62 55 81 56 46 57 47 58 61 60 82 61 49 62 33 63 34 64 42 65
REMARK SMILES IDX 35 66 36 67 40 68 43 69 37 70 38 71 41 72 39 73 65 74 66 75
REMARK SMILES IDX 74 76 67 77 68 78 72 79 75 80 69 81 70 82 73 83 71 84 50 85
REMARK SMILES IDX 51 86 59 87 52 88 53 89 57 90 60 91 54 92 55 93 58 94 56 95
REMARK H PARENT 8 15 80 48 48 59
REMARK Flexibility Score: inf
ROOT
ATOM      1  C   UNL A   1      40.046  19.997  26.052  1.00  0.00     0.202 C 
ENDROOT
BRANCH   1   2
ATOM      2  C   UNL A   1      39.444  21.378  25.774  1.00  0.00     0.261 C 
BRANCH   2   3
ATOM      3  O   UNL A   1      38.019  21.497  25.949  1.00  0.00    -0.463 OA
BRANCH   3   4
ATOM      4  C   UNL A   1      37.577  22.773  26.164  1.00  0.00     0.310 C 
ATOM      5  O   UNL A   1      38.331  23.709  26.386  1.00  0.00    -0.252 OA
BRANCH   4   6
ATOM      6  C   UNL A   1      36.048  22.866  26.105  1.00  0.00     0.119 C 
ATOM      7  C   UNL A   1      35.287  21.600  25.512  1.00  0.00     0.100 C 
ATOM      8  C   UNL A   1      34.589  22.245  24.270  1.00  0.00     0.025 C 
ATOM      9  C   UNL A   1      35.663  24.016  25.117  1.00  0.00     0.027 C 
ATOM     10  C   UNL A   1      35.645  22.647  23.267  1.00  0.00    -0.027 C 
ATOM     11  C   UNL A   1      34.226  23.662  24.764  1.00  0.00     0.017 C 
ATOM     12  C   UNL A   1      36.251  23.742  23.749  1.00  0.00    -0.027 C 
BRANCH   7  13
ATOM     13  C   UNL A   1      34.165  21.073  26.427  1.00  0.00     0.228 C 
ATOM     14  N   UNL A   1      33.263  20.100  26.160  1.00  0.00    -0.326 N 
ATOM     15  H   UNL A   1      32.657  19.964  26.924  1.00  0.00     0.169 HD
ATOM     16  O   UNL A   1      34.059  21.507  27.585  1.00  0.00    -0.274 OA
BRANCH  14  17
ATOM     17  C   UNL A   1      32.942  19.231  25.112  1.00  0.00     0.044 A 
ATOM     18  C   UNL A   1      33.249  16.944  24.330  1.00  0.00     0.120 A 
ATOM     19  C   UNL A   1      32.840  17.320  23.056  1.00  0.00     0.046 A 
ATOM     20  C   UNL A   1      33.234  17.874  25.370  1.00  0.00     0.072 A 
ATOM     21  C   UNL A   1      32.413  18.635  22.829  1.00  0.00     0.006 A 
ATOM     22  C   UNL A   1      32.486  19.602  23.851  1.00  0.00     0.026 A 
BRANCH  18  23
ATOM     23  O   UNL A   1      33.974  15.792  24.491  1.00  0.00    -0.497 OA
ATOM     24  C   UNL A   1      35.148  15.994  25.264  1.00  0.00     0.278 C 
ENDBRANCH  18  23
ENDBRANCH  14  17
ENDBRANCH   7  13
ENDBRANCH   4   6
ENDBRANCH   3   4
ENDBRANCH   2   3
ENDBRANCH   1   2
BRANCH   1  25
ATOM     25  O   UNL A   1      41.363  19.758  25.607  1.00  0.00    -0.374 OA
BRANCH  25  26
ATOM     26  C   UNL A   1      42.466  20.427  26.195  1.00  0.00     0.202 C 
BRANCH  26  27
ATOM     27  C   UNL A   1      43.291  21.487  25.457  1.00  0.00     0.261 C 
BRANCH  27  28
ATOM     28  O   UNL A   1      42.697  22.735  25.188  1.00  0.00    -0.460 OA
BRANCH  28  29
ATOM     29  C   UNL A   1      43.566  23.763  25.143  1.00  0.00     0.338 C 
ATOM     30  O   UNL A   1      44.423  24.022  24.319  1.00  0.00    -0.246 OA
BRANCH  29  31
ATOM     31  C   UNL A   1      43.144  24.605  26.248  1.00  0.00     0.060 A 
ATOM     32  C   UNL A   1      43.725  25.866  26.354  1.00  0.00     0.016 A 
ATOM     33  C   UNL A   1      42.086  24.189  27.065  1.00  0.00     0.016 A 
ATOM     34  C   UNL A   1      43.251  26.734  27.319  1.00  0.00     0.010 A 
ATOM     35  C   UNL A   1      41.607  25.065  28.025  1.00  0.00     0.010 A 
ATOM     36  C   UNL A   1      42.203  26.328  28.159  1.00  0.00    -0.014 A 
BRANCH  36  37
ATOM     37  C   UNL A   1      41.796  27.214  29.257  1.00  0.00     0.031 A 
ATOM     38  C   UNL A   1      42.618  27.217  30.505  1.00  0.00     0.074 A 
ATOM     39  C   UNL A   1      40.728  28.010  29.092  1.00  0.00     0.049 A 
ATOM     40  N   UNL A   1      42.459  27.917  31.595  1.00  0.00    -0.248 NA
ATOM     41  C   UNL A   1      43.774  26.305  30.533  1.00  0.00     0.031 C 
ATOM     42  C   UNL A   1      39.894  28.063  27.888  1.00  0.00     0.029 A 
ATOM     43  N   UNL A   1      40.165  28.930  29.932  1.00  0.00    -0.354 N 
ATOM     44  C   UNL A   1      43.491  27.528  32.437  1.00  0.00     0.074 A 
ATOM     45  C   UNL A   1      44.248  26.504  31.753  1.00  0.00     0.031 C 
ATOM     46  C   UNL A   1      38.928  28.979  28.068  1.00  0.00     0.029 A 
ATOM     47  C   UNL A   1      39.057  29.544  29.407  1.00  0.00     0.049 A 
ATOM     48  H   UNL A   1      40.522  29.132  30.828  1.00  0.00     0.167 HD
ATOM     49  C   UNL A   1      43.776  28.003  33.670  1.00  0.00     0.037 A 
ATOM     50  C   UNL A   1      38.237  30.450  29.967  1.00  0.00     0.037 A 
ATOM     51  C   UNL A   1      42.998  29.023  34.320  1.00  0.00     0.049 A 
ATOM     52  C   UNL A   1      38.553  30.921  31.362  1.00  0.00     0.074 A 
ATOM     53  C   UNL A   1      43.194  29.600  35.560  1.00  0.00     0.029 A 
ATOM     54  N   UNL A   1      41.864  29.612  33.772  1.00  0.00    -0.354 N 
ATOM     55  N   UNL A   1      39.552  30.582  32.145  1.00  0.00    -0.248 NA
ATOM     56  C   UNL A   1      37.637  31.903  31.951  1.00  0.00     0.031 C 
ATOM     57  C   UNL A   1      42.144  30.496  35.788  1.00  0.00     0.029 A 
ATOM     58  C   UNL A   1      41.332  30.528  34.663  1.00  0.00     0.049 A 
ATOM     59  H   UNL A   1      41.494  29.408  32.884  1.00  0.00     0.167 HD
ATOM     60  C   UNL A   1      39.402  31.329  33.304  1.00  0.00     0.074 A 
ATOM     61  C   UNL A   1      38.224  32.154  33.112  1.00  0.00     0.031 C 
ATOM     62  C   UNL A   1      40.162  31.337  34.428  1.00  0.00     0.037 A 
BRANCH  49  63
ATOM     63  C   UNL A   1      44.945  27.405  34.396  1.00  0.00     0.064 A 
ATOM     64  C   UNL A   1      44.807  26.278  35.222  1.00  0.00     0.173 A 
ATOM     65  C   UNL A   1      46.228  27.952  34.245  1.00  0.00     0.173 A 
ATOM     66  F   UNL A   1      43.599  25.728  35.419  1.00  0.00    -0.203 F 
ATOM     67  C   UNL A   1      45.906  25.736  35.883  1.00  0.00     0.198 A 
ATOM     68  C   UNL A   1      47.328  27.389  34.882  1.00  0.00     0.198 A 
ATOM     69  F   UNL A   1      46.414  29.033  33.472  1.00  0.00    -0.203 F 
ATOM     70  F   UNL A   1      45.743  24.689  36.704  1.00  0.00    -0.200 F 
ATOM     71  C   UNL A   1      47.167  26.284  35.706  1.00  0.00     0.200 A 
ATOM     72  F   UNL A   1      48.547  27.916  34.703  1.00  0.00    -0.200 F 
ATOM     73  F   UNL A   1      48.225  25.756  36.335  1.00  0.00    -0.200 F 
ENDBRANCH  49  63
BRANCH  50  74
ATOM     74  C   UNL A   1      37.057  30.960  29.221  1.00  0.00     0.064 A 
ATOM     75  C   UNL A   1      35.937  30.148  28.992  1.00  0.00     0.173 A 
ATOM     76  C   UNL A   1      37.028  32.266  28.708  1.00  0.00     0.173 A 
ATOM     77  F   UNL A   1      35.919  28.888  29.449  1.00  0.00    -0.203 F 
ATOM     78  C   UNL A   1      34.850  30.612  28.253  1.00  0.00     0.198 A 
ATOM     79  C   UNL A   1      35.927  32.740  27.999  1.00  0.00     0.198 A 
ATOM     80  F   UNL A   1      38.070  33.088  28.904  1.00  0.00    -0.203 F 
ATOM     81  F   UNL A   1      33.817  29.795  28.003  1.00  0.00    -0.200 F 
ATOM     82  C   UNL A   1      34.843  31.908  27.761  1.00  0.00     0.200 A 
ATOM     83  F   UNL A   1      35.918  33.999  27.542  1.00  0.00    -0.200 F 
ATOM     84  F   UNL A   1      33.798  32.354  27.053  1.00  0.00    -0.200 F 
ENDBRANCH  50  74
BRANCH  62  85
ATOM     85  C   UNL A   1      39.763  32.296  35.509  1.00  0.00     0.064 A 
ATOM     86  C   UNL A   1      40.296  33.591  35.581  1.00  0.00     0.173 A 
ATOM     87  C   UNL A   1      38.801  31.924  36.461  1.00  0.00     0.173 A 
ATOM     88  F   UNL A   1      41.229  33.988  34.703  1.00  0.00    -0.203 F 
ATOM     89  C   UNL A   1      39.904  34.468  36.588  1.00  0.00     0.198 A 
ATOM     90  C   UNL A   1      38.383  32.817  37.442  1.00  0.00     0.198 A 
ATOM     91  F   UNL A   1      38.254  30.700  36.427  1.00  0.00    -0.203 F 
ATOM     92  F   UNL A   1      40.467  35.681  36.672  1.00  0.00    -0.200 F 
ATOM     93  C   UNL A   1      38.942  34.084  37.511  1.00  0.00     0.200 A 
ATOM     94  F   UNL A   1      37.440  32.451  38.320  1.00  0.00    -0.200 F 
ATOM     95  F   UNL A   1      38.558  34.934  38.473  1.00  0.00    -0.200 F 
ENDBRANCH  62  85
ENDBRANCH  36  37
ENDBRANCH  29  31
ENDBRANCH  28  29
ENDBRANCH  27  28
ENDBRANCH  26  27
ENDBRANCH  25  26
ENDBRANCH   1  25
TORSDOF 17
ENDMDL
