MODEL 1
REMARK VINA RESULT:     -11.5      0.000      0.000
REMARK SMILES O=Cc1c(OCc2ccc(C(=O)OCCOCCOC(=O)c3ccc(-c4c5nc(c(-c6c(F)c(F)c(F)c(F)c6F)c6ccc([nH]6)c(-c6c(F)c(F)c(F)c(F)c6F)c6nc(c(-c7c(F)c(F)c(F)c(F)c7F)c7ccc4[nH]7)C=C6)C=C5)cc3)cc2)ccc2ccccc12
REMARK SMILES IDX 15 1 14 2 13 3 11 4 12 5 10 6 7 7 8 8 86 9 9 10 85 11 6 12
REMARK SMILES IDX 5 13 4 14 3 15 94 16 87 17 89 18 93 19 88 20 90 21 92 22
REMARK SMILES IDX 91 23 2 24 1 25 16 26 17 27 18 28 19 29 20 30 21 31 22 32
REMARK SMILES IDX 23 33 84 34 24 35 83 36 25 37 26 38 27 39 77 40 28 41 82 42
REMARK SMILES IDX 76 43 78 44 29 45 81 46 75 47 74 48 30 50 62 51 42 52 61 53
REMARK SMILES IDX 43 54 46 55 60 56 79 57 44 58 45 59 59 61 80 62 47 63 31 64
REMARK SMILES IDX 32 65 40 66 33 67 34 68 38 69 41 70 35 71 36 72 39 73 37 74
REMARK SMILES IDX 63 75 64 76 72 77 65 78 66 79 70 80 73 81 67 82 68 83 71 84
REMARK SMILES IDX 69 85 48 86 49 87 57 88 50 89 51 90 55 91 58 92 52 93 53 94
REMARK SMILES IDX 56 95 54 96
REMARK H PARENT 78 49 46 60
REMARK Flexibility Score: inf
ROOT
ATOM      1  C   UNL A   1      34.547  32.847  28.946  1.00  0.00     0.202 C 
ENDROOT
BRANCH   1   2
ATOM      2  C   UNL A   1      35.051  31.955  27.809  1.00  0.00     0.261 C 
BRANCH   2   3
ATOM      3  O   UNL A   1      34.124  30.898  27.508  1.00  0.00    -0.460 OA
BRANCH   3   4
ATOM      4  C   UNL A   1      34.633  29.652  27.676  1.00  0.00     0.338 C 
ATOM      5  O   UNL A   1      35.656  29.364  28.279  1.00  0.00    -0.246 OA
BRANCH   4   6
ATOM      6  C   UNL A   1      33.719  28.613  27.142  1.00  0.00     0.060 A 
ATOM      7  C   UNL A   1      31.840  26.682  26.311  1.00  0.00    -0.011 A 
ATOM      8  C   UNL A   1      31.461  27.741  27.146  1.00  0.00     0.008 A 
ATOM      9  C   UNL A   1      33.176  26.611  25.883  1.00  0.00     0.008 A 
ATOM     10  C   UNL A   1      32.383  28.705  27.541  1.00  0.00     0.016 A 
ATOM     11  C   UNL A   1      34.117  27.569  26.301  1.00  0.00     0.016 A 
BRANCH   7  12
ATOM     12  C   UNL A   1      30.825  25.620  25.924  1.00  0.00     0.265 C 
BRANCH  12  13
ATOM     13  O   UNL A   1      30.555  25.558  24.524  1.00  0.00    -0.488 OA
BRANCH  13  14
ATOM     14  C   UNL A   1      29.734  26.475  23.924  1.00  0.00     0.130 A 
ATOM     15  C   UNL A   1      30.341  27.473  23.136  1.00  0.00     0.064 A 
ATOM     16  C   UNL A   1      29.608  28.599  22.651  1.00  0.00    -0.004 A 
ATOM     17  C   UNL A   1      28.357  26.533  24.109  1.00  0.00     0.048 A 
ATOM     18  C   UNL A   1      28.233  28.680  22.975  1.00  0.00    -0.017 A 
ATOM     19  C   UNL A   1      30.144  29.650  21.863  1.00  0.00     0.009 A 
ATOM     20  C   UNL A   1      27.620  27.632  23.666  1.00  0.00     0.012 A 
ATOM     21  C   UNL A   1      27.472  29.797  22.595  1.00  0.00     0.009 A 
ATOM     22  C   UNL A   1      29.373  30.751  21.480  1.00  0.00     0.001 A 
ATOM     23  C   UNL A   1      28.041  30.834  21.863  1.00  0.00     0.001 A 
BRANCH  15  24
ATOM     24  C   UNL A   1      31.783  27.355  22.813  1.00  0.00     0.264 C 
ATOM     25  O   UNL A   1      32.199  26.877  21.764  1.00  0.00    -0.298 OA
ENDBRANCH  15  24
ENDBRANCH  13  14
ENDBRANCH  12  13
ENDBRANCH   7  12
ENDBRANCH   4   6
ENDBRANCH   3   4
ENDBRANCH   2   3
ENDBRANCH   1   2
BRANCH   1  26
ATOM     26  O   UNL A   1      33.406  33.654  28.668  1.00  0.00    -0.374 OA
BRANCH  26  27
ATOM     27  C   UNL A   1      33.610  35.065  28.563  1.00  0.00     0.202 C 
BRANCH  27  28
ATOM     28  C   UNL A   1      33.009  35.928  29.680  1.00  0.00     0.261 C 
BRANCH  28  29
ATOM     29  O   UNL A   1      32.557  35.128  30.791  1.00  0.00    -0.460 OA
BRANCH  29  30
ATOM     30  C   UNL A   1      32.801  35.652  32.014  1.00  0.00     0.338 C 
ATOM     31  O   UNL A   1      32.109  36.450  32.634  1.00  0.00    -0.246 OA
BRANCH  30  32
ATOM     32  C   UNL A   1      33.960  34.978  32.624  1.00  0.00     0.060 A 
ATOM     33  C   UNL A   1      35.201  35.629  32.557  1.00  0.00     0.016 A 
ATOM     34  C   UNL A   1      33.857  33.707  33.190  1.00  0.00     0.016 A 
ATOM     35  C   UNL A   1      36.351  34.990  33.016  1.00  0.00     0.010 A 
ATOM     36  C   UNL A   1      35.013  33.063  33.641  1.00  0.00     0.010 A 
ATOM     37  C   UNL A   1      36.268  33.687  33.525  1.00  0.00    -0.014 A 
BRANCH  37  38
ATOM     38  C   UNL A   1      37.512  32.928  33.799  1.00  0.00     0.031 A 
ATOM     39  C   UNL A   1      38.266  33.201  35.070  1.00  0.00     0.074 A 
ATOM     40  C   UNL A   1      37.953  31.995  32.938  1.00  0.00     0.049 A 
ATOM     41  N   UNL A   1      39.392  32.686  35.497  1.00  0.00    -0.248 NA
ATOM     42  C   UNL A   1      37.670  34.189  35.984  1.00  0.00     0.031 C 
ATOM     43  C   UNL A   1      37.289  31.616  31.693  1.00  0.00     0.029 A 
ATOM     44  N   UNL A   1      39.071  31.201  32.981  1.00  0.00    -0.354 N 
ATOM     45  C   UNL A   1      39.642  33.293  36.721  1.00  0.00     0.074 A 
ATOM     46  C   UNL A   1      38.568  34.233  36.958  1.00  0.00     0.031 C 
ATOM     47  C   UNL A   1      38.021  30.670  31.081  1.00  0.00     0.029 A 
ATOM     48  C   UNL A   1      39.218  30.400  31.877  1.00  0.00     0.049 A 
ATOM     49  H   UNL A   1      39.708  31.206  33.733  1.00  0.00     0.167 HD
ATOM     50  C   UNL A   1      40.671  33.077  37.574  1.00  0.00     0.037 A 
ATOM     51  C   UNL A   1      40.217  29.561  31.539  1.00  0.00     0.037 A 
ATOM     52  C   UNL A   1      41.738  32.140  37.339  1.00  0.00     0.049 A 
ATOM     53  C   UNL A   1      41.385  29.385  32.475  1.00  0.00     0.074 A 
ATOM     54  C   UNL A   1      42.814  31.832  38.153  1.00  0.00     0.029 A 
ATOM     55  N   UNL A   1      41.865  31.363  36.196  1.00  0.00    -0.354 N 
ATOM     56  N   UNL A   1      41.600  29.940  33.644  1.00  0.00    -0.248 NA
ATOM     57  C   UNL A   1      42.446  28.463  32.047  1.00  0.00     0.031 C 
ATOM     58  C   UNL A   1      43.620  30.907  37.481  1.00  0.00     0.029 A 
ATOM     59  C   UNL A   1      43.017  30.596  36.272  1.00  0.00     0.049 A 
ATOM     60  H   UNL A   1      41.232  31.358  35.442  1.00  0.00     0.167 HD
ATOM     61  C   UNL A   1      42.801  29.414  34.102  1.00  0.00     0.074 A 
ATOM     62  C   UNL A   1      43.264  28.488  33.090  1.00  0.00     0.031 C 
ATOM     63  C   UNL A   1      43.459  29.671  35.259  1.00  0.00     0.037 A 
BRANCH  50  64
ATOM     64  C   UNL A   1      40.707  33.892  38.835  1.00  0.00     0.064 A 
ATOM     65  C   UNL A   1      41.420  35.096  38.914  1.00  0.00     0.173 A 
ATOM     66  C   UNL A   1      39.993  33.474  39.968  1.00  0.00     0.173 A 
ATOM     67  F   UNL A   1      42.131  35.532  37.862  1.00  0.00    -0.203 F 
ATOM     68  C   UNL A   1      41.440  35.841  40.091  1.00  0.00     0.198 A 
ATOM     69  C   UNL A   1      39.992  34.235  41.134  1.00  0.00     0.198 A 
ATOM     70  F   UNL A   1      39.292  32.331  39.944  1.00  0.00    -0.203 F 
ATOM     71  F   UNL A   1      42.165  36.965  40.159  1.00  0.00    -0.200 F 
ATOM     72  C   UNL A   1      40.720  35.414  41.197  1.00  0.00     0.200 A 
ATOM     73  F   UNL A   1      39.287  33.827  42.198  1.00  0.00    -0.200 F 
ATOM     74  F   UNL A   1      40.735  36.134  42.327  1.00  0.00    -0.200 F 
ENDBRANCH  50  64
BRANCH  51  75
ATOM     75  C   UNL A   1      40.161  28.827  30.249  1.00  0.00     0.064 A 
ATOM     76  C   UNL A   1      40.716  29.371  29.082  1.00  0.00     0.173 A 
ATOM     77  C   UNL A   1      39.542  27.572  30.153  1.00  0.00     0.173 A 
ATOM     78  F   UNL A   1      41.296  30.579  29.117  1.00  0.00    -0.203 F 
ATOM     79  C   UNL A   1      40.641  28.693  27.867  1.00  0.00     0.198 A 
ATOM     80  C   UNL A   1      39.492  26.883  28.944  1.00  0.00     0.198 A 
ATOM     81  F   UNL A   1      38.992  27.010  31.240  1.00  0.00    -0.203 F 
ATOM     82  F   UNL A   1      41.143  29.254  26.758  1.00  0.00    -0.200 F 
ATOM     83  C   UNL A   1      40.035  27.448  27.800  1.00  0.00     0.200 A 
ATOM     84  F   UNL A   1      38.914  25.676  28.886  1.00  0.00    -0.200 F 
ATOM     85  F   UNL A   1      39.967  26.795  26.631  1.00  0.00    -0.200 F 
ENDBRANCH  51  75
BRANCH  63  86
ATOM     86  C   UNL A   1      44.731  28.915  35.514  1.00  0.00     0.064 A 
ATOM     87  C   UNL A   1      44.734  27.676  36.171  1.00  0.00     0.173 A 
ATOM     88  C   UNL A   1      45.958  29.418  35.052  1.00  0.00     0.173 A 
ATOM     89  F   UNL A   1      43.590  27.161  36.644  1.00  0.00    -0.203 F 
ATOM     90  C   UNL A   1      45.922  26.977  36.375  1.00  0.00     0.198 A 
ATOM     91  C   UNL A   1      47.139  28.703  35.232  1.00  0.00     0.198 A 
ATOM     92  F   UNL A   1      46.008  30.594  34.411  1.00  0.00    -0.203 F 
ATOM     93  F   UNL A   1      45.907  25.817  37.043  1.00  0.00    -0.200 F 
ATOM     94  C   UNL A   1      47.121  27.488  35.899  1.00  0.00     0.200 A 
ATOM     95  F   UNL A   1      48.294  29.190  34.759  1.00  0.00    -0.200 F 
ATOM     96  F   UNL A   1      48.261  26.809  36.090  1.00  0.00    -0.200 F 
ENDBRANCH  63  86
ENDBRANCH  37  38
ENDBRANCH  30  32
ENDBRANCH  29  30
ENDBRANCH  28  29
ENDBRANCH  27  28
ENDBRANCH  26  27
ENDBRANCH   1  26
TORSDOF 18
ENDMDL
MODEL 2
REMARK VINA RESULT:     -11.4      1.419      2.865
REMARK SMILES O=Cc1c(OCc2ccc(C(=O)OCCOCCOC(=O)c3ccc(-c4c5nc(c(-c6c(F)c(F)c(F)c(F)c6F)c6ccc([nH]6)c(-c6c(F)c(F)c(F)c(F)c6F)c6nc(c(-c7c(F)c(F)c(F)c(F)c7F)c7ccc4[nH]7)C=C6)C=C5)cc3)cc2)ccc2ccccc12
REMARK SMILES IDX 15 1 14 2 13 3 11 4 12 5 10 6 7 7 8 8 86 9 9 10 85 11 6 12
REMARK SMILES IDX 5 13 4 14 3 15 94 16 87 17 89 18 93 19 88 20 90 21 92 22
REMARK SMILES IDX 91 23 2 24 1 25 16 26 17 27 18 28 19 29 20 30 21 31 22 32
REMARK SMILES IDX 23 33 84 34 24 35 83 36 25 37 26 38 27 39 77 40 28 41 82 42
REMARK SMILES IDX 76 43 78 44 29 45 81 46 75 47 74 48 30 50 62 51 42 52 61 53
REMARK SMILES IDX 43 54 46 55 60 56 79 57 44 58 45 59 59 61 80 62 47 63 31 64
REMARK SMILES IDX 32 65 40 66 33 67 34 68 38 69 41 70 35 71 36 72 39 73 37 74
REMARK SMILES IDX 63 75 64 76 72 77 65 78 66 79 70 80 73 81 67 82 68 83 71 84
REMARK SMILES IDX 69 85 48 86 49 87 57 88 50 89 51 90 55 91 58 92 52 93 53 94
REMARK SMILES IDX 56 95 54 96
REMARK H PARENT 78 49 46 60
REMARK Flexibility Score: inf
ROOT
ATOM      1  C   UNL A   1      35.002  32.997  28.053  1.00  0.00     0.202 C 
ENDROOT
BRANCH   1   2
ATOM      2  C   UNL A   1      34.803  31.606  28.659  1.00  0.00     0.261 C 
BRANCH   2   3
ATOM      3  O   UNL A   1      33.870  30.821  27.899  1.00  0.00    -0.460 OA
BRANCH   3   4
ATOM      4  C   UNL A   1      34.434  29.783  27.232  1.00  0.00     0.338 C 
ATOM      5  O   UNL A   1      35.607  29.443  27.283  1.00  0.00    -0.246 OA
BRANCH   4   6
ATOM      6  C   UNL A   1      33.418  28.986  26.502  1.00  0.00     0.060 A 
ATOM      7  C   UNL A   1      31.426  27.375  25.323  1.00  0.00    -0.011 A 
ATOM      8  C   UNL A   1      31.373  27.703  26.684  1.00  0.00     0.008 A 
ATOM      9  C   UNL A   1      32.488  27.880  24.553  1.00  0.00     0.008 A 
ATOM     10  C   UNL A   1      32.344  28.514  27.262  1.00  0.00     0.016 A 
ATOM     11  C   UNL A   1      33.486  28.679  25.140  1.00  0.00     0.016 A 
BRANCH   7  12
ATOM     12  C   UNL A   1      30.376  26.457  24.722  1.00  0.00     0.265 C 
BRANCH  12  13
ATOM     13  O   UNL A   1      30.599  25.071  24.982  1.00  0.00    -0.488 OA
BRANCH  13  14
ATOM     14  C   UNL A   1      31.739  24.449  24.550  1.00  0.00     0.130 A 
ATOM     15  C   UNL A   1      32.673  24.053  25.528  1.00  0.00     0.064 A 
ATOM     16  C   UNL A   1      33.983  23.601  25.178  1.00  0.00    -0.004 A 
ATOM     17  C   UNL A   1      32.070  24.258  23.212  1.00  0.00     0.048 A 
ATOM     18  C   UNL A   1      34.317  23.547  23.804  1.00  0.00    -0.017 A 
ATOM     19  C   UNL A   1      34.984  23.195  26.098  1.00  0.00     0.009 A 
ATOM     20  C   UNL A   1      33.348  23.841  22.842  1.00  0.00     0.012 A 
ATOM     21  C   UNL A   1      35.610  23.185  23.395  1.00  0.00     0.009 A 
ATOM     22  C   UNL A   1      36.265  22.825  25.678  1.00  0.00     0.001 A 
ATOM     23  C   UNL A   1      36.584  22.839  24.327  1.00  0.00     0.001 A 
BRANCH  15  24
ATOM     24  C   UNL A   1      32.289  24.119  26.958  1.00  0.00     0.264 C 
ATOM     25  O   UNL A   1      31.438  23.394  27.459  1.00  0.00    -0.298 OA
ENDBRANCH  15  24
ENDBRANCH  13  14
ENDBRANCH  12  13
ENDBRANCH   7  12
ENDBRANCH   4   6
ENDBRANCH   3   4
ENDBRANCH   2   3
ENDBRANCH   1   2
BRANCH   1  26
ATOM     26  O   UNL A   1      33.879  33.873  28.081  1.00  0.00    -0.374 OA
BRANCH  26  27
ATOM     27  C   UNL A   1      34.108  35.223  28.494  1.00  0.00     0.202 C 
BRANCH  27  28
ATOM     28  C   UNL A   1      32.996  35.884  29.318  1.00  0.00     0.261 C 
BRANCH  28  29
ATOM     29  O   UNL A   1      32.579  35.053  30.420  1.00  0.00    -0.460 OA
BRANCH  29  30
ATOM     30  C   UNL A   1      32.780  35.582  31.649  1.00  0.00     0.338 C 
ATOM     31  O   UNL A   1      32.063  36.374  32.245  1.00  0.00    -0.246 OA
BRANCH  30  32
ATOM     32  C   UNL A   1      33.927  34.920  32.295  1.00  0.00     0.060 A 
ATOM     33  C   UNL A   1      35.178  35.547  32.201  1.00  0.00     0.016 A 
ATOM     34  C   UNL A   1      33.801  33.680  32.922  1.00  0.00     0.016 A 
ATOM     35  C   UNL A   1      36.316  34.913  32.695  1.00  0.00     0.010 A 
ATOM     36  C   UNL A   1      34.945  33.040  33.409  1.00  0.00     0.010 A 
ATOM     37  C   UNL A   1      36.211  33.638  33.267  1.00  0.00    -0.014 A 
BRANCH  37  38
ATOM     38  C   UNL A   1      37.442  32.874  33.583  1.00  0.00     0.031 A 
ATOM     39  C   UNL A   1      38.165  33.158  34.869  1.00  0.00     0.074 A 
ATOM     40  C   UNL A   1      37.896  31.925  32.746  1.00  0.00     0.049 A 
ATOM     41  N   UNL A   1      39.276  32.641  35.331  1.00  0.00    -0.248 NA
ATOM     42  C   UNL A   1      37.554  34.164  35.754  1.00  0.00     0.031 C 
ATOM     43  C   UNL A   1      37.261  31.534  31.491  1.00  0.00     0.029 A 
ATOM     44  N   UNL A   1      39.007  31.124  32.829  1.00  0.00    -0.354 N 
ATOM     45  C   UNL A   1      39.500  33.263  36.553  1.00  0.00     0.074 A 
ATOM     46  C   UNL A   1      38.427  34.214  36.750  1.00  0.00     0.031 C 
ATOM     47  C   UNL A   1      38.001  30.574  30.910  1.00  0.00     0.029 A 
ATOM     48  C   UNL A   1      39.176  30.306  31.739  1.00  0.00     0.049 A 
ATOM     49  H   UNL A   1      39.625  31.135  33.596  1.00  0.00     0.167 HD
ATOM     50  C   UNL A   1      40.505  33.051  37.435  1.00  0.00     0.037 A 
ATOM     51  C   UNL A   1      40.176  29.456  31.439  1.00  0.00     0.037 A 
ATOM     52  C   UNL A   1      41.570  32.103  37.239  1.00  0.00     0.049 A 
ATOM     53  C   UNL A   1      41.318  29.284  32.407  1.00  0.00     0.074 A 
ATOM     54  C   UNL A   1      42.623  31.798  38.084  1.00  0.00     0.029 A 
ATOM     55  N   UNL A   1      41.721  31.309  36.111  1.00  0.00    -0.354 N 
ATOM     56  N   UNL A   1      41.509  29.853  33.572  1.00  0.00    -0.248 NA
ATOM     57  C   UNL A   1      42.383  28.348  32.018  1.00  0.00     0.031 C 
ATOM     58  C   UNL A   1      43.438  30.858  37.446  1.00  0.00     0.029 A 
ATOM     59  C   UNL A   1      42.864  30.535  36.226  1.00  0.00     0.049 A 
ATOM     60  H   UNL A   1      41.107  31.299  35.341  1.00  0.00     0.167 HD
ATOM     61  C   UNL A   1      42.693  29.325  34.067  1.00  0.00     0.074 A 
ATOM     62  C   UNL A   1      43.175  28.381  33.081  1.00  0.00     0.031 C 
ATOM     63  C   UNL A   1      43.324  29.593  35.238  1.00  0.00     0.037 A 
BRANCH  50  64
ATOM     64  C   UNL A   1      40.516  33.883  38.685  1.00  0.00     0.064 A 
ATOM     65  C   UNL A   1      41.244  35.078  38.769  1.00  0.00     0.173 A 
ATOM     66  C   UNL A   1      39.763  33.492  39.802  1.00  0.00     0.173 A 
ATOM     67  F   UNL A   1      41.993  35.488  37.733  1.00  0.00    -0.203 F 
ATOM     68  C   UNL A   1      41.240  35.839  39.936  1.00  0.00     0.198 A 
ATOM     69  C   UNL A   1      39.738  34.269  40.956  1.00  0.00     0.198 A 
ATOM     70  F   UNL A   1      39.045  32.359  39.772  1.00  0.00    -0.203 F 
ATOM     71  F   UNL A   1      41.980  36.953  40.010  1.00  0.00    -0.200 F 
ATOM     72  C   UNL A   1      40.481  35.438  41.025  1.00  0.00     0.200 A 
ATOM     73  F   UNL A   1      38.995  33.886  42.004  1.00  0.00    -0.200 F 
ATOM     74  F   UNL A   1      40.473  36.173  42.145  1.00  0.00    -0.200 F 
ENDBRANCH  50  64
BRANCH  51  75
ATOM     75  C   UNL A   1      40.147  28.704  30.157  1.00  0.00     0.064 A 
ATOM     76  C   UNL A   1      40.724  29.233  28.995  1.00  0.00     0.173 A 
ATOM     77  C   UNL A   1      39.531  27.447  30.066  1.00  0.00     0.173 A 
ATOM     78  F   UNL A   1      41.302  30.443  29.025  1.00  0.00    -0.203 F 
ATOM     79  C   UNL A   1      40.675  28.540  27.788  1.00  0.00     0.198 A 
ATOM     80  C   UNL A   1      39.507  26.742  28.866  1.00  0.00     0.198 A 
ATOM     81  F   UNL A   1      38.962  26.898  31.150  1.00  0.00    -0.203 F 
ATOM     82  F   UNL A   1      41.197  29.086  26.682  1.00  0.00    -0.200 F 
ATOM     83  C   UNL A   1      40.072  27.292  27.725  1.00  0.00     0.200 A 
ATOM     84  F   UNL A   1      38.932  25.533  28.813  1.00  0.00    -0.200 F 
ATOM     85  F   UNL A   1      40.028  26.624  26.564  1.00  0.00    -0.200 F 
ENDBRANCH  51  75
BRANCH  63  86
ATOM     86  C   UNL A   1      44.583  28.831  35.535  1.00  0.00     0.064 A 
ATOM     87  C   UNL A   1      44.559  27.596  36.198  1.00  0.00     0.173 A 
ATOM     88  C   UNL A   1      45.827  29.324  35.107  1.00  0.00     0.173 A 
ATOM     89  F   UNL A   1      43.398  27.090  36.640  1.00  0.00    -0.203 F 
ATOM     90  C   UNL A   1      45.736  26.891  36.442  1.00  0.00     0.198 A 
ATOM     91  C   UNL A   1      46.997  28.603  35.327  1.00  0.00     0.198 A 
ATOM     92  F   UNL A   1      45.903  30.496  34.462  1.00  0.00    -0.203 F 
ATOM     93  F   UNL A   1      45.694  25.735  37.116  1.00  0.00    -0.200 F 
ATOM     94  C   UNL A   1      46.952  27.392  36.000  1.00  0.00     0.200 A 
ATOM     95  F   UNL A   1      48.169  29.081  34.886  1.00  0.00    -0.200 F 
ATOM     96  F   UNL A   1      48.081  26.708  36.228  1.00  0.00    -0.200 F 
ENDBRANCH  63  86
ENDBRANCH  37  38
ENDBRANCH  30  32
ENDBRANCH  29  30
ENDBRANCH  28  29
ENDBRANCH  27  28
ENDBRANCH  26  27
ENDBRANCH   1  26
TORSDOF 18
ENDMDL
MODEL 3
REMARK VINA RESULT:     -11.3      0.658      7.091
REMARK SMILES O=Cc1c(OCc2ccc(C(=O)OCCOCCOC(=O)c3ccc(-c4c5nc(c(-c6c(F)c(F)c(F)c(F)c6F)c6ccc([nH]6)c(-c6c(F)c(F)c(F)c(F)c6F)c6nc(c(-c7c(F)c(F)c(F)c(F)c7F)c7ccc4[nH]7)C=C6)C=C5)cc3)cc2)ccc2ccccc12
REMARK SMILES IDX 15 1 14 2 13 3 11 4 12 5 10 6 7 7 8 8 86 9 9 10 85 11 6 12
REMARK SMILES IDX 5 13 4 14 3 15 94 16 87 17 89 18 93 19 88 20 90 21 92 22
REMARK SMILES IDX 91 23 2 24 1 25 16 26 17 27 18 28 19 29 20 30 21 31 22 32
REMARK SMILES IDX 23 33 84 34 24 35 83 36 25 37 26 38 27 39 77 40 28 41 82 42
REMARK SMILES IDX 76 43 78 44 29 45 81 46 75 47 74 48 30 50 62 51 42 52 61 53
REMARK SMILES IDX 43 54 46 55 60 56 79 57 44 58 45 59 59 61 80 62 47 63 31 64
REMARK SMILES IDX 32 65 40 66 33 67 34 68 38 69 41 70 35 71 36 72 39 73 37 74
REMARK SMILES IDX 63 75 64 76 72 77 65 78 66 79 70 80 73 81 67 82 68 83 71 84
REMARK SMILES IDX 69 85 48 86 49 87 57 88 50 89 51 90 55 91 58 92 52 93 53 94
REMARK SMILES IDX 56 95 54 96
REMARK H PARENT 78 49 46 60
REMARK Flexibility Score: inf
ROOT
ATOM      1  C   UNL A   1      34.938  33.276  29.385  1.00  0.00     0.202 C 
ENDROOT
BRANCH   1   2
ATOM      2  C   UNL A   1      35.037  32.507  28.066  1.00  0.00     0.261 C 
BRANCH   2   3
ATOM      3  O   UNL A   1      34.476  31.189  28.172  1.00  0.00    -0.460 OA
BRANCH   3   4
ATOM      4  C   UNL A   1      33.298  31.034  27.516  1.00  0.00     0.338 C 
ATOM      5  O   UNL A   1      32.506  31.921  27.235  1.00  0.00    -0.246 OA
BRANCH   4   6
ATOM      6  C   UNL A   1      33.117  29.641  27.040  1.00  0.00     0.060 A 
ATOM      7  C   UNL A   1      32.589  26.976  26.284  1.00  0.00    -0.011 A 
ATOM      8  C   UNL A   1      31.588  27.774  26.853  1.00  0.00     0.008 A 
ATOM      9  C   UNL A   1      33.861  27.539  26.083  1.00  0.00     0.008 A 
ATOM     10  C   UNL A   1      31.842  29.095  27.208  1.00  0.00     0.016 A 
ATOM     11  C   UNL A   1      34.129  28.866  26.465  1.00  0.00     0.016 A 
BRANCH   7  12
ATOM     12  C   UNL A   1      32.300  25.526  25.940  1.00  0.00     0.265 C 
BRANCH  12  13
ATOM     13  O   UNL A   1      31.882  25.322  24.589  1.00  0.00    -0.488 OA
BRANCH  13  14
ATOM     14  C   UNL A   1      30.838  26.033  24.060  1.00  0.00     0.130 A 
ATOM     15  C   UNL A   1      31.153  27.137  23.244  1.00  0.00     0.064 A 
ATOM     16  C   UNL A   1      30.156  28.072  22.826  1.00  0.00    -0.004 A 
ATOM     17  C   UNL A   1      29.499  25.787  24.344  1.00  0.00     0.048 A 
ATOM     18  C   UNL A   1      28.824  27.849  23.248  1.00  0.00    -0.017 A 
ATOM     19  C   UNL A   1      30.390  29.212  22.014  1.00  0.00     0.009 A 
ATOM     20  C   UNL A   1      28.509  26.695  23.968  1.00  0.00     0.012 A 
ATOM     21  C   UNL A   1      27.811  28.769  22.937  1.00  0.00     0.009 A 
ATOM     22  C   UNL A   1      29.369  30.115  21.700  1.00  0.00     0.001 A 
ATOM     23  C   UNL A   1      28.083  29.903  22.178  1.00  0.00     0.001 A 
BRANCH  15  24
ATOM     24  C   UNL A   1      32.558  27.339  22.817  1.00  0.00     0.264 C 
ATOM     25  O   UNL A   1      33.025  26.853  21.794  1.00  0.00    -0.298 OA
ENDBRANCH  15  24
ENDBRANCH  13  14
ENDBRANCH  12  13
ENDBRANCH   7  12
ENDBRANCH   4   6
ENDBRANCH   3   4
ENDBRANCH   2   3
ENDBRANCH   1   2
BRANCH   1  26
ATOM     26  O   UNL A   1      33.645  33.748  29.754  1.00  0.00    -0.374 OA
BRANCH  26  27
ATOM     27  C   UNL A   1      33.230  35.009  29.223  1.00  0.00     0.202 C 
BRANCH  27  28
ATOM     28  C   UNL A   1      32.759  36.057  30.240  1.00  0.00     0.261 C 
BRANCH  28  29
ATOM     29  O   UNL A   1      32.326  35.451  31.473  1.00  0.00    -0.460 OA
BRANCH  29  30
ATOM     30  C   UNL A   1      33.021  35.823  32.573  1.00  0.00     0.338 C 
ATOM     31  O   UNL A   1      32.651  36.566  33.472  1.00  0.00    -0.246 OA
BRANCH  30  32
ATOM     32  C   UNL A   1      34.270  35.047  32.660  1.00  0.00     0.060 A 
ATOM     33  C   UNL A   1      34.202  33.765  33.225  1.00  0.00     0.016 A 
ATOM     34  C   UNL A   1      35.496  35.581  32.263  1.00  0.00     0.016 A 
ATOM     35  C   UNL A   1      35.367  33.031  33.436  1.00  0.00     0.010 A 
ATOM     36  C   UNL A   1      36.666  34.848  32.484  1.00  0.00     0.010 A 
ATOM     37  C   UNL A   1      36.610  33.585  33.102  1.00  0.00    -0.014 A 
BRANCH  37  38
ATOM     38  C   UNL A   1      37.855  32.904  33.532  1.00  0.00     0.031 A 
ATOM     39  C   UNL A   1      38.456  31.855  32.640  1.00  0.00     0.074 A 
ATOM     40  C   UNL A   1      38.453  33.230  34.691  1.00  0.00     0.049 A 
ATOM     41  N   UNL A   1      39.513  31.106  32.831  1.00  0.00    -0.248 NA
ATOM     42  C   UNL A   1      37.770  31.614  31.360  1.00  0.00     0.031 C 
ATOM     43  C   UNL A   1      37.987  34.256  35.620  1.00  0.00     0.029 A 
ATOM     44  N   UNL A   1      39.581  32.723  35.284  1.00  0.00    -0.354 N 
ATOM     45  C   UNL A   1      39.615  30.304  31.701  1.00  0.00     0.074 A 
ATOM     46  C   UNL A   1      38.498  30.635  30.843  1.00  0.00     0.031 C 
ATOM     47  C   UNL A   1      38.815  34.294  36.677  1.00  0.00     0.029 A 
ATOM     48  C   UNL A   1      39.851  33.275  36.511  1.00  0.00     0.049 A 
ATOM     49  H   UNL A   1      40.143  32.028  34.870  1.00  0.00     0.167 HD
ATOM     50  C   UNL A   1      40.560  29.381  31.404  1.00  0.00     0.037 A 
ATOM     51  C   UNL A   1      40.814  32.976  37.405  1.00  0.00     0.037 A 
ATOM     52  C   UNL A   1      41.672  29.055  32.259  1.00  0.00     0.049 A 
ATOM     53  C   UNL A   1      41.818  31.900  37.080  1.00  0.00     0.074 A 
ATOM     54  C   UNL A   1      42.696  28.151  32.037  1.00  0.00     0.029 A 
ATOM     55  N   UNL A   1      41.899  29.619  33.506  1.00  0.00    -0.354 N 
ATOM     56  N   UNL A   1      41.924  31.166  35.999  1.00  0.00    -0.248 NA
ATOM     57  C   UNL A   1      42.837  31.614  38.099  1.00  0.00     0.031 C 
ATOM     58  C   UNL A   1      43.515  28.131  33.171  1.00  0.00     0.029 A 
ATOM     59  C   UNL A   1      43.033  29.063  34.077  1.00  0.00     0.049 A 
ATOM     60  H   UNL A   1      41.338  30.311  33.924  1.00  0.00     0.167 HD
ATOM     61  C   UNL A   1      43.034  30.355  36.194  1.00  0.00     0.074 A 
ATOM     62  C   UNL A   1      43.575  30.694  37.494  1.00  0.00     0.031 C 
ATOM     63  C   UNL A   1      43.563  29.417  35.369  1.00  0.00     0.037 A 
BRANCH  50  64
ATOM     64  C   UNL A   1      40.417  28.636  30.109  1.00  0.00     0.064 A 
ATOM     65  C   UNL A   1      41.025  29.086  28.929  1.00  0.00     0.173 A 
ATOM     66  C   UNL A   1      39.686  27.440  30.057  1.00  0.00     0.173 A 
ATOM     67  F   UNL A   1      41.723  30.233  28.922  1.00  0.00    -0.203 F 
ATOM     68  C   UNL A   1      40.885  28.380  27.736  1.00  0.00     0.198 A 
ATOM     69  C   UNL A   1      39.571  26.722  28.870  1.00  0.00     0.198 A 
ATOM     70  F   UNL A   1      39.088  26.963  31.159  1.00  0.00    -0.203 F 
ATOM     71  F   UNL A   1      41.435  28.853  26.610  1.00  0.00    -0.200 F 
ATOM     72  C   UNL A   1      40.165  27.195  27.709  1.00  0.00     0.200 A 
ATOM     73  F   UNL A   1      38.884  25.571  28.849  1.00  0.00    -0.200 F 
ATOM     74  F   UNL A   1      40.034  26.514  26.563  1.00  0.00    -0.200 F 
ENDBRANCH  50  64
BRANCH  51  75
ATOM     75  C   UNL A   1      40.870  33.702  38.700  1.00  0.00     0.064 A 
ATOM     76  C   UNL A   1      41.767  34.760  38.897  1.00  0.00     0.173 A 
ATOM     77  C   UNL A   1      40.036  33.344  39.770  1.00  0.00     0.173 A 
ATOM     78  F   UNL A   1      42.603  35.123  37.913  1.00  0.00    -0.203 F 
ATOM     79  C   UNL A   1      41.837  35.425  40.120  1.00  0.00     0.198 A 
ATOM     80  C   UNL A   1      40.088  34.027  40.983  1.00  0.00     0.198 A 
ATOM     81  F   UNL A   1      39.163  32.336  39.633  1.00  0.00    -0.203 F 
ATOM     82  F   UNL A   1      42.733  36.406  40.296  1.00  0.00    -0.200 F 
ATOM     83  C   UNL A   1      40.994  35.062  41.159  1.00  0.00     0.200 A 
ATOM     84  F   UNL A   1      39.264  33.680  41.980  1.00  0.00    -0.200 F 
ATOM     85  F   UNL A   1      41.059  35.705  42.334  1.00  0.00    -0.200 F 
ENDBRANCH  51  75
BRANCH  63  86
ATOM     86  C   UNL A   1      44.809  28.716  35.826  1.00  0.00     0.064 A 
ATOM     87  C   UNL A   1      44.759  27.486  36.497  1.00  0.00     0.173 A 
ATOM     88  C   UNL A   1      46.072  29.262  35.545  1.00  0.00     0.173 A 
ATOM     89  F   UNL A   1      43.577  26.931  36.802  1.00  0.00    -0.203 F 
ATOM     90  C   UNL A   1      45.928  26.838  36.892  1.00  0.00     0.198 A 
ATOM     91  C   UNL A   1      47.238  28.598  35.915  1.00  0.00     0.198 A 
ATOM     92  F   UNL A   1      46.174  30.432  34.899  1.00  0.00    -0.203 F 
ATOM     93  F   UNL A   1      45.856  25.686  37.570  1.00  0.00    -0.200 F 
ATOM     94  C   UNL A   1      47.165  27.391  36.593  1.00  0.00     0.200 A 
ATOM     95  F   UNL A   1      48.432  29.125  35.613  1.00  0.00    -0.200 F 
ATOM     96  F   UNL A   1      48.288  26.761  36.966  1.00  0.00    -0.200 F 
ENDBRANCH  63  86
ENDBRANCH  37  38
ENDBRANCH  30  32
ENDBRANCH  29  30
ENDBRANCH  28  29
ENDBRANCH  27  28
ENDBRANCH  26  27
ENDBRANCH   1  26
TORSDOF 18
ENDMDL
