MODEL 1
REMARK VINA RESULT:     -12.3      0.000      0.000
REMARK SMILES Cc1nnc(-c2ccccc2-c2cc(NCC(=O)OCCOCCOC(=O)c3ccc(-c4c5nc(c(-c6c(F)c(F)c(F)c(F)c6F)c6ccc([nH]6)c(-c6c(F)c(F)c(F)c(F)c6F)c6nc(c(-c7c(F)c(F)c(F)c(F)c7F)c7ccc4[nH]7)C=C6)C=C5)cc3)nc3[nH]ccc23)o1
REMARK SMILES IDX 21 1 20 2 19 3 17 4 18 5 16 6 15 7 14 9 12 10 13 11 96 12
REMARK SMILES IDX 92 13 95 14 91 15 93 16 94 17 11 19 6 20 7 21 8 22 10 23
REMARK SMILES IDX 9 24 5 25 1 26 2 27 3 28 97 29 4 30 22 31 23 32 24 33 25 34
REMARK SMILES IDX 26 35 27 36 28 37 29 38 90 39 30 40 89 41 31 42 32 43 33 44
REMARK SMILES IDX 83 45 34 46 88 47 82 48 84 49 35 50 87 51 81 52 80 53 36 55
REMARK SMILES IDX 68 56 48 57 67 58 49 59 52 60 66 61 85 62 50 63 51 64 65 66
REMARK SMILES IDX 86 67 53 68 37 69 38 70 46 71 39 72 40 73 44 74 47 75 41 76
REMARK SMILES IDX 42 77 45 78 43 79 69 80 70 81 78 82 71 83 72 84 76 85 79 86
REMARK SMILES IDX 73 87 74 88 77 89 75 90 54 91 55 92 63 93 56 94 57 95 61 96
REMARK SMILES IDX 64 97 58 98 59 99 62 100 60 101
REMARK H PARENT 15 8 93 18 84 54 52 65
REMARK Flexibility Score: inf
ROOT
ATOM      1  C   UNL A   1      32.799  27.632  25.914  1.00  0.00     0.202 C 
ENDROOT
BRANCH   1   2
ATOM      2  C   UNL A   1      33.576  26.845  24.855  1.00  0.00     0.261 C 
BRANCH   2   3
ATOM      3  O   UNL A   1      33.990  27.674  23.760  1.00  0.00    -0.462 OA
BRANCH   3   4
ATOM      4  C   UNL A   1      33.176  27.644  22.668  1.00  0.00     0.325 C 
ATOM      5  O   UNL A   1      32.464  28.580  22.311  1.00  0.00    -0.250 OA
BRANCH   4   6
ATOM      6  C   UNL A   1      33.252  26.355  21.860  1.00  0.00     0.237 C 
BRANCH   6   7
ATOM      7  N   UNL A   1      32.035  25.529  21.821  1.00  0.00    -0.359 N 
ATOM      8  H   UNL A   1      31.400  25.600  21.073  1.00  0.00     0.162 HD
BRANCH   7   9
ATOM      9  C   UNL A   1      31.806  24.646  22.871  1.00  0.00     0.129 A 
ATOM     10  C   UNL A   1      32.247  22.476  23.930  1.00  0.00    -0.003 A 
ATOM     11  C   UNL A   1      32.465  23.407  22.889  1.00  0.00     0.056 A 
ATOM     12  C   UNL A   1      31.362  22.891  24.951  1.00  0.00     0.027 A 
ATOM     13  C   UNL A   1      30.790  24.148  24.827  1.00  0.00     0.140 A 
ATOM     14  C   UNL A   1      30.853  22.348  26.170  1.00  0.00     0.030 A 
ATOM     15  N   UNL A   1      30.969  25.037  23.845  1.00  0.00    -0.213 NA
ATOM     16  N   UNL A   1      29.972  24.364  25.899  1.00  0.00    -0.346 N 
ATOM     17  C   UNL A   1      29.994  23.274  26.726  1.00  0.00     0.085 A 
ATOM     18  H   UNL A   1      29.444  25.181  26.054  1.00  0.00     0.167 HD
BRANCH  10  19
ATOM     19  C   UNL A   1      32.855  21.129  23.996  1.00  0.00    -0.005 A 
ATOM     20  C   UNL A   1      34.090  20.850  24.617  1.00  0.00     0.047 A 
ATOM     21  C   UNL A   1      34.546  19.519  24.734  1.00  0.00     0.014 A 
ATOM     22  C   UNL A   1      33.811  18.458  24.220  1.00  0.00     0.001 A 
ATOM     23  C   UNL A   1      32.152  20.031  23.448  1.00  0.00     0.009 A 
ATOM     24  C   UNL A   1      32.618  18.716  23.561  1.00  0.00     0.001 A 
BRANCH  20  25
ATOM     25  C   UNL A   1      34.959  21.870  25.159  1.00  0.00     0.248 A 
ATOM     26  C   UNL A   1      38.319  22.712  25.777  1.00  0.00     0.113 C 
ATOM     27  C   UNL A   1      36.849  22.629  25.740  1.00  0.00     0.213 A 
ATOM     28  N   UNL A   1      35.947  23.352  26.369  1.00  0.00    -0.113 NA
ATOM     29  O   UNL A   1      36.299  21.662  24.953  1.00  0.00    -0.421 OA
ATOM     30  N   UNL A   1      34.717  22.870  25.978  1.00  0.00    -0.108 NA
ENDBRANCH  20  25
ENDBRANCH  10  19
ENDBRANCH   7   9
ENDBRANCH   6   7
ENDBRANCH   4   6
ENDBRANCH   3   4
ENDBRANCH   2   3
ENDBRANCH   1   2
BRANCH   1  31
ATOM     31  O   UNL A   1      31.539  28.188  25.542  1.00  0.00    -0.374 OA
BRANCH  31  32
ATOM     32  C   UNL A   1      31.405  29.607  25.502  1.00  0.00     0.202 C 
BRANCH  32  33
ATOM     33  C   UNL A   1      32.623  30.460  25.876  1.00  0.00     0.261 C 
BRANCH  33  34
ATOM     34  O   UNL A   1      32.645  30.830  27.260  1.00  0.00    -0.460 OA
BRANCH  34  35
ATOM     35  C   UNL A   1      33.470  31.862  27.558  1.00  0.00     0.338 C 
ATOM     36  O   UNL A   1      33.163  33.046  27.619  1.00  0.00    -0.246 OA
BRANCH  35  37
ATOM     37  C   UNL A   1      34.830  31.378  27.886  1.00  0.00     0.060 A 
ATOM     38  C   UNL A   1      35.006  30.012  28.133  1.00  0.00     0.016 A 
ATOM     39  C   UNL A   1      35.912  32.249  28.015  1.00  0.00     0.016 A 
ATOM     40  C   UNL A   1      36.217  29.547  28.639  1.00  0.00     0.010 A 
ATOM     41  C   UNL A   1      37.111  31.797  28.563  1.00  0.00     0.010 A 
ATOM     42  C   UNL A   1      37.247  30.452  28.925  1.00  0.00    -0.014 A 
BRANCH  42  43
ATOM     43  C   UNL A   1      38.442  29.997  29.660  1.00  0.00     0.031 A 
ATOM     44  C   UNL A   1      38.703  30.508  31.046  1.00  0.00     0.074 A 
ATOM     45  C   UNL A   1      39.289  29.138  29.074  1.00  0.00     0.049 A 
ATOM     46  N   UNL A   1      39.599  30.120  31.918  1.00  0.00    -0.248 NA
ATOM     47  C   UNL A   1      37.844  31.607  31.513  1.00  0.00     0.031 C 
ATOM     48  C   UNL A   1      39.156  28.631  27.710  1.00  0.00     0.029 A 
ATOM     49  N   UNL A   1      40.426  28.545  29.552  1.00  0.00    -0.354 N 
ATOM     50  C   UNL A   1      39.391  30.900  33.047  1.00  0.00     0.074 A 
ATOM     51  C   UNL A   1      38.321  31.824  32.731  1.00  0.00     0.031 C 
ATOM     52  C   UNL A   1      40.175  27.794  27.459  1.00  0.00     0.029 A 
ATOM     53  C   UNL A   1      41.021  27.706  28.647  1.00  0.00     0.049 A 
ATOM     54  H   UNL A   1      40.780  28.706  30.457  1.00  0.00     0.167 HD
ATOM     55  C   UNL A   1      40.025  30.831  34.242  1.00  0.00     0.037 A 
ATOM     56  C   UNL A   1      42.119  26.939  28.779  1.00  0.00     0.037 A 
ATOM     57  C   UNL A   1      41.125  29.940  34.516  1.00  0.00     0.049 A 
ATOM     58  C   UNL A   1      42.828  26.901  30.105  1.00  0.00     0.074 A 
ATOM     59  C   UNL A   1      41.817  29.751  35.699  1.00  0.00     0.029 A 
ATOM     60  N   UNL A   1      41.713  29.105  33.573  1.00  0.00    -0.354 N 
ATOM     61  N   UNL A   1      42.545  27.538  31.217  1.00  0.00    -0.248 NA
ATOM     62  C   UNL A   1      43.994  26.014  30.201  1.00  0.00     0.031 C 
ATOM     63  C   UNL A   1      42.860  28.850  35.458  1.00  0.00     0.029 A 
ATOM     64  C   UNL A   1      42.779  28.423  34.140  1.00  0.00     0.049 A 
ATOM     65  H   UNL A   1      41.417  29.011  32.639  1.00  0.00     0.167 HD
ATOM     66  C   UNL A   1      43.472  27.102  32.154  1.00  0.00     0.074 A 
ATOM     67  C   UNL A   1      44.317  26.136  31.481  1.00  0.00     0.031 C 
ATOM     68  C   UNL A   1      43.609  27.464  33.455  1.00  0.00     0.037 A 
BRANCH  55  69
ATOM     69  C   UNL A   1      39.549  31.741  35.341  1.00  0.00     0.064 A 
ATOM     70  C   UNL A   1      40.037  33.052  35.470  1.00  0.00     0.173 A 
ATOM     71  C   UNL A   1      38.562  31.323  36.247  1.00  0.00     0.173 A 
ATOM     72  F   UNL A   1      40.985  33.505  34.634  1.00  0.00    -0.203 F 
ATOM     73  C   UNL A   1      39.580  33.896  36.479  1.00  0.00     0.198 A 
ATOM     74  C   UNL A   1      38.082  32.181  37.236  1.00  0.00     0.198 A 
ATOM     75  F   UNL A   1      38.049  30.086  36.168  1.00  0.00    -0.203 F 
ATOM     76  F   UNL A   1      40.098  35.125  36.609  1.00  0.00    -0.200 F 
ATOM     77  C   UNL A   1      38.597  33.463  37.357  1.00  0.00     0.200 A 
ATOM     78  F   UNL A   1      37.121  31.767  38.072  1.00  0.00    -0.200 F 
ATOM     79  F   UNL A   1      38.152  34.278  38.322  1.00  0.00    -0.200 F 
ENDBRANCH  55  69
BRANCH  56  80
ATOM     80  C   UNL A   1      42.556  26.092  27.642  1.00  0.00     0.064 A 
ATOM     81  C   UNL A   1      41.975  24.836  27.419  1.00  0.00     0.173 A 
ATOM     82  C   UNL A   1      43.542  26.526  26.745  1.00  0.00     0.173 A 
ATOM     83  F   UNL A   1      41.037  24.374  28.258  1.00  0.00    -0.203 F 
ATOM     84  C   UNL A   1      42.378  24.037  26.352  1.00  0.00     0.198 A 
ATOM     85  C   UNL A   1      43.924  25.738  25.661  1.00  0.00     0.198 A 
ATOM     86  F   UNL A   1      44.121  27.725  26.909  1.00  0.00    -0.203 F 
ATOM     87  F   UNL A   1      41.836  22.823  26.185  1.00  0.00    -0.200 F 
ATOM     88  C   UNL A   1      43.348  24.491  25.471  1.00  0.00     0.200 A 
ATOM     89  F   UNL A   1      44.848  26.187  24.801  1.00  0.00    -0.200 F 
ATOM     90  F   UNL A   1      43.729  23.725  24.440  1.00  0.00    -0.200 F 
ENDBRANCH  56  80
BRANCH  68  91
ATOM     91  C   UNL A   1      44.689  26.781  34.246  1.00  0.00     0.064 A 
ATOM     92  C   UNL A   1      44.459  25.577  34.929  1.00  0.00     0.173 A 
ATOM     93  C   UNL A   1      45.980  27.329  34.301  1.00  0.00     0.173 A 
ATOM     94  F   UNL A   1      43.239  25.018  34.920  1.00  0.00    -0.203 F 
ATOM     95  C   UNL A   1      45.471  24.967  35.666  1.00  0.00     0.198 A 
ATOM     96  C   UNL A   1      46.999  26.697  35.008  1.00  0.00     0.198 A 
ATOM     97  F   UNL A   1      46.258  28.474  33.660  1.00  0.00    -0.203 F 
ATOM     98  F   UNL A   1      45.211  23.850  36.359  1.00  0.00    -0.200 F 
ATOM     99  C   UNL A   1      46.741  25.523  35.699  1.00  0.00     0.200 A 
ATOM    100  F   UNL A   1      48.230  27.227  35.025  1.00  0.00    -0.200 F 
ATOM    101  F   UNL A   1      47.716  24.932  36.404  1.00  0.00    -0.200 F 
ENDBRANCH  68  91
ENDBRANCH  42  43
ENDBRANCH  35  37
ENDBRANCH  34  35
ENDBRANCH  33  34
ENDBRANCH  32  33
ENDBRANCH  31  32
ENDBRANCH   1  31
TORSDOF 18
ENDMDL
MODEL 2
REMARK VINA RESULT:     -12.3      0.925      2.581
REMARK SMILES Cc1nnc(-c2ccccc2-c2cc(NCC(=O)OCCOCCOC(=O)c3ccc(-c4c5nc(c(-c6c(F)c(F)c(F)c(F)c6F)c6ccc([nH]6)c(-c6c(F)c(F)c(F)c(F)c6F)c6nc(c(-c7c(F)c(F)c(F)c(F)c7F)c7ccc4[nH]7)C=C6)C=C5)cc3)nc3[nH]ccc23)o1
REMARK SMILES IDX 21 1 20 2 19 3 17 4 18 5 16 6 15 7 14 9 12 10 13 11 96 12
REMARK SMILES IDX 92 13 95 14 91 15 93 16 94 17 11 19 6 20 7 21 8 22 10 23
REMARK SMILES IDX 9 24 5 25 1 26 2 27 3 28 97 29 4 30 22 31 23 32 24 33 25 34
REMARK SMILES IDX 26 35 27 36 28 37 29 38 90 39 30 40 89 41 31 42 32 43 33 44
REMARK SMILES IDX 83 45 34 46 88 47 82 48 84 49 35 50 87 51 81 52 80 53 36 55
REMARK SMILES IDX 68 56 48 57 67 58 49 59 52 60 66 61 85 62 50 63 51 64 65 66
REMARK SMILES IDX 86 67 53 68 37 69 38 70 46 71 39 72 40 73 44 74 47 75 41 76
REMARK SMILES IDX 42 77 45 78 43 79 69 80 70 81 78 82 71 83 72 84 76 85 79 86
REMARK SMILES IDX 73 87 74 88 77 89 75 90 54 91 55 92 63 93 56 94 57 95 61 96
REMARK SMILES IDX 64 97 58 98 59 99 62 100 60 101
REMARK H PARENT 15 8 93 18 84 54 52 65
REMARK Flexibility Score: inf
ROOT
ATOM      1  C   UNL A   1      33.357  28.218  24.811  1.00  0.00     0.202 C 
ENDROOT
BRANCH   1   2
ATOM      2  C   UNL A   1      33.802  27.521  23.523  1.00  0.00     0.261 C 
BRANCH   2   3
ATOM      3  O   UNL A   1      33.088  28.000  22.374  1.00  0.00    -0.462 OA
BRANCH   3   4
ATOM      4  C   UNL A   1      32.021  27.242  21.997  1.00  0.00     0.325 C 
ATOM      5  O   UNL A   1      30.850  27.532  22.232  1.00  0.00    -0.250 OA
BRANCH   4   6
ATOM      6  C   UNL A   1      32.381  26.003  21.187  1.00  0.00     0.237 C 
BRANCH   6   7
ATOM      7  N   UNL A   1      31.746  24.741  21.595  1.00  0.00    -0.359 N 
ATOM      8  H   UNL A   1      31.184  24.231  20.968  1.00  0.00     0.162 HD
BRANCH   7   9
ATOM      9  C   UNL A   1      31.959  24.287  22.893  1.00  0.00     0.129 A 
ATOM     10  C   UNL A   1      33.498  23.391  24.582  1.00  0.00    -0.003 A 
ATOM     11  C   UNL A   1      33.243  23.874  23.278  1.00  0.00     0.056 A 
ATOM     12  C   UNL A   1      32.393  23.391  25.464  1.00  0.00     0.027 A 
ATOM     13  C   UNL A   1      31.181  23.844  24.966  1.00  0.00     0.140 A 
ATOM     14  C   UNL A   1      32.150  23.036  26.825  1.00  0.00     0.030 A 
ATOM     15  N   UNL A   1      30.914  24.289  23.734  1.00  0.00    -0.213 NA
ATOM     16  N   UNL A   1      30.245  23.766  25.959  1.00  0.00    -0.346 N 
ATOM     17  C   UNL A   1      30.818  23.270  27.098  1.00  0.00     0.085 A 
ATOM     18  H   UNL A   1      29.299  24.026  25.867  1.00  0.00     0.167 HD
BRANCH  10  19
ATOM     19  C   UNL A   1      34.806  22.883  25.051  1.00  0.00    -0.005 A 
ATOM     20  C   UNL A   1      35.099  21.517  25.242  1.00  0.00     0.047 A 
ATOM     21  C   UNL A   1      36.406  21.109  25.585  1.00  0.00     0.014 A 
ATOM     22  C   UNL A   1      37.425  22.035  25.771  1.00  0.00     0.001 A 
ATOM     23  C   UNL A   1      35.854  23.802  25.287  1.00  0.00     0.009 A 
ATOM     24  C   UNL A   1      37.144  23.387  25.637  1.00  0.00     0.001 A 
BRANCH  20  25
ATOM     25  C   UNL A   1      34.118  20.464  25.111  1.00  0.00     0.248 A 
ATOM     26  C   UNL A   1      32.201  18.631  22.800  1.00  0.00     0.113 C 
ATOM     27  C   UNL A   1      32.777  19.257  24.001  1.00  0.00     0.213 A 
ATOM     28  N   UNL A   1      32.403  19.170  25.260  1.00  0.00    -0.113 NA
ATOM     29  O   UNL A   1      33.860  20.066  23.824  1.00  0.00    -0.421 OA
ATOM     30  N   UNL A   1      33.285  19.942  25.985  1.00  0.00    -0.108 NA
ENDBRANCH  20  25
ENDBRANCH  10  19
ENDBRANCH   7   9
ENDBRANCH   6   7
ENDBRANCH   4   6
ENDBRANCH   3   4
ENDBRANCH   2   3
ENDBRANCH   1   2
BRANCH   1  31
ATOM     31  O   UNL A   1      32.848  29.547  24.711  1.00  0.00    -0.374 OA
BRANCH  31  32
ATOM     32  C   UNL A   1      31.706  29.900  25.487  1.00  0.00     0.202 C 
BRANCH  32  33
ATOM     33  C   UNL A   1      31.746  31.211  26.280  1.00  0.00     0.261 C 
BRANCH  33  34
ATOM     34  O   UNL A   1      32.555  31.128  27.460  1.00  0.00    -0.460 OA
BRANCH  34  35
ATOM     35  C   UNL A   1      33.410  32.165  27.634  1.00  0.00     0.338 C 
ATOM     36  O   UNL A   1      33.127  33.356  27.601  1.00  0.00    -0.246 OA
BRANCH  35  37
ATOM     37  C   UNL A   1      34.772  31.681  27.954  1.00  0.00     0.060 A 
ATOM     38  C   UNL A   1      34.953  30.313  28.181  1.00  0.00     0.016 A 
ATOM     39  C   UNL A   1      35.850  32.556  28.094  1.00  0.00     0.016 A 
ATOM     40  C   UNL A   1      36.167  29.845  28.680  1.00  0.00     0.010 A 
ATOM     41  C   UNL A   1      37.052  32.100  28.635  1.00  0.00     0.010 A 
ATOM     42  C   UNL A   1      37.194  30.751  28.977  1.00  0.00    -0.014 A 
BRANCH  42  43
ATOM     43  C   UNL A   1      38.391  30.290  29.705  1.00  0.00     0.031 A 
ATOM     44  C   UNL A   1      38.646  30.773  31.102  1.00  0.00     0.074 A 
ATOM     45  C   UNL A   1      39.247  29.451  29.102  1.00  0.00     0.049 A 
ATOM     46  N   UNL A   1      39.543  30.374  31.967  1.00  0.00    -0.248 NA
ATOM     47  C   UNL A   1      37.776  31.854  31.591  1.00  0.00     0.031 C 
ATOM     48  C   UNL A   1      39.120  28.973  27.727  1.00  0.00     0.029 A 
ATOM     49  N   UNL A   1      40.388  28.858  29.569  1.00  0.00    -0.354 N 
ATOM     50  C   UNL A   1      39.326  31.128  33.112  1.00  0.00     0.074 A 
ATOM     51  C   UNL A   1      38.250  32.050  32.814  1.00  0.00     0.031 C 
ATOM     52  C   UNL A   1      40.147  28.150  27.460  1.00  0.00     0.029 A 
ATOM     53  C   UNL A   1      40.992  28.044  28.648  1.00  0.00     0.049 A 
ATOM     54  H   UNL A   1      40.739  29.003  30.478  1.00  0.00     0.167 HD
ATOM     55  C   UNL A   1      39.959  31.039  34.307  1.00  0.00     0.037 A 
ATOM     56  C   UNL A   1      42.096  27.283  28.765  1.00  0.00     0.037 A 
ATOM     57  C   UNL A   1      41.066  30.151  34.563  1.00  0.00     0.049 A 
ATOM     58  C   UNL A   1      42.803  27.223  30.091  1.00  0.00     0.074 A 
ATOM     59  C   UNL A   1      41.757  29.943  35.743  1.00  0.00     0.029 A 
ATOM     60  N   UNL A   1      41.663  29.342  33.604  1.00  0.00    -0.354 N 
ATOM     61  N   UNL A   1      42.513  27.833  31.216  1.00  0.00    -0.248 NA
ATOM     62  C   UNL A   1      43.976  26.344  30.171  1.00  0.00     0.031 C 
ATOM     63  C   UNL A   1      42.808  29.056  35.485  1.00  0.00     0.029 A 
ATOM     64  C   UNL A   1      42.733  28.657  34.158  1.00  0.00     0.049 A 
ATOM     65  H   UNL A   1      41.369  29.265  32.668  1.00  0.00     0.167 HD
ATOM     66  C   UNL A   1      43.442  27.385  32.145  1.00  0.00     0.074 A 
ATOM     67  C   UNL A   1      44.296  26.441  31.453  1.00  0.00     0.031 C 
ATOM     68  C   UNL A   1      43.573  27.720  33.454  1.00  0.00     0.037 A 
BRANCH  55  69
ATOM     69  C   UNL A   1      39.473  31.921  35.424  1.00  0.00     0.064 A 
ATOM     70  C   UNL A   1      38.529  31.464  36.359  1.00  0.00     0.173 A 
ATOM     71  C   UNL A   1      39.986  33.215  35.598  1.00  0.00     0.173 A 
ATOM     72  F   UNL A   1      38.001  30.235  36.241  1.00  0.00    -0.203 F 
ATOM     73  C   UNL A   1      38.095  32.279  37.402  1.00  0.00     0.198 A 
ATOM     74  C   UNL A   1      39.574  34.016  36.661  1.00  0.00     0.198 A 
ATOM     75  F   UNL A   1      40.898  33.703  34.743  1.00  0.00    -0.203 F 
ATOM     76  F   UNL A   1      37.157  31.836  38.251  1.00  0.00    -0.200 F 
ATOM     77  C   UNL A   1      38.623  33.551  37.558  1.00  0.00     0.200 A 
ATOM     78  F   UNL A   1      40.097  35.240  36.820  1.00  0.00    -0.200 F 
ATOM     79  F   UNL A   1      38.211  34.331  38.566  1.00  0.00    -0.200 F 
ENDBRANCH  55  69
BRANCH  56  80
ATOM     80  C   UNL A   1      42.542  26.465  27.611  1.00  0.00     0.064 A 
ATOM     81  C   UNL A   1      43.540  26.932  26.745  1.00  0.00     0.173 A 
ATOM     82  C   UNL A   1      42.003  25.194  27.365  1.00  0.00     0.173 A 
ATOM     83  F   UNL A   1      44.077  28.146  26.934  1.00  0.00    -0.203 F 
ATOM     84  C   UNL A   1      43.967  26.167  25.662  1.00  0.00     0.198 A 
ATOM     85  C   UNL A   1      42.452  24.418  26.299  1.00  0.00     0.198 A 
ATOM     86  F   UNL A   1      41.054  24.698  28.173  1.00  0.00    -0.203 F 
ATOM     87  F   UNL A   1      44.893  26.654  24.825  1.00  0.00    -0.200 F 
ATOM     88  C   UNL A   1      43.427  24.908  25.444  1.00  0.00     0.200 A 
ATOM     89  F   UNL A   1      41.941  23.195  26.101  1.00  0.00    -0.200 F 
ATOM     90  F   UNL A   1      43.845  24.170  24.406  1.00  0.00    -0.200 F 
ENDBRANCH  56  80
BRANCH  68  91
ATOM     91  C   UNL A   1      44.657  27.029  34.232  1.00  0.00     0.064 A 
ATOM     92  C   UNL A   1      45.928  27.601  34.401  1.00  0.00     0.173 A 
ATOM     93  C   UNL A   1      44.412  25.787  34.837  1.00  0.00     0.173 A 
ATOM     94  F   UNL A   1      46.219  28.779  33.831  1.00  0.00    -0.203 F 
ATOM     95  C   UNL A   1      46.922  26.937  35.115  1.00  0.00     0.198 A 
ATOM     96  C   UNL A   1      45.397  25.144  35.582  1.00  0.00     0.198 A 
ATOM     97  F   UNL A   1      43.213  25.198  34.715  1.00  0.00    -0.203 F 
ATOM     98  F   UNL A   1      48.146  27.475  35.212  1.00  0.00    -0.200 F 
ATOM     99  C   UNL A   1      46.654  25.714  35.712  1.00  0.00     0.200 A 
ATOM    100  F   UNL A   1      45.131  23.970  36.171  1.00  0.00    -0.200 F 
ATOM    101  F   UNL A   1      47.610  25.080  36.404  1.00  0.00    -0.200 F 
ENDBRANCH  68  91
ENDBRANCH  42  43
ENDBRANCH  35  37
ENDBRANCH  34  35
ENDBRANCH  33  34
ENDBRANCH  32  33
ENDBRANCH  31  32
ENDBRANCH   1  31
TORSDOF 18
ENDMDL
MODEL 3
REMARK VINA RESULT:     -12.3      4.759      9.186
REMARK SMILES Cc1nnc(-c2ccccc2-c2cc(NCC(=O)OCCOCCOC(=O)c3ccc(-c4c5nc(c(-c6c(F)c(F)c(F)c(F)c6F)c6ccc([nH]6)c(-c6c(F)c(F)c(F)c(F)c6F)c6nc(c(-c7c(F)c(F)c(F)c(F)c7F)c7ccc4[nH]7)C=C6)C=C5)cc3)nc3[nH]ccc23)o1
REMARK SMILES IDX 21 1 20 2 19 3 17 4 18 5 16 6 15 7 14 9 12 10 13 11 96 12
REMARK SMILES IDX 92 13 95 14 91 15 93 16 94 17 11 19 6 20 7 21 8 22 10 23
REMARK SMILES IDX 9 24 5 25 1 26 2 27 3 28 97 29 4 30 22 31 23 32 24 33 25 34
REMARK SMILES IDX 26 35 27 36 28 37 29 38 90 39 30 40 89 41 31 42 32 43 33 44
REMARK SMILES IDX 83 45 34 46 88 47 82 48 84 49 35 50 87 51 81 52 80 53 36 55
REMARK SMILES IDX 68 56 48 57 67 58 49 59 52 60 66 61 85 62 50 63 51 64 65 66
REMARK SMILES IDX 86 67 53 68 37 69 38 70 46 71 39 72 40 73 44 74 47 75 41 76
REMARK SMILES IDX 42 77 45 78 43 79 69 80 70 81 78 82 71 83 72 84 76 85 79 86
REMARK SMILES IDX 73 87 74 88 77 89 75 90 54 91 55 92 63 93 56 94 57 95 61 96
REMARK SMILES IDX 64 97 58 98 59 99 62 100 60 101
REMARK H PARENT 15 8 93 18 84 54 52 65
REMARK Flexibility Score: inf
ROOT
ATOM      1  C   UNL A   1      33.440  35.432  28.815  1.00  0.00     0.202 C 
ENDROOT
BRANCH   1   2
ATOM      2  C   UNL A   1      32.913  36.290  29.967  1.00  0.00     0.261 C 
BRANCH   2   3
ATOM      3  O   UNL A   1      32.513  35.496  31.094  1.00  0.00    -0.462 OA
BRANCH   3   4
ATOM      4  C   UNL A   1      32.826  36.019  32.312  1.00  0.00     0.325 C 
ATOM      5  O   UNL A   1      32.132  36.836  32.913  1.00  0.00    -0.250 OA
BRANCH   4   6
ATOM      6  C   UNL A   1      34.103  35.461  32.928  1.00  0.00     0.237 C 
BRANCH   6   7
ATOM      7  N   UNL A   1      34.024  34.106  33.496  1.00  0.00    -0.359 N 
ATOM      8  H   UNL A   1      33.155  33.661  33.621  1.00  0.00     0.162 HD
BRANCH   7   9
ATOM      9  C   UNL A   1      35.209  33.472  33.853  1.00  0.00     0.129 A 
ATOM     10  C   UNL A   1      37.241  33.430  35.228  1.00  0.00    -0.003 A 
ATOM     11  C   UNL A   1      36.022  34.035  34.848  1.00  0.00     0.056 A 
ATOM     12  C   UNL A   1      37.558  32.219  34.570  1.00  0.00     0.027 A 
ATOM     13  C   UNL A   1      36.661  31.757  33.619  1.00  0.00     0.140 A 
ATOM     14  C   UNL A   1      38.614  31.259  34.611  1.00  0.00     0.030 A 
ATOM     15  N   UNL A   1      35.511  32.320  33.234  1.00  0.00    -0.213 NA
ATOM     16  N   UNL A   1      37.138  30.587  33.100  1.00  0.00    -0.346 N 
ATOM     17  C   UNL A   1      38.332  30.271  33.690  1.00  0.00     0.085 A 
ATOM     18  H   UNL A   1      36.692  30.052  32.404  1.00  0.00     0.167 HD
BRANCH  10  19
ATOM     19  C   UNL A   1      38.183  33.985  36.224  1.00  0.00    -0.005 A 
ATOM     20  C   UNL A   1      38.332  33.485  37.534  1.00  0.00     0.047 A 
ATOM     21  C   UNL A   1      39.333  34.000  38.386  1.00  0.00     0.014 A 
ATOM     22  C   UNL A   1      40.174  35.025  37.971  1.00  0.00     0.001 A 
ATOM     23  C   UNL A   1      39.028  35.055  35.848  1.00  0.00     0.009 A 
ATOM     24  C   UNL A   1      40.011  35.565  36.704  1.00  0.00     0.001 A 
BRANCH  20  25
ATOM     25  C   UNL A   1      37.496  32.446  38.091  1.00  0.00     0.248 A 
ATOM     26  C   UNL A   1      35.506  31.570  40.857  1.00  0.00     0.113 C 
ATOM     27  C   UNL A   1      36.315  31.590  39.627  1.00  0.00     0.213 A 
ATOM     28  N   UNL A   1      36.655  30.604  38.825  1.00  0.00    -0.113 NA
ATOM     29  O   UNL A   1      36.816  32.794  39.230  1.00  0.00    -0.421 OA
ATOM     30  N   UNL A   1      37.409  31.163  37.815  1.00  0.00    -0.108 NA
ENDBRANCH  20  25
ENDBRANCH  10  19
ENDBRANCH   7   9
ENDBRANCH   6   7
ENDBRANCH   4   6
ENDBRANCH   3   4
ENDBRANCH   2   3
ENDBRANCH   1   2
BRANCH   1  31
ATOM     31  O   UNL A   1      34.285  34.328  29.135  1.00  0.00    -0.374 OA
BRANCH  31  32
ATOM     32  C   UNL A   1      34.566  33.368  28.120  1.00  0.00     0.202 C 
BRANCH  32  33
ATOM     33  C   UNL A   1      34.025  31.944  28.299  1.00  0.00     0.261 C 
BRANCH  33  34
ATOM     34  O   UNL A   1      34.325  31.087  27.191  1.00  0.00    -0.460 OA
BRANCH  34  35
ATOM     35  C   UNL A   1      34.640  29.814  27.529  1.00  0.00     0.338 C 
ATOM     36  O   UNL A   1      33.958  28.816  27.328  1.00  0.00    -0.246 OA
BRANCH  35  37
ATOM     37  C   UNL A   1      35.991  29.743  28.132  1.00  0.00     0.060 A 
ATOM     38  C   UNL A   1      37.093  30.046  27.326  1.00  0.00     0.016 A 
ATOM     39  C   UNL A   1      36.189  29.324  29.448  1.00  0.00     0.016 A 
ATOM     40  C   UNL A   1      38.383  29.798  27.790  1.00  0.00     0.010 A 
ATOM     41  C   UNL A   1      37.475  29.032  29.901  1.00  0.00     0.010 A 
ATOM     42  C   UNL A   1      38.570  29.220  29.053  1.00  0.00    -0.014 A 
BRANCH  42  43
ATOM     43  C   UNL A   1      39.912  28.757  29.456  1.00  0.00     0.031 A 
ATOM     44  C   UNL A   1      40.711  29.557  30.441  1.00  0.00     0.074 A 
ATOM     45  C   UNL A   1      40.406  27.627  28.927  1.00  0.00     0.049 A 
ATOM     46  N   UNL A   1      41.833  29.251  31.043  1.00  0.00    -0.248 NA
ATOM     47  C   UNL A   1      40.181  30.884  30.792  1.00  0.00     0.031 C 
ATOM     48  C   UNL A   1      39.733  26.812  27.918  1.00  0.00     0.029 A 
ATOM     49  N   UNL A   1      41.586  26.977  29.164  1.00  0.00    -0.354 N 
ATOM     50  C   UNL A   1      42.124  30.327  31.869  1.00  0.00     0.074 A 
ATOM     51  C   UNL A   1      41.094  31.321  31.649  1.00  0.00     0.031 C 
ATOM     52  C   UNL A   1      40.513  25.760  27.623  1.00  0.00     0.029 A 
ATOM     53  C   UNL A   1      41.731  25.831  28.428  1.00  0.00     0.049 A 
ATOM     54  H   UNL A   1      42.264  27.302  29.800  1.00  0.00     0.167 HD
ATOM     55  C   UNL A   1      43.151  30.458  32.744  1.00  0.00     0.037 A 
ATOM     56  C   UNL A   1      42.731  24.931  28.425  1.00  0.00     0.037 A 
ATOM     57  C   UNL A   1      44.196  29.478  32.906  1.00  0.00     0.049 A 
ATOM     58  C   UNL A   1      43.877  25.111  29.382  1.00  0.00     0.074 A 
ATOM     59  C   UNL A   1      45.261  29.482  33.789  1.00  0.00     0.029 A 
ATOM     60  N   UNL A   1      44.320  28.327  32.138  1.00  0.00    -0.354 N 
ATOM     61  N   UNL A   1      44.083  26.062  30.263  1.00  0.00    -0.248 NA
ATOM     62  C   UNL A   1      44.918  24.076  29.363  1.00  0.00     0.031 C 
ATOM     63  C   UNL A   1      46.061  28.367  33.515  1.00  0.00     0.029 A 
ATOM     64  C   UNL A   1      45.460  27.630  32.506  1.00  0.00     0.049 A 
ATOM     65  H   UNL A   1      43.690  28.047  31.435  1.00  0.00     0.167 HD
ATOM     66  C   UNL A   1      45.253  25.722  30.928  1.00  0.00     0.074 A 
ATOM     67  C   UNL A   1      45.704  24.469  30.356  1.00  0.00     0.031 C 
ATOM     68  C   UNL A   1      45.893  26.383  31.925  1.00  0.00     0.037 A 
BRANCH  55  69
ATOM     69  C   UNL A   1      43.194  31.701  33.591  1.00  0.00     0.064 A 
ATOM     70  C   UNL A   1      42.599  31.741  34.863  1.00  0.00     0.173 A 
ATOM     71  C   UNL A   1      43.876  32.847  33.156  1.00  0.00     0.173 A 
ATOM     72  F   UNL A   1      41.931  30.674  35.330  1.00  0.00    -0.203 F 
ATOM     73  C   UNL A   1      42.657  32.888  35.650  1.00  0.00     0.198 A 
ATOM     74  C   UNL A   1      43.960  33.983  33.960  1.00  0.00     0.198 A 
ATOM     75  F   UNL A   1      44.473  32.866  31.955  1.00  0.00    -0.203 F 
ATOM     76  F   UNL A   1      42.040  32.916  36.840  1.00  0.00    -0.200 F 
ATOM     77  C   UNL A   1      43.345  34.006  35.202  1.00  0.00     0.200 A 
ATOM     78  F   UNL A   1      44.638  35.057  33.532  1.00  0.00    -0.200 F 
ATOM     79  F   UNL A   1      43.407  35.106  35.964  1.00  0.00    -0.200 F 
ENDBRANCH  55  69
BRANCH  56  80
ATOM     80  C   UNL A   1      42.642  23.745  27.538  1.00  0.00     0.064 A 
ATOM     81  C   UNL A   1      43.112  23.801  26.219  1.00  0.00     0.173 A 
ATOM     82  C   UNL A   1      42.112  22.530  27.994  1.00  0.00     0.173 A 
ATOM     83  F   UNL A   1      43.616  24.945  25.735  1.00  0.00    -0.203 F 
ATOM     84  C   UNL A   1      43.036  22.691  25.381  1.00  0.00     0.198 A 
ATOM     85  C   UNL A   1      42.063  21.411  27.165  1.00  0.00     0.198 A 
ATOM     86  F   UNL A   1      41.660  22.423  29.253  1.00  0.00    -0.203 F 
ATOM     87  F   UNL A   1      43.454  22.782  24.112  1.00  0.00    -0.200 F 
ATOM     88  C   UNL A   1      42.518  21.495  25.857  1.00  0.00     0.200 A 
ATOM     89  F   UNL A   1      41.579  20.253  27.633  1.00  0.00    -0.200 F 
ATOM     90  F   UNL A   1      42.452  20.426  25.053  1.00  0.00    -0.200 F 
ENDBRANCH  56  80
BRANCH  68  91
ATOM     91  C   UNL A   1      47.130  25.741  32.488  1.00  0.00     0.064 A 
ATOM     92  C   UNL A   1      48.394  25.935  31.911  1.00  0.00     0.173 A 
ATOM     93  C   UNL A   1      47.051  24.938  33.637  1.00  0.00     0.173 A 
ATOM     94  F   UNL A   1      48.524  26.681  30.804  1.00  0.00    -0.203 F 
ATOM     95  C   UNL A   1      49.526  25.320  32.441  1.00  0.00     0.198 A 
ATOM     96  C   UNL A   1      48.190  24.356  34.186  1.00  0.00     0.198 A 
ATOM     97  F   UNL A   1      45.869  24.726  34.235  1.00  0.00    -0.203 F 
ATOM     98  F   UNL A   1      50.712  25.472  31.838  1.00  0.00    -0.200 F 
ATOM     99  C   UNL A   1      49.424  24.538  33.583  1.00  0.00     0.200 A 
ATOM    100  F   UNL A   1      48.092  23.614  35.298  1.00  0.00    -0.200 F 
ATOM    101  F   UNL A   1      50.515  23.953  34.095  1.00  0.00    -0.200 F 
ENDBRANCH  68  91
ENDBRANCH  42  43
ENDBRANCH  35  37
ENDBRANCH  34  35
ENDBRANCH  33  34
ENDBRANCH  32  33
ENDBRANCH  31  32
ENDBRANCH   1  31
TORSDOF 18
ENDMDL
