MODEL 1
REMARK VINA RESULT:     -10.5      0.000      0.000
REMARK SMILES Cc1ncccc1C(=O)NCCOCC(=O)OCCOCCOC(=O)c1ccc(-c2c3nc(c(-c4c(F)c(F)c(F)c(F)c4F)c4ccc([nH]4)c(-c4c(F)c(F)c(F)c(F)c4F)c4nc(c(-c5c(F)c(F)c(F)c(F)c5F)c5ccc2[nH]5)C=C4)C=C3)cc1
REMARK SMILES IDX 18 1 17 2 15 3 16 4 14 5 13 6 12 7 11 8 10 9 8 10 9 11 7 13
REMARK SMILES IDX 1 14 2 15 3 16 4 17 6 18 5 19 19 20 20 21 21 22 22 23 23 24
REMARK SMILES IDX 24 25 25 26 26 27 27 28 88 29 28 30 87 31 29 32 30 33 31 34
REMARK SMILES IDX 81 35 32 36 86 37 80 38 82 39 33 40 85 41 79 42 78 43 34 45
REMARK SMILES IDX 66 46 46 47 65 48 47 49 50 50 64 51 83 52 48 53 49 54 63 56
REMARK SMILES IDX 84 57 51 58 35 59 36 60 44 61 37 62 38 63 42 64 45 65 39 66
REMARK SMILES IDX 40 67 43 68 41 69 67 70 68 71 76 72 69 73 70 74 74 75 77 76
REMARK SMILES IDX 71 77 72 78 75 79 73 80 52 81 53 82 61 83 54 84 55 85 59 86
REMARK SMILES IDX 62 87 56 88 57 89 60 90 58 91
REMARK H PARENT 10 12 82 44 50 55
REMARK Flexibility Score: inf
ROOT
ATOM      1  C   UNL A   1      41.245  21.326  27.014  1.00  0.00     0.261 C 
ENDROOT
BRANCH   1   2
ATOM      2  O   UNL A   1      39.952  21.063  26.421  1.00  0.00    -0.462 OA
BRANCH   2   3
ATOM      3  C   UNL A   1      39.138  22.140  26.258  1.00  0.00     0.332 C 
ATOM      4  O   UNL A   1      39.351  23.255  26.719  1.00  0.00    -0.250 OA
BRANCH   3   5
ATOM      5  C   UNL A   1      37.849  21.793  25.490  1.00  0.00     0.282 C 
BRANCH   5   6
ATOM      6  O   UNL A   1      36.571  22.375  25.653  1.00  0.00    -0.368 OA
BRANCH   6   7
ATOM      7  C   UNL A   1      35.502  21.527  26.044  1.00  0.00     0.182 C 
BRANCH   7   8
ATOM      8  C   UNL A   1      34.099  21.907  25.541  1.00  0.00     0.144 C 
BRANCH   8   9
ATOM      9  N   UNL A   1      33.199  22.522  26.500  1.00  0.00    -0.350 N 
ATOM     10  C   UNL A   1      32.456  23.675  26.488  1.00  0.00     0.253 C 
ATOM     11  O   UNL A   1      31.646  23.823  27.405  1.00  0.00    -0.269 OA
ATOM     12  H   UNL A   1      33.100  22.002  27.331  1.00  0.00     0.163 HD
BRANCH  10  13
ATOM     13  C   UNL A   1      32.612  24.792  25.521  1.00  0.00     0.061 A 
ATOM     14  C   UNL A   1      30.795  24.141  23.836  1.00  0.00     0.067 C 
ATOM     15  C   UNL A   1      31.904  25.008  24.338  1.00  0.00     0.050 A 
ATOM     16  N   UNL A   1      32.129  26.098  23.544  1.00  0.00    -0.261 NA
ATOM     17  C   UNL A   1      32.991  27.045  23.972  1.00  0.00     0.111 A 
ATOM     18  C   UNL A   1      33.484  25.819  25.938  1.00  0.00     0.017 A 
ATOM     19  C   UNL A   1      33.673  26.960  25.166  1.00  0.00     0.021 A 
ENDBRANCH  10  13
ENDBRANCH   8   9
ENDBRANCH   7   8
ENDBRANCH   6   7
ENDBRANCH   5   6
ENDBRANCH   3   5
ENDBRANCH   2   3
ENDBRANCH   1   2
BRANCH   1  20
ATOM     20  C   UNL A   1      42.373  20.797  26.126  1.00  0.00     0.202 C 
BRANCH  20  21
ATOM     21  O   UNL A   1      43.558  21.596  26.105  1.00  0.00    -0.374 OA
BRANCH  21  22
ATOM     22  C   UNL A   1      44.412  21.428  24.977  1.00  0.00     0.202 C 
BRANCH  22  23
ATOM     23  C   UNL A   1      44.558  22.673  24.089  1.00  0.00     0.261 C 
BRANCH  23  24
ATOM     24  O   UNL A   1      43.688  23.738  24.515  1.00  0.00    -0.460 OA
BRANCH  24  25
ATOM     25  C   UNL A   1      44.338  24.816  25.015  1.00  0.00     0.338 C 
ATOM     26  O   UNL A   1      45.428  25.252  24.669  1.00  0.00    -0.246 OA
BRANCH  25  27
ATOM     27  C   UNL A   1      43.471  25.552  25.954  1.00  0.00     0.060 A 
ATOM     28  C   UNL A   1      43.733  26.918  26.116  1.00  0.00     0.016 A 
ATOM     29  C   UNL A   1      42.479  24.925  26.712  1.00  0.00     0.016 A 
ATOM     30  C   UNL A   1      43.046  27.651  27.080  1.00  0.00     0.010 A 
ATOM     31  C   UNL A   1      41.793  25.662  27.685  1.00  0.00     0.010 A 
ATOM     32  C   UNL A   1      42.103  27.018  27.900  1.00  0.00    -0.014 A 
BRANCH  32  33
ATOM     33  C   UNL A   1      41.581  27.747  29.082  1.00  0.00     0.031 A 
ATOM     34  C   UNL A   1      42.313  27.626  30.391  1.00  0.00     0.074 A 
ATOM     35  C   UNL A   1      40.518  28.562  28.978  1.00  0.00     0.049 A 
ATOM     36  N   UNL A   1      42.065  28.200  31.541  1.00  0.00    -0.248 NA
ATOM     37  C   UNL A   1      43.489  26.741  30.404  1.00  0.00     0.031 C 
ATOM     38  C   UNL A   1      39.751  28.796  27.757  1.00  0.00     0.029 A 
ATOM     39  N   UNL A   1      39.903  29.351  29.919  1.00  0.00    -0.354 N 
ATOM     40  C   UNL A   1      43.050  27.748  32.409  1.00  0.00     0.074 A 
ATOM     41  C   UNL A   1      43.882  26.827  31.666  1.00  0.00     0.031 C 
ATOM     42  C   UNL A   1      38.766  29.671  28.022  1.00  0.00     0.029 A 
ATOM     43  C   UNL A   1      38.818  30.040  29.436  1.00  0.00     0.049 A 
ATOM     44  H   UNL A   1      40.212  29.418  30.851  1.00  0.00     0.167 HD
ATOM     45  C   UNL A   1      43.254  28.083  33.706  1.00  0.00     0.037 A 
ATOM     46  C   UNL A   1      37.960  30.863  30.069  1.00  0.00     0.037 A 
ATOM     47  C   UNL A   1      42.429  29.001  34.445  1.00  0.00     0.049 A 
ATOM     48  C   UNL A   1      38.166  31.165  31.531  1.00  0.00     0.074 A 
ATOM     49  C   UNL A   1      42.562  29.416  35.759  1.00  0.00     0.029 A 
ATOM     50  N   UNL A   1      41.311  29.643  33.934  1.00  0.00    -0.354 N 
ATOM     51  N   UNL A   1      39.116  30.755  32.336  1.00  0.00    -0.248 NA
ATOM     52  C   UNL A   1      37.181  32.049  32.171  1.00  0.00     0.031 C 
ATOM     53  C   UNL A   1      41.496  30.273  36.056  1.00  0.00     0.029 A 
ATOM     54  C   UNL A   1      40.729  30.431  34.913  1.00  0.00     0.049 A 
ATOM     55  H   UNL A   1      40.981  29.554  33.010  1.00  0.00     0.167 HD
ATOM     56  C   UNL A   1      38.861  31.350  33.564  1.00  0.00     0.074 A 
ATOM     57  C   UNL A   1      37.672  32.160  33.397  1.00  0.00     0.031 C 
ATOM     58  C   UNL A   1      39.549  31.236  34.728  1.00  0.00     0.037 A 
BRANCH  45  59
ATOM     59  C   UNL A   1      44.403  27.432  34.415  1.00  0.00     0.064 A 
ATOM     60  C   UNL A   1      44.262  26.201  35.073  1.00  0.00     0.173 A 
ATOM     61  C   UNL A   1      45.671  28.033  34.415  1.00  0.00     0.173 A 
ATOM     62  F   UNL A   1      43.067  25.592  35.115  1.00  0.00    -0.203 F 
ATOM     63  C   UNL A   1      45.340  25.608  35.725  1.00  0.00     0.198 A 
ATOM     64  C   UNL A   1      46.753  27.426  35.044  1.00  0.00     0.198 A 
ATOM     65  F   UNL A   1      45.860  29.211  33.798  1.00  0.00    -0.203 F 
ATOM     66  F   UNL A   1      45.171  24.453  36.383  1.00  0.00    -0.200 F 
ATOM     67  C   UNL A   1      46.586  26.218  35.705  1.00  0.00     0.200 A 
ATOM     68  F   UNL A   1      47.958  28.012  35.016  1.00  0.00    -0.200 F 
ATOM     69  F   UNL A   1      47.624  25.644  36.328  1.00  0.00    -0.200 F 
ENDBRANCH  45  59
BRANCH  46  70
ATOM     70  C   UNL A   1      36.818  31.458  29.326  1.00  0.00     0.064 A 
ATOM     71  C   UNL A   1      36.798  32.820  28.996  1.00  0.00     0.173 A 
ATOM     72  C   UNL A   1      35.715  30.678  28.947  1.00  0.00     0.173 A 
ATOM     73  F   UNL A   1      37.817  33.612  29.361  1.00  0.00    -0.203 F 
ATOM     74  C   UNL A   1      35.712  33.383  28.328  1.00  0.00     0.198 A 
ATOM     75  C   UNL A   1      34.642  31.236  28.255  1.00  0.00     0.198 A 
ATOM     76  F   UNL A   1      35.684  29.370  29.242  1.00  0.00    -0.203 F 
ATOM     77  F   UNL A   1      35.698  34.696  28.064  1.00  0.00    -0.200 F 
ATOM     78  C   UNL A   1      34.637  32.589  27.953  1.00  0.00     0.200 A 
ATOM     79  F   UNL A   1      33.612  30.463  27.887  1.00  0.00    -0.200 F 
ATOM     80  F   UNL A   1      33.596  33.130  27.309  1.00  0.00    -0.200 F 
ENDBRANCH  46  70
BRANCH  58  81
ATOM     81  C   UNL A   1      39.053  32.029  35.903  1.00  0.00     0.064 A 
ATOM     82  C   UNL A   1      38.213  31.462  36.870  1.00  0.00     0.173 A 
ATOM     83  C   UNL A   1      39.464  33.359  36.085  1.00  0.00     0.173 A 
ATOM     84  F   UNL A   1      37.782  30.199  36.734  1.00  0.00    -0.203 F 
ATOM     85  C   UNL A   1      37.781  32.205  37.966  1.00  0.00     0.198 A 
ATOM     86  C   UNL A   1      39.052  34.090  37.197  1.00  0.00     0.198 A 
ATOM     87  F   UNL A   1      40.274  33.945  35.191  1.00  0.00    -0.203 F 
ATOM     88  F   UNL A   1      36.941  31.656  38.856  1.00  0.00    -0.200 F 
ATOM     89  C   UNL A   1      38.206  33.514  38.132  1.00  0.00     0.200 A 
ATOM     90  F   UNL A   1      39.474  35.351  37.361  1.00  0.00    -0.200 F 
ATOM     91  F   UNL A   1      37.794  34.225  39.191  1.00  0.00    -0.200 F 
ENDBRANCH  58  81
ENDBRANCH  32  33
ENDBRANCH  25  27
ENDBRANCH  24  25
ENDBRANCH  23  24
ENDBRANCH  22  23
ENDBRANCH  21  22
ENDBRANCH  20  21
ENDBRANCH   1  20
TORSDOF 19
ENDMDL
MODEL 2
REMARK VINA RESULT:     -10.4      3.617      8.775
REMARK SMILES Cc1ncccc1C(=O)NCCOCC(=O)OCCOCCOC(=O)c1ccc(-c2c3nc(c(-c4c(F)c(F)c(F)c(F)c4F)c4ccc([nH]4)c(-c4c(F)c(F)c(F)c(F)c4F)c4nc(c(-c5c(F)c(F)c(F)c(F)c5F)c5ccc2[nH]5)C=C4)C=C3)cc1
REMARK SMILES IDX 18 1 17 2 15 3 16 4 14 5 13 6 12 7 11 8 10 9 8 10 9 11 7 13
REMARK SMILES IDX 1 14 2 15 3 16 4 17 6 18 5 19 19 20 20 21 21 22 22 23 23 24
REMARK SMILES IDX 24 25 25 26 26 27 27 28 88 29 28 30 87 31 29 32 30 33 31 34
REMARK SMILES IDX 81 35 32 36 86 37 80 38 82 39 33 40 85 41 79 42 78 43 34 45
REMARK SMILES IDX 66 46 46 47 65 48 47 49 50 50 64 51 83 52 48 53 49 54 63 56
REMARK SMILES IDX 84 57 51 58 35 59 36 60 44 61 37 62 38 63 42 64 45 65 39 66
REMARK SMILES IDX 40 67 43 68 41 69 67 70 68 71 76 72 69 73 70 74 74 75 77 76
REMARK SMILES IDX 71 77 72 78 75 79 73 80 52 81 53 82 61 83 54 84 55 85 59 86
REMARK SMILES IDX 62 87 56 88 57 89 60 90 58 91
REMARK H PARENT 10 12 82 44 50 55
REMARK Flexibility Score: inf
ROOT
ATOM      1  C   UNL A   1      32.043  27.807  26.293  1.00  0.00     0.261 C 
ENDROOT
BRANCH   1   2
ATOM      2  O   UNL A   1      31.373  27.947  25.020  1.00  0.00    -0.462 OA
BRANCH   2   3
ATOM      3  C   UNL A   1      30.520  26.943  24.678  1.00  0.00     0.332 C 
ATOM      4  O   UNL A   1      29.801  26.943  23.686  1.00  0.00    -0.250 OA
BRANCH   3   5
ATOM      5  C   UNL A   1      30.484  25.818  25.728  1.00  0.00     0.282 C 
BRANCH   5   6
ATOM      6  O   UNL A   1      31.030  24.519  25.611  1.00  0.00    -0.368 OA
BRANCH   6   7
ATOM      7  C   UNL A   1      32.094  24.166  26.482  1.00  0.00     0.182 C 
BRANCH   7   8
ATOM      8  C   UNL A   1      32.189  22.687  26.892  1.00  0.00     0.144 C 
BRANCH   8   9
ATOM      9  N   UNL A   1      31.904  21.698  25.868  1.00  0.00    -0.350 N 
ATOM     10  C   UNL A   1      32.623  21.209  24.807  1.00  0.00     0.253 C 
ATOM     11  O   UNL A   1      32.153  20.231  24.222  1.00  0.00    -0.269 OA
ATOM     12  H   UNL A   1      31.009  21.295  25.953  1.00  0.00     0.163 HD
BRANCH  10  13
ATOM     13  C   UNL A   1      33.863  21.811  24.253  1.00  0.00     0.061 A 
ATOM     14  C   UNL A   1      32.817  23.595  22.740  1.00  0.00     0.067 C 
ATOM     15  C   UNL A   1      33.972  22.851  23.329  1.00  0.00     0.050 A 
ATOM     16  N   UNL A   1      35.183  23.333  22.916  1.00  0.00    -0.261 NA
ATOM     17  C   UNL A   1      36.303  22.856  23.499  1.00  0.00     0.111 A 
ATOM     18  C   UNL A   1      35.058  21.361  24.850  1.00  0.00     0.017 A 
ATOM     19  C   UNL A   1      36.290  21.890  24.481  1.00  0.00     0.021 A 
ENDBRANCH  10  13
ENDBRANCH   8   9
ENDBRANCH   7   8
ENDBRANCH   6   7
ENDBRANCH   5   6
ENDBRANCH   3   5
ENDBRANCH   2   3
ENDBRANCH   1   2
BRANCH   1  20
ATOM     20  C   UNL A   1      31.751  29.003  27.201  1.00  0.00     0.202 C 
BRANCH  20  21
ATOM     21  O   UNL A   1      32.403  30.221  26.833  1.00  0.00    -0.374 OA
BRANCH  21  22
ATOM     22  C   UNL A   1      31.560  31.275  26.377  1.00  0.00     0.202 C 
BRANCH  22  23
ATOM     23  C   UNL A   1      31.951  32.674  26.877  1.00  0.00     0.261 C 
BRANCH  23  24
ATOM     24  O   UNL A   1      32.853  32.609  27.996  1.00  0.00    -0.460 OA
BRANCH  24  25
ATOM     25  C   UNL A   1      33.896  33.469  27.916  1.00  0.00     0.338 C 
ATOM     26  O   UNL A   1      33.848  34.679  27.737  1.00  0.00    -0.246 OA
BRANCH  25  27
ATOM     27  C   UNL A   1      35.157  32.786  28.257  1.00  0.00     0.060 A 
ATOM     28  C   UNL A   1      35.068  31.432  28.605  1.00  0.00     0.016 A 
ATOM     29  C   UNL A   1      36.384  33.452  28.310  1.00  0.00     0.016 A 
ATOM     30  C   UNL A   1      36.193  30.754  29.067  1.00  0.00     0.010 A 
ATOM     31  C   UNL A   1      37.513  32.770  28.779  1.00  0.00     0.010 A 
ATOM     32  C   UNL A   1      37.413  31.430  29.198  1.00  0.00    -0.014 A 
BRANCH  32  33
ATOM     33  C   UNL A   1      38.520  30.770  29.932  1.00  0.00     0.031 A 
ATOM     34  C   UNL A   1      38.731  31.106  31.383  1.00  0.00     0.074 A 
ATOM     35  C   UNL A   1      39.279  29.831  29.340  1.00  0.00     0.049 A 
ATOM     36  N   UNL A   1      39.606  30.626  32.230  1.00  0.00    -0.248 NA
ATOM     37  C   UNL A   1      37.830  32.117  31.958  1.00  0.00     0.031 C 
ATOM     38  C   UNL A   1      39.144  29.389  27.954  1.00  0.00     0.029 A 
ATOM     39  N   UNL A   1      40.312  29.076  29.837  1.00  0.00    -0.354 N 
ATOM     40  C   UNL A   1      39.360  31.273  33.434  1.00  0.00     0.074 A 
ATOM     41  C   UNL A   1      38.277  32.204  33.202  1.00  0.00     0.031 C 
ATOM     42  C   UNL A   1      40.062  28.438  27.710  1.00  0.00     0.029 A 
ATOM     43  C   UNL A   1      40.863  28.222  28.914  1.00  0.00     0.049 A 
ATOM     44  H   UNL A   1      40.627  29.139  30.767  1.00  0.00     0.167 HD
ATOM     45  C   UNL A   1      39.970  31.097  34.630  1.00  0.00     0.037 A 
ATOM     46  C   UNL A   1      41.904  27.374  29.028  1.00  0.00     0.037 A 
ATOM     47  C   UNL A   1      41.045  30.169  34.863  1.00  0.00     0.049 A 
ATOM     48  C   UNL A   1      42.614  27.247  30.352  1.00  0.00     0.074 A 
ATOM     49  C   UNL A   1      41.721  29.907  36.042  1.00  0.00     0.029 A 
ATOM     50  N   UNL A   1      41.607  29.355  33.890  1.00  0.00    -0.354 N 
ATOM     51  N   UNL A   1      42.356  27.842  31.490  1.00  0.00    -0.248 NA
ATOM     52  C   UNL A   1      43.757  26.324  30.405  1.00  0.00     0.031 C 
ATOM     53  C   UNL A   1      42.723  28.968  35.772  1.00  0.00     0.029 A 
ATOM     54  C   UNL A   1      42.638  28.608  34.437  1.00  0.00     0.049 A 
ATOM     55  H   UNL A   1      41.315  29.312  32.951  1.00  0.00     0.167 HD
ATOM     56  C   UNL A   1      43.282  27.349  32.399  1.00  0.00     0.074 A 
ATOM     57  C   UNL A   1      44.103  26.395  31.682  1.00  0.00     0.031 C 
ATOM     58  C   UNL A   1      43.441  27.658  33.710  1.00  0.00     0.037 A 
BRANCH  45  59
ATOM     59  C   UNL A   1      39.504  31.945  35.776  1.00  0.00     0.064 A 
ATOM     60  C   UNL A   1      38.468  31.529  36.626  1.00  0.00     0.173 A 
ATOM     61  C   UNL A   1      40.119  33.176  36.044  1.00  0.00     0.173 A 
ATOM     62  F   UNL A   1      37.837  30.366  36.402  1.00  0.00    -0.203 F 
ATOM     63  C   UNL A   1      38.049  32.327  37.687  1.00  0.00     0.198 A 
ATOM     64  C   UNL A   1      39.717  33.959  37.122  1.00  0.00     0.198 A 
ATOM     65  F   UNL A   1      41.117  33.619  35.262  1.00  0.00    -0.203 F 
ATOM     66  F   UNL A   1      37.028  31.931  38.460  1.00  0.00    -0.200 F 
ATOM     67  C   UNL A   1      38.677  33.538  37.939  1.00  0.00     0.200 A 
ATOM     68  F   UNL A   1      40.331  35.124  37.369  1.00  0.00    -0.200 F 
ATOM     69  F   UNL A   1      38.276  34.303  38.963  1.00  0.00    -0.200 F 
ENDBRANCH  45  59
BRANCH  46  70
ATOM     70  C   UNL A   1      42.345  26.579  27.852  1.00  0.00     0.064 A 
ATOM     71  C   UNL A   1      43.328  27.061  26.976  1.00  0.00     0.173 A 
ATOM     72  C   UNL A   1      41.780  25.326  27.572  1.00  0.00     0.173 A 
ATOM     73  F   UNL A   1      43.878  28.266  27.187  1.00  0.00    -0.203 F 
ATOM     74  C   UNL A   1      43.716  26.329  25.856  1.00  0.00     0.198 A 
ATOM     75  C   UNL A   1      42.188  24.581  26.468  1.00  0.00     0.198 A 
ATOM     76  F   UNL A   1      40.834  24.821  28.378  1.00  0.00    -0.203 F 
ATOM     77  F   UNL A   1      44.625  26.833  25.012  1.00  0.00    -0.200 F 
ATOM     78  C   UNL A   1      43.151  25.086  25.606  1.00  0.00     0.200 A 
ATOM     79  F   UNL A   1      41.647  23.379  26.236  1.00  0.00    -0.200 F 
ATOM     80  F   UNL A   1      43.527  24.381  24.532  1.00  0.00    -0.200 F 
ENDBRANCH  46  70
BRANCH  58  81
ATOM     81  C   UNL A   1      44.521  26.937  34.464  1.00  0.00     0.064 A 
ATOM     82  C   UNL A   1      45.807  27.475  34.600  1.00  0.00     0.173 A 
ATOM     83  C   UNL A   1      44.249  25.713  35.095  1.00  0.00     0.173 A 
ATOM     84  F   UNL A   1      46.120  28.636  34.004  1.00  0.00    -0.203 F 
ATOM     85  C   UNL A   1      46.791  26.804  35.321  1.00  0.00     0.198 A 
ATOM     86  C   UNL A   1      45.227  25.058  35.839  1.00  0.00     0.198 A 
ATOM     87  F   UNL A   1      43.031  25.159  35.001  1.00  0.00    -0.203 F 
ATOM     88  F   UNL A   1      48.028  27.315  35.402  1.00  0.00    -0.200 F 
ATOM     89  C   UNL A   1      46.498  25.600  35.946  1.00  0.00     0.200 A 
ATOM     90  F   UNL A   1      44.938  23.901  36.451  1.00  0.00    -0.200 F 
ATOM     91  F   UNL A   1      47.444  24.958  36.645  1.00  0.00    -0.200 F 
ENDBRANCH  58  81
ENDBRANCH  32  33
ENDBRANCH  25  27
ENDBRANCH  24  25
ENDBRANCH  23  24
ENDBRANCH  22  23
ENDBRANCH  21  22
ENDBRANCH  20  21
ENDBRANCH   1  20
TORSDOF 19
ENDMDL
MODEL 3
REMARK VINA RESULT:     -10.3      5.561     11.087
REMARK SMILES Cc1ncccc1C(=O)NCCOCC(=O)OCCOCCOC(=O)c1ccc(-c2c3nc(c(-c4c(F)c(F)c(F)c(F)c4F)c4ccc([nH]4)c(-c4c(F)c(F)c(F)c(F)c4F)c4nc(c(-c5c(F)c(F)c(F)c(F)c5F)c5ccc2[nH]5)C=C4)C=C3)cc1
REMARK SMILES IDX 18 1 17 2 15 3 16 4 14 5 13 6 12 7 11 8 10 9 8 10 9 11 7 13
REMARK SMILES IDX 1 14 2 15 3 16 4 17 6 18 5 19 19 20 20 21 21 22 22 23 23 24
REMARK SMILES IDX 24 25 25 26 26 27 27 28 88 29 28 30 87 31 29 32 30 33 31 34
REMARK SMILES IDX 81 35 32 36 86 37 80 38 82 39 33 40 85 41 79 42 78 43 34 45
REMARK SMILES IDX 66 46 46 47 65 48 47 49 50 50 64 51 83 52 48 53 49 54 63 56
REMARK SMILES IDX 84 57 51 58 35 59 36 60 44 61 37 62 38 63 42 64 45 65 39 66
REMARK SMILES IDX 40 67 43 68 41 69 67 70 68 71 76 72 69 73 70 74 74 75 77 76
REMARK SMILES IDX 71 77 72 78 75 79 73 80 52 81 53 82 61 83 54 84 55 85 59 86
REMARK SMILES IDX 62 87 56 88 57 89 60 90 58 91
REMARK H PARENT 10 12 82 44 50 55
REMARK Flexibility Score: inf
ROOT
ATOM      1  C   UNL A   1      33.387  34.997  29.157  1.00  0.00     0.261 C 
ENDROOT
BRANCH   1   2
ATOM      2  O   UNL A   1      33.304  33.849  28.281  1.00  0.00    -0.462 OA
BRANCH   2   3
ATOM      3  C   UNL A   1      34.484  33.248  27.967  1.00  0.00     0.332 C 
ATOM      4  O   UNL A   1      35.473  33.831  27.537  1.00  0.00    -0.250 OA
BRANCH   3   5
ATOM      5  C   UNL A   1      34.427  31.718  28.128  1.00  0.00     0.282 C 
BRANCH   5   6
ATOM      6  O   UNL A   1      34.215  30.758  27.112  1.00  0.00    -0.368 OA
BRANCH   6   7
ATOM      7  C   UNL A   1      33.035  29.972  27.179  1.00  0.00     0.182 C 
BRANCH   7   8
ATOM      8  C   UNL A   1      32.185  29.890  25.900  1.00  0.00     0.144 C 
BRANCH   8   9
ATOM      9  N   UNL A   1      32.893  29.674  24.651  1.00  0.00    -0.350 N 
ATOM     10  C   UNL A   1      32.761  28.754  23.641  1.00  0.00     0.253 C 
ATOM     11  O   UNL A   1      33.418  28.954  22.618  1.00  0.00    -0.269 OA
ATOM     12  H   UNL A   1      33.618  30.323  24.496  1.00  0.00     0.163 HD
BRANCH  10  13
ATOM     13  C   UNL A   1      31.970  27.498  23.716  1.00  0.00     0.061 A 
ATOM     14  C   UNL A   1      33.786  25.915  24.590  1.00  0.00     0.067 C 
ATOM     15  C   UNL A   1      32.405  26.233  24.114  1.00  0.00     0.050 A 
ATOM     16  N   UNL A   1      31.563  25.157  24.162  1.00  0.00    -0.261 NA
ATOM     17  C   UNL A   1      30.249  25.350  23.915  1.00  0.00     0.111 A 
ATOM     18  C   UNL A   1      30.587  27.655  23.491  1.00  0.00     0.017 A 
ATOM     19  C   UNL A   1      29.714  26.578  23.597  1.00  0.00     0.021 A 
ENDBRANCH  10  13
ENDBRANCH   8   9
ENDBRANCH   7   8
ENDBRANCH   6   7
ENDBRANCH   5   6
ENDBRANCH   3   5
ENDBRANCH   2   3
ENDBRANCH   1   2
BRANCH   1  20
ATOM     20  C   UNL A   1      34.142  34.653  30.443  1.00  0.00     0.202 C 
BRANCH  20  21
ATOM     21  O   UNL A   1      33.364  34.711  31.641  1.00  0.00    -0.374 OA
BRANCH  21  22
ATOM     22  C   UNL A   1      34.092  34.728  32.865  1.00  0.00     0.202 C 
BRANCH  22  23
ATOM     23  C   UNL A   1      34.278  33.352  33.522  1.00  0.00     0.261 C 
BRANCH  23  24
ATOM     24  O   UNL A   1      35.149  32.504  32.750  1.00  0.00    -0.460 OA
BRANCH  24  25
ATOM     25  C   UNL A   1      36.338  32.247  33.344  1.00  0.00     0.338 C 
ATOM     26  O   UNL A   1      36.641  32.440  34.514  1.00  0.00    -0.246 OA
BRANCH  25  27
ATOM     27  C   UNL A   1      37.226  31.510  32.425  1.00  0.00     0.060 A 
ATOM     28  C   UNL A   1      38.263  30.771  33.006  1.00  0.00     0.016 A 
ATOM     29  C   UNL A   1      37.103  31.589  31.035  1.00  0.00     0.016 A 
ATOM     30  C   UNL A   1      39.220  30.157  32.201  1.00  0.00     0.010 A 
ATOM     31  C   UNL A   1      38.068  30.975  30.227  1.00  0.00     0.010 A 
ATOM     32  C   UNL A   1      39.153  30.292  30.809  1.00  0.00    -0.014 A 
BRANCH  32  33
ATOM     33  C   UNL A   1      40.314  29.859  29.994  1.00  0.00     0.031 A 
ATOM     34  C   UNL A   1      41.438  30.832  29.758  1.00  0.00     0.074 A 
ATOM     35  C   UNL A   1      40.405  28.600  29.532  1.00  0.00     0.049 A 
ATOM     36  N   UNL A   1      42.565  30.662  29.113  1.00  0.00    -0.248 NA
ATOM     37  C   UNL A   1      41.272  32.176  30.332  1.00  0.00     0.031 C 
ATOM     38  C   UNL A   1      39.402  27.556  29.731  1.00  0.00     0.029 A 
ATOM     39  N   UNL A   1      41.394  27.986  28.805  1.00  0.00    -0.354 N 
ATOM     40  C   UNL A   1      43.239  31.873  29.205  1.00  0.00     0.074 A 
ATOM     41  C   UNL A   1      42.383  32.780  29.938  1.00  0.00     0.031 C 
ATOM     42  C   UNL A   1      39.828  26.427  29.138  1.00  0.00     0.029 A 
ATOM     43  C   UNL A   1      41.119  26.676  28.499  1.00  0.00     0.049 A 
ATOM     44  H   UNL A   1      42.222  28.440  28.529  1.00  0.00     0.167 HD
ATOM     45  C   UNL A   1      44.467  32.196  28.735  1.00  0.00     0.037 A 
ATOM     46  C   UNL A   1      41.826  25.786  27.775  1.00  0.00     0.037 A 
ATOM     47  C   UNL A   1      45.320  31.293  28.008  1.00  0.00     0.049 A 
ATOM     48  C   UNL A   1      43.160  26.191  27.202  1.00  0.00     0.074 A 
ATOM     49  C   UNL A   1      46.588  31.521  27.502  1.00  0.00     0.029 A 
ATOM     50  N   UNL A   1      44.987  29.988  27.679  1.00  0.00    -0.354 N 
ATOM     51  N   UNL A   1      43.800  27.328  27.318  1.00  0.00    -0.248 NA
ATOM     52  C   UNL A   1      43.870  25.184  26.400  1.00  0.00     0.031 C 
ATOM     53  C   UNL A   1      47.002  30.369  26.825  1.00  0.00     0.029 A 
ATOM     54  C   UNL A   1      46.013  29.406  26.953  1.00  0.00     0.049 A 
ATOM     55  H   UNL A   1      44.145  29.540  27.925  1.00  0.00     0.167 HD
ATOM     56  C   UNL A   1      44.996  27.167  26.631  1.00  0.00     0.074 A 
ATOM     57  C   UNL A   1      44.999  25.816  26.110  1.00  0.00     0.031 C 
ATOM     58  C   UNL A   1      46.002  28.058  26.447  1.00  0.00     0.037 A 
BRANCH  45  59
ATOM     59  C   UNL A   1      44.952  33.595  28.972  1.00  0.00     0.064 A 
ATOM     60  C   UNL A   1      44.686  34.631  28.065  1.00  0.00     0.173 A 
ATOM     61  C   UNL A   1      45.670  33.909  30.136  1.00  0.00     0.173 A 
ATOM     62  F   UNL A   1      44.017  34.379  26.930  1.00  0.00    -0.203 F 
ATOM     63  C   UNL A   1      45.142  35.925  28.303  1.00  0.00     0.198 A 
ATOM     64  C   UNL A   1      46.101  35.209  30.384  1.00  0.00     0.198 A 
ATOM     65  F   UNL A   1      45.949  32.954  31.037  1.00  0.00    -0.203 F 
ATOM     66  F   UNL A   1      44.914  36.891  27.401  1.00  0.00    -0.200 F 
ATOM     67  C   UNL A   1      45.843  36.215  29.464  1.00  0.00     0.200 A 
ATOM     68  F   UNL A   1      46.769  35.489  31.511  1.00  0.00    -0.200 F 
ATOM     69  F   UNL A   1      46.277  37.461  29.694  1.00  0.00    -0.200 F 
ENDBRANCH  45  59
BRANCH  46  70
ATOM     70  C   UNL A   1      41.285  24.421  27.544  1.00  0.00     0.064 A 
ATOM     71  C   UNL A   1      41.861  23.298  28.154  1.00  0.00     0.173 A 
ATOM     72  C   UNL A   1      40.190  24.211  26.693  1.00  0.00     0.173 A 
ATOM     73  F   UNL A   1      42.928  23.445  28.954  1.00  0.00    -0.203 F 
ATOM     74  C   UNL A   1      41.373  22.016  27.910  1.00  0.00     0.198 A 
ATOM     75  C   UNL A   1      39.685  22.932  26.470  1.00  0.00     0.198 A 
ATOM     76  F   UNL A   1      39.604  25.252  26.082  1.00  0.00    -0.203 F 
ATOM     77  F   UNL A   1      41.970  20.956  28.470  1.00  0.00    -0.200 F 
ATOM     78  C   UNL A   1      40.282  21.834  27.072  1.00  0.00     0.200 A 
ATOM     79  F   UNL A   1      38.625  22.763  25.670  1.00  0.00    -0.200 F 
ATOM     80  F   UNL A   1      39.810  20.602  26.841  1.00  0.00    -0.200 F 
ENDBRANCH  46  70
BRANCH  58  81
ATOM     81  C   UNL A   1      47.204  27.591  25.677  1.00  0.00     0.064 A 
ATOM     82  C   UNL A   1      47.282  27.725  24.284  1.00  0.00     0.173 A 
ATOM     83  C   UNL A   1      48.310  27.047  26.349  1.00  0.00     0.173 A 
ATOM     84  F   UNL A   1      46.246  28.227  23.595  1.00  0.00    -0.203 F 
ATOM     85  C   UNL A   1      48.413  27.308  23.588  1.00  0.00     0.198 A 
ATOM     86  C   UNL A   1      49.450  26.657  25.652  1.00  0.00     0.198 A 
ATOM     87  F   UNL A   1      48.288  26.904  27.683  1.00  0.00    -0.203 F 
ATOM     88  F   UNL A   1      48.449  27.404  22.251  1.00  0.00    -0.200 F 
ATOM     89  C   UNL A   1      49.499  26.781  24.273  1.00  0.00     0.200 A 
ATOM     90  F   UNL A   1      50.502  26.159  26.318  1.00  0.00    -0.200 F 
ATOM     91  F   UNL A   1      50.589  26.387  23.601  1.00  0.00    -0.200 F 
ENDBRANCH  58  81
ENDBRANCH  32  33
ENDBRANCH  25  27
ENDBRANCH  24  25
ENDBRANCH  23  24
ENDBRANCH  22  23
ENDBRANCH  21  22
ENDBRANCH  20  21
ENDBRANCH   1  20
TORSDOF 19
ENDMDL
