MODEL 1
REMARK VINA RESULT:     -11.8      0.000      0.000
REMARK SMILES Cc1cccc(S(=O)(=O)Nc2cc(C(=O)OCCOCCOC(=O)c3ccc(-c4c5nc(c(-c6c(F)c(F)c(F)c(F)c6F)c6ccc([nH]6)c(-c6c(F)c(F)c(F)c(F)c6F)c6nc(c(-c7c(F)c(F)c(F)c(F)c7F)c7ccc4[nH]7)C=C6)C=C5)cc3)ccc2N2CCC[C@H](C[NH+]3CCCC3)C2)c1
REMARK SMILES IDX 18 1 17 2 16 3 14 4 15 5 13 6 11 7 12 8 90 9 89 10 88 11
REMARK SMILES IDX 10 12 7 14 8 15 9 16 6 17 1 18 2 19 3 20 103 21 4 22 5 23
REMARK SMILES IDX 91 24 92 25 102 26 93 27 95 28 94 29 96 30 97 31 98 32
REMARK SMILES IDX 101 33 99 35 100 36 19 37 20 38 21 39 22 40 23 41 24 42
REMARK SMILES IDX 25 43 26 44 87 45 27 46 86 47 28 48 29 49 30 50 80 51 31 52
REMARK SMILES IDX 85 53 79 54 81 55 32 56 84 57 78 58 77 59 33 61 65 62 45 63
REMARK SMILES IDX 64 64 46 65 49 66 63 67 82 68 47 69 48 70 62 72 83 73 50 74
REMARK SMILES IDX 34 75 35 76 43 77 36 78 37 79 41 80 44 81 38 82 39 83 42 84
REMARK SMILES IDX 40 85 66 86 67 87 75 88 68 89 69 90 73 91 76 92 70 93 71 94
REMARK SMILES IDX 74 95 72 96 51 97 52 98 60 99 53 100 54 101 58 102 61 103
REMARK SMILES IDX 55 104 56 105 59 106 57 107
REMARK H PARENT 10 13 97 34 81 60 49 71
REMARK Flexibility Score: inf
ROOT
ATOM      1  C   UNL A   1      36.426  29.704  28.580  1.00  0.00     0.202 C 
ENDROOT
BRANCH   1   2
ATOM      2  C   UNL A   1      35.703  30.154  27.395  1.00  0.00     0.261 C 
BRANCH   2   3
ATOM      3  O   UNL A   1      34.766  29.178  27.016  1.00  0.00    -0.460 OA
BRANCH   3   4
ATOM      4  C   UNL A   1      33.421  29.216  26.962  1.00  0.00     0.338 C 
ATOM      5  O   UNL A   1      32.611  30.056  27.290  1.00  0.00    -0.246 OA
BRANCH   4   6
ATOM      6  C   UNL A   1      33.132  27.817  26.661  1.00  0.00     0.062 A 
ATOM      7  C   UNL A   1      31.442  26.732  25.414  1.00  0.00     0.073 A 
ATOM      8  C   UNL A   1      31.768  27.502  26.474  1.00  0.00     0.044 A 
ATOM      9  C   UNL A   1      32.425  25.847  24.963  1.00  0.00     0.061 A 
ATOM     10  C   UNL A   1      33.783  26.015  25.327  1.00  0.00     0.029 A 
ATOM     11  C   UNL A   1      34.161  27.073  26.115  1.00  0.00     0.018 A 
BRANCH   7  12
ATOM     12  N   UNL A   1      30.111  26.871  24.889  1.00  0.00    -0.277 N 
ATOM     13  H   UNL A   1      29.358  26.515  25.413  1.00  0.00     0.180 HD
BRANCH  12  14
ATOM     14  S   UNL A   1      29.774  27.647  23.359  1.00  0.00     0.261 S 
ATOM     15  O   UNL A   1      28.365  27.391  23.126  1.00  0.00    -0.201 OA
ATOM     16  O   UNL A   1      30.753  27.101  22.439  1.00  0.00    -0.201 OA
BRANCH  14  17
ATOM     17  C   UNL A   1      30.003  29.492  23.307  1.00  0.00     0.088 A 
ATOM     18  C   UNL A   1      27.653  32.704  20.504  1.00  0.00     0.044 C 
ATOM     19  C   UNL A   1      28.656  32.388  21.563  1.00  0.00    -0.050 A 
ATOM     20  C   UNL A   1      29.255  33.373  23.358  1.00  0.00     0.003 A 
ATOM     21  C   UNL A   1      29.049  30.392  21.714  1.00  0.00     0.025 A 
ATOM     22  C   UNL A   1      30.277  32.622  24.965  1.00  0.00     0.002 A 
ATOM     23  C   UNL A   1      30.627  30.479  24.987  1.00  0.00     0.022 A 
ENDBRANCH  14  17
ENDBRANCH  12  14
ENDBRANCH   7  12
BRANCH   9  24
ATOM     24  N   UNL A   1      32.042  24.712  24.290  1.00  0.00    -0.369 N 
ATOM     25  C   UNL A   1      31.276  23.756  25.083  1.00  0.00     0.116 C 
ATOM     26  C   UNL A   1      32.767  24.350  23.088  1.00  0.00     0.126 C 
ATOM     27  C   UNL A   1      32.087  22.496  25.294  1.00  0.00     0.022 C 
ATOM     28  C   UNL A   1      33.517  23.026  23.260  1.00  0.00     0.064 C 
ATOM     29  C   UNL A   1      32.563  22.019  23.930  1.00  0.00     0.013 C 
BRANCH  28  30
ATOM     30  C   UNL A   1      34.889  23.239  23.959  1.00  0.00     0.267 C 
BRANCH  30  31
ATOM     31  N   UNL A   1      35.292  22.353  25.062  1.00  0.00    -0.335 N 
ATOM     32  C   UNL A   1      36.247  22.953  25.994  1.00  0.00     0.262 C 
ATOM     33  C   UNL A   1      35.842  21.053  24.677  1.00  0.00     0.262 C 
ATOM     34  H   UNL A   1      34.389  22.206  25.513  1.00  0.00     0.348 HD
ATOM     35  C   UNL A   1      37.608  22.489  25.513  1.00  0.00     0.067 C 
ATOM     36  C   UNL A   1      37.336  21.086  24.998  1.00  0.00     0.067 C 
ENDBRANCH  30  31
ENDBRANCH  28  30
ENDBRANCH   9  24
ENDBRANCH   4   6
ENDBRANCH   3   4
ENDBRANCH   2   3
ENDBRANCH   1   2
BRANCH   1  37
ATOM     37  O   UNL A   1      35.953  30.478  29.654  1.00  0.00    -0.374 OA
BRANCH  37  38
ATOM     38  C   UNL A   1      36.045  31.875  29.557  1.00  0.00     0.202 C 
BRANCH  38  39
ATOM     39  C   UNL A   1      34.853  32.420  30.316  1.00  0.00     0.261 C 
BRANCH  39  40
ATOM     40  O   UNL A   1      35.036  32.028  31.732  1.00  0.00    -0.460 OA
BRANCH  40  41
ATOM     41  C   UNL A   1      34.776  32.932  32.743  1.00  0.00     0.338 C 
ATOM     42  O   UNL A   1      33.681  33.458  32.905  1.00  0.00    -0.246 OA
BRANCH  41  43
ATOM     43  C   UNL A   1      36.061  33.483  33.416  1.00  0.00     0.060 A 
ATOM     44  C   UNL A   1      37.019  34.213  32.682  1.00  0.00     0.016 A 
ATOM     45  C   UNL A   1      36.556  32.809  34.517  1.00  0.00     0.016 A 
ATOM     46  C   UNL A   1      38.424  33.952  32.838  1.00  0.00     0.010 A 
ATOM     47  C   UNL A   1      37.918  32.411  34.502  1.00  0.00     0.010 A 
ATOM     48  C   UNL A   1      38.880  32.837  33.548  1.00  0.00    -0.014 A 
BRANCH  48  49
ATOM     49  C   UNL A   1      40.356  32.221  33.614  1.00  0.00     0.031 A 
ATOM     50  C   UNL A   1      40.109  30.770  32.706  1.00  0.00     0.074 A 
ATOM     51  C   UNL A   1      41.796  32.836  34.083  1.00  0.00     0.049 A 
ATOM     52  N   UNL A   1      40.981  29.928  32.231  1.00  0.00    -0.248 NA
ATOM     53  C   UNL A   1      38.768  30.358  32.188  1.00  0.00     0.031 C 
ATOM     54  C   UNL A   1      43.797  32.109  33.641  1.00  0.00     0.029 A 
ATOM     55  N   UNL A   1      42.242  33.898  34.492  1.00  0.00    -0.354 N 
ATOM     56  C   UNL A   1      40.429  29.193  31.154  1.00  0.00     0.074 A 
ATOM     57  C   UNL A   1      39.033  29.505  31.188  1.00  0.00     0.031 C 
ATOM     58  C   UNL A   1      44.940  32.809  33.627  1.00  0.00     0.029 A 
ATOM     59  C   UNL A   1      43.878  33.044  34.455  1.00  0.00     0.049 A 
ATOM     60  H   UNL A   1      41.893  34.788  34.730  1.00  0.00     0.167 HD
ATOM     61  C   UNL A   1      41.244  28.460  30.316  1.00  0.00     0.037 A 
ATOM     62  C   UNL A   1      43.998  32.533  35.541  1.00  0.00     0.037 A 
ATOM     63  C   UNL A   1      42.601  28.445  30.887  1.00  0.00     0.049 A 
ATOM     64  C   UNL A   1      44.905  31.011  35.694  1.00  0.00     0.074 A 
ATOM     65  C   UNL A   1      43.832  28.933  30.502  1.00  0.00     0.029 A 
ATOM     66  N   UNL A   1      42.754  28.059  32.211  1.00  0.00    -0.354 N 
ATOM     67  N   UNL A   1      45.106  30.213  34.651  1.00  0.00    -0.248 NA
ATOM     68  C   UNL A   1      45.005  30.271  36.945  1.00  0.00     0.031 C 
ATOM     69  C   UNL A   1      44.682  28.940  31.660  1.00  0.00     0.029 A 
ATOM     70  C   UNL A   1      44.014  28.348  32.723  1.00  0.00     0.049 A 
ATOM     71  H   UNL A   1      42.042  27.624  32.736  1.00  0.00     0.167 HD
ATOM     72  C   UNL A   1      44.725  28.941  35.015  1.00  0.00     0.074 A 
ATOM     73  C   UNL A   1      44.695  29.053  36.471  1.00  0.00     0.031 C 
ATOM     74  C   UNL A   1      44.293  27.965  34.130  1.00  0.00     0.037 A 
BRANCH  61  75
ATOM     75  C   UNL A   1      40.964  27.789  28.924  1.00  0.00     0.064 A 
ATOM     76  C   UNL A   1      40.026  26.717  28.842  1.00  0.00     0.173 A 
ATOM     77  C   UNL A   1      41.569  28.068  27.674  1.00  0.00     0.173 A 
ATOM     78  F   UNL A   1      39.290  26.353  29.898  1.00  0.00    -0.203 F 
ATOM     79  C   UNL A   1      39.769  25.967  27.681  1.00  0.00     0.198 A 
ATOM     80  C   UNL A   1      41.282  27.333  26.490  1.00  0.00     0.198 A 
ATOM     81  F   UNL A   1      42.453  29.061  27.527  1.00  0.00    -0.203 F 
ATOM     82  F   UNL A   1      38.903  24.944  27.728  1.00  0.00    -0.200 F 
ATOM     83  C   UNL A   1      40.397  26.274  26.500  1.00  0.00     0.200 A 
ATOM     84  F   UNL A   1      41.879  27.660  25.332  1.00  0.00    -0.200 F 
ATOM     85  F   UNL A   1      40.143  25.565  25.389  1.00  0.00    -0.200 F 
ENDBRANCH  61  75
BRANCH  62  86
ATOM     86  C   UNL A   1      42.032  33.336  36.297  1.00  0.00     0.064 A 
ATOM     87  C   UNL A   1      41.709  34.882  36.670  1.00  0.00     0.173 A 
ATOM     88  C   UNL A   1      40.760  32.635  36.787  1.00  0.00     0.173 A 
ATOM     89  F   UNL A   1      42.650  35.848  36.599  1.00  0.00    -0.203 F 
ATOM     90  C   UNL A   1      40.496  35.441  37.083  1.00  0.00     0.198 A 
ATOM     91  C   UNL A   1      39.589  33.271  37.273  1.00  0.00     0.198 A 
ATOM     92  F   UNL A   1      40.632  31.289  36.769  1.00  0.00    -0.203 F 
ATOM     93  F   UNL A   1      40.363  36.776  37.134  1.00  0.00    -0.200 F 
ATOM     94  C   UNL A   1      39.421  34.638  37.302  1.00  0.00     0.200 A 
ATOM     95  F   UNL A   1      38.557  32.503  37.656  1.00  0.00    -0.200 F 
ATOM     96  F   UNL A   1      38.207  35.175  37.487  1.00  0.00    -0.200 F 
ENDBRANCH  62  86
BRANCH  74  97
ATOM     97  C   UNL A   1      44.133  26.467  34.481  1.00  0.00     0.064 A 
ATOM     98  C   UNL A   1      45.026  25.455  34.098  1.00  0.00     0.173 A 
ATOM     99  C   UNL A   1      42.933  25.958  35.059  1.00  0.00     0.173 A 
ATOM    100  F   UNL A   1      46.256  25.684  33.657  1.00  0.00    -0.203 F 
ATOM    101  C   UNL A   1      44.710  24.101  34.127  1.00  0.00     0.198 A 
ATOM    102  C   UNL A   1      42.633  24.596  35.128  1.00  0.00     0.198 A 
ATOM    103  F   UNL A   1      41.970  26.741  35.563  1.00  0.00    -0.203 F 
ATOM    104  F   UNL A   1      45.600  23.223  33.648  1.00  0.00    -0.200 F 
ATOM    105  C   UNL A   1      43.503  23.669  34.613  1.00  0.00     0.200 A 
ATOM    106  F   UNL A   1      41.475  24.199  35.673  1.00  0.00    -0.200 F 
ATOM    107  F   UNL A   1      43.187  22.371  34.584  1.00  0.00    -0.200 F 
ENDBRANCH  74  97
ENDBRANCH  48  49
ENDBRANCH  41  43
ENDBRANCH  40  41
ENDBRANCH  39  40
ENDBRANCH  38  39
ENDBRANCH  37  38
ENDBRANCH   1  37
TORSDOF 20
ENDMDL
MODEL 2
REMARK VINA RESULT:     -10.7      4.388      9.698
REMARK SMILES Cc1cccc(S(=O)(=O)Nc2cc(C(=O)OCCOCCOC(=O)c3ccc(-c4c5nc(c(-c6c(F)c(F)c(F)c(F)c6F)c6ccc([nH]6)c(-c6c(F)c(F)c(F)c(F)c6F)c6nc(c(-c7c(F)c(F)c(F)c(F)c7F)c7ccc4[nH]7)C=C6)C=C5)cc3)ccc2N2CCC[C@H](C[NH+]3CCCC3)C2)c1
REMARK SMILES IDX 18 1 17 2 16 3 14 4 15 5 13 6 11 7 12 8 90 9 89 10 88 11
REMARK SMILES IDX 10 12 7 14 8 15 9 16 6 17 1 18 2 19 3 20 103 21 4 22 5 23
REMARK SMILES IDX 91 24 92 25 102 26 93 27 95 28 94 29 96 30 97 31 98 32
REMARK SMILES IDX 101 33 99 35 100 36 19 37 20 38 21 39 22 40 23 41 24 42
REMARK SMILES IDX 25 43 26 44 87 45 27 46 86 47 28 48 29 49 30 50 80 51 31 52
REMARK SMILES IDX 85 53 79 54 81 55 32 56 84 57 78 58 77 59 33 61 65 62 45 63
REMARK SMILES IDX 64 64 46 65 49 66 63 67 82 68 47 69 48 70 62 72 83 73 50 74
REMARK SMILES IDX 34 75 35 76 43 77 36 78 37 79 41 80 44 81 38 82 39 83 42 84
REMARK SMILES IDX 40 85 66 86 67 87 75 88 68 89 69 90 73 91 76 92 70 93 71 94
REMARK SMILES IDX 74 95 72 96 51 97 52 98 60 99 53 100 54 101 58 102 61 103
REMARK SMILES IDX 55 104 56 105 59 106 57 107
REMARK H PARENT 10 13 97 34 81 60 49 71
REMARK Flexibility Score: inf
ROOT
ATOM      1  C   UNL A   1      39.175  23.064  25.908  1.00  0.00     0.202 C 
ENDROOT
BRANCH   1   2
ATOM      2  C   UNL A   1      38.327  24.072  26.536  1.00  0.00     0.261 C 
BRANCH   2   3
ATOM      3  O   UNL A   1      37.129  24.197  25.812  1.00  0.00    -0.460 OA
BRANCH   3   4
ATOM      4  C   UNL A   1      35.977  23.503  25.882  1.00  0.00     0.338 C 
ATOM      5  O   UNL A   1      35.736  22.334  26.091  1.00  0.00    -0.246 OA
BRANCH   4   6
ATOM      6  C   UNL A   1      35.046  24.487  25.336  1.00  0.00     0.062 A 
ATOM      7  C   UNL A   1      32.697  24.732  25.419  1.00  0.00     0.073 A 
ATOM      8  C   UNL A   1      33.759  24.000  25.020  1.00  0.00     0.044 A 
ATOM      9  C   UNL A   1      32.904  26.108  25.550  1.00  0.00     0.061 A 
ATOM     10  C   UNL A   1      34.210  26.646  25.642  1.00  0.00     0.029 A 
ATOM     11  C   UNL A   1      35.302  25.814  25.629  1.00  0.00     0.018 A 
BRANCH   7  12
ATOM     12  N   UNL A   1      31.459  24.030  25.625  1.00  0.00    -0.277 N 
ATOM     13  H   UNL A   1      30.614  24.520  25.503  1.00  0.00     0.180 HD
BRANCH  12  14
ATOM     14  S   UNL A   1      31.393  22.343  26.082  1.00  0.00     0.261 S 
ATOM     15  O   UNL A   1      29.975  22.054  26.193  1.00  0.00    -0.201 OA
ATOM     16  O   UNL A   1      32.229  22.242  27.262  1.00  0.00    -0.201 OA
BRANCH  14  17
ATOM     17  C   UNL A   1      32.096  21.134  24.856  1.00  0.00     0.088 A 
ATOM     18  C   UNL A   1      32.928  16.383  25.509  1.00  0.00     0.044 C 
ATOM     19  C   UNL A   1      32.943  17.601  24.648  1.00  0.00    -0.050 A 
ATOM     20  C   UNL A   1      32.562  17.939  22.576  1.00  0.00     0.003 A 
ATOM     21  C   UNL A   1      32.602  19.318  25.695  1.00  0.00     0.025 A 
ATOM     22  C   UNL A   1      32.139  19.693  21.610  1.00  0.00     0.002 A 
ATOM     23  C   UNL A   1      31.803  21.440  22.855  1.00  0.00     0.022 A 
ENDBRANCH  14  17
ENDBRANCH  12  14
ENDBRANCH   7  12
BRANCH   9  24
ATOM     24  N   UNL A   1      31.832  26.959  25.427  1.00  0.00    -0.369 N 
ATOM     25  C   UNL A   1      31.393  27.200  24.056  1.00  0.00     0.116 C 
ATOM     26  C   UNL A   1      31.538  27.855  26.527  1.00  0.00     0.126 C 
ATOM     27  C   UNL A   1      31.665  28.639  23.675  1.00  0.00     0.022 C 
ATOM     28  C   UNL A   1      31.720  29.321  26.124  1.00  0.00     0.064 C 
ATOM     29  C   UNL A   1      31.054  29.525  24.750  1.00  0.00     0.013 C 
BRANCH  28  30
ATOM     30  C   UNL A   1      33.208  29.758  26.235  1.00  0.00     0.267 C 
BRANCH  30  31
ATOM     31  N   UNL A   1      33.819  29.938  27.561  1.00  0.00    -0.335 N 
ATOM     32  C   UNL A   1      33.972  31.336  27.965  1.00  0.00     0.262 C 
ATOM     33  C   UNL A   1      35.119  29.298  27.764  1.00  0.00     0.262 C 
ATOM     34  H   UNL A   1      33.128  29.466  28.143  1.00  0.00     0.348 HD
ATOM     35  C   UNL A   1      35.394  31.700  27.583  1.00  0.00     0.067 C 
ATOM     36  C   UNL A   1      36.163  30.413  27.830  1.00  0.00     0.067 C 
ENDBRANCH  30  31
ENDBRANCH  28  30
ENDBRANCH   9  24
ENDBRANCH   4   6
ENDBRANCH   3   4
ENDBRANCH   2   3
ENDBRANCH   1   2
BRANCH   1  37
ATOM     37  O   UNL A   1      39.329  22.030  26.848  1.00  0.00    -0.374 OA
BRANCH  37  38
ATOM     38  C   UNL A   1      40.521  21.290  26.834  1.00  0.00     0.202 C 
BRANCH  38  39
ATOM     39  C   UNL A   1      41.509  22.116  26.037  1.00  0.00     0.261 C 
BRANCH  39  40
ATOM     40  O   UNL A   1      42.318  22.874  27.018  1.00  0.00    -0.460 OA
BRANCH  40  41
ATOM     41  C   UNL A   1      42.614  24.205  26.795  1.00  0.00     0.338 C 
ATOM     42  O   UNL A   1      42.202  24.829  25.825  1.00  0.00    -0.246 OA
BRANCH  41  43
ATOM     43  C   UNL A   1      43.786  24.723  27.671  1.00  0.00     0.060 A 
ATOM     44  C   UNL A   1      43.692  24.755  29.078  1.00  0.00     0.016 A 
ATOM     45  C   UNL A   1      44.643  25.656  27.119  1.00  0.00     0.016 A 
ATOM     46  C   UNL A   1      44.138  25.902  29.821  1.00  0.00     0.010 A 
ATOM     47  C   UNL A   1      44.875  26.859  27.836  1.00  0.00     0.010 A 
ATOM     48  C   UNL A   1      44.476  27.097  29.178  1.00  0.00    -0.014 A 
BRANCH  48  49
ATOM     49  C   UNL A   1      44.728  28.545  29.812  1.00  0.00     0.031 A 
ATOM     50  C   UNL A   1      43.219  29.299  29.434  1.00  0.00     0.074 A 
ATOM     51  C   UNL A   1      45.882  29.134  30.810  1.00  0.00     0.049 A 
ATOM     52  N   UNL A   1      42.723  30.425  29.858  1.00  0.00    -0.248 NA
ATOM     53  C   UNL A   1      42.155  28.621  28.631  1.00  0.00     0.031 C 
ATOM     54  C   UNL A   1      45.843  30.939  32.021  1.00  0.00     0.029 A 
ATOM     55  N   UNL A   1      46.866  28.722  31.405  1.00  0.00    -0.354 N 
ATOM     56  C   UNL A   1      41.313  30.429  29.729  1.00  0.00     0.074 A 
ATOM     57  C   UNL A   1      41.024  29.271  28.941  1.00  0.00     0.031 C 
ATOM     58  C   UNL A   1      46.543  31.196  33.135  1.00  0.00     0.029 A 
ATOM     59  C   UNL A   1      46.976  30.435  32.085  1.00  0.00     0.049 A 
ATOM     60  H   UNL A   1      47.365  27.877  31.484  1.00  0.00     0.167 HD
ATOM     61  C   UNL A   1      40.554  31.385  30.373  1.00  0.00     0.037 A 
ATOM     62  C   UNL A   1      47.660  31.047  31.302  1.00  0.00     0.037 A 
ATOM     63  C   UNL A   1      41.463  32.390  30.946  1.00  0.00     0.049 A 
ATOM     64  C   UNL A   1      47.366  32.785  31.060  1.00  0.00     0.074 A 
ATOM     65  C   UNL A   1      41.790  32.806  32.220  1.00  0.00     0.029 A 
ATOM     66  N   UNL A   1      42.411  32.970  30.113  1.00  0.00    -0.354 N 
ATOM     67  N   UNL A   1      46.204  33.344  31.379  1.00  0.00    -0.248 NA
ATOM     68  C   UNL A   1      48.068  33.574  30.057  1.00  0.00     0.031 C 
ATOM     69  C   UNL A   1      43.021  33.542  32.138  1.00  0.00     0.029 A 
ATOM     70  C   UNL A   1      43.385  33.682  30.806  1.00  0.00     0.049 A 
ATOM     71  H   UNL A   1      42.397  32.886  29.132  1.00  0.00     0.167 HD
ATOM     72  C   UNL A   1      45.771  34.067  30.290  1.00  0.00     0.074 A 
ATOM     73  C   UNL A   1      47.002  34.181  29.511  1.00  0.00     0.031 C 
ATOM     74  C   UNL A   1      44.444  34.355  30.012  1.00  0.00     0.037 A 
BRANCH  61  75
ATOM     75  C   UNL A   1      39.008  31.478  30.633  1.00  0.00     0.064 A 
ATOM     76  C   UNL A   1      38.311  32.672  30.276  1.00  0.00     0.173 A 
ATOM     77  C   UNL A   1      38.157  30.525  31.245  1.00  0.00     0.173 A 
ATOM     78  F   UNL A   1      38.920  33.663  29.615  1.00  0.00    -0.203 F 
ATOM     79  C   UNL A   1      36.956  32.919  30.554  1.00  0.00     0.198 A 
ATOM     80  C   UNL A   1      36.776  30.761  31.493  1.00  0.00     0.198 A 
ATOM     81  F   UNL A   1      38.607  29.324  31.624  1.00  0.00    -0.203 F 
ATOM     82  F   UNL A   1      36.412  34.099  30.220  1.00  0.00    -0.200 F 
ATOM     83  C   UNL A   1      36.183  31.963  31.164  1.00  0.00     0.200 A 
ATOM     84  F   UNL A   1      36.021  29.808  32.064  1.00  0.00    -0.200 F 
ATOM     85  F   UNL A   1      34.886  32.195  31.419  1.00  0.00    -0.200 F 
ENDBRANCH  61  75
BRANCH  62  86
ATOM     86  C   UNL A   1      48.002  29.257  29.976  1.00  0.00     0.064 A 
ATOM     87  C   UNL A   1      48.875  27.941  30.351  1.00  0.00     0.173 A 
ATOM     88  C   UNL A   1      47.701  29.008  28.494  1.00  0.00     0.173 A 
ATOM     89  F   UNL A   1      49.535  27.829  31.523  1.00  0.00    -0.203 F 
ATOM     90  C   UNL A   1      49.068  26.782  29.593  1.00  0.00     0.198 A 
ATOM     91  C   UNL A   1      48.002  27.828  27.766  1.00  0.00     0.198 A 
ATOM     92  F   UNL A   1      47.067  29.924  27.728  1.00  0.00    -0.203 F 
ATOM     93  F   UNL A   1      49.640  25.707  30.159  1.00  0.00    -0.200 F 
ATOM     94  C   UNL A   1      48.559  26.703  28.335  1.00  0.00     0.200 A 
ATOM     95  F   UNL A   1      47.660  27.772  26.470  1.00  0.00    -0.200 F 
ATOM     96  F   UNL A   1      48.550  25.531  27.685  1.00  0.00    -0.200 F 
ENDBRANCH  62  86
BRANCH  74  97
ATOM     97  C   UNL A   1      43.967  35.388  28.965  1.00  0.00     0.064 A 
ATOM     98  C   UNL A   1      43.605  36.712  29.253  1.00  0.00     0.173 A 
ATOM     99  C   UNL A   1      43.657  35.007  27.626  1.00  0.00     0.173 A 
ATOM    100  F   UNL A   1      43.908  37.331  30.387  1.00  0.00    -0.203 F 
ATOM    101  C   UNL A   1      42.876  37.515  28.383  1.00  0.00     0.198 A 
ATOM    102  C   UNL A   1      42.962  35.829  26.737  1.00  0.00     0.198 A 
ATOM    103  F   UNL A   1      43.979  33.814  27.108  1.00  0.00    -0.203 F 
ATOM    104  F   UNL A   1      42.498  38.732  28.795  1.00  0.00    -0.200 F 
ATOM    105  C   UNL A   1      42.526  37.066  27.135  1.00  0.00     0.200 A 
ATOM    106  F   UNL A   1      42.695  35.390  25.499  1.00  0.00    -0.200 F 
ATOM    107  F   UNL A   1      41.776  37.824  26.329  1.00  0.00    -0.200 F 
ENDBRANCH  74  97
ENDBRANCH  48  49
ENDBRANCH  41  43
ENDBRANCH  40  41
ENDBRANCH  39  40
ENDBRANCH  38  39
ENDBRANCH  37  38
ENDBRANCH   1  37
TORSDOF 20
ENDMDL
MODEL 3
REMARK VINA RESULT:     -10.5      3.589      6.399
REMARK SMILES Cc1cccc(S(=O)(=O)Nc2cc(C(=O)OCCOCCOC(=O)c3ccc(-c4c5nc(c(-c6c(F)c(F)c(F)c(F)c6F)c6ccc([nH]6)c(-c6c(F)c(F)c(F)c(F)c6F)c6nc(c(-c7c(F)c(F)c(F)c(F)c7F)c7ccc4[nH]7)C=C6)C=C5)cc3)ccc2N2CCC[C@H](C[NH+]3CCCC3)C2)c1
REMARK SMILES IDX 18 1 17 2 16 3 14 4 15 5 13 6 11 7 12 8 90 9 89 10 88 11
REMARK SMILES IDX 10 12 7 14 8 15 9 16 6 17 1 18 2 19 3 20 103 21 4 22 5 23
REMARK SMILES IDX 91 24 92 25 102 26 93 27 95 28 94 29 96 30 97 31 98 32
REMARK SMILES IDX 101 33 99 35 100 36 19 37 20 38 21 39 22 40 23 41 24 42
REMARK SMILES IDX 25 43 26 44 87 45 27 46 86 47 28 48 29 49 30 50 80 51 31 52
REMARK SMILES IDX 85 53 79 54 81 55 32 56 84 57 78 58 77 59 33 61 65 62 45 63
REMARK SMILES IDX 64 64 46 65 49 66 63 67 82 68 47 69 48 70 62 72 83 73 50 74
REMARK SMILES IDX 34 75 35 76 43 77 36 78 37 79 41 80 44 81 38 82 39 83 42 84
REMARK SMILES IDX 40 85 66 86 67 87 75 88 68 89 69 90 73 91 76 92 70 93 71 94
REMARK SMILES IDX 74 95 72 96 51 97 52 98 60 99 53 100 54 101 58 102 61 103
REMARK SMILES IDX 55 104 56 105 59 106 57 107
REMARK H PARENT 10 13 97 34 81 60 49 71
REMARK Flexibility Score: inf
ROOT
ATOM      1  C   UNL A   1      33.348  36.856  29.647  1.00  0.00     0.202 C 
ENDROOT
BRANCH   1   2
ATOM      2  C   UNL A   1      32.696  35.608  29.263  1.00  0.00     0.261 C 
BRANCH   2   3
ATOM      3  O   UNL A   1      33.548  34.869  28.425  1.00  0.00    -0.460 OA
BRANCH   3   4
ATOM      4  C   UNL A   1      34.597  34.073  28.710  1.00  0.00     0.338 C 
ATOM      5  O   UNL A   1      35.631  34.263  29.312  1.00  0.00    -0.246 OA
BRANCH   4   6
ATOM      6  C   UNL A   1      34.310  32.941  27.833  1.00  0.00     0.062 A 
ATOM      7  C   UNL A   1      34.892  30.651  27.882  1.00  0.00     0.073 A 
ATOM      8  C   UNL A   1      35.300  31.935  27.792  1.00  0.00     0.044 A 
ATOM      9  C   UNL A   1      33.604  30.373  27.417  1.00  0.00     0.061 A 
ATOM     10  C   UNL A   1      32.655  31.408  27.232  1.00  0.00     0.029 A 
ATOM     11  C   UNL A   1      32.981  32.707  27.533  1.00  0.00     0.018 A 
BRANCH   7  12
ATOM     12  N   UNL A   1      35.835  29.700  28.404  1.00  0.00    -0.277 N 
ATOM     13  H   UNL A   1      35.968  28.853  27.920  1.00  0.00     0.180 HD
BRANCH  12  14
ATOM     14  S   UNL A   1      36.758  29.985  29.862  1.00  0.00     0.261 S 
ATOM     15  O   UNL A   1      35.985  29.345  30.910  1.00  0.00    -0.201 OA
ATOM     16  O   UNL A   1      36.954  31.421  29.905  1.00  0.00    -0.201 OA
BRANCH  14  17
ATOM     17  C   UNL A   1      38.460  29.238  29.914  1.00  0.00     0.088 A 
ATOM     18  C   UNL A   1      41.791  29.176  26.365  1.00  0.00     0.044 C 
ATOM     19  C   UNL A   1      41.362  28.843  27.755  1.00  0.00    -0.050 A 
ATOM     20  C   UNL A   1      42.378  28.792  29.632  1.00  0.00     0.003 A 
ATOM     21  C   UNL A   1      39.368  29.138  28.064  1.00  0.00     0.025 A 
ATOM     22  C   UNL A   1      41.596  28.796  31.523  1.00  0.00     0.002 A 
ATOM     23  C   UNL A   1      39.455  29.117  31.697  1.00  0.00     0.022 A 
ENDBRANCH  14  17
ENDBRANCH  12  14
ENDBRANCH   7  12
BRANCH   9  24
ATOM     24  N   UNL A   1      33.310  29.104  26.983  1.00  0.00    -0.369 N 
ATOM     25  C   UNL A   1      34.372  28.451  26.226  1.00  0.00     0.116 C 
ATOM     26  C   UNL A   1      31.916  28.713  26.900  1.00  0.00     0.126 C 
ATOM     27  C   UNL A   1      33.941  28.271  24.786  1.00  0.00     0.022 C 
ATOM     28  C   UNL A   1      31.494  28.438  25.454  1.00  0.00     0.064 C 
ATOM     29  C   UNL A   1      32.587  27.578  24.792  1.00  0.00     0.013 C 
BRANCH  28  30
ATOM     30  C   UNL A   1      31.115  29.752  24.715  1.00  0.00     0.267 C 
BRANCH  30  31
ATOM     31  N   UNL A   1      30.506  29.688  23.377  1.00  0.00    -0.335 N 
ATOM     32  C   UNL A   1      29.520  30.737  23.117  1.00  0.00     0.262 C 
ATOM     33  C   UNL A   1      29.873  28.419  23.018  1.00  0.00     0.262 C 
ATOM     34  H   UNL A   1      31.335  29.816  22.796  1.00  0.00     0.348 HD
ATOM     35  C   UNL A   1      28.180  30.103  23.437  1.00  0.00     0.067 C 
ATOM     36  C   UNL A   1      28.363  28.660  23.000  1.00  0.00     0.067 C 
ENDBRANCH  30  31
ENDBRANCH  28  30
ENDBRANCH   9  24
ENDBRANCH   4   6
ENDBRANCH   3   4
ENDBRANCH   2   3
ENDBRANCH   1   2
BRANCH   1  37
ATOM     37  O   UNL A   1      32.779  37.243  30.873  1.00  0.00    -0.374 OA
BRANCH  37  38
ATOM     38  C   UNL A   1      32.810  36.329  31.938  1.00  0.00     0.202 C 
BRANCH  38  39
ATOM     39  C   UNL A   1      33.588  37.013  33.043  1.00  0.00     0.261 C 
BRANCH  39  40
ATOM     40  O   UNL A   1      34.936  36.401  33.054  1.00  0.00    -0.460 OA
BRANCH  40  41
ATOM     41  C   UNL A   1      35.163  35.228  33.748  1.00  0.00     0.338 C 
ATOM     42  O   UNL A   1      34.800  35.055  34.906  1.00  0.00    -0.246 OA
BRANCH  41  43
ATOM     43  C   UNL A   1      36.213  34.310  33.068  1.00  0.00     0.060 A 
ATOM     44  C   UNL A   1      36.497  33.022  33.570  1.00  0.00     0.016 A 
ATOM     45  C   UNL A   1      37.248  34.910  32.377  1.00  0.00     0.016 A 
ATOM     46  C   UNL A   1      37.852  32.560  33.689  1.00  0.00     0.010 A 
ATOM     47  C   UNL A   1      38.577  34.534  32.700  1.00  0.00     0.010 A 
ATOM     48  C   UNL A   1      38.934  33.430  33.520  1.00  0.00    -0.014 A 
BRANCH  48  49
ATOM     49  C   UNL A   1      40.479  33.195  33.867  1.00  0.00     0.031 A 
ATOM     50  C   UNL A   1      41.038  32.610  32.340  1.00  0.00     0.074 A 
ATOM     51  C   UNL A   1      41.411  33.639  35.135  1.00  0.00     0.049 A 
ATOM     52  N   UNL A   1      42.255  32.427  31.914  1.00  0.00    -0.248 NA
ATOM     53  C   UNL A   1      40.124  32.370  31.181  1.00  0.00     0.031 C 
ATOM     54  C   UNL A   1      43.580  33.733  35.263  1.00  0.00     0.029 A 
ATOM     55  N   UNL A   1      41.294  34.275  36.171  1.00  0.00    -0.354 N 
ATOM     56  C   UNL A   1      42.295  32.436  30.499  1.00  0.00     0.074 A 
ATOM     57  C   UNL A   1      40.921  32.393  30.103  1.00  0.00     0.031 C 
ATOM     58  C   UNL A   1      44.321  34.487  36.087  1.00  0.00     0.029 A 
ATOM     59  C   UNL A   1      43.099  33.953  36.387  1.00  0.00     0.049 A 
ATOM     60  H   UNL A   1      40.576  34.739  36.661  1.00  0.00     0.167 HD
ATOM     61  C   UNL A   1      43.498  32.551  29.833  1.00  0.00     0.037 A 
ATOM     62  C   UNL A   1      43.168  32.911  36.991  1.00  0.00     0.037 A 
ATOM     63  C   UNL A   1      44.585  32.437  30.819  1.00  0.00     0.049 A 
ATOM     64  C   UNL A   1      44.550  31.827  36.704  1.00  0.00     0.074 A 
ATOM     65  C   UNL A   1      45.572  33.277  31.292  1.00  0.00     0.029 A 
ATOM     66  N   UNL A   1      44.582  31.348  31.679  1.00  0.00    -0.354 N 
ATOM     67  N   UNL A   1      45.277  31.907  35.595  1.00  0.00    -0.248 NA
ATOM     68  C   UNL A   1      44.656  30.505  37.306  1.00  0.00     0.031 C 
ATOM     69  C   UNL A   1      46.069  32.720  32.520  1.00  0.00     0.029 A 
ATOM     70  C   UNL A   1      45.476  31.484  32.737  1.00  0.00     0.049 A 
ATOM     71  H   UNL A   1      44.007  30.559  31.554  1.00  0.00     0.167 HD
ATOM     72  C   UNL A   1      45.364  30.642  35.058  1.00  0.00     0.074 A 
ATOM     73  C   UNL A   1      44.971  29.816  36.196  1.00  0.00     0.031 C 
ATOM     74  C   UNL A   1      45.565  30.369  33.713  1.00  0.00     0.037 A 
BRANCH  61  75
ATOM     75  C   UNL A   1      43.825  32.855  28.327  1.00  0.00     0.064 A 
ATOM     76  C   UNL A   1      44.689  31.975  27.610  1.00  0.00     0.173 A 
ATOM     77  C   UNL A   1      43.408  33.956  27.540  1.00  0.00     0.173 A 
ATOM     78  F   UNL A   1      45.129  30.834  28.152  1.00  0.00    -0.203 F 
ATOM     79  C   UNL A   1      45.142  32.195  26.297  1.00  0.00     0.198 A 
ATOM     80  C   UNL A   1      43.837  34.159  26.198  1.00  0.00     0.198 A 
ATOM     81  F   UNL A   1      42.566  34.880  28.014  1.00  0.00    -0.203 F 
ATOM     82  F   UNL A   1      45.997  31.328  25.734  1.00  0.00    -0.200 F 
ATOM     83  C   UNL A   1      44.716  33.289  25.586  1.00  0.00     0.200 A 
ATOM     84  F   UNL A   1      43.391  35.217  25.501  1.00  0.00    -0.200 F 
ATOM     85  F   UNL A   1      45.139  33.492  24.329  1.00  0.00    -0.200 F 
ENDBRANCH  61  75
BRANCH  62  86
ATOM     86  C   UNL A   1      40.932  32.686  37.152  1.00  0.00     0.064 A 
ATOM     87  C   UNL A   1      39.950  33.547  38.114  1.00  0.00     0.173 A 
ATOM     88  C   UNL A   1      39.968  31.626  36.607  1.00  0.00     0.173 A 
ATOM     89  F   UNL A   1      40.421  34.480  38.969  1.00  0.00    -0.203 F 
ATOM     90  C   UNL A   1      38.555  33.491  38.207  1.00  0.00     0.198 A 
ATOM     91  C   UNL A   1      38.565  31.587  36.813  1.00  0.00     0.198 A 
ATOM     92  F   UNL A   1      40.391  30.608  35.824  1.00  0.00    -0.203 F 
ATOM     93  F   UNL A   1      37.897  34.434  38.899  1.00  0.00    -0.200 F 
ATOM     94  C   UNL A   1      37.867  32.562  37.491  1.00  0.00     0.200 A 
ATOM     95  F   UNL A   1      37.865  30.587  36.254  1.00  0.00    -0.200 F 
ATOM     96  F   UNL A   1      36.532  32.634  37.405  1.00  0.00    -0.200 F 
ENDBRANCH  62  86
BRANCH  74  97
ATOM     97  C   UNL A   1      45.943  28.982  33.143  1.00  0.00     0.064 A 
ATOM     98  C   UNL A   1      47.128  28.697  32.449  1.00  0.00     0.173 A 
ATOM     99  C   UNL A   1      45.002  27.911  33.098  1.00  0.00     0.173 A 
ATOM    100  F   UNL A   1      48.196  29.484  32.457  1.00  0.00    -0.203 F 
ATOM    101  C   UNL A   1      47.305  27.561  31.666  1.00  0.00     0.198 A 
ATOM    102  C   UNL A   1      45.198  26.751  32.346  1.00  0.00     0.198 A 
ATOM    103  F   UNL A   1      43.833  27.932  33.750  1.00  0.00    -0.203 F 
ATOM    104  F   UNL A   1      48.441  27.434  30.968  1.00  0.00    -0.200 F 
ATOM    105  C   UNL A   1      46.331  26.601  31.588  1.00  0.00     0.200 A 
ATOM    106  F   UNL A   1      44.257  25.796  32.344  1.00  0.00    -0.200 F 
ATOM    107  F   UNL A   1      46.488  25.541  30.788  1.00  0.00    -0.200 F 
ENDBRANCH  74  97
ENDBRANCH  48  49
ENDBRANCH  41  43
ENDBRANCH  40  41
ENDBRANCH  39  40
ENDBRANCH  38  39
ENDBRANCH  37  38
ENDBRANCH   1  37
TORSDOF 20
ENDMDL
