MODEL 1
REMARK VINA RESULT:     -11.8      0.000      0.000
REMARK SMILES O=C(/C=C/c1ccccc1Oc1cccc(Cl)c1)OCCOCCOC(=O)c1ccc(-c2c3nc(c(-c4c(F)c(F)c(F)c(F)c4F)c4ccc([nH]4)c(-c4c(F)c(F)c(F)c(F)c4F)c4nc(c(-c5c(F)c(F)c(F)c(F)c5F)c5ccc2[nH]5)C=C4)C=C3)cc1
REMARK SMILES IDX 21 1 20 2 19 3 2 4 1 5 3 6 4 7 5 8 6 9 10 10 7 11 9 12 8 13
REMARK SMILES IDX 11 14 12 15 13 16 18 17 14 18 16 19 15 20 17 21 22 22 23 23
REMARK SMILES IDX 24 24 25 25 26 26 27 27 28 28 29 29 90 30 30 31 89 32 31 33
REMARK SMILES IDX 32 34 33 35 83 36 34 37 88 38 82 39 84 40 35 41 87 42 81 43
REMARK SMILES IDX 80 44 36 46 68 47 48 48 67 49 49 50 52 51 66 52 85 53 50 54
REMARK SMILES IDX 51 55 65 57 86 58 53 59 37 60 38 61 46 62 39 63 40 64 44 65
REMARK SMILES IDX 47 66 41 67 42 68 45 69 43 70 69 71 70 72 78 73 71 74 72 75
REMARK SMILES IDX 76 76 79 77 73 78 74 79 77 80 75 81 54 82 55 83 63 84 56 85
REMARK SMILES IDX 57 86 61 87 64 88 58 89 59 90 62 91 60 92
REMARK H PARENT 84 45 52 56
REMARK Flexibility Score: inf
ROOT
ATOM      1  C   UNL A   1      32.367  28.977  23.429  1.00  0.00     0.202 C 
ENDROOT
BRANCH   1   2
ATOM      2  C   UNL A   1      32.862  27.541  23.257  1.00  0.00     0.261 C 
BRANCH   2   3
ATOM      3  O   UNL A   1      33.827  27.105  24.225  1.00  0.00    -0.460 OA
BRANCH   3   4
ATOM      4  C   UNL A   1      33.676  26.041  25.040  1.00  0.00     0.330 C 
ATOM      5  O   UNL A   1      32.859  26.072  25.957  1.00  0.00    -0.247 OA
BRANCH   4   6
ATOM      6  C   UNL A   1      34.550  24.864  24.895  1.00  0.00     0.094 C 
ATOM      7  C   UNL A   1      34.825  23.965  25.846  1.00  0.00     0.019 C 
BRANCH   7   8
ATOM      8  C   UNL A   1      35.752  22.859  25.653  1.00  0.00     0.017 A 
ATOM      9  C   UNL A   1      37.086  23.231  25.389  1.00  0.00     0.012 A 
ATOM     10  C   UNL A   1      35.376  21.505  25.625  1.00  0.00     0.134 A 
ATOM     11  C   UNL A   1      38.046  22.272  25.078  1.00  0.00     0.001 A 
ATOM     12  C   UNL A   1      36.363  20.555  25.324  1.00  0.00     0.048 A 
ATOM     13  C   UNL A   1      37.682  20.932  25.044  1.00  0.00     0.004 A 
BRANCH  10  14
ATOM     14  O   UNL A   1      34.127  20.936  25.832  1.00  0.00    -0.457 OA
BRANCH  14  15
ATOM     15  C   UNL A   1      33.507  20.212  24.844  1.00  0.00     0.128 A 
ATOM     16  C   UNL A   1      32.774  20.893  23.867  1.00  0.00     0.047 A 
ATOM     17  C   UNL A   1      33.594  18.817  24.817  1.00  0.00     0.067 A 
ATOM     18  C   UNL A   1      32.206  20.184  22.806  1.00  0.00     0.005 A 
ATOM     19  C   UNL A   1      33.061  18.122  23.731  1.00  0.00     0.044 A 
ATOM     20  C   UNL A   1      32.367  18.798  22.727  1.00  0.00     0.021 A 
ATOM     21  Cl  UNL A   1      33.365  16.435  23.570  1.00  0.00    -0.084 Cl
ENDBRANCH  14  15
ENDBRANCH  10  14
ENDBRANCH   7   8
ENDBRANCH   4   6
ENDBRANCH   3   4
ENDBRANCH   2   3
ENDBRANCH   1   2
BRANCH   1  22
ATOM     22  O   UNL A   1      32.603  29.692  24.640  1.00  0.00    -0.374 OA
BRANCH  22  23
ATOM     23  C   UNL A   1      31.448  30.129  25.371  1.00  0.00     0.202 C 
BRANCH  23  24
ATOM     24  C   UNL A   1      31.627  31.169  26.484  1.00  0.00     0.261 C 
BRANCH  24  25
ATOM     25  O   UNL A   1      32.802  30.926  27.262  1.00  0.00    -0.460 OA
BRANCH  25  26
ATOM     26  C   UNL A   1      33.522  32.040  27.535  1.00  0.00     0.338 C 
ATOM     27  O   UNL A   1      33.109  33.185  27.631  1.00  0.00    -0.246 OA
BRANCH  26  28
ATOM     28  C   UNL A   1      34.868  31.626  27.977  1.00  0.00     0.060 A 
ATOM     29  C   UNL A   1      35.070  30.257  28.216  1.00  0.00     0.016 A 
ATOM     30  C   UNL A   1      35.923  32.535  28.088  1.00  0.00     0.016 A 
ATOM     31  C   UNL A   1      36.311  29.799  28.633  1.00  0.00     0.010 A 
ATOM     32  C   UNL A   1      37.161  32.082  28.542  1.00  0.00     0.010 A 
ATOM     33  C   UNL A   1      37.331  30.724  28.868  1.00  0.00    -0.014 A 
BRANCH  33  34
ATOM     34  C   UNL A   1      38.442  30.331  29.754  1.00  0.00     0.031 A 
ATOM     35  C   UNL A   1      39.427  29.336  29.206  1.00  0.00     0.074 A 
ATOM     36  C   UNL A   1      38.584  30.862  30.976  1.00  0.00     0.049 A 
ATOM     37  N   UNL A   1      40.445  28.763  29.789  1.00  0.00    -0.248 NA
ATOM     38  C   UNL A   1      39.225  28.924  27.805  1.00  0.00     0.031 C 
ATOM     39  C   UNL A   1      37.713  31.876  31.566  1.00  0.00     0.029 A 
ATOM     40  N   UNL A   1      39.516  30.605  31.946  1.00  0.00    -0.354 N 
ATOM     41  C   UNL A   1      40.992  27.918  28.831  1.00  0.00     0.074 A 
ATOM     42  C   UNL A   1      40.181  28.024  27.643  1.00  0.00     0.031 C 
ATOM     43  C   UNL A   1      38.143  32.143  32.811  1.00  0.00     0.029 A 
ATOM     44  C   UNL A   1      39.292  31.290  33.113  1.00  0.00     0.049 A 
ATOM     45  H   UNL A   1      40.274  29.989  31.818  1.00  0.00     0.167 HD
ATOM     46  C   UNL A   1      42.084  27.127  28.939  1.00  0.00     0.037 A 
ATOM     47  C   UNL A   1      39.931  31.204  34.294  1.00  0.00     0.037 A 
ATOM     48  C   UNL A   1      42.876  27.034  30.134  1.00  0.00     0.049 A 
ATOM     49  C   UNL A   1      41.097  30.253  34.415  1.00  0.00     0.074 A 
ATOM     50  C   UNL A   1      44.007  26.276  30.365  1.00  0.00     0.029 A 
ATOM     51  N   UNL A   1      42.602  27.721  31.310  1.00  0.00    -0.354 N 
ATOM     52  N   UNL A   1      41.626  29.466  33.507  1.00  0.00    -0.248 NA
ATOM     53  C   UNL A   1      41.758  30.183  35.725  1.00  0.00     0.031 C 
ATOM     54  C   UNL A   1      44.384  26.457  31.698  1.00  0.00     0.029 A 
ATOM     55  C   UNL A   1      43.529  27.382  32.280  1.00  0.00     0.049 A 
ATOM     56  H   UNL A   1      41.860  28.355  31.435  1.00  0.00     0.167 HD
ATOM     57  C   UNL A   1      42.696  28.831  34.123  1.00  0.00     0.074 A 
ATOM     58  C   UNL A   1      42.750  29.339  35.480  1.00  0.00     0.031 C 
ATOM     59  C   UNL A   1      43.558  27.913  33.620  1.00  0.00     0.037 A 
BRANCH  46  60
ATOM     60  C   UNL A   1      42.450  26.283  27.754  1.00  0.00     0.064 A 
ATOM     61  C   UNL A   1      41.833  25.048  27.501  1.00  0.00     0.173 A 
ATOM     62  C   UNL A   1      43.431  26.721  26.852  1.00  0.00     0.173 A 
ATOM     63  F   UNL A   1      40.906  24.571  28.346  1.00  0.00    -0.203 F 
ATOM     64  C   UNL A   1      42.202  24.272  26.405  1.00  0.00     0.198 A 
ATOM     65  C   UNL A   1      43.774  25.958  25.738  1.00  0.00     0.198 A 
ATOM     66  F   UNL A   1      44.059  27.890  27.049  1.00  0.00    -0.203 F 
ATOM     67  F   UNL A   1      41.637  23.071  26.215  1.00  0.00    -0.200 F 
ATOM     68  C   UNL A   1      43.165  24.732  25.519  1.00  0.00     0.200 A 
ATOM     69  F   UNL A   1      44.698  26.410  24.878  1.00  0.00    -0.200 F 
ATOM     70  F   UNL A   1      43.514  23.990  24.461  1.00  0.00    -0.200 F 
ENDBRANCH  46  60
BRANCH  47  71
ATOM     71  C   UNL A   1      39.477  32.018  35.451  1.00  0.00     0.064 A 
ATOM     72  C   UNL A   1      38.579  31.497  36.394  1.00  0.00     0.173 A 
ATOM     73  C   UNL A   1      39.920  33.336  35.633  1.00  0.00     0.173 A 
ATOM     74  F   UNL A   1      38.109  30.249  36.252  1.00  0.00    -0.203 F 
ATOM     75  C   UNL A   1      38.126  32.271  37.461  1.00  0.00     0.198 A 
ATOM     76  C   UNL A   1      39.491  34.098  36.718  1.00  0.00     0.198 A 
ATOM     77  F   UNL A   1      40.779  33.883  34.761  1.00  0.00    -0.203 F 
ATOM     78  F   UNL A   1      37.230  31.765  38.319  1.00  0.00    -0.200 F 
ATOM     79  C   UNL A   1      38.588  33.568  37.626  1.00  0.00     0.200 A 
ATOM     80  F   UNL A   1      39.951  35.346  36.881  1.00  0.00    -0.200 F 
ATOM     81  F   UNL A   1      38.154  34.310  38.655  1.00  0.00    -0.200 F 
ENDBRANCH  47  71
BRANCH  59  82
ATOM     82  C   UNL A   1      44.656  27.433  34.525  1.00  0.00     0.064 A 
ATOM     83  C   UNL A   1      45.872  28.121  34.642  1.00  0.00     0.173 A 
ATOM     84  C   UNL A   1      44.467  26.291  35.321  1.00  0.00     0.173 A 
ATOM     85  F   UNL A   1      46.106  29.210  33.894  1.00  0.00    -0.203 F 
ATOM     86  C   UNL A   1      46.871  27.667  35.498  1.00  0.00     0.198 A 
ATOM     87  C   UNL A   1      45.452  25.862  36.204  1.00  0.00     0.198 A 
ATOM     88  F   UNL A   1      43.316  25.604  35.256  1.00  0.00    -0.203 F 
ATOM     89  F   UNL A   1      48.046  28.307  35.552  1.00  0.00    -0.200 F 
ATOM     90  C   UNL A   1      46.657  26.543  36.284  1.00  0.00     0.200 A 
ATOM     91  F   UNL A   1      45.235  24.790  36.977  1.00  0.00    -0.200 F 
ATOM     92  F   UNL A   1      47.615  26.114  37.116  1.00  0.00    -0.200 F 
ENDBRANCH  59  82
ENDBRANCH  33  34
ENDBRANCH  26  28
ENDBRANCH  25  26
ENDBRANCH  24  25
ENDBRANCH  23  24
ENDBRANCH  22  23
ENDBRANCH   1  22
TORSDOF 17
ENDMDL
MODEL 2
REMARK VINA RESULT:     -11.5      4.649      8.442
REMARK SMILES O=C(/C=C/c1ccccc1Oc1cccc(Cl)c1)OCCOCCOC(=O)c1ccc(-c2c3nc(c(-c4c(F)c(F)c(F)c(F)c4F)c4ccc([nH]4)c(-c4c(F)c(F)c(F)c(F)c4F)c4nc(c(-c5c(F)c(F)c(F)c(F)c5F)c5ccc2[nH]5)C=C4)C=C3)cc1
REMARK SMILES IDX 21 1 20 2 19 3 2 4 1 5 3 6 4 7 5 8 6 9 10 10 7 11 9 12 8 13
REMARK SMILES IDX 11 14 12 15 13 16 18 17 14 18 16 19 15 20 17 21 22 22 23 23
REMARK SMILES IDX 24 24 25 25 26 26 27 27 28 28 29 29 90 30 30 31 89 32 31 33
REMARK SMILES IDX 32 34 33 35 83 36 34 37 88 38 82 39 84 40 35 41 87 42 81 43
REMARK SMILES IDX 80 44 36 46 68 47 48 48 67 49 49 50 52 51 66 52 85 53 50 54
REMARK SMILES IDX 51 55 65 57 86 58 53 59 37 60 38 61 46 62 39 63 40 64 44 65
REMARK SMILES IDX 47 66 41 67 42 68 45 69 43 70 69 71 70 72 78 73 71 74 72 75
REMARK SMILES IDX 76 76 79 77 73 78 74 79 77 80 75 81 54 82 55 83 63 84 56 85
REMARK SMILES IDX 57 86 61 87 64 88 58 89 59 90 62 91 60 92
REMARK H PARENT 84 45 52 56
REMARK Flexibility Score: inf
ROOT
ATOM      1  C   UNL A   1      37.104  21.557  25.341  1.00  0.00     0.202 C 
ENDROOT
BRANCH   1   2
ATOM      2  C   UNL A   1      36.072  22.144  24.378  1.00  0.00     0.261 C 
BRANCH   2   3
ATOM      3  O   UNL A   1      35.662  23.489  24.665  1.00  0.00    -0.460 OA
BRANCH   3   4
ATOM      4  C   UNL A   1      34.800  24.208  23.917  1.00  0.00     0.330 C 
ATOM      5  O   UNL A   1      34.572  23.890  22.754  1.00  0.00    -0.247 OA
BRANCH   4   6
ATOM      6  C   UNL A   1      34.191  25.435  24.460  1.00  0.00     0.094 C 
ATOM      7  C   UNL A   1      33.954  25.692  25.751  1.00  0.00     0.019 C 
BRANCH   7   8
ATOM      8  C   UNL A   1      33.287  26.900  26.213  1.00  0.00     0.017 A 
ATOM      9  C   UNL A   1      34.112  28.039  26.320  1.00  0.00     0.012 A 
ATOM     10  C   UNL A   1      31.946  26.956  26.629  1.00  0.00     0.134 A 
ATOM     11  C   UNL A   1      33.621  29.227  26.855  1.00  0.00     0.001 A 
ATOM     12  C   UNL A   1      31.469  28.168  27.151  1.00  0.00     0.048 A 
ATOM     13  C   UNL A   1      32.298  29.290  27.273  1.00  0.00     0.004 A 
BRANCH  10  14
ATOM     14  O   UNL A   1      30.983  25.955  26.630  1.00  0.00    -0.457 OA
BRANCH  14  15
ATOM     15  C   UNL A   1      30.924  25.031  25.617  1.00  0.00     0.128 A 
ATOM     16  C   UNL A   1      30.464  25.435  24.360  1.00  0.00     0.047 A 
ATOM     17  C   UNL A   1      31.303  23.704  25.837  1.00  0.00     0.067 A 
ATOM     18  C   UNL A   1      30.475  24.532  23.294  1.00  0.00     0.005 A 
ATOM     19  C   UNL A   1      31.352  22.821  24.757  1.00  0.00     0.044 A 
ATOM     20  C   UNL A   1      30.939  23.228  23.488  1.00  0.00     0.021 A 
ATOM     21  Cl  UNL A   1      32.038  21.256  24.969  1.00  0.00    -0.084 Cl
ENDBRANCH  14  15
ENDBRANCH  10  14
ENDBRANCH   7   8
ENDBRANCH   4   6
ENDBRANCH   3   4
ENDBRANCH   2   3
ENDBRANCH   1   2
BRANCH   1  22
ATOM     22  O   UNL A   1      38.017  22.401  26.039  1.00  0.00    -0.374 OA
BRANCH  22  23
ATOM     23  C   UNL A   1      39.337  21.884  26.263  1.00  0.00     0.202 C 
BRANCH  23  24
ATOM     24  C   UNL A   1      39.682  20.483  25.743  1.00  0.00     0.261 C 
BRANCH  24  25
ATOM     25  O   UNL A   1      40.572  19.789  26.621  1.00  0.00    -0.460 OA
BRANCH  25  26
ATOM     26  C   UNL A   1      41.850  19.732  26.177  1.00  0.00     0.338 C 
ATOM     27  O   UNL A   1      42.339  18.900  25.428  1.00  0.00    -0.246 OA
BRANCH  26  28
ATOM     28  C   UNL A   1      42.518  21.002  26.521  1.00  0.00     0.060 A 
ATOM     29  C   UNL A   1      42.545  21.363  27.877  1.00  0.00     0.016 A 
ATOM     30  C   UNL A   1      43.160  21.786  25.559  1.00  0.00     0.016 A 
ATOM     31  C   UNL A   1      43.158  22.544  28.272  1.00  0.00     0.010 A 
ATOM     32  C   UNL A   1      43.744  22.990  25.947  1.00  0.00     0.010 A 
ATOM     33  C   UNL A   1      43.687  23.391  27.295  1.00  0.00    -0.014 A 
BRANCH  33  34
ATOM     34  C   UNL A   1      43.876  24.815  27.631  1.00  0.00     0.031 A 
ATOM     35  C   UNL A   1      45.292  25.309  27.717  1.00  0.00     0.074 A 
ATOM     36  C   UNL A   1      42.832  25.634  27.817  1.00  0.00     0.049 A 
ATOM     37  N   UNL A   1      45.746  26.482  28.065  1.00  0.00    -0.248 NA
ATOM     38  C   UNL A   1      46.344  24.336  27.369  1.00  0.00     0.031 C 
ATOM     39  C   UNL A   1      41.426  25.256  27.694  1.00  0.00     0.029 A 
ATOM     40  N   UNL A   1      42.801  26.958  28.162  1.00  0.00    -0.354 N 
ATOM     41  C   UNL A   1      47.130  26.382  27.991  1.00  0.00     0.074 A 
ATOM     42  C   UNL A   1      47.447  25.030  27.598  1.00  0.00     0.031 C 
ATOM     43  C   UNL A   1      40.664  26.325  27.981  1.00  0.00     0.029 A 
ATOM     44  C   UNL A   1      41.532  27.445  28.343  1.00  0.00     0.049 A 
ATOM     45  H   UNL A   1      43.611  27.508  28.270  1.00  0.00     0.167 HD
ATOM     46  C   UNL A   1      48.053  27.343  28.226  1.00  0.00     0.037 A 
ATOM     47  C   UNL A   1      41.132  28.653  28.784  1.00  0.00     0.037 A 
ATOM     48  C   UNL A   1      47.715  28.682  28.621  1.00  0.00     0.049 A 
ATOM     49  C   UNL A   1      42.183  29.683  29.118  1.00  0.00     0.074 A 
ATOM     50  C   UNL A   1      48.557  29.745  28.880  1.00  0.00     0.029 A 
ATOM     51  N   UNL A   1      46.417  29.134  28.824  1.00  0.00    -0.354 N 
ATOM     52  N   UNL A   1      43.490  29.595  29.033  1.00  0.00    -0.248 NA
ATOM     53  C   UNL A   1      41.701  30.982  29.606  1.00  0.00     0.031 C 
ATOM     54  C   UNL A   1      47.773  30.824  29.299  1.00  0.00     0.029 A 
ATOM     55  C   UNL A   1      46.438  30.456  29.234  1.00  0.00     0.049 A 
ATOM     56  H   UNL A   1      45.604  28.595  28.695  1.00  0.00     0.167 HD
ATOM     57  C   UNL A   1      43.986  30.831  29.426  1.00  0.00     0.074 A 
ATOM     58  C   UNL A   1      42.835  31.657  29.734  1.00  0.00     0.031 C 
ATOM     59  C   UNL A   1      45.271  31.251  29.525  1.00  0.00     0.037 A 
BRANCH  46  60
ATOM     60  C   UNL A   1      49.498  26.962  28.101  1.00  0.00     0.064 A 
ATOM     61  C   UNL A   1      50.172  26.989  26.870  1.00  0.00     0.173 A 
ATOM     62  C   UNL A   1      50.225  26.568  29.235  1.00  0.00     0.173 A 
ATOM     63  F   UNL A   1      49.517  27.334  25.750  1.00  0.00    -0.203 F 
ATOM     64  C   UNL A   1      51.509  26.613  26.774  1.00  0.00     0.198 A 
ATOM     65  C   UNL A   1      51.572  26.225  29.142  1.00  0.00     0.198 A 
ATOM     66  F   UNL A   1      49.629  26.516  30.436  1.00  0.00    -0.203 F 
ATOM     67  F   UNL A   1      52.115  26.594  25.578  1.00  0.00    -0.200 F 
ATOM     68  C   UNL A   1      52.210  26.240  27.911  1.00  0.00     0.200 A 
ATOM     69  F   UNL A   1      52.249  25.875  30.244  1.00  0.00    -0.200 F 
ATOM     70  F   UNL A   1      53.499  25.886  27.820  1.00  0.00    -0.200 F 
ENDBRANCH  46  60
BRANCH  47  71
ATOM     71  C   UNL A   1      39.685  28.945  28.951  1.00  0.00     0.064 A 
ATOM     72  C   UNL A   1      39.055  28.797  30.195  1.00  0.00     0.173 A 
ATOM     73  C   UNL A   1      38.897  29.368  27.869  1.00  0.00     0.173 A 
ATOM     74  F   UNL A   1      39.760  28.375  31.255  1.00  0.00    -0.203 F 
ATOM     75  C   UNL A   1      37.691  29.039  30.345  1.00  0.00     0.198 A 
ATOM     76  C   UNL A   1      37.540  29.640  28.028  1.00  0.00     0.198 A 
ATOM     77  F   UNL A   1      39.449  29.525  26.657  1.00  0.00    -0.203 F 
ATOM     78  F   UNL A   1      37.106  28.842  31.534  1.00  0.00    -0.200 F 
ATOM     79  C   UNL A   1      36.936  29.467  29.264  1.00  0.00     0.200 A 
ATOM     80  F   UNL A   1      36.817  30.066  26.983  1.00  0.00    -0.200 F 
ATOM     81  F   UNL A   1      35.625  29.703  29.410  1.00  0.00    -0.200 F 
ENDBRANCH  47  71
BRANCH  59  82
ATOM     82  C   UNL A   1      45.499  32.676  29.942  1.00  0.00     0.064 A 
ATOM     83  C   UNL A   1      45.699  33.031  31.283  1.00  0.00     0.173 A 
ATOM     84  C   UNL A   1      45.564  33.693  28.976  1.00  0.00     0.173 A 
ATOM     85  F   UNL A   1      45.634  32.098  32.246  1.00  0.00    -0.203 F 
ATOM     86  C   UNL A   1      45.924  34.356  31.646  1.00  0.00     0.198 A 
ATOM     87  C   UNL A   1      45.827  35.010  29.338  1.00  0.00     0.198 A 
ATOM     88  F   UNL A   1      45.393  33.403  27.676  1.00  0.00    -0.203 F 
ATOM     89  F   UNL A   1      46.056  34.681  32.939  1.00  0.00    -0.200 F 
ATOM     90  C   UNL A   1      45.996  35.342  30.673  1.00  0.00     0.200 A 
ATOM     91  F   UNL A   1      45.918  35.956  28.394  1.00  0.00    -0.200 F 
ATOM     92  F   UNL A   1      46.224  36.615  31.023  1.00  0.00    -0.200 F 
ENDBRANCH  59  82
ENDBRANCH  33  34
ENDBRANCH  26  28
ENDBRANCH  25  26
ENDBRANCH  24  25
ENDBRANCH  23  24
ENDBRANCH  22  23
ENDBRANCH   1  22
TORSDOF 17
ENDMDL
MODEL 3
REMARK VINA RESULT:     -11.4      4.618     10.275
REMARK SMILES O=C(/C=C/c1ccccc1Oc1cccc(Cl)c1)OCCOCCOC(=O)c1ccc(-c2c3nc(c(-c4c(F)c(F)c(F)c(F)c4F)c4ccc([nH]4)c(-c4c(F)c(F)c(F)c(F)c4F)c4nc(c(-c5c(F)c(F)c(F)c(F)c5F)c5ccc2[nH]5)C=C4)C=C3)cc1
REMARK SMILES IDX 21 1 20 2 19 3 2 4 1 5 3 6 4 7 5 8 6 9 10 10 7 11 9 12 8 13
REMARK SMILES IDX 11 14 12 15 13 16 18 17 14 18 16 19 15 20 17 21 22 22 23 23
REMARK SMILES IDX 24 24 25 25 26 26 27 27 28 28 29 29 90 30 30 31 89 32 31 33
REMARK SMILES IDX 32 34 33 35 83 36 34 37 88 38 82 39 84 40 35 41 87 42 81 43
REMARK SMILES IDX 80 44 36 46 68 47 48 48 67 49 49 50 52 51 66 52 85 53 50 54
REMARK SMILES IDX 51 55 65 57 86 58 53 59 37 60 38 61 46 62 39 63 40 64 44 65
REMARK SMILES IDX 47 66 41 67 42 68 45 69 43 70 69 71 70 72 78 73 71 74 72 75
REMARK SMILES IDX 76 76 79 77 73 78 74 79 77 80 75 81 54 82 55 83 63 84 56 85
REMARK SMILES IDX 57 86 61 87 64 88 58 89 59 90 62 91 60 92
REMARK H PARENT 84 45 52 56
REMARK Flexibility Score: inf
ROOT
ATOM      1  C   UNL A   1      34.913  23.146  24.036  1.00  0.00     0.202 C 
ENDROOT
BRANCH   1   2
ATOM      2  C   UNL A   1      33.779  23.350  23.033  1.00  0.00     0.261 C 
BRANCH   2   3
ATOM      3  O   UNL A   1      34.006  24.369  22.049  1.00  0.00    -0.460 OA
BRANCH   3   4
ATOM      4  C   UNL A   1      33.168  25.395  21.794  1.00  0.00     0.330 C 
ATOM      5  O   UNL A   1      32.587  25.468  20.715  1.00  0.00    -0.247 OA
BRANCH   4   6
ATOM      6  C   UNL A   1      33.008  26.485  22.772  1.00  0.00     0.094 C 
ATOM      7  C   UNL A   1      32.590  26.355  24.036  1.00  0.00     0.019 C 
BRANCH   7   8
ATOM      8  C   UNL A   1      32.392  27.485  24.930  1.00  0.00     0.017 A 
ATOM      9  C   UNL A   1      32.650  27.227  26.292  1.00  0.00     0.012 A 
ATOM     10  C   UNL A   1      31.889  28.735  24.531  1.00  0.00     0.134 A 
ATOM     11  C   UNL A   1      32.393  28.191  27.263  1.00  0.00     0.001 A 
ATOM     12  C   UNL A   1      31.652  29.697  25.524  1.00  0.00     0.048 A 
ATOM     13  C   UNL A   1      31.892  29.428  26.876  1.00  0.00     0.004 A 
BRANCH  10  14
ATOM     14  O   UNL A   1      31.552  29.181  23.259  1.00  0.00    -0.457 OA
BRANCH  14  15
ATOM     15  C   UNL A   1      30.240  29.263  22.864  1.00  0.00     0.128 A 
ATOM     16  C   UNL A   1      29.320  28.343  23.378  1.00  0.00     0.047 A 
ATOM     17  C   UNL A   1      29.827  30.239  21.953  1.00  0.00     0.067 A 
ATOM     18  C   UNL A   1      27.967  28.462  23.054  1.00  0.00     0.005 A 
ATOM     19  C   UNL A   1      28.468  30.377  21.670  1.00  0.00     0.044 A 
ATOM     20  C   UNL A   1      27.536  29.493  22.215  1.00  0.00     0.021 A 
ATOM     21  Cl  UNL A   1      27.926  31.718  20.737  1.00  0.00    -0.084 Cl
ENDBRANCH  14  15
ENDBRANCH  10  14
ENDBRANCH   7   8
ENDBRANCH   4   6
ENDBRANCH   3   4
ENDBRANCH   2   3
ENDBRANCH   1   2
BRANCH   1  22
ATOM     22  O   UNL A   1      35.554  21.880  24.171  1.00  0.00    -0.374 OA
BRANCH  22  23
ATOM     23  C   UNL A   1      36.983  21.859  24.044  1.00  0.00     0.202 C 
BRANCH  23  24
ATOM     24  C   UNL A   1      37.787  20.877  24.906  1.00  0.00     0.261 C 
BRANCH  24  25
ATOM     25  O   UNL A   1      38.236  21.475  26.125  1.00  0.00    -0.460 OA
BRANCH  25  26
ATOM     26  C   UNL A   1      39.563  21.330  26.353  1.00  0.00     0.338 C 
ATOM     27  O   UNL A   1      40.292  20.437  25.951  1.00  0.00    -0.246 OA
BRANCH  26  28
ATOM     28  C   UNL A   1      40.071  22.581  26.950  1.00  0.00     0.060 A 
ATOM     29  C   UNL A   1      39.432  23.774  26.574  1.00  0.00     0.016 A 
ATOM     30  C   UNL A   1      41.095  22.587  27.900  1.00  0.00     0.016 A 
ATOM     31  C   UNL A   1      39.857  24.986  27.098  1.00  0.00     0.010 A 
ATOM     32  C   UNL A   1      41.548  23.807  28.398  1.00  0.00     0.010 A 
ATOM     33  C   UNL A   1      40.964  25.005  27.949  1.00  0.00    -0.014 A 
BRANCH  33  34
ATOM     34  C   UNL A   1      41.708  26.269  28.101  1.00  0.00     0.031 A 
ATOM     35  C   UNL A   1      41.015  27.380  28.839  1.00  0.00     0.074 A 
ATOM     36  C   UNL A   1      42.956  26.408  27.633  1.00  0.00     0.049 A 
ATOM     37  N   UNL A   1      41.401  28.609  29.051  1.00  0.00    -0.248 NA
ATOM     38  C   UNL A   1      39.694  27.057  29.411  1.00  0.00     0.031 C 
ATOM     39  C   UNL A   1      43.729  25.366  26.959  1.00  0.00     0.029 A 
ATOM     40  N   UNL A   1      43.788  27.495  27.646  1.00  0.00    -0.354 N 
ATOM     41  C   UNL A   1      40.368  29.204  29.764  1.00  0.00     0.074 A 
ATOM     42  C   UNL A   1      39.325  28.219  29.924  1.00  0.00     0.031 C 
ATOM     43  C   UNL A   1      44.921  25.874  26.604  1.00  0.00     0.029 A 
ATOM     44  C   UNL A   1      44.974  27.283  26.992  1.00  0.00     0.049 A 
ATOM     45  H   UNL A   1      43.556  28.347  28.084  1.00  0.00     0.167 HD
ATOM     46  C   UNL A   1      40.304  30.466  30.248  1.00  0.00     0.037 A 
ATOM     47  C   UNL A   1      45.968  28.148  26.718  1.00  0.00     0.037 A 
ATOM     48  C   UNL A   1      41.351  31.432  30.074  1.00  0.00     0.049 A 
ATOM     49  C   UNL A   1      45.837  29.573  27.198  1.00  0.00     0.074 A 
ATOM     50  C   UNL A   1      41.407  32.737  30.523  1.00  0.00     0.029 A 
ATOM     51  N   UNL A   1      42.530  31.192  29.379  1.00  0.00    -0.354 N 
ATOM     52  N   UNL A   1      44.869  30.133  27.885  1.00  0.00    -0.248 NA
ATOM     53  C   UNL A   1      46.940  30.485  26.866  1.00  0.00     0.031 C 
ATOM     54  C   UNL A   1      42.593  33.306  30.049  1.00  0.00     0.029 A 
ATOM     55  C   UNL A   1      43.308  32.336  29.363  1.00  0.00     0.049 A 
ATOM     56  H   UNL A   1      42.775  30.336  28.961  1.00  0.00     0.167 HD
ATOM     57  C   UNL A   1      45.257  31.450  28.095  1.00  0.00     0.074 A 
ATOM     58  C   UNL A   1      46.559  31.600  27.473  1.00  0.00     0.031 C 
ATOM     59  C   UNL A   1      44.604  32.448  28.740  1.00  0.00     0.037 A 
BRANCH  46  60
ATOM     60  C   UNL A   1      39.050  30.870  30.967  1.00  0.00     0.064 A 
ATOM     61  C   UNL A   1      37.943  31.405  30.289  1.00  0.00     0.173 A 
ATOM     62  C   UNL A   1      38.952  30.714  32.358  1.00  0.00     0.173 A 
ATOM     63  F   UNL A   1      37.993  31.598  28.963  1.00  0.00    -0.203 F 
ATOM     64  C   UNL A   1      36.797  31.791  30.980  1.00  0.00     0.198 A 
ATOM     65  C   UNL A   1      37.792  31.070  33.041  1.00  0.00     0.198 A 
ATOM     66  F   UNL A   1      39.984  30.216  33.057  1.00  0.00    -0.203 F 
ATOM     67  F   UNL A   1      35.774  32.350  30.318  1.00  0.00    -0.200 F 
ATOM     68  C   UNL A   1      36.719  31.615  32.353  1.00  0.00     0.200 A 
ATOM     69  F   UNL A   1      37.716  30.889  34.367  1.00  0.00    -0.200 F 
ATOM     70  F   UNL A   1      35.613  31.979  33.016  1.00  0.00    -0.200 F 
ENDBRANCH  46  60
BRANCH  47  71
ATOM     71  C   UNL A   1      47.154  27.702  25.941  1.00  0.00     0.064 A 
ATOM     72  C   UNL A   1      48.309  27.239  26.586  1.00  0.00     0.173 A 
ATOM     73  C   UNL A   1      47.162  27.740  24.538  1.00  0.00     0.173 A 
ATOM     74  F   UNL A   1      48.358  27.204  27.926  1.00  0.00    -0.203 F 
ATOM     75  C   UNL A   1      49.433  26.852  25.860  1.00  0.00     0.198 A 
ATOM     76  C   UNL A   1      48.276  27.322  23.812  1.00  0.00     0.198 A 
ATOM     77  F   UNL A   1      46.083  28.175  23.871  1.00  0.00    -0.203 F 
ATOM     78  F   UNL A   1      50.541  26.460  26.503  1.00  0.00    -0.200 F 
ATOM     79  C   UNL A   1      49.413  26.887  24.473  1.00  0.00     0.200 A 
ATOM     80  F   UNL A   1      48.247  27.346  22.473  1.00  0.00    -0.200 F 
ATOM     81  F   UNL A   1      50.494  26.511  23.776  1.00  0.00    -0.200 F 
ENDBRANCH  47  71
BRANCH  59  82
ATOM     82  C   UNL A   1      45.303  33.773  28.844  1.00  0.00     0.064 A 
ATOM     83  C   UNL A   1      45.107  34.788  27.898  1.00  0.00     0.173 A 
ATOM     84  C   UNL A   1      46.145  34.043  29.935  1.00  0.00     0.173 A 
ATOM     85  F   UNL A   1      44.321  34.576  26.831  1.00  0.00    -0.203 F 
ATOM     86  C   UNL A   1      45.753  36.015  28.022  1.00  0.00     0.198 A 
ATOM     87  C   UNL A   1      46.759  35.284  30.076  1.00  0.00     0.198 A 
ATOM     88  F   UNL A   1      46.356  33.109  30.875  1.00  0.00    -0.203 F 
ATOM     89  F   UNL A   1      45.596  36.951  27.076  1.00  0.00    -0.200 F 
ATOM     90  C   UNL A   1      46.571  36.265  29.114  1.00  0.00     0.200 A 
ATOM     91  F   UNL A   1      47.532  35.529  31.142  1.00  0.00    -0.200 F 
ATOM     92  F   UNL A   1      47.183  37.450  29.237  1.00  0.00    -0.200 F 
ENDBRANCH  59  82
ENDBRANCH  33  34
ENDBRANCH  26  28
ENDBRANCH  25  26
ENDBRANCH  24  25
ENDBRANCH  23  24
ENDBRANCH  22  23
ENDBRANCH   1  22
TORSDOF 17
ENDMDL
