MODEL 1
REMARK VINA RESULT:     -12.5      0.000      0.000
REMARK SMILES C[NH+]1CCN(C(=O)c2ccc3c(c2)N(CC(=O)OCCOCCOC(=O)c2ccc(-c4c5nc(c(-c6c(F)c(F)c(F)c(F)c6F)c6ccc([nH]6)c(-c6c(F)c(F)c(F)c(F)c6F)c6nc(c(-c7c(F)c(F)c(F)c(F)c7F)c7ccc4[nH]7)C=C6)C=C5)cc2)C(=O)CO3)CC1
REMARK SMILES IDX 21 1 20 2 19 3 18 4 16 5 17 6 15 7 14 8 8 9 9 10 13 11 10 12
REMARK SMILES IDX 12 13 11 14 93 15 90 16 92 17 91 18 6 19 1 20 2 21 3 22
REMARK SMILES IDX 95 23 4 25 94 26 5 27 7 28 22 29 23 30 24 31 25 32 26 33
REMARK SMILES IDX 27 34 28 35 89 36 29 37 88 38 30 39 31 40 32 41 82 42 33 43
REMARK SMILES IDX 87 44 81 45 83 46 34 47 86 48 80 49 79 50 35 52 67 53 47 54
REMARK SMILES IDX 66 55 48 56 51 57 65 58 84 59 49 60 50 61 64 63 85 64 52 65
REMARK SMILES IDX 36 66 37 67 45 68 38 69 39 70 43 71 46 72 40 73 41 74 44 75
REMARK SMILES IDX 42 76 68 77 69 78 77 79 70 80 71 81 75 82 78 83 72 84 73 85
REMARK SMILES IDX 76 86 74 87 53 88 54 89 62 90 55 91 56 92 60 93 63 94 57 95
REMARK SMILES IDX 58 96 61 97 59 98
REMARK H PARENT 2 24 83 51 51 62
REMARK Flexibility Score: inf
ROOT
ATOM      1  O   UNL A   1      34.525  34.076  29.209  1.00  0.00    -0.374 OA
ENDROOT
BRANCH   1   2
ATOM      2  C   UNL A   1      34.403  32.655  29.344  1.00  0.00     0.202 C 
BRANCH   2   3
ATOM      3  C   UNL A   1      34.676  31.842  28.057  1.00  0.00     0.261 C 
BRANCH   3   4
ATOM      4  O   UNL A   1      33.462  31.281  27.498  1.00  0.00    -0.462 OA
BRANCH   4   5
ATOM      5  C   UNL A   1      33.494  29.961  27.173  1.00  0.00     0.326 C 
ATOM      6  O   UNL A   1      34.526  29.349  26.911  1.00  0.00    -0.250 OA
BRANCH   5   7
ATOM      7  C   UNL A   1      32.116  29.266  27.111  1.00  0.00     0.248 C 
BRANCH   7   8
ATOM      8  N   UNL A   1      31.503  28.836  25.846  1.00  0.00    -0.295 N 
ATOM      9  C   UNL A   1      31.334  25.040  25.970  1.00  0.00     0.042 A 
ATOM     10  C   UNL A   1      30.683  24.780  24.763  1.00  0.00     0.018 A 
ATOM     11  C   UNL A   1      31.744  26.363  26.272  1.00  0.00     0.044 A 
ATOM     12  C   UNL A   1      30.402  25.834  23.890  1.00  0.00     0.049 A 
ATOM     13  C   UNL A   1      31.377  27.456  25.446  1.00  0.00     0.087 A 
ATOM     14  C   UNL A   1      30.726  27.157  24.234  1.00  0.00     0.143 A 
ATOM     15  O   UNL A   1      30.230  28.089  23.365  1.00  0.00    -0.482 OA
ATOM     16  C   UNL A   1      31.047  29.847  25.003  1.00  0.00     0.265 C 
ATOM     17  C   UNL A   1      30.667  29.410  23.595  1.00  0.00     0.330 C 
ATOM     18  O   UNL A   1      31.025  31.034  25.328  1.00  0.00    -0.270 OA
BRANCH   9  19
ATOM     19  C   UNL A   1      31.740  23.883  26.821  1.00  0.00     0.254 C 
ATOM     20  C   UNL A   1      35.571  20.514  25.036  1.00  0.00     0.332 C 
ATOM     21  N   UNL A   1      35.139  21.564  25.960  1.00  0.00    -0.334 N 
ATOM     22  C   UNL A   1      33.986  21.108  26.775  1.00  0.00     0.283 C 
ATOM     23  C   UNL A   1      34.792  22.790  25.214  1.00  0.00     0.283 C 
ATOM     24  H   UNL A   1      35.911  21.774  26.593  1.00  0.00     0.347 HD
ATOM     25  C   UNL A   1      33.373  22.219  27.664  1.00  0.00     0.181 C 
ATOM     26  C   UNL A   1      34.229  23.873  26.153  1.00  0.00     0.181 C 
ATOM     27  N   UNL A   1      33.050  23.401  26.865  1.00  0.00    -0.327 N 
ATOM     28  O   UNL A   1      30.831  23.395  27.493  1.00  0.00    -0.269 OA
ENDBRANCH   9  19
ENDBRANCH   7   8
ENDBRANCH   5   7
ENDBRANCH   4   5
ENDBRANCH   3   4
ENDBRANCH   2   3
ENDBRANCH   1   2
BRANCH   1  29
ATOM     29  C   UNL A   1      33.282  34.737  29.033  1.00  0.00     0.202 C 
BRANCH  29  30
ATOM     30  C   UNL A   1      32.928  35.862  29.990  1.00  0.00     0.261 C 
BRANCH  30  31
ATOM     31  O   UNL A   1      32.390  35.330  31.157  1.00  0.00    -0.460 OA
BRANCH  31  32
ATOM     32  C   UNL A   1      32.837  35.914  32.280  1.00  0.00     0.338 C 
ATOM     33  O   UNL A   1      32.391  36.841  32.922  1.00  0.00    -0.246 OA
BRANCH  32  34
ATOM     34  C   UNL A   1      33.960  35.053  32.582  1.00  0.00     0.060 A 
ATOM     35  C   UNL A   1      33.704  33.733  32.937  1.00  0.00     0.016 A 
ATOM     36  C   UNL A   1      35.245  35.543  32.293  1.00  0.00     0.016 A 
ATOM     37  C   UNL A   1      34.782  32.880  33.046  1.00  0.00     0.010 A 
ATOM     38  C   UNL A   1      36.305  34.679  32.338  1.00  0.00     0.010 A 
ATOM     39  C   UNL A   1      36.068  33.369  32.770  1.00  0.00    -0.014 A 
BRANCH  39  40
ATOM     40  C   UNL A   1      37.241  32.597  33.158  1.00  0.00     0.031 A 
ATOM     41  C   UNL A   1      37.880  32.968  34.457  1.00  0.00     0.074 A 
ATOM     42  C   UNL A   1      37.715  31.666  32.321  1.00  0.00     0.049 A 
ATOM     43  N   UNL A   1      38.999  32.551  34.972  1.00  0.00    -0.248 NA
ATOM     44  C   UNL A   1      37.177  33.979  35.275  1.00  0.00     0.031 C 
ATOM     45  C   UNL A   1      37.118  31.295  31.037  1.00  0.00     0.029 A 
ATOM     46  N   UNL A   1      38.822  30.880  32.425  1.00  0.00    -0.354 N 
ATOM     47  C   UNL A   1      39.133  33.248  36.164  1.00  0.00     0.074 A 
ATOM     48  C   UNL A   1      38.025  34.162  36.272  1.00  0.00     0.031 C 
ATOM     49  C   UNL A   1      37.875  30.342  30.468  1.00  0.00     0.029 A 
ATOM     50  C   UNL A   1      39.019  30.075  31.334  1.00  0.00     0.049 A 
ATOM     51  H   UNL A   1      39.421  30.888  33.206  1.00  0.00     0.167 HD
ATOM     52  C   UNL A   1      40.098  33.099  37.097  1.00  0.00     0.037 A 
ATOM     53  C   UNL A   1      40.039  29.237  31.081  1.00  0.00     0.037 A 
ATOM     54  C   UNL A   1      41.179  32.170  36.944  1.00  0.00     0.049 A 
ATOM     55  C   UNL A   1      41.120  29.123  32.125  1.00  0.00     0.074 A 
ATOM     56  C   UNL A   1      42.227  31.913  37.803  1.00  0.00     0.029 A 
ATOM     57  N   UNL A   1      41.338  31.339  35.841  1.00  0.00    -0.354 N 
ATOM     58  N   UNL A   1      41.235  29.755  33.271  1.00  0.00    -0.248 NA
ATOM     59  C   UNL A   1      42.207  28.179  31.847  1.00  0.00     0.031 C 
ATOM     60  C   UNL A   1      43.042  30.948  37.204  1.00  0.00     0.029 A 
ATOM     61  C   UNL A   1      42.472  30.566  35.996  1.00  0.00     0.049 A 
ATOM     62  H   UNL A   1      40.733  31.306  35.066  1.00  0.00     0.167 HD
ATOM     63  C   UNL A   1      42.378  29.252  33.873  1.00  0.00     0.074 A 
ATOM     64  C   UNL A   1      42.921  28.263  32.961  1.00  0.00     0.031 C 
ATOM     65  C   UNL A   1      42.936  29.567  35.068  1.00  0.00     0.037 A 
BRANCH  52  66
ATOM     66  C   UNL A   1      40.011  33.945  38.328  1.00  0.00     0.064 A 
ATOM     67  C   UNL A   1      39.344  33.497  39.481  1.00  0.00     0.173 A 
ATOM     68  C   UNL A   1      40.610  35.211  38.369  1.00  0.00     0.173 A 
ATOM     69  F   UNL A   1      38.727  32.305  39.484  1.00  0.00    -0.203 F 
ATOM     70  C   UNL A   1      39.271  34.290  40.622  1.00  0.00     0.198 A 
ATOM     71  C   UNL A   1      40.560  35.991  39.521  1.00  0.00     0.198 A 
ATOM     72  F   UNL A   1      41.244  35.694  37.291  1.00  0.00    -0.203 F 
ATOM     73  F   UNL A   1      38.591  33.860  41.693  1.00  0.00    -0.200 F 
ATOM     74  C   UNL A   1      39.887  35.532  40.645  1.00  0.00     0.200 A 
ATOM     75  F   UNL A   1      41.160  37.189  39.544  1.00  0.00    -0.200 F 
ATOM     76  F   UNL A   1      39.827  36.291  41.748  1.00  0.00    -0.200 F 
ENDBRANCH  52  66
BRANCH  53  77
ATOM     77  C   UNL A   1      40.068  28.447  29.828  1.00  0.00     0.064 A 
ATOM     78  C   UNL A   1      39.434  27.199  29.750  1.00  0.00     0.173 A 
ATOM     79  C   UNL A   1      40.730  28.914  28.683  1.00  0.00     0.173 A 
ATOM     80  F   UNL A   1      38.791  26.709  30.820  1.00  0.00    -0.203 F 
ATOM     81  C   UNL A   1      39.492  26.433  28.588  1.00  0.00     0.198 A 
ATOM     82  C   UNL A   1      40.762  28.160  27.511  1.00  0.00     0.198 A 
ATOM     83  F   UNL A   1      41.338  30.109  28.697  1.00  0.00    -0.203 F 
ATOM     84  F   UNL A   1      38.922  25.220  28.560  1.00  0.00    -0.200 F 
ATOM     85  C   UNL A   1      40.154  26.915  27.469  1.00  0.00     0.200 A 
ATOM     86  F   UNL A   1      41.385  28.638  26.425  1.00  0.00    -0.200 F 
ATOM     87  F   UNL A   1      40.212  26.176  26.353  1.00  0.00    -0.200 F 
ENDBRANCH  53  77
BRANCH  65  88
ATOM     88  C   UNL A   1      44.140  28.783  35.485  1.00  0.00     0.064 A 
ATOM     89  C   UNL A   1      45.438  29.216  35.191  1.00  0.00     0.173 A 
ATOM     90  C   UNL A   1      43.982  27.631  36.270  1.00  0.00     0.173 A 
ATOM     91  F   UNL A   1      45.632  30.307  34.433  1.00  0.00    -0.203 F 
ATOM     92  C   UNL A   1      46.543  28.509  35.654  1.00  0.00     0.198 A 
ATOM     93  C   UNL A   1      45.089  26.946  36.759  1.00  0.00     0.198 A 
ATOM     94  F   UNL A   1      42.756  27.189  36.587  1.00  0.00    -0.203 F 
ATOM     95  F   UNL A   1      47.778  28.916  35.331  1.00  0.00    -0.200 F 
ATOM     96  C   UNL A   1      46.368  27.383  36.446  1.00  0.00     0.200 A 
ATOM     97  F   UNL A   1      44.917  25.871  37.540  1.00  0.00    -0.200 F 
ATOM     98  F   UNL A   1      47.434  26.717  36.909  1.00  0.00    -0.200 F 
ENDBRANCH  65  88
ENDBRANCH  39  40
ENDBRANCH  32  34
ENDBRANCH  31  32
ENDBRANCH  30  31
ENDBRANCH  29  30
ENDBRANCH   1  29
TORSDOF 16
ENDMDL
MODEL 2
REMARK VINA RESULT:     -12.5      4.923      7.418
REMARK SMILES C[NH+]1CCN(C(=O)c2ccc3c(c2)N(CC(=O)OCCOCCOC(=O)c2ccc(-c4c5nc(c(-c6c(F)c(F)c(F)c(F)c6F)c6ccc([nH]6)c(-c6c(F)c(F)c(F)c(F)c6F)c6nc(c(-c7c(F)c(F)c(F)c(F)c7F)c7ccc4[nH]7)C=C6)C=C5)cc2)C(=O)CO3)CC1
REMARK SMILES IDX 21 1 20 2 19 3 18 4 16 5 17 6 15 7 14 8 8 9 9 10 13 11 10 12
REMARK SMILES IDX 12 13 11 14 93 15 90 16 92 17 91 18 6 19 1 20 2 21 3 22
REMARK SMILES IDX 95 23 4 25 94 26 5 27 7 28 22 29 23 30 24 31 25 32 26 33
REMARK SMILES IDX 27 34 28 35 89 36 29 37 88 38 30 39 31 40 32 41 82 42 33 43
REMARK SMILES IDX 87 44 81 45 83 46 34 47 86 48 80 49 79 50 35 52 67 53 47 54
REMARK SMILES IDX 66 55 48 56 51 57 65 58 84 59 49 60 50 61 64 63 85 64 52 65
REMARK SMILES IDX 36 66 37 67 45 68 38 69 39 70 43 71 46 72 40 73 41 74 44 75
REMARK SMILES IDX 42 76 68 77 69 78 77 79 70 80 71 81 75 82 78 83 72 84 73 85
REMARK SMILES IDX 76 86 74 87 53 88 54 89 62 90 55 91 56 92 60 93 63 94 57 95
REMARK SMILES IDX 58 96 61 97 59 98
REMARK H PARENT 2 24 83 51 51 62
REMARK Flexibility Score: inf
ROOT
ATOM      1  O   UNL A   1      34.070  33.723  29.245  1.00  0.00    -0.374 OA
ENDROOT
BRANCH   1   2
ATOM      2  C   UNL A   1      34.875  33.086  28.245  1.00  0.00     0.202 C 
BRANCH   2   3
ATOM      3  C   UNL A   1      34.773  31.544  28.197  1.00  0.00     0.261 C 
BRANCH   3   4
ATOM      4  O   UNL A   1      33.769  31.092  27.255  1.00  0.00    -0.462 OA
BRANCH   4   5
ATOM      5  C   UNL A   1      33.643  29.746  27.097  1.00  0.00     0.326 C 
ATOM      6  O   UNL A   1      34.596  28.987  26.946  1.00  0.00    -0.250 OA
BRANCH   5   7
ATOM      7  C   UNL A   1      32.191  29.220  27.078  1.00  0.00     0.248 C 
BRANCH   7   8
ATOM      8  N   UNL A   1      31.526  28.776  25.844  1.00  0.00    -0.295 N 
ATOM      9  C   UNL A   1      31.367  24.982  26.017  1.00  0.00     0.042 A 
ATOM     10  C   UNL A   1      30.666  24.708  24.841  1.00  0.00     0.018 A 
ATOM     11  C   UNL A   1      31.788  26.308  26.287  1.00  0.00     0.044 A 
ATOM     12  C   UNL A   1      30.348  25.752  23.968  1.00  0.00     0.049 A 
ATOM     13  C   UNL A   1      31.386  27.392  25.465  1.00  0.00     0.087 A 
ATOM     14  C   UNL A   1      30.685  27.080  24.284  1.00  0.00     0.143 A 
ATOM     15  O   UNL A   1      30.152  28.002  23.427  1.00  0.00    -0.482 OA
ATOM     16  C   UNL A   1      31.034  29.778  25.010  1.00  0.00     0.265 C 
ATOM     17  C   UNL A   1      30.597  29.325  23.624  1.00  0.00     0.330 C 
ATOM     18  O   UNL A   1      31.024  30.968  25.323  1.00  0.00    -0.270 OA
BRANCH   9  19
ATOM     19  C   UNL A   1      31.809  23.834  26.862  1.00  0.00     0.254 C 
ATOM     20  C   UNL A   1      35.646  20.513  25.001  1.00  0.00     0.332 C 
ATOM     21  N   UNL A   1      35.220  21.561  25.930  1.00  0.00    -0.334 N 
ATOM     22  C   UNL A   1      34.093  21.091  26.774  1.00  0.00     0.283 C 
ATOM     23  C   UNL A   1      34.838  22.778  25.187  1.00  0.00     0.283 C 
ATOM     24  H   UNL A   1      36.004  21.785  26.544  1.00  0.00     0.347 HD
ATOM     25  C   UNL A   1      33.485  22.197  27.673  1.00  0.00     0.181 C 
ATOM     26  C   UNL A   1      34.281  23.857  26.135  1.00  0.00     0.181 C 
ATOM     27  N   UNL A   1      33.127  23.371  26.877  1.00  0.00    -0.327 N 
ATOM     28  O   UNL A   1      30.923  23.336  27.557  1.00  0.00    -0.269 OA
ENDBRANCH   9  19
ENDBRANCH   7   8
ENDBRANCH   5   7
ENDBRANCH   4   5
ENDBRANCH   3   4
ENDBRANCH   2   3
ENDBRANCH   1   2
BRANCH   1  29
ATOM     29  C   UNL A   1      34.758  33.953  30.464  1.00  0.00     0.202 C 
BRANCH  29  30
ATOM     30  C   UNL A   1      34.455  33.042  31.640  1.00  0.00     0.261 C 
BRANCH  30  31
ATOM     31  O   UNL A   1      35.337  31.966  31.637  1.00  0.00    -0.460 OA
BRANCH  31  32
ATOM     32  C   UNL A   1      36.230  31.990  32.640  1.00  0.00     0.338 C 
ATOM     33  O   UNL A   1      36.110  32.324  33.799  1.00  0.00    -0.246 OA
BRANCH  32  34
ATOM     34  C   UNL A   1      37.371  31.398  31.975  1.00  0.00     0.060 A 
ATOM     35  C   UNL A   1      38.202  30.560  32.708  1.00  0.00     0.016 A 
ATOM     36  C   UNL A   1      37.448  31.538  30.578  1.00  0.00     0.016 A 
ATOM     37  C   UNL A   1      39.175  29.864  32.022  1.00  0.00     0.010 A 
ATOM     38  C   UNL A   1      38.371  30.798  29.892  1.00  0.00     0.010 A 
ATOM     39  C   UNL A   1      39.263  30.011  30.629  1.00  0.00    -0.014 A 
BRANCH  39  40
ATOM     40  C   UNL A   1      40.444  29.538  29.919  1.00  0.00     0.031 A 
ATOM     41  C   UNL A   1      41.530  30.540  29.697  1.00  0.00     0.074 A 
ATOM     42  C   UNL A   1      40.466  28.284  29.452  1.00  0.00     0.049 A 
ATOM     43  N   UNL A   1      42.613  30.436  28.984  1.00  0.00    -0.248 NA
ATOM     44  C   UNL A   1      41.354  31.860  30.341  1.00  0.00     0.031 C 
ATOM     45  C   UNL A   1      39.409  27.288  29.642  1.00  0.00     0.029 A 
ATOM     46  N   UNL A   1      41.409  27.645  28.706  1.00  0.00    -0.354 N 
ATOM     47  C   UNL A   1      43.240  31.669  29.090  1.00  0.00     0.074 A 
ATOM     48  C   UNL A   1      42.394  32.531  29.876  1.00  0.00     0.031 C 
ATOM     49  C   UNL A   1      39.769  26.153  29.021  1.00  0.00     0.029 A 
ATOM     50  C   UNL A   1      41.056  26.366  28.367  1.00  0.00     0.049 A 
ATOM     51  H   UNL A   1      42.260  28.061  28.438  1.00  0.00     0.167 HD
ATOM     52  C   UNL A   1      44.441  32.024  28.588  1.00  0.00     0.037 A 
ATOM     53  C   UNL A   1      41.715  25.491  27.589  1.00  0.00     0.037 A 
ATOM     54  C   UNL A   1      45.247  31.125  27.814  1.00  0.00     0.049 A 
ATOM     55  C   UNL A   1      43.036  25.931  27.012  1.00  0.00     0.074 A 
ATOM     56  C   UNL A   1      46.482  31.347  27.241  1.00  0.00     0.029 A 
ATOM     57  N   UNL A   1      44.881  29.819  27.511  1.00  0.00    -0.354 N 
ATOM     58  N   UNL A   1      43.651  27.085  27.136  1.00  0.00    -0.248 NA
ATOM     59  C   UNL A   1      43.756  24.952  26.193  1.00  0.00     0.031 C 
ATOM     60  C   UNL A   1      46.850  30.182  26.560  1.00  0.00     0.029 A 
ATOM     61  C   UNL A   1      45.868  29.219  26.755  1.00  0.00     0.049 A 
ATOM     62  H   UNL A   1      44.044  29.386  27.794  1.00  0.00     0.167 HD
ATOM     63  C   UNL A   1      44.851  26.956  26.455  1.00  0.00     0.074 A 
ATOM     64  C   UNL A   1      44.874  25.609  25.916  1.00  0.00     0.031 C 
ATOM     65  C   UNL A   1      45.849  27.858  26.284  1.00  0.00     0.037 A 
BRANCH  52  66
ATOM     66  C   UNL A   1      44.929  33.410  28.867  1.00  0.00     0.064 A 
ATOM     67  C   UNL A   1      45.729  33.696  29.985  1.00  0.00     0.173 A 
ATOM     68  C   UNL A   1      44.610  34.467  28.003  1.00  0.00     0.173 A 
ATOM     69  F   UNL A   1      46.038  32.726  30.860  1.00  0.00    -0.203 F 
ATOM     70  C   UNL A   1      46.180  34.989  30.234  1.00  0.00     0.198 A 
ATOM     71  C   UNL A   1      45.086  35.754  28.238  1.00  0.00     0.198 A 
ATOM     72  F   UNL A   1      43.836  34.253  26.929  1.00  0.00    -0.203 F 
ATOM     73  F   UNL A   1      46.903  35.245  31.331  1.00  0.00    -0.200 F 
ATOM     74  C   UNL A   1      45.867  36.015  29.355  1.00  0.00     0.200 A 
ATOM     75  F   UNL A   1      44.787  36.744  27.386  1.00  0.00    -0.200 F 
ATOM     76  F   UNL A   1      46.311  37.258  29.588  1.00  0.00    -0.200 F 
ENDBRANCH  52  66
BRANCH  53  77
ATOM     77  C   UNL A   1      41.158  24.140  27.339  1.00  0.00     0.064 A 
ATOM     78  C   UNL A   1      41.742  23.004  27.916  1.00  0.00     0.173 A 
ATOM     79  C   UNL A   1      40.037  23.950  26.519  1.00  0.00     0.173 A 
ATOM     80  F   UNL A   1      42.819  23.134  28.705  1.00  0.00    -0.203 F 
ATOM     81  C   UNL A   1      41.249  21.728  27.654  1.00  0.00     0.198 A 
ATOM     82  C   UNL A   1      39.525  22.676  26.281  1.00  0.00     0.198 A 
ATOM     83  F   UNL A   1      39.428  25.004  25.956  1.00  0.00    -0.203 F 
ATOM     84  F   UNL A   1      41.861  20.657  28.177  1.00  0.00    -0.200 F 
ATOM     85  C   UNL A   1      40.140  21.565  26.838  1.00  0.00     0.200 A 
ATOM     86  F   UNL A   1      38.441  22.524  25.509  1.00  0.00    -0.200 F 
ATOM     87  F   UNL A   1      39.668  20.337  26.583  1.00  0.00    -0.200 F 
ENDBRANCH  53  77
BRANCH  65  88
ATOM     88  C   UNL A   1      47.072  27.390  25.559  1.00  0.00     0.064 A 
ATOM     89  C   UNL A   1      47.252  27.626  24.191  1.00  0.00     0.173 A 
ATOM     90  C   UNL A   1      48.113  26.778  26.273  1.00  0.00     0.173 A 
ATOM     91  F   UNL A   1      46.276  28.199  23.470  1.00  0.00    -0.203 F 
ATOM     92  C   UNL A   1      48.430  27.248  23.556  1.00  0.00     0.198 A 
ATOM     93  C   UNL A   1      49.302  26.431  25.641  1.00  0.00     0.198 A 
ATOM     94  F   UNL A   1      47.988  26.545  27.588  1.00  0.00    -0.203 F 
ATOM     95  F   UNL A   1      48.570  27.448  22.238  1.00  0.00    -0.200 F 
ATOM     96  C   UNL A   1      49.457  26.662  24.282  1.00  0.00     0.200 A 
ATOM     97  F   UNL A   1      50.299  25.884  26.349  1.00  0.00    -0.200 F 
ATOM     98  F   UNL A   1      50.598  26.319  23.672  1.00  0.00    -0.200 F 
ENDBRANCH  65  88
ENDBRANCH  39  40
ENDBRANCH  32  34
ENDBRANCH  31  32
ENDBRANCH  30  31
ENDBRANCH  29  30
ENDBRANCH   1  29
TORSDOF 16
ENDMDL
MODEL 3
REMARK VINA RESULT:     -12.4      6.723     12.363
REMARK SMILES C[NH+]1CCN(C(=O)c2ccc3c(c2)N(CC(=O)OCCOCCOC(=O)c2ccc(-c4c5nc(c(-c6c(F)c(F)c(F)c(F)c6F)c6ccc([nH]6)c(-c6c(F)c(F)c(F)c(F)c6F)c6nc(c(-c7c(F)c(F)c(F)c(F)c7F)c7ccc4[nH]7)C=C6)C=C5)cc2)C(=O)CO3)CC1
REMARK SMILES IDX 21 1 20 2 19 3 18 4 16 5 17 6 15 7 14 8 8 9 9 10 13 11 10 12
REMARK SMILES IDX 12 13 11 14 93 15 90 16 92 17 91 18 6 19 1 20 2 21 3 22
REMARK SMILES IDX 95 23 4 25 94 26 5 27 7 28 22 29 23 30 24 31 25 32 26 33
REMARK SMILES IDX 27 34 28 35 89 36 29 37 88 38 30 39 31 40 32 41 82 42 33 43
REMARK SMILES IDX 87 44 81 45 83 46 34 47 86 48 80 49 79 50 35 52 67 53 47 54
REMARK SMILES IDX 66 55 48 56 51 57 65 58 84 59 49 60 50 61 64 63 85 64 52 65
REMARK SMILES IDX 36 66 37 67 45 68 38 69 39 70 43 71 46 72 40 73 41 74 44 75
REMARK SMILES IDX 42 76 68 77 69 78 77 79 70 80 71 81 75 82 78 83 72 84 73 85
REMARK SMILES IDX 76 86 74 87 53 88 54 89 62 90 55 91 56 92 60 93 63 94 57 95
REMARK SMILES IDX 58 96 61 97 59 98
REMARK H PARENT 2 24 83 51 51 62
REMARK Flexibility Score: inf
ROOT
ATOM      1  O   UNL A   1      41.076  20.683  25.630  1.00  0.00    -0.374 OA
ENDROOT
BRANCH   1   2
ATOM      2  C   UNL A   1      41.072  21.774  26.559  1.00  0.00     0.202 C 
BRANCH   2   3
ATOM      3  C   UNL A   1      39.690  22.415  26.820  1.00  0.00     0.261 C 
BRANCH   3   4
ATOM      4  O   UNL A   1      38.651  21.828  25.998  1.00  0.00    -0.462 OA
BRANCH   4   5
ATOM      5  C   UNL A   1      37.714  22.679  25.500  1.00  0.00     0.326 C 
ATOM      6  O   UNL A   1      37.454  23.771  25.999  1.00  0.00    -0.250 OA
BRANCH   5   7
ATOM      7  C   UNL A   1      36.949  22.162  24.263  1.00  0.00     0.248 C 
BRANCH   7   8
ATOM      8  N   UNL A   1      35.564  21.670  24.338  1.00  0.00    -0.295 N 
ATOM      9  C   UNL A   1      33.375  24.390  22.835  1.00  0.00     0.042 A 
ATOM     10  C   UNL A   1      32.125  23.772  22.907  1.00  0.00     0.018 A 
ATOM     11  C   UNL A   1      34.498  23.769  23.438  1.00  0.00     0.044 A 
ATOM     12  C   UNL A   1      32.006  22.528  23.531  1.00  0.00     0.049 A 
ATOM     13  C   UNL A   1      34.414  22.463  23.985  1.00  0.00     0.087 A 
ATOM     14  C   UNL A   1      33.137  21.871  24.047  1.00  0.00     0.143 A 
ATOM     15  O   UNL A   1      32.890  20.593  24.463  1.00  0.00    -0.482 OA
ATOM     16  C   UNL A   1      35.395  20.366  24.798  1.00  0.00     0.265 C 
ATOM     17  C   UNL A   1      33.963  19.964  25.126  1.00  0.00     0.330 C 
ATOM     18  O   UNL A   1      36.335  19.601  25.012  1.00  0.00    -0.270 OA
BRANCH   9  19
ATOM     19  C   UNL A   1      33.451  25.774  22.282  1.00  0.00     0.254 C 
ATOM     20  C   UNL A   1      31.453  29.880  25.173  1.00  0.00     0.332 C 
ATOM     21  N   UNL A   1      32.603  29.161  24.623  1.00  0.00    -0.334 N 
ATOM     22  C   UNL A   1      32.539  29.117  23.141  1.00  0.00     0.283 C 
ATOM     23  C   UNL A   1      32.664  27.794  25.179  1.00  0.00     0.283 C 
ATOM     24  H   UNL A   1      33.452  29.660  24.888  1.00  0.00     0.347 HD
ATOM     25  C   UNL A   1      33.638  28.237  22.495  1.00  0.00     0.181 C 
ATOM     26  C   UNL A   1      33.800  26.981  24.532  1.00  0.00     0.181 C 
ATOM     27  N   UNL A   1      33.642  26.899  23.087  1.00  0.00    -0.327 N 
ATOM     28  O   UNL A   1      33.346  25.845  21.057  1.00  0.00    -0.269 OA
ENDBRANCH   9  19
ENDBRANCH   7   8
ENDBRANCH   5   7
ENDBRANCH   4   5
ENDBRANCH   3   4
ENDBRANCH   2   3
ENDBRANCH   1   2
BRANCH   1  29
ATOM     29  C   UNL A   1      41.426  19.439  26.218  1.00  0.00     0.202 C 
BRANCH  29  30
ATOM     30  C   UNL A   1      42.706  18.765  25.758  1.00  0.00     0.261 C 
BRANCH  30  31
ATOM     31  O   UNL A   1      43.197  19.416  24.631  1.00  0.00    -0.460 OA
BRANCH  31  32
ATOM     32  C   UNL A   1      44.531  19.578  24.631  1.00  0.00     0.338 C 
ATOM     33  O   UNL A   1      45.422  18.805  24.353  1.00  0.00    -0.246 OA
BRANCH  32  34
ATOM     34  C   UNL A   1      44.612  20.985  24.958  1.00  0.00     0.060 A 
ATOM     35  C   UNL A   1      44.318  21.913  23.965  1.00  0.00     0.016 A 
ATOM     36  C   UNL A   1      44.778  21.325  26.312  1.00  0.00     0.016 A 
ATOM     37  C   UNL A   1      44.225  23.238  24.335  1.00  0.00     0.010 A 
ATOM     38  C   UNL A   1      44.621  22.631  26.687  1.00  0.00     0.010 A 
ATOM     39  C   UNL A   1      44.402  23.582  25.684  1.00  0.00    -0.014 A 
BRANCH  39  40
ATOM     40  C   UNL A   1      44.608  24.975  26.061  1.00  0.00     0.031 A 
ATOM     41  C   UNL A   1      46.004  25.493  25.949  1.00  0.00     0.074 A 
ATOM     42  C   UNL A   1      43.576  25.679  26.541  1.00  0.00     0.049 A 
ATOM     43  N   UNL A   1      46.493  26.632  26.344  1.00  0.00    -0.248 NA
ATOM     44  C   UNL A   1      47.000  24.586  25.338  1.00  0.00     0.031 C 
ATOM     45  C   UNL A   1      42.202  25.190  26.676  1.00  0.00     0.029 A 
ATOM     46  N   UNL A   1      43.535  26.953  27.022  1.00  0.00    -0.354 N 
ATOM     47  C   UNL A   1      47.844  26.575  26.035  1.00  0.00     0.074 A 
ATOM     48  C   UNL A   1      48.120  25.273  25.482  1.00  0.00     0.031 C 
ATOM     49  C   UNL A   1      41.447  26.165  27.209  1.00  0.00     0.029 A 
ATOM     50  C   UNL A   1      42.298  27.318  27.482  1.00  0.00     0.049 A 
ATOM     51  H   UNL A   1      44.316  27.551  27.036  1.00  0.00     0.167 HD
ATOM     52  C   UNL A   1      48.761  27.555  26.181  1.00  0.00     0.037 A 
ATOM     53  C   UNL A   1      41.929  28.465  28.078  1.00  0.00     0.037 A 
ATOM     54  C   UNL A   1      48.434  28.838  26.733  1.00  0.00     0.049 A 
ATOM     55  C   UNL A   1      42.984  29.525  28.261  1.00  0.00     0.074 A 
ATOM     56  C   UNL A   1      49.257  29.924  26.942  1.00  0.00     0.029 A 
ATOM     57  N   UNL A   1      47.162  29.197  27.163  1.00  0.00    -0.354 N 
ATOM     58  N   UNL A   1      44.257  29.490  27.939  1.00  0.00    -0.248 NA
ATOM     59  C   UNL A   1      42.555  30.781  28.882  1.00  0.00     0.031 C 
ATOM     60  C   UNL A   1      48.489  30.933  27.531  1.00  0.00     0.029 A 
ATOM     61  C   UNL A   1      47.177  30.492  27.639  1.00  0.00     0.049 A 
ATOM     62  H   UNL A   1      46.369  28.614  27.131  1.00  0.00     0.167 HD
ATOM     63  C   UNL A   1      44.771  30.734  28.273  1.00  0.00     0.074 A 
ATOM     64  C   UNL A   1      43.669  31.499  28.824  1.00  0.00     0.031 C 
ATOM     65  C   UNL A   1      46.033  31.212  28.138  1.00  0.00     0.037 A 
BRANCH  52  66
ATOM     66  C   UNL A   1      50.161  27.270  25.738  1.00  0.00     0.064 A 
ATOM     67  C   UNL A   1      50.562  27.455  24.405  1.00  0.00     0.173 A 
ATOM     68  C   UNL A   1      51.122  26.819  26.654  1.00  0.00     0.173 A 
ATOM     69  F   UNL A   1      49.674  27.855  23.482  1.00  0.00    -0.203 F 
ATOM     70  C   UNL A   1      51.868  27.188  24.004  1.00  0.00     0.198 A 
ATOM     71  C   UNL A   1      52.435  26.581  26.257  1.00  0.00     0.198 A 
ATOM     72  F   UNL A   1      50.788  26.610  27.936  1.00  0.00    -0.203 F 
ATOM     73  F   UNL A   1      52.215  27.329  22.719  1.00  0.00    -0.200 F 
ATOM     74  C   UNL A   1      52.806  26.761  24.932  1.00  0.00     0.200 A 
ATOM     75  F   UNL A   1      53.341  26.173  27.156  1.00  0.00    -0.200 F 
ATOM     76  F   UNL A   1      54.066  26.517  24.549  1.00  0.00    -0.200 F 
ENDBRANCH  52  66
BRANCH  53  77
ATOM     77  C   UNL A   1      40.525  28.668  28.509  1.00  0.00     0.064 A 
ATOM     78  C   UNL A   1      40.127  28.375  29.821  1.00  0.00     0.173 A 
ATOM     79  C   UNL A   1      39.550  29.154  27.626  1.00  0.00     0.173 A 
ATOM     80  F   UNL A   1      41.023  27.905  30.701  1.00  0.00    -0.203 F 
ATOM     81  C   UNL A   1      38.802  28.526  30.223  1.00  0.00     0.198 A 
ATOM     82  C   UNL A   1      38.231  29.333  28.037  1.00  0.00     0.198 A 
ATOM     83  F   UNL A   1      39.880  29.467  26.365  1.00  0.00    -0.203 F 
ATOM     84  F   UNL A   1      38.440  28.187  31.467  1.00  0.00    -0.200 F 
ATOM     85  C   UNL A   1      37.855  29.006  29.331  1.00  0.00     0.200 A 
ATOM     86  F   UNL A   1      37.322  29.817  27.178  1.00  0.00    -0.200 F 
ATOM     87  F   UNL A   1      36.580  29.147  29.716  1.00  0.00    -0.200 F 
ENDBRANCH  53  77
BRANCH  65  88
ATOM     88  C   UNL A   1      46.263  32.641  28.518  1.00  0.00     0.064 A 
ATOM     89  C   UNL A   1      46.687  33.003  29.801  1.00  0.00     0.173 A 
ATOM     90  C   UNL A   1      46.142  33.647  27.547  1.00  0.00     0.173 A 
ATOM     91  F   UNL A   1      46.805  32.073  30.762  1.00  0.00    -0.203 F 
ATOM     92  C   UNL A   1      46.966  34.330  30.108  1.00  0.00     0.198 A 
ATOM     93  C   UNL A   1      46.453  34.968  27.848  1.00  0.00     0.198 A 
ATOM     94  F   UNL A   1      45.751  33.342  26.300  1.00  0.00    -0.203 F 
ATOM     95  F   UNL A   1      47.336  34.664  31.352  1.00  0.00    -0.200 F 
ATOM     96  C   UNL A   1      46.861  35.309  29.129  1.00  0.00     0.200 A 
ATOM     97  F   UNL A   1      46.369  35.907  26.897  1.00  0.00    -0.200 F 
ATOM     98  F   UNL A   1      47.151  36.583  29.422  1.00  0.00    -0.200 F 
ENDBRANCH  65  88
ENDBRANCH  39  40
ENDBRANCH  32  34
ENDBRANCH  31  32
ENDBRANCH  30  31
ENDBRANCH  29  30
ENDBRANCH   1  29
TORSDOF 16
ENDMDL
