MODEL 1
REMARK VINA RESULT:     -10.0      0.000      0.000
REMARK SMILES CCOCC[C@@H]1CCC[C@@]1([NH2+]C1CC1)C(=O)OCCOCCOC(=O)c1ccc(-c2c3nc(c(-c4c(F)c(F)c(F)c(F)c4F)c4ccc([nH]4)c(-c4c(F)c(F)c(F)c(F)c4F)c4nc(c(-c5c(F)c(F)c(F)c(F)c5F)c5ccc2[nH]5)C=C4)C=C3)cc1
REMARK SMILES IDX 19 1 18 2 17 3 15 4 16 5 10 6 6 7 7 8 8 9 9 10 5 11 4 12
REMARK SMILES IDX 3 13 2 14 1 15 11 16 12 19 13 20 14 21 20 22 21 23 22 24
REMARK SMILES IDX 23 25 24 26 25 27 26 28 27 29 88 30 28 31 87 32 29 33 30 34
REMARK SMILES IDX 31 35 81 36 32 37 86 38 80 39 82 40 33 41 85 42 79 43 78 44
REMARK SMILES IDX 34 46 66 47 46 48 65 49 47 50 50 51 64 52 83 53 48 54 49 55
REMARK SMILES IDX 63 57 84 58 51 59 35 60 36 61 44 62 37 63 38 64 42 65 45 66
REMARK SMILES IDX 39 67 40 68 43 69 41 70 67 71 68 72 76 73 69 74 70 75 74 76
REMARK SMILES IDX 77 77 71 78 72 79 75 80 73 81 52 82 53 83 61 84 54 85 55 86
REMARK SMILES IDX 59 87 62 88 56 89 57 90 60 91 58 92
REMARK H PARENT 11 17 11 18 82 45 50 56
REMARK Flexibility Score: inf
ROOT
ATOM      1  C   UNL A   1      38.955  22.103  26.133  1.00  0.00     0.202 C 
ENDROOT
BRANCH   1   2
ATOM      2  C   UNL A   1      38.306  23.486  26.130  1.00  0.00     0.261 C 
BRANCH   2   3
ATOM      3  O   UNL A   1      36.876  23.349  26.230  1.00  0.00    -0.459 OA
BRANCH   3   4
ATOM      4  C   UNL A   1      36.162  23.356  25.069  1.00  0.00     0.368 C 
ATOM      5  O   UNL A   1      36.617  23.705  23.984  1.00  0.00    -0.245 OA
BRANCH   4   6
ATOM      6  C   UNL A   1      34.707  22.853  25.277  1.00  0.00     0.197 C 
ATOM      7  C   UNL A   1      34.641  21.350  25.790  1.00  0.00     0.065 C 
ATOM      8  C   UNL A   1      33.838  21.370  27.101  1.00  0.00     0.011 C 
ATOM      9  C   UNL A   1      33.186  22.734  27.201  1.00  0.00     0.008 C 
ATOM     10  C   UNL A   1      34.144  23.652  26.480  1.00  0.00     0.081 C 
BRANCH   7  11
ATOM     11  C   UNL A   1      34.337  20.247  24.722  1.00  0.00     0.039 C 
BRANCH  11  12
ATOM     12  C   UNL A   1      33.003  19.487  24.738  1.00  0.00     0.160 C 
BRANCH  12  13
ATOM     13  O   UNL A   1      32.517  19.096  23.454  1.00  0.00    -0.382 OA
BRANCH  13  14
ATOM     14  C   UNL A   1      32.533  17.711  23.150  1.00  0.00     0.156 C 
ATOM     15  C   UNL A   1      33.910  17.071  23.240  1.00  0.00     0.035 C 
ENDBRANCH  13  14
ENDBRANCH  12  13
ENDBRANCH  11  12
ENDBRANCH   7  11
BRANCH   6  16
ATOM     16  N   UNL A   1      33.910  23.010  24.032  1.00  0.00    -0.329 N 
ATOM     17  H   UNL A   1      33.228  22.251  24.016  1.00  0.00     0.347 HD
ATOM     18  H   UNL A   1      34.610  23.008  23.291  1.00  0.00     0.347 HD
BRANCH  16  19
ATOM     19  C   UNL A   1      33.170  24.258  23.814  1.00  0.00     0.183 C 
ATOM     20  C   UNL A   1      33.560  25.214  22.720  1.00  0.00     0.071 C 
ATOM     21  C   UNL A   1      32.363  24.338  22.536  1.00  0.00     0.071 C 
ENDBRANCH  16  19
ENDBRANCH   6  16
ENDBRANCH   4   6
ENDBRANCH   3   4
ENDBRANCH   2   3
ENDBRANCH   1   2
BRANCH   1  22
ATOM     22  O   UNL A   1      38.309  21.115  25.331  1.00  0.00    -0.374 OA
BRANCH  22  23
ATOM     23  C   UNL A   1      38.886  19.811  25.323  1.00  0.00     0.202 C 
BRANCH  23  24
ATOM     24  C   UNL A   1      40.067  19.593  26.273  1.00  0.00     0.261 C 
BRANCH  24  25
ATOM     25  O   UNL A   1      41.090  18.769  25.696  1.00  0.00    -0.460 OA
BRANCH  25  26
ATOM     26  C   UNL A   1      42.339  19.052  26.133  1.00  0.00     0.338 C 
ATOM     27  O   UNL A   1      43.306  18.312  26.169  1.00  0.00    -0.246 OA
BRANCH  26  28
ATOM     28  C   UNL A   1      42.434  20.486  26.445  1.00  0.00     0.060 A 
ATOM     29  C   UNL A   1      42.593  21.368  25.370  1.00  0.00     0.016 A 
ATOM     30  C   UNL A   1      42.459  20.948  27.762  1.00  0.00     0.016 A 
ATOM     31  C   UNL A   1      42.831  22.716  25.608  1.00  0.00     0.010 A 
ATOM     32  C   UNL A   1      42.709  22.301  28.001  1.00  0.00     0.010 A 
ATOM     33  C   UNL A   1      42.936  23.181  26.925  1.00  0.00    -0.014 A 
BRANCH  33  34
ATOM     34  C   UNL A   1      43.440  24.550  27.172  1.00  0.00     0.031 A 
ATOM     35  C   UNL A   1      42.491  25.586  27.707  1.00  0.00     0.074 A 
ATOM     36  C   UNL A   1      44.732  24.853  26.952  1.00  0.00     0.049 A 
ATOM     37  N   UNL A   1      42.702  26.852  27.965  1.00  0.00    -0.248 NA
ATOM     38  C   UNL A   1      41.118  25.136  27.988  1.00  0.00     0.031 C 
ATOM     39  C   UNL A   1      45.747  23.917  26.474  1.00  0.00     0.029 A 
ATOM     40  N   UNL A   1      45.405  26.040  27.095  1.00  0.00    -0.354 N 
ATOM     41  C   UNL A   1      41.488  27.350  28.419  1.00  0.00     0.074 A 
ATOM     42  C   UNL A   1      40.539  26.259  28.387  1.00  0.00     0.031 C 
ATOM     43  C   UNL A   1      46.916  24.570  26.349  1.00  0.00     0.029 A 
ATOM     44  C   UNL A   1      46.719  25.974  26.706  1.00  0.00     0.049 A 
ATOM     45  H   UNL A   1      44.986  26.858  27.444  1.00  0.00     0.167 HD
ATOM     46  C   UNL A   1      41.198  28.606  28.831  1.00  0.00     0.037 A 
ATOM     47  C   UNL A   1      47.647  26.948  26.623  1.00  0.00     0.037 A 
ATOM     48  C   UNL A   1      42.153  29.681  28.881  1.00  0.00     0.049 A 
ATOM     49  C   UNL A   1      47.277  28.350  27.035  1.00  0.00     0.074 A 
ATOM     50  C   UNL A   1      41.971  30.976  29.331  1.00  0.00     0.029 A 
ATOM     51  N   UNL A   1      43.470  29.583  28.457  1.00  0.00    -0.354 N 
ATOM     52  N   UNL A   1      46.141  28.803  27.510  1.00  0.00    -0.248 NA
ATOM     53  C   UNL A   1      48.321  29.377  26.903  1.00  0.00     0.031 C 
ATOM     54  C   UNL A   1      43.161  31.680  29.123  1.00  0.00     0.029 A 
ATOM     55  C   UNL A   1      44.102  30.807  28.602  1.00  0.00     0.049 A 
ATOM     56  H   UNL A   1      43.893  28.766  28.107  1.00  0.00     0.167 HD
ATOM     57  C   UNL A   1      46.344  30.154  27.764  1.00  0.00     0.074 A 
ATOM     58  C   UNL A   1      47.715  30.445  27.402  1.00  0.00     0.031 C 
ATOM     59  C   UNL A   1      45.474  31.072  28.252  1.00  0.00     0.037 A 
BRANCH  46  60
ATOM     60  C   UNL A   1      39.783  28.905  29.232  1.00  0.00     0.064 A 
ATOM     61  C   UNL A   1      38.825  29.344  28.307  1.00  0.00     0.173 A 
ATOM     62  C   UNL A   1      39.367  28.685  30.554  1.00  0.00     0.173 A 
ATOM     63  F   UNL A   1      39.175  29.580  27.033  1.00  0.00    -0.203 F 
ATOM     64  C   UNL A   1      37.506  29.565  28.694  1.00  0.00     0.198 A 
ATOM     65  C   UNL A   1      38.041  28.881  30.932  1.00  0.00     0.198 A 
ATOM     66  F   UNL A   1      40.244  28.262  31.478  1.00  0.00    -0.203 F 
ATOM     67  F   UNL A   1      36.614  30.015  27.801  1.00  0.00    -0.200 F 
ATOM     68  C   UNL A   1      37.113  29.324  30.002  1.00  0.00     0.200 A 
ATOM     69  F   UNL A   1      37.662  28.636  32.193  1.00  0.00    -0.200 F 
ATOM     70  F   UNL A   1      35.839  29.522  30.368  1.00  0.00    -0.200 F 
ENDBRANCH  46  60
BRANCH  47  71
ATOM     71  C   UNL A   1      49.008  26.644  26.107  1.00  0.00     0.064 A 
ATOM     72  C   UNL A   1      49.347  26.886  24.769  1.00  0.00     0.173 A 
ATOM     73  C   UNL A   1      49.984  26.065  26.931  1.00  0.00     0.173 A 
ATOM     74  F   UNL A   1      48.442  27.417  23.933  1.00  0.00    -0.203 F 
ATOM     75  C   UNL A   1      50.600  26.534  24.268  1.00  0.00     0.198 A 
ATOM     76  C   UNL A   1      51.247  25.743  26.438  1.00  0.00     0.198 A 
ATOM     77  F   UNL A   1      49.713  25.813  28.220  1.00  0.00    -0.203 F 
ATOM     78  F   UNL A   1      50.876  26.721  22.970  1.00  0.00    -0.200 F 
ATOM     79  C   UNL A   1      51.549  25.966  25.103  1.00  0.00     0.200 A 
ATOM     80  F   UNL A   1      52.166  25.207  27.252  1.00  0.00    -0.200 F 
ATOM     81  F   UNL A   1      52.751  25.623  24.620  1.00  0.00    -0.200 F 
ENDBRANCH  47  71
BRANCH  59  82
ATOM     82  C   UNL A   1      45.989  32.465  28.470  1.00  0.00     0.064 A 
ATOM     83  C   UNL A   1      46.550  32.862  29.692  1.00  0.00     0.173 A 
ATOM     84  C   UNL A   1      45.963  33.400  27.423  1.00  0.00     0.173 A 
ATOM     85  F   UNL A   1      46.585  32.011  30.728  1.00  0.00    -0.203 F 
ATOM     86  C   UNL A   1      47.045  34.153  29.865  1.00  0.00     0.198 A 
ATOM     87  C   UNL A   1      46.488  34.678  27.590  1.00  0.00     0.198 A 
ATOM     88  F   UNL A   1      45.445  33.068  26.231  1.00  0.00    -0.203 F 
ATOM     89  F   UNL A   1      47.533  34.526  31.056  1.00  0.00    -0.200 F 
ATOM     90  C   UNL A   1      47.021  35.056  28.813  1.00  0.00     0.200 A 
ATOM     91  F   UNL A   1      46.479  35.544  26.566  1.00  0.00    -0.200 F 
ATOM     92  F   UNL A   1      47.508  36.293  28.979  1.00  0.00    -0.200 F 
ENDBRANCH  59  82
ENDBRANCH  33  34
ENDBRANCH  26  28
ENDBRANCH  25  26
ENDBRANCH  24  25
ENDBRANCH  23  24
ENDBRANCH  22  23
ENDBRANCH   1  22
TORSDOF 20
ENDMDL
MODEL 2
REMARK VINA RESULT:      -9.9      4.793      8.199
REMARK SMILES CCOCC[C@@H]1CCC[C@@]1([NH2+]C1CC1)C(=O)OCCOCCOC(=O)c1ccc(-c2c3nc(c(-c4c(F)c(F)c(F)c(F)c4F)c4ccc([nH]4)c(-c4c(F)c(F)c(F)c(F)c4F)c4nc(c(-c5c(F)c(F)c(F)c(F)c5F)c5ccc2[nH]5)C=C4)C=C3)cc1
REMARK SMILES IDX 19 1 18 2 17 3 15 4 16 5 10 6 6 7 7 8 8 9 9 10 5 11 4 12
REMARK SMILES IDX 3 13 2 14 1 15 11 16 12 19 13 20 14 21 20 22 21 23 22 24
REMARK SMILES IDX 23 25 24 26 25 27 26 28 27 29 88 30 28 31 87 32 29 33 30 34
REMARK SMILES IDX 31 35 81 36 32 37 86 38 80 39 82 40 33 41 85 42 79 43 78 44
REMARK SMILES IDX 34 46 66 47 46 48 65 49 47 50 50 51 64 52 83 53 48 54 49 55
REMARK SMILES IDX 63 57 84 58 51 59 35 60 36 61 44 62 37 63 38 64 42 65 45 66
REMARK SMILES IDX 39 67 40 68 43 69 41 70 67 71 68 72 76 73 69 74 70 75 74 76
REMARK SMILES IDX 77 77 71 78 72 79 75 80 73 81 52 82 53 83 61 84 54 85 55 86
REMARK SMILES IDX 59 87 62 88 56 89 57 90 60 91 58 92
REMARK H PARENT 11 17 11 18 82 45 50 56
REMARK Flexibility Score: inf
ROOT
ATOM      1  C   UNL A   1      31.088  26.272  26.347  1.00  0.00     0.202 C 
ENDROOT
BRANCH   1   2
ATOM      2  C   UNL A   1      31.658  26.441  24.939  1.00  0.00     0.261 C 
BRANCH   2   3
ATOM      3  O   UNL A   1      32.621  25.403  24.679  1.00  0.00    -0.459 OA
BRANCH   3   4
ATOM      4  C   UNL A   1      32.150  24.212  24.216  1.00  0.00     0.368 C 
ATOM      5  O   UNL A   1      31.285  24.103  23.353  1.00  0.00    -0.245 OA
BRANCH   4   6
ATOM      6  C   UNL A   1      32.848  23.004  24.899  1.00  0.00     0.197 C 
ATOM      7  C   UNL A   1      34.289  23.363  25.466  1.00  0.00     0.065 C 
ATOM      8  C   UNL A   1      34.270  23.014  26.963  1.00  0.00     0.011 C 
ATOM      9  C   UNL A   1      33.018  22.198  27.213  1.00  0.00     0.008 C 
ATOM     10  C   UNL A   1      32.036  22.710  26.187  1.00  0.00     0.081 C 
BRANCH   7  11
ATOM     11  C   UNL A   1      35.520  22.941  24.596  1.00  0.00     0.039 C 
BRANCH  11  12
ATOM     12  C   UNL A   1      36.506  21.877  25.098  1.00  0.00     0.160 C 
BRANCH  12  13
ATOM     13  O   UNL A   1      37.885  22.211  24.938  1.00  0.00    -0.382 OA
BRANCH  13  14
ATOM     14  C   UNL A   1      38.653  22.373  26.119  1.00  0.00     0.156 C 
ATOM     15  C   UNL A   1      38.668  23.794  26.660  1.00  0.00     0.035 C 
ENDBRANCH  13  14
ENDBRANCH  12  13
ENDBRANCH  11  12
ENDBRANCH   7  11
BRANCH   6  16
ATOM     16  N   UNL A   1      32.931  21.846  23.970  1.00  0.00    -0.329 N 
ATOM     17  H   UNL A   1      33.904  21.772  23.672  1.00  0.00     0.347 HD
ATOM     18  H   UNL A   1      32.248  22.064  23.245  1.00  0.00     0.347 HD
BRANCH  16  19
ATOM     19  C   UNL A   1      32.525  20.519  24.449  1.00  0.00     0.183 C 
ATOM     20  C   UNL A   1      32.621  19.308  23.563  1.00  0.00     0.071 C 
ATOM     21  C   UNL A   1      33.638  19.512  24.638  1.00  0.00     0.071 C 
ENDBRANCH  16  19
ENDBRANCH   6  16
ENDBRANCH   4   6
ENDBRANCH   3   4
ENDBRANCH   2   3
ENDBRANCH   1   2
BRANCH   1  22
ATOM     22  O   UNL A   1      31.023  27.461  27.134  1.00  0.00    -0.374 OA
BRANCH  22  23
ATOM     23  C   UNL A   1      32.184  28.288  27.155  1.00  0.00     0.202 C 
BRANCH  23  24
ATOM     24  C   UNL A   1      31.945  29.788  26.959  1.00  0.00     0.261 C 
BRANCH  24  25
ATOM     25  O   UNL A   1      33.093  30.460  26.420  1.00  0.00    -0.460 OA
BRANCH  25  26
ATOM     26  C   UNL A   1      33.600  31.421  27.227  1.00  0.00     0.338 C 
ATOM     27  O   UNL A   1      33.040  32.417  27.650  1.00  0.00    -0.246 OA
BRANCH  26  28
ATOM     28  C   UNL A   1      34.943  31.022  27.676  1.00  0.00     0.060 A 
ATOM     29  C   UNL A   1      35.216  29.650  27.744  1.00  0.00     0.016 A 
ATOM     30  C   UNL A   1      35.879  31.962  28.107  1.00  0.00     0.016 A 
ATOM     31  C   UNL A   1      36.412  29.208  28.295  1.00  0.00     0.010 A 
ATOM     32  C   UNL A   1      37.077  31.517  28.671  1.00  0.00     0.010 A 
ATOM     33  C   UNL A   1      37.329  30.137  28.802  1.00  0.00    -0.014 A 
BRANCH  33  34
ATOM     34  C   UNL A   1      38.471  29.659  29.612  1.00  0.00     0.031 A 
ATOM     35  C   UNL A   1      38.645  30.194  31.007  1.00  0.00     0.074 A 
ATOM     36  C   UNL A   1      39.319  28.738  29.122  1.00  0.00     0.049 A 
ATOM     37  N   UNL A   1      39.586  29.945  31.881  1.00  0.00    -0.248 NA
ATOM     38  C   UNL A   1      37.620  31.140  31.479  1.00  0.00     0.031 C 
ATOM     39  C   UNL A   1      39.221  28.121  27.801  1.00  0.00     0.029 A 
ATOM     40  N   UNL A   1      40.436  28.169  29.680  1.00  0.00    -0.354 N 
ATOM     41  C   UNL A   1      39.277  30.714  32.995  1.00  0.00     0.074 A 
ATOM     42  C   UNL A   1      38.073  31.452  32.685  1.00  0.00     0.031 C 
ATOM     43  C   UNL A   1      40.247  27.266  27.643  1.00  0.00     0.029 A 
ATOM     44  C   UNL A   1      41.088  27.304  28.837  1.00  0.00     0.049 A 
ATOM     45  H   UNL A   1      40.738  28.361  30.596  1.00  0.00     0.167 HD
ATOM     46  C   UNL A   1      39.940  30.789  34.173  1.00  0.00     0.037 A 
ATOM     47  C   UNL A   1      42.250  26.641  29.007  1.00  0.00     0.037 A 
ATOM     48  C   UNL A   1      41.125  30.034  34.482  1.00  0.00     0.049 A 
ATOM     49  C   UNL A   1      42.994  26.790  30.309  1.00  0.00     0.074 A 
ATOM     50  C   UNL A   1      41.842  30.001  35.664  1.00  0.00     0.029 A 
ATOM     51  N   UNL A   1      41.771  29.186  33.596  1.00  0.00    -0.354 N 
ATOM     52  N   UNL A   1      42.671  27.481  31.376  1.00  0.00    -0.248 NA
ATOM     53  C   UNL A   1      44.267  26.063  30.432  1.00  0.00     0.031 C 
ATOM     54  C   UNL A   1      42.957  29.179  35.475  1.00  0.00     0.029 A 
ATOM     55  C   UNL A   1      42.900  28.651  34.195  1.00  0.00     0.049 A 
ATOM     56  H   UNL A   1      41.472  28.991  32.679  1.00  0.00     0.167 HD
ATOM     57  C   UNL A   1      43.678  27.245  32.305  1.00  0.00     0.074 A 
ATOM     58  C   UNL A   1      44.617  26.338  31.680  1.00  0.00     0.031 C 
ATOM     59  C   UNL A   1      43.814  27.735  33.562  1.00  0.00     0.037 A 
BRANCH  46  60
ATOM     60  C   UNL A   1      39.424  31.743  35.210  1.00  0.00     0.064 A 
ATOM     61  C   UNL A   1      38.526  31.339  36.209  1.00  0.00     0.173 A 
ATOM     62  C   UNL A   1      39.886  33.067  35.239  1.00  0.00     0.173 A 
ATOM     63  F   UNL A   1      38.044  30.086  36.218  1.00  0.00    -0.203 F 
ATOM     64  C   UNL A   1      38.100  32.230  37.191  1.00  0.00     0.198 A 
ATOM     65  C   UNL A   1      39.480  33.948  36.238  1.00  0.00     0.198 A 
ATOM     66  F   UNL A   1      40.748  33.503  34.308  1.00  0.00    -0.203 F 
ATOM     67  F   UNL A   1      37.218  31.832  38.117  1.00  0.00    -0.200 F 
ATOM     68  C   UNL A   1      38.586  33.529  37.210  1.00  0.00     0.200 A 
ATOM     69  F   UNL A   1      39.960  35.199  36.262  1.00  0.00    -0.200 F 
ATOM     70  F   UNL A   1      38.187  34.380  38.166  1.00  0.00    -0.200 F 
ENDBRANCH  46  60
BRANCH  47  71
ATOM     71  C   UNL A   1      42.798  25.797  27.913  1.00  0.00     0.064 A 
ATOM     72  C   UNL A   1      43.665  26.331  26.950  1.00  0.00     0.173 A 
ATOM     73  C   UNL A   1      42.431  24.450  27.783  1.00  0.00     0.173 A 
ATOM     74  F   UNL A   1      44.028  27.621  27.016  1.00  0.00    -0.203 F 
ATOM     75  C   UNL A   1      44.120  25.558  25.883  1.00  0.00     0.198 A 
ATOM     76  C   UNL A   1      42.912  23.668  26.734  1.00  0.00     0.198 A 
ATOM     77  F   UNL A   1      41.604  23.888  28.678  1.00  0.00    -0.203 F 
ATOM     78  F   UNL A   1      44.899  26.110  24.943  1.00  0.00    -0.200 F 
ATOM     79  C   UNL A   1      43.746  24.227  25.778  1.00  0.00     0.200 A 
ATOM     80  F   UNL A   1      42.559  22.379  26.645  1.00  0.00    -0.200 F 
ATOM     81  F   UNL A   1      44.180  23.485  24.750  1.00  0.00    -0.200 F 
ENDBRANCH  47  71
BRANCH  59  82
ATOM     82  C   UNL A   1      44.992  27.266  34.363  1.00  0.00     0.064 A 
ATOM     83  C   UNL A   1      44.956  26.075  35.102  1.00  0.00     0.173 A 
ATOM     84  C   UNL A   1      46.191  27.996  34.351  1.00  0.00     0.173 A 
ATOM     85  F   UNL A   1      43.829  25.349  35.158  1.00  0.00    -0.203 F 
ATOM     86  C   UNL A   1      46.069  25.644  35.820  1.00  0.00     0.198 A 
ATOM     87  C   UNL A   1      47.312  27.545  35.043  1.00  0.00     0.198 A 
ATOM     88  F   UNL A   1      46.282  29.138  33.653  1.00  0.00    -0.203 F 
ATOM     89  F   UNL A   1      45.997  24.528  36.558  1.00  0.00    -0.200 F 
ATOM     90  C   UNL A   1      47.248  26.375  35.782  1.00  0.00     0.200 A 
ATOM     91  F   UNL A   1      48.455  28.244  34.992  1.00  0.00    -0.200 F 
ATOM     92  F   UNL A   1      48.321  25.952  36.464  1.00  0.00    -0.200 F 
ENDBRANCH  59  82
ENDBRANCH  33  34
ENDBRANCH  26  28
ENDBRANCH  25  26
ENDBRANCH  24  25
ENDBRANCH  23  24
ENDBRANCH  22  23
ENDBRANCH   1  22
TORSDOF 20
ENDMDL
MODEL 3
REMARK VINA RESULT:      -9.8      1.207      2.965
REMARK SMILES CCOCC[C@@H]1CCC[C@@]1([NH2+]C1CC1)C(=O)OCCOCCOC(=O)c1ccc(-c2c3nc(c(-c4c(F)c(F)c(F)c(F)c4F)c4ccc([nH]4)c(-c4c(F)c(F)c(F)c(F)c4F)c4nc(c(-c5c(F)c(F)c(F)c(F)c5F)c5ccc2[nH]5)C=C4)C=C3)cc1
REMARK SMILES IDX 19 1 18 2 17 3 15 4 16 5 10 6 6 7 7 8 8 9 9 10 5 11 4 12
REMARK SMILES IDX 3 13 2 14 1 15 11 16 12 19 13 20 14 21 20 22 21 23 22 24
REMARK SMILES IDX 23 25 24 26 25 27 26 28 27 29 88 30 28 31 87 32 29 33 30 34
REMARK SMILES IDX 31 35 81 36 32 37 86 38 80 39 82 40 33 41 85 42 79 43 78 44
REMARK SMILES IDX 34 46 66 47 46 48 65 49 47 50 50 51 64 52 83 53 48 54 49 55
REMARK SMILES IDX 63 57 84 58 51 59 35 60 36 61 44 62 37 63 38 64 42 65 45 66
REMARK SMILES IDX 39 67 40 68 43 69 41 70 67 71 68 72 76 73 69 74 70 75 74 76
REMARK SMILES IDX 77 77 71 78 72 79 75 80 73 81 52 82 53 83 61 84 54 85 55 86
REMARK SMILES IDX 59 87 62 88 56 89 57 90 60 91 58 92
REMARK H PARENT 11 17 11 18 82 45 50 56
REMARK Flexibility Score: inf
ROOT
ATOM      1  C   UNL A   1      38.543  21.905  25.748  1.00  0.00     0.202 C 
ENDROOT
BRANCH   1   2
ATOM      2  C   UNL A   1      37.669  23.154  25.646  1.00  0.00     0.261 C 
BRANCH   2   3
ATOM      3  O   UNL A   1      36.327  22.777  25.282  1.00  0.00    -0.459 OA
BRANCH   3   4
ATOM      4  C   UNL A   1      35.847  23.237  24.093  1.00  0.00     0.368 C 
ATOM      5  O   UNL A   1      36.517  23.328  23.069  1.00  0.00    -0.245 OA
BRANCH   4   6
ATOM      6  C   UNL A   1      34.345  23.622  24.182  1.00  0.00     0.197 C 
ATOM      7  C   UNL A   1      34.003  24.962  23.398  1.00  0.00     0.065 C 
ATOM      8  C   UNL A   1      32.901  24.608  22.386  1.00  0.00     0.011 C 
ATOM      9  C   UNL A   1      32.382  23.234  22.757  1.00  0.00     0.008 C 
ATOM     10  C   UNL A   1      33.577  22.545  23.372  1.00  0.00     0.081 C 
BRANCH   7  11
ATOM     11  C   UNL A   1      33.872  26.270  24.248  1.00  0.00     0.039 C 
BRANCH  11  12
ATOM     12  C   UNL A   1      33.519  27.606  23.579  1.00  0.00     0.160 C 
BRANCH  12  13
ATOM     13  O   UNL A   1      32.123  27.826  23.374  1.00  0.00    -0.382 OA
BRANCH  13  14
ATOM     14  C   UNL A   1      31.237  27.325  24.361  1.00  0.00     0.156 C 
ATOM     15  C   UNL A   1      29.817  27.103  23.866  1.00  0.00     0.035 C 
ENDBRANCH  13  14
ENDBRANCH  12  13
ENDBRANCH  11  12
ENDBRANCH   7  11
BRANCH   6  16
ATOM     16  N   UNL A   1      33.907  23.727  25.599  1.00  0.00    -0.329 N 
ATOM     17  H   UNL A   1      33.412  24.614  25.694  1.00  0.00     0.347 HD
ATOM     18  H   UNL A   1      34.772  23.629  26.130  1.00  0.00     0.347 HD
BRANCH  16  19
ATOM     19  C   UNL A   1      33.035  22.685  26.153  1.00  0.00     0.183 C 
ATOM     20  C   UNL A   1      32.793  22.577  27.633  1.00  0.00     0.071 C 
ATOM     21  C   UNL A   1      31.732  23.162  26.758  1.00  0.00     0.071 C 
ENDBRANCH  16  19
ENDBRANCH   6  16
ENDBRANCH   4   6
ENDBRANCH   3   4
ENDBRANCH   2   3
ENDBRANCH   1   2
BRANCH   1  22
ATOM     22  O   UNL A   1      38.050  20.748  25.073  1.00  0.00    -0.374 OA
BRANCH  22  23
ATOM     23  C   UNL A   1      38.718  19.515  25.332  1.00  0.00     0.202 C 
BRANCH  23  24
ATOM     24  C   UNL A   1      40.008  19.609  26.153  1.00  0.00     0.261 C 
BRANCH  24  25
ATOM     25  O   UNL A   1      41.044  18.757  25.643  1.00  0.00    -0.460 OA
BRANCH  25  26
ATOM     26  C   UNL A   1      42.272  19.018  26.150  1.00  0.00     0.338 C 
ATOM     27  O   UNL A   1      43.220  18.259  26.247  1.00  0.00    -0.246 OA
BRANCH  26  28
ATOM     28  C   UNL A   1      42.378  20.453  26.455  1.00  0.00     0.060 A 
ATOM     29  C   UNL A   1      42.559  21.327  25.377  1.00  0.00     0.016 A 
ATOM     30  C   UNL A   1      42.394  20.922  27.769  1.00  0.00     0.016 A 
ATOM     31  C   UNL A   1      42.810  22.674  25.610  1.00  0.00     0.010 A 
ATOM     32  C   UNL A   1      42.657  22.274  28.004  1.00  0.00     0.010 A 
ATOM     33  C   UNL A   1      42.905  23.145  26.926  1.00  0.00    -0.014 A 
BRANCH  33  34
ATOM     34  C   UNL A   1      43.422  24.510  27.171  1.00  0.00     0.031 A 
ATOM     35  C   UNL A   1      42.484  25.552  27.714  1.00  0.00     0.074 A 
ATOM     36  C   UNL A   1      44.714  24.803  26.942  1.00  0.00     0.049 A 
ATOM     37  N   UNL A   1      42.706  26.816  27.972  1.00  0.00    -0.248 NA
ATOM     38  C   UNL A   1      41.109  25.112  28.003  1.00  0.00     0.031 C 
ATOM     39  C   UNL A   1      45.718  23.860  26.456  1.00  0.00     0.029 A 
ATOM     40  N   UNL A   1      45.397  25.984  27.082  1.00  0.00    -0.354 N 
ATOM     41  C   UNL A   1      41.499  27.323  28.435  1.00  0.00     0.074 A 
ATOM     42  C   UNL A   1      40.542  26.239  28.408  1.00  0.00     0.031 C 
ATOM     43  C   UNL A   1      46.891  24.504  26.324  1.00  0.00     0.029 A 
ATOM     44  C   UNL A   1      46.708  25.909  26.684  1.00  0.00     0.049 A 
ATOM     45  H   UNL A   1      44.986  26.806  27.435  1.00  0.00     0.167 HD
ATOM     46  C   UNL A   1      41.222  28.581  28.850  1.00  0.00     0.037 A 
ATOM     47  C   UNL A   1      47.643  26.876  26.596  1.00  0.00     0.037 A 
ATOM     48  C   UNL A   1      42.186  29.648  28.895  1.00  0.00     0.049 A 
ATOM     49  C   UNL A   1      47.286  28.280  27.013  1.00  0.00     0.074 A 
ATOM     50  C   UNL A   1      42.017  30.944  29.348  1.00  0.00     0.029 A 
ATOM     51  N   UNL A   1      43.499  29.541  28.462  1.00  0.00    -0.354 N 
ATOM     52  N   UNL A   1      46.158  28.741  27.495  1.00  0.00    -0.248 NA
ATOM     53  C   UNL A   1      48.337  29.299  26.874  1.00  0.00     0.031 C 
ATOM     54  C   UNL A   1      43.211  31.639  29.133  1.00  0.00     0.029 A 
ATOM     55  C   UNL A   1      44.142  30.760  28.604  1.00  0.00     0.049 A 
ATOM     56  H   UNL A   1      43.913  28.721  28.108  1.00  0.00     0.167 HD
ATOM     57  C   UNL A   1      46.372  30.090  27.750  1.00  0.00     0.074 A 
ATOM     58  C   UNL A   1      47.743  30.371  27.379  1.00  0.00     0.031 C 
ATOM     59  C   UNL A   1      45.513  31.014  28.245  1.00  0.00     0.037 A 
BRANCH  46  60
ATOM     60  C   UNL A   1      39.812  28.890  29.262  1.00  0.00     0.064 A 
ATOM     61  C   UNL A   1      38.851  29.335  28.343  1.00  0.00     0.173 A 
ATOM     62  C   UNL A   1      39.404  28.673  30.586  1.00  0.00     0.173 A 
ATOM     63  F   UNL A   1      39.193  29.569  27.067  1.00  0.00    -0.203 F 
ATOM     64  C   UNL A   1      37.536  29.567  28.739  1.00  0.00     0.198 A 
ATOM     65  C   UNL A   1      38.083  28.879  30.974  1.00  0.00     0.198 A 
ATOM     66  F   UNL A   1      40.284  28.245  31.504  1.00  0.00    -0.203 F 
ATOM     67  F   UNL A   1      36.641  30.022  27.853  1.00  0.00    -0.200 F 
ATOM     68  C   UNL A   1      37.151  29.329  30.051  1.00  0.00     0.200 A 
ATOM     69  F   UNL A   1      37.711  28.637  32.238  1.00  0.00    -0.200 F 
ATOM     70  F   UNL A   1      35.882  29.536  30.426  1.00  0.00    -0.200 F 
ENDBRANCH  46  60
BRANCH  47  71
ATOM     71  C   UNL A   1      48.998  26.562  26.071  1.00  0.00     0.064 A 
ATOM     72  C   UNL A   1      49.981  25.995  26.893  1.00  0.00     0.173 A 
ATOM     73  C   UNL A   1      49.351  26.864  24.747  1.00  0.00     0.173 A 
ATOM     74  F   UNL A   1      49.702  25.709  28.173  1.00  0.00    -0.203 F 
ATOM     75  C   UNL A   1      51.273  25.769  26.420  1.00  0.00     0.198 A 
ATOM     76  C   UNL A   1      50.634  26.608  24.266  1.00  0.00     0.198 A 
ATOM     77  F   UNL A   1      48.448  27.407  23.918  1.00  0.00    -0.203 F 
ATOM     78  F   UNL A   1      52.210  25.282  27.244  1.00  0.00    -0.200 F 
ATOM     79  C   UNL A   1      51.596  26.072  25.107  1.00  0.00     0.200 A 
ATOM     80  F   UNL A   1      50.937  26.889  22.992  1.00  0.00    -0.200 F 
ATOM     81  F   UNL A   1      52.840  25.859  24.654  1.00  0.00    -0.200 F 
ENDBRANCH  47  71
BRANCH  59  82
ATOM     82  C   UNL A   1      46.040  32.403  28.461  1.00  0.00     0.064 A 
ATOM     83  C   UNL A   1      45.939  33.393  27.473  1.00  0.00     0.173 A 
ATOM     84  C   UNL A   1      46.609  32.760  29.693  1.00  0.00     0.173 A 
ATOM     85  F   UNL A   1      45.417  33.098  26.273  1.00  0.00    -0.203 F 
ATOM     86  C   UNL A   1      46.412  34.682  27.702  1.00  0.00     0.198 A 
ATOM     87  C   UNL A   1      47.050  34.059  29.930  1.00  0.00     0.198 A 
ATOM     88  F   UNL A   1      46.721  31.853  30.676  1.00  0.00    -0.203 F 
ATOM     89  F   UNL A   1      46.350  35.599  26.726  1.00  0.00    -0.200 F 
ATOM     90  C   UNL A   1      46.959  35.016  28.932  1.00  0.00     0.200 A 
ATOM     91  F   UNL A   1      47.564  34.383  31.125  1.00  0.00    -0.200 F 
ATOM     92  F   UNL A   1      47.403  36.261  29.154  1.00  0.00    -0.200 F 
ENDBRANCH  59  82
ENDBRANCH  33  34
ENDBRANCH  26  28
ENDBRANCH  25  26
ENDBRANCH  24  25
ENDBRANCH  23  24
ENDBRANCH  22  23
ENDBRANCH   1  22
TORSDOF 20
ENDMDL
