MODEL 1
REMARK VINA RESULT:      -9.4      0.000      0.000
REMARK SMILES CC[C@H]1CC[C@@](C(=O)OCCOCCOC(=O)c2ccc(-c3c4nc(c(-c5c(F)c(F)c(F)c(F)c5F)c5ccc([nH]5)c(-c5c(F)c(F)c(F)c(F)c5F)c5nc(c(-c6c(F)c(F)c(F)c(F)c6F)c6ccc3[nH]6)C=C5)C=C4)cc2)(C2CCCC2)C1
REMARK SMILES IDX 13 1 12 2 11 3 10 4 9 5 7 6 8 7 6 8 3 9 4 10 86 11 5 12 2 13
REMARK SMILES IDX 1 14 81 15 82 16 85 17 83 18 84 19 14 20 15 21 16 22 17 23
REMARK SMILES IDX 18 24 19 25 80 26 20 27 79 28 21 29 22 30 23 31 73 32 24 33
REMARK SMILES IDX 78 34 72 35 74 36 25 37 77 38 71 39 70 40 26 42 58 43 38 44
REMARK SMILES IDX 57 45 39 46 42 47 56 48 75 49 40 50 41 51 55 53 76 54 43 55
REMARK SMILES IDX 27 56 28 57 36 58 29 59 30 60 34 61 37 62 31 63 32 64 35 65
REMARK SMILES IDX 33 66 59 67 60 68 68 69 61 70 62 71 66 72 69 73 63 74 64 75
REMARK SMILES IDX 67 76 65 77 44 78 45 79 53 80 46 81 47 82 51 83 54 84 48 85
REMARK SMILES IDX 49 86 52 87 50 88
REMARK H PARENT 74 41 42 52
REMARK Flexibility Score: inf
ROOT
ATOM      1  C   UNL A   1      33.695  33.372  27.964  1.00  0.00     0.202 C 
ENDROOT
BRANCH   1   2
ATOM      2  O   UNL A   1      34.451  34.472  28.455  1.00  0.00    -0.374 OA
BRANCH   2   3
ATOM      3  C   UNL A   1      33.793  35.408  29.308  1.00  0.00     0.202 C 
BRANCH   3   4
ATOM      4  C   UNL A   1      33.408  34.965  30.723  1.00  0.00     0.261 C 
BRANCH   4   5
ATOM      5  O   UNL A   1      34.553  34.851  31.589  1.00  0.00    -0.463 OA
BRANCH   5   6
ATOM      6  C   UNL A   1      34.799  33.597  32.050  1.00  0.00     0.312 C 
ATOM      7  O   UNL A   1      33.916  32.792  32.331  1.00  0.00    -0.252 OA
BRANCH   6   8
ATOM      8  C   UNL A   1      36.298  33.273  32.236  1.00  0.00     0.071 C 
ATOM      9  C   UNL A   1      37.060  31.281  33.565  1.00  0.00    -0.010 C 
ATOM     10  C   UNL A   1      37.393  32.537  34.358  1.00  0.00     0.005 C 
ATOM     11  C   UNL A   1      36.332  31.725  32.295  1.00  0.00     0.022 C 
ATOM     12  C   UNL A   1      36.939  33.750  33.556  1.00  0.00     0.019 C 
BRANCH   9  13
ATOM     13  C   UNL A   1      38.243  30.311  33.376  1.00  0.00     0.000 C 
ATOM     14  C   UNL A   1      39.393  30.421  34.361  1.00  0.00     0.004 C 
ENDBRANCH   9  13
BRANCH   8  15
ATOM     15  C   UNL A   1      37.012  33.890  30.976  1.00  0.00     0.006 C 
ATOM     16  C   UNL A   1      38.395  34.514  31.239  1.00  0.00     0.005 C 
ATOM     17  C   UNL A   1      37.318  32.962  29.805  1.00  0.00     0.005 C 
ATOM     18  C   UNL A   1      39.061  34.654  29.874  1.00  0.00     0.000 C 
ATOM     19  C   UNL A   1      38.273  33.764  28.926  1.00  0.00     0.000 C 
ENDBRANCH   8  15
ENDBRANCH   6   8
ENDBRANCH   5   6
ENDBRANCH   4   5
ENDBRANCH   3   4
ENDBRANCH   2   3
ENDBRANCH   1   2
BRANCH   1  20
ATOM     20  C   UNL A   1      34.059  31.956  28.422  1.00  0.00     0.261 C 
BRANCH  20  21
ATOM     21  O   UNL A   1      34.399  31.082  27.342  1.00  0.00    -0.460 OA
BRANCH  21  22
ATOM     22  C   UNL A   1      34.677  29.819  27.738  1.00  0.00     0.338 C 
ATOM     23  O   UNL A   1      33.994  28.816  27.574  1.00  0.00    -0.246 OA
BRANCH  22  24
ATOM     24  C   UNL A   1      36.045  29.759  28.270  1.00  0.00     0.060 A 
ATOM     25  C   UNL A   1      37.087  30.094  27.396  1.00  0.00     0.016 A 
ATOM     26  C   UNL A   1      36.307  29.333  29.573  1.00  0.00     0.016 A 
ATOM     27  C   UNL A   1      38.405  29.948  27.804  1.00  0.00     0.010 A 
ATOM     28  C   UNL A   1      37.634  29.172  29.977  1.00  0.00     0.010 A 
ATOM     29  C   UNL A   1      38.683  29.440  29.079  1.00  0.00    -0.014 A 
BRANCH  29  30
ATOM     30  C   UNL A   1      40.066  29.026  29.399  1.00  0.00     0.031 A 
ATOM     31  C   UNL A   1      40.911  29.935  30.245  1.00  0.00     0.074 A 
ATOM     32  C   UNL A   1      40.539  27.841  28.980  1.00  0.00     0.049 A 
ATOM     33  N   UNL A   1      42.152  29.792  30.636  1.00  0.00    -0.248 NA
ATOM     34  C   UNL A   1      40.271  31.175  30.712  1.00  0.00     0.031 C 
ATOM     35  C   UNL A   1      39.790  26.869  28.188  1.00  0.00     0.029 A 
ATOM     36  N   UNL A   1      41.768  27.261  29.158  1.00  0.00    -0.354 N 
ATOM     37  C   UNL A   1      42.440  30.922  31.389  1.00  0.00     0.074 A 
ATOM     38  C   UNL A   1      41.261  31.759  31.371  1.00  0.00     0.031 C 
ATOM     39  C   UNL A   1      40.583  25.814  27.934  1.00  0.00     0.029 A 
ATOM     40  C   UNL A   1      41.901  26.056  28.518  1.00  0.00     0.049 A 
ATOM     41  H   UNL A   1      42.486  27.671  29.693  1.00  0.00     0.167 HD
ATOM     42  C   UNL A   1      43.584  31.226  32.045  1.00  0.00     0.037 A 
ATOM     43  C   UNL A   1      42.976  25.253  28.401  1.00  0.00     0.037 A 
ATOM     44  C   UNL A   1      44.753  30.386  32.054  1.00  0.00     0.049 A 
ATOM     45  C   UNL A   1      44.260  25.645  29.084  1.00  0.00     0.074 A 
ATOM     46  C   UNL A   1      45.960  30.591  32.699  1.00  0.00     0.029 A 
ATOM     47  N   UNL A   1      44.862  29.182  31.372  1.00  0.00    -0.354 N 
ATOM     48  N   UNL A   1      44.521  26.702  29.816  1.00  0.00    -0.248 NA
ATOM     49  C   UNL A   1      45.399  24.730  28.929  1.00  0.00     0.031 C 
ATOM     50  C   UNL A   1      46.818  29.539  32.362  1.00  0.00     0.029 A 
ATOM     51  C   UNL A   1      46.126  28.647  31.557  1.00  0.00     0.049 A 
ATOM     52  H   UNL A   1      44.146  28.769  30.837  1.00  0.00     0.167 HD
ATOM     53  C   UNL A   1      45.839  26.566  30.231  1.00  0.00     0.074 A 
ATOM     54  C   UNL A   1      46.320  25.316  29.679  1.00  0.00     0.031 C 
ATOM     55  C   UNL A   1      46.585  27.399  30.998  1.00  0.00     0.037 A 
BRANCH  42  56
ATOM     56  C   UNL A   1      43.633  32.536  32.778  1.00  0.00     0.064 A 
ATOM     57  C   UNL A   1      43.256  32.647  34.126  1.00  0.00     0.173 A 
ATOM     58  C   UNL A   1      44.078  33.697  32.126  1.00  0.00     0.173 A 
ATOM     59  F   UNL A   1      42.809  31.571  34.791  1.00  0.00    -0.203 F 
ATOM     60  C   UNL A   1      43.290  33.874  34.782  1.00  0.00     0.198 A 
ATOM     61  C   UNL A   1      44.142  34.916  32.794  1.00  0.00     0.198 A 
ATOM     62  F   UNL A   1      44.452  33.648  30.839  1.00  0.00    -0.203 F 
ATOM     63  F   UNL A   1      42.873  33.966  36.052  1.00  0.00    -0.200 F 
ATOM     64  C   UNL A   1      43.740  35.006  34.119  1.00  0.00     0.200 A 
ATOM     65  F   UNL A   1      44.587  36.006  32.154  1.00  0.00    -0.200 F 
ATOM     66  F   UNL A   1      43.776  36.187  34.752  1.00  0.00    -0.200 F 
ENDBRANCH  42  56
BRANCH  43  67
ATOM     67  C   UNL A   1      42.883  24.013  27.588  1.00  0.00     0.064 A 
ATOM     68  C   UNL A   1      42.492  22.796  28.160  1.00  0.00     0.173 A 
ATOM     69  C   UNL A   1      43.187  24.022  26.218  1.00  0.00     0.173 A 
ATOM     70  F   UNL A   1      42.213  22.730  29.471  1.00  0.00    -0.203 F 
ATOM     71  C   UNL A   1      42.422  21.631  27.398  1.00  0.00     0.198 A 
ATOM     72  C   UNL A   1      43.088  22.864  25.450  1.00  0.00     0.198 A 
ATOM     73  F   UNL A   1      43.567  25.162  25.622  1.00  0.00    -0.203 F 
ATOM     74  F   UNL A   1      42.086  20.472  27.978  1.00  0.00    -0.200 F 
ATOM     75  C   UNL A   1      42.713  21.669  26.042  1.00  0.00     0.200 A 
ATOM     76  F   UNL A   1      43.356  22.909  24.138  1.00  0.00    -0.200 F 
ATOM     77  F   UNL A   1      42.639  20.550  25.307  1.00  0.00    -0.200 F 
ENDBRANCH  43  67
BRANCH  55  78
ATOM     78  C   UNL A   1      47.990  26.971  31.314  1.00  0.00     0.064 A 
ATOM     79  C   UNL A   1      48.276  26.109  32.383  1.00  0.00     0.173 A 
ATOM     80  C   UNL A   1      49.059  27.394  30.508  1.00  0.00     0.173 A 
ATOM     81  F   UNL A   1      47.292  25.687  33.191  1.00  0.00    -0.203 F 
ATOM     82  C   UNL A   1      49.584  25.711  32.651  1.00  0.00     0.198 A 
ATOM     83  C   UNL A   1      50.359  26.968  30.759  1.00  0.00     0.198 A 
ATOM     84  F   UNL A   1      48.838  28.211  29.467  1.00  0.00    -0.203 F 
ATOM     85  F   UNL A   1      49.840  24.929  33.709  1.00  0.00    -0.200 F 
ATOM     86  C   UNL A   1      50.622  26.134  31.834  1.00  0.00     0.200 A 
ATOM     87  F   UNL A   1      51.359  27.365  29.960  1.00  0.00    -0.200 F 
ATOM     88  F   UNL A   1      51.878  25.743  32.090  1.00  0.00    -0.200 F 
ENDBRANCH  55  78
ENDBRANCH  29  30
ENDBRANCH  22  24
ENDBRANCH  21  22
ENDBRANCH  20  21
ENDBRANCH   1  20
TORSDOF 16
ENDMDL
MODEL 2
REMARK VINA RESULT:      -9.4      3.891     10.651
REMARK SMILES CC[C@H]1CC[C@@](C(=O)OCCOCCOC(=O)c2ccc(-c3c4nc(c(-c5c(F)c(F)c(F)c(F)c5F)c5ccc([nH]5)c(-c5c(F)c(F)c(F)c(F)c5F)c5nc(c(-c6c(F)c(F)c(F)c(F)c6F)c6ccc3[nH]6)C=C5)C=C4)cc2)(C2CCCC2)C1
REMARK SMILES IDX 13 1 12 2 11 3 10 4 9 5 7 6 8 7 6 8 3 9 4 10 86 11 5 12 2 13
REMARK SMILES IDX 1 14 81 15 82 16 85 17 83 18 84 19 14 20 15 21 16 22 17 23
REMARK SMILES IDX 18 24 19 25 80 26 20 27 79 28 21 29 22 30 23 31 73 32 24 33
REMARK SMILES IDX 78 34 72 35 74 36 25 37 77 38 71 39 70 40 26 42 58 43 38 44
REMARK SMILES IDX 57 45 39 46 42 47 56 48 75 49 40 50 41 51 55 53 76 54 43 55
REMARK SMILES IDX 27 56 28 57 36 58 29 59 30 60 34 61 37 62 31 63 32 64 35 65
REMARK SMILES IDX 33 66 59 67 60 68 68 69 61 70 62 71 66 72 69 73 63 74 64 75
REMARK SMILES IDX 67 76 65 77 44 78 45 79 53 80 46 81 47 82 51 83 54 84 48 85
REMARK SMILES IDX 49 86 52 87 50 88
REMARK H PARENT 74 41 42 52
REMARK Flexibility Score: inf
ROOT
ATOM      1  C   UNL A   1      40.708  19.747  26.127  1.00  0.00     0.202 C 
ENDROOT
BRANCH   1   2
ATOM      2  O   UNL A   1      41.829  19.277  25.388  1.00  0.00    -0.374 OA
BRANCH   2   3
ATOM      3  C   UNL A   1      43.130  19.523  25.919  1.00  0.00     0.202 C 
BRANCH   3   4
ATOM      4  C   UNL A   1      44.230  20.005  24.968  1.00  0.00     0.261 C 
BRANCH   4   5
ATOM      5  O   UNL A   1      44.880  21.198  25.447  1.00  0.00    -0.463 OA
BRANCH   5   6
ATOM      6  C   UNL A   1      44.264  22.361  25.105  1.00  0.00     0.312 C 
ATOM      7  O   UNL A   1      43.490  22.466  24.158  1.00  0.00    -0.252 OA
BRANCH   6   8
ATOM      8  C   UNL A   1      44.654  23.567  25.986  1.00  0.00     0.071 C 
ATOM      9  C   UNL A   1      44.622  25.916  25.095  1.00  0.00    -0.010 C 
ATOM     10  C   UNL A   1      46.074  25.502  25.291  1.00  0.00     0.005 C 
ATOM     11  C   UNL A   1      43.753  24.712  25.459  1.00  0.00     0.022 C 
ATOM     12  C   UNL A   1      46.102  24.081  25.838  1.00  0.00     0.019 C 
BRANCH   9  13
ATOM     13  C   UNL A   1      44.245  27.259  25.750  1.00  0.00     0.000 C 
ATOM     14  C   UNL A   1      45.386  28.169  26.170  1.00  0.00     0.004 C 
ENDBRANCH   9  13
BRANCH   8  15
ATOM     15  C   UNL A   1      44.335  23.119  27.462  1.00  0.00     0.006 C 
ATOM     16  C   UNL A   1      45.261  23.703  28.545  1.00  0.00     0.005 C 
ATOM     17  C   UNL A   1      42.960  23.456  28.028  1.00  0.00     0.005 C 
ATOM     18  C   UNL A   1      44.541  23.493  29.873  1.00  0.00     0.000 C 
ATOM     19  C   UNL A   1      43.092  23.193  29.524  1.00  0.00     0.000 C 
ENDBRANCH   8  15
ENDBRANCH   6   8
ENDBRANCH   5   6
ENDBRANCH   4   5
ENDBRANCH   3   4
ENDBRANCH   2   3
ENDBRANCH   1   2
BRANCH   1  20
ATOM     20  C   UNL A   1      40.849  21.029  26.955  1.00  0.00     0.261 C 
BRANCH  20  21
ATOM     21  O   UNL A   1      40.787  22.220  26.167  1.00  0.00    -0.460 OA
BRANCH  21  22
ATOM     22  C   UNL A   1      39.556  22.780  26.132  1.00  0.00     0.338 C 
ATOM     23  O   UNL A   1      38.507  22.258  25.773  1.00  0.00    -0.246 OA
BRANCH  22  24
ATOM     24  C   UNL A   1      39.597  24.103  26.768  1.00  0.00     0.060 A 
ATOM     25  C   UNL A   1      40.240  25.130  26.066  1.00  0.00     0.016 A 
ATOM     26  C   UNL A   1      39.069  24.322  28.041  1.00  0.00     0.016 A 
ATOM     27  C   UNL A   1      40.412  26.372  26.661  1.00  0.00     0.010 A 
ATOM     28  C   UNL A   1      39.254  25.567  28.644  1.00  0.00     0.010 A 
ATOM     29  C   UNL A   1      39.962  26.580  27.971  1.00  0.00    -0.014 A 
BRANCH  29  30
ATOM     30  C   UNL A   1      40.393  27.798  28.691  1.00  0.00     0.031 A 
ATOM     31  C   UNL A   1      41.817  27.889  29.160  1.00  0.00     0.074 A 
ATOM     32  C   UNL A   1      39.541  28.818  28.878  1.00  0.00     0.049 A 
ATOM     33  N   UNL A   1      42.413  28.846  29.825  1.00  0.00    -0.248 NA
ATOM     34  C   UNL A   1      42.685  26.746  28.839  1.00  0.00     0.031 C 
ATOM     35  C   UNL A   1      38.151  28.848  28.428  1.00  0.00     0.029 A 
ATOM     36  N   UNL A   1      39.722  30.024  29.505  1.00  0.00    -0.354 N 
ATOM     37  C   UNL A   1      43.722  28.418  30.004  1.00  0.00     0.074 A 
ATOM     38  C   UNL A   1      43.825  27.102  29.412  1.00  0.00     0.031 C 
ATOM     39  C   UNL A   1      37.598  30.012  28.807  1.00  0.00     0.029 A 
ATOM     40  C   UNL A   1      38.585  30.790  29.553  1.00  0.00     0.049 A 
ATOM     41  H   UNL A   1      40.584  30.312  29.883  1.00  0.00     0.167 HD
ATOM     42  C   UNL A   1      44.746  29.072  30.599  1.00  0.00     0.037 A 
ATOM     43  C   UNL A   1      38.367  31.975  30.154  1.00  0.00     0.037 A 
ATOM     44  C   UNL A   1      44.631  30.381  31.187  1.00  0.00     0.049 A 
ATOM     45  C   UNL A   1      39.505  32.654  30.870  1.00  0.00     0.074 A 
ATOM     46  C   UNL A   1      45.610  31.141  31.802  1.00  0.00     0.029 A 
ATOM     47  N   UNL A   1      43.456  31.118  31.242  1.00  0.00    -0.354 N 
ATOM     48  N   UNL A   1      40.747  32.258  31.014  1.00  0.00    -0.248 NA
ATOM     49  C   UNL A   1      39.213  33.948  31.501  1.00  0.00     0.031 C 
ATOM     50  C   UNL A   1      45.014  32.314  32.278  1.00  0.00     0.029 A 
ATOM     51  C   UNL A   1      43.679  32.313  31.906  1.00  0.00     0.049 A 
ATOM     52  H   UNL A   1      42.593  30.834  30.863  1.00  0.00     0.167 HD
ATOM     53  C   UNL A   1      41.390  33.262  31.726  1.00  0.00     0.074 A 
ATOM     54  C   UNL A   1      40.402  34.293  31.972  1.00  0.00     0.031 C 
ATOM     55  C   UNL A   1      42.680  33.327  32.140  1.00  0.00     0.037 A 
BRANCH  42  56
ATOM     56  C   UNL A   1      46.069  28.364  30.671  1.00  0.00     0.064 A 
ATOM     57  C   UNL A   1      47.083  28.590  29.726  1.00  0.00     0.173 A 
ATOM     58  C   UNL A   1      46.333  27.457  31.708  1.00  0.00     0.173 A 
ATOM     59  F   UNL A   1      46.877  29.435  28.705  1.00  0.00    -0.203 F 
ATOM     60  C   UNL A   1      48.295  27.909  29.799  1.00  0.00     0.198 A 
ATOM     61  C   UNL A   1      47.558  26.804  31.797  1.00  0.00     0.198 A 
ATOM     62  F   UNL A   1      45.400  27.206  32.640  1.00  0.00    -0.203 F 
ATOM     63  F   UNL A   1      49.227  28.099  28.854  1.00  0.00    -0.200 F 
ATOM     64  C   UNL A   1      48.535  27.022  30.838  1.00  0.00     0.200 A 
ATOM     65  F   UNL A   1      47.791  25.955  32.809  1.00  0.00    -0.200 F 
ATOM     66  F   UNL A   1      49.704  26.371  30.910  1.00  0.00    -0.200 F 
ENDBRANCH  42  56
BRANCH  43  67
ATOM     67  C   UNL A   1      37.010  32.579  30.118  1.00  0.00     0.064 A 
ATOM     68  C   UNL A   1      36.124  32.442  31.195  1.00  0.00     0.173 A 
ATOM     69  C   UNL A   1      36.572  33.308  29.003  1.00  0.00     0.173 A 
ATOM     70  F   UNL A   1      36.487  31.735  32.276  1.00  0.00    -0.203 F 
ATOM     71  C   UNL A   1      34.846  32.996  31.150  1.00  0.00     0.198 A 
ATOM     72  C   UNL A   1      35.306  33.888  28.971  1.00  0.00     0.198 A 
ATOM     73  F   UNL A   1      37.382  33.470  27.945  1.00  0.00    -0.203 F 
ATOM     74  F   UNL A   1      34.003  32.814  32.176  1.00  0.00    -0.200 F 
ATOM     75  C   UNL A   1      34.441  33.726  30.042  1.00  0.00     0.200 A 
ATOM     76  F   UNL A   1      34.926  34.603  27.904  1.00  0.00    -0.200 F 
ATOM     77  F   UNL A   1      33.215  34.265  30.002  1.00  0.00    -0.200 F 
ENDBRANCH  43  67
BRANCH  55  78
ATOM     78  C   UNL A   1      43.107  34.567  32.873  1.00  0.00     0.064 A 
ATOM     79  C   UNL A   1      43.119  34.629  34.274  1.00  0.00     0.173 A 
ATOM     80  C   UNL A   1      43.551  35.693  32.162  1.00  0.00     0.173 A 
ATOM     81  F   UNL A   1      42.691  33.584  34.999  1.00  0.00    -0.203 F 
ATOM     82  C   UNL A   1      43.533  35.782  34.936  1.00  0.00     0.198 A 
ATOM     83  C   UNL A   1      43.995  36.832  32.828  1.00  0.00     0.198 A 
ATOM     84  F   UNL A   1      43.569  35.683  30.821  1.00  0.00    -0.203 F 
ATOM     85  F   UNL A   1      43.487  35.837  36.275  1.00  0.00    -0.200 F 
ATOM     86  C   UNL A   1      43.978  36.879  34.213  1.00  0.00     0.200 A 
ATOM     87  F   UNL A   1      44.440  37.885  32.127  1.00  0.00    -0.200 F 
ATOM     88  F   UNL A   1      44.383  37.985  34.852  1.00  0.00    -0.200 F 
ENDBRANCH  55  78
ENDBRANCH  29  30
ENDBRANCH  22  24
ENDBRANCH  21  22
ENDBRANCH  20  21
ENDBRANCH   1  20
TORSDOF 16
ENDMDL
MODEL 3
REMARK VINA RESULT:      -9.4      3.867     10.632
REMARK SMILES CC[C@H]1CC[C@@](C(=O)OCCOCCOC(=O)c2ccc(-c3c4nc(c(-c5c(F)c(F)c(F)c(F)c5F)c5ccc([nH]5)c(-c5c(F)c(F)c(F)c(F)c5F)c5nc(c(-c6c(F)c(F)c(F)c(F)c6F)c6ccc3[nH]6)C=C5)C=C4)cc2)(C2CCCC2)C1
REMARK SMILES IDX 13 1 12 2 11 3 10 4 9 5 7 6 8 7 6 8 3 9 4 10 86 11 5 12 2 13
REMARK SMILES IDX 1 14 81 15 82 16 85 17 83 18 84 19 14 20 15 21 16 22 17 23
REMARK SMILES IDX 18 24 19 25 80 26 20 27 79 28 21 29 22 30 23 31 73 32 24 33
REMARK SMILES IDX 78 34 72 35 74 36 25 37 77 38 71 39 70 40 26 42 58 43 38 44
REMARK SMILES IDX 57 45 39 46 42 47 56 48 75 49 40 50 41 51 55 53 76 54 43 55
REMARK SMILES IDX 27 56 28 57 36 58 29 59 30 60 34 61 37 62 31 63 32 64 35 65
REMARK SMILES IDX 33 66 59 67 60 68 68 69 61 70 62 71 66 72 69 73 63 74 64 75
REMARK SMILES IDX 67 76 65 77 44 78 45 79 53 80 46 81 47 82 51 83 54 84 48 85
REMARK SMILES IDX 49 86 52 87 50 88
REMARK H PARENT 74 41 42 52
REMARK Flexibility Score: inf
ROOT
ATOM      1  C   UNL A   1      40.691  19.851  26.234  1.00  0.00     0.202 C 
ENDROOT
BRANCH   1   2
ATOM      2  O   UNL A   1      41.689  19.318  25.373  1.00  0.00    -0.374 OA
BRANCH   2   3
ATOM      3  C   UNL A   1      43.028  19.249  25.862  1.00  0.00     0.202 C 
BRANCH   3   4
ATOM      4  C   UNL A   1      44.126  19.994  25.097  1.00  0.00     0.261 C 
BRANCH   4   5
ATOM      5  O   UNL A   1      44.590  21.158  25.806  1.00  0.00    -0.463 OA
BRANCH   5   6
ATOM      6  C   UNL A   1      44.175  22.345  25.292  1.00  0.00     0.312 C 
ATOM      7  O   UNL A   1      43.522  22.445  24.257  1.00  0.00    -0.252 OA
BRANCH   6   8
ATOM      8  C   UNL A   1      44.633  23.580  26.098  1.00  0.00     0.071 C 
ATOM      9  C   UNL A   1      44.554  25.894  25.123  1.00  0.00    -0.010 C 
ATOM     10  C   UNL A   1      46.013  25.475  25.235  1.00  0.00     0.005 C 
ATOM     11  C   UNL A   1      43.704  24.712  25.591  1.00  0.00     0.022 C 
ATOM     12  C   UNL A   1      46.070  24.075  25.832  1.00  0.00     0.019 C 
BRANCH   9  13
ATOM     13  C   UNL A   1      44.231  27.264  25.752  1.00  0.00     0.000 C 
ATOM     14  C   UNL A   1      45.404  28.097  26.236  1.00  0.00     0.004 C 
ENDBRANCH   9  13
BRANCH   8  15
ATOM     15  C   UNL A   1      44.413  23.189  27.608  1.00  0.00     0.006 C 
ATOM     16  C   UNL A   1      45.352  23.882  28.613  1.00  0.00     0.005 C 
ATOM     17  C   UNL A   1      43.049  23.473  28.227  1.00  0.00     0.005 C 
ATOM     18  C   UNL A   1      44.711  23.698  29.985  1.00  0.00     0.000 C 
ATOM     19  C   UNL A   1      43.268  23.296  29.726  1.00  0.00     0.000 C 
ENDBRANCH   8  15
ENDBRANCH   6   8
ENDBRANCH   5   6
ENDBRANCH   4   5
ENDBRANCH   3   4
ENDBRANCH   2   3
ENDBRANCH   1   2
BRANCH   1  20
ATOM     20  C   UNL A   1      40.967  21.172  26.961  1.00  0.00     0.261 C 
BRANCH  20  21
ATOM     21  O   UNL A   1      40.771  22.324  26.136  1.00  0.00    -0.460 OA
BRANCH  21  22
ATOM     22  C   UNL A   1      39.526  22.845  26.226  1.00  0.00     0.338 C 
ATOM     23  O   UNL A   1      38.463  22.291  25.973  1.00  0.00    -0.246 OA
BRANCH  22  24
ATOM     24  C   UNL A   1      39.590  24.170  26.856  1.00  0.00     0.060 A 
ATOM     25  C   UNL A   1      40.250  25.183  26.150  1.00  0.00     0.016 A 
ATOM     26  C   UNL A   1      39.067  24.402  28.129  1.00  0.00     0.016 A 
ATOM     27  C   UNL A   1      40.443  26.424  26.740  1.00  0.00     0.010 A 
ATOM     28  C   UNL A   1      39.273  25.647  28.727  1.00  0.00     0.010 A 
ATOM     29  C   UNL A   1      39.998  26.645  28.050  1.00  0.00    -0.014 A 
BRANCH  29  30
ATOM     30  C   UNL A   1      40.450  27.858  28.764  1.00  0.00     0.031 A 
ATOM     31  C   UNL A   1      41.882  27.940  29.207  1.00  0.00     0.074 A 
ATOM     32  C   UNL A   1      39.608  28.883  28.970  1.00  0.00     0.049 A 
ATOM     33  N   UNL A   1      42.497  28.891  29.863  1.00  0.00    -0.248 NA
ATOM     34  C   UNL A   1      42.738  26.792  28.866  1.00  0.00     0.031 C 
ATOM     35  C   UNL A   1      38.210  28.923  28.546  1.00  0.00     0.029 A 
ATOM     36  N   UNL A   1      39.807  30.086  29.596  1.00  0.00    -0.354 N 
ATOM     37  C   UNL A   1      43.806  28.454  30.016  1.00  0.00     0.074 A 
ATOM     38  C   UNL A   1      43.890  27.139  29.419  1.00  0.00     0.031 C 
ATOM     39  C   UNL A   1      37.671  30.089  28.939  1.00  0.00     0.029 A 
ATOM     40  C   UNL A   1      38.677  30.859  29.667  1.00  0.00     0.049 A 
ATOM     41  H   UNL A   1      40.679  30.368  29.959  1.00  0.00     0.167 HD
ATOM     42  C   UNL A   1      44.846  29.100  30.593  1.00  0.00     0.037 A 
ATOM     43  C   UNL A   1      38.477  32.044  30.275  1.00  0.00     0.037 A 
ATOM     44  C   UNL A   1      44.749  30.408  31.187  1.00  0.00     0.049 A 
ATOM     45  C   UNL A   1      39.633  32.714  30.971  1.00  0.00     0.074 A 
ATOM     46  C   UNL A   1      45.744  31.161  31.785  1.00  0.00     0.029 A 
ATOM     47  N   UNL A   1      43.581  31.153  31.266  1.00  0.00    -0.354 N 
ATOM     48  N   UNL A   1      40.875  32.310  31.091  1.00  0.00    -0.248 NA
ATOM     49  C   UNL A   1      39.361  34.008  31.611  1.00  0.00     0.031 C 
ATOM     50  C   UNL A   1      45.165  32.336  32.275  1.00  0.00     0.029 A 
ATOM     51  C   UNL A   1      43.823  32.344  31.928  1.00  0.00     0.049 A 
ATOM     52  H   UNL A   1      42.708  30.875  30.903  1.00  0.00     0.167 HD
ATOM     53  C   UNL A   1      41.538  33.308  31.794  1.00  0.00     0.074 A 
ATOM     54  C   UNL A   1      40.561  34.344  32.061  1.00  0.00     0.031 C 
ATOM     55  C   UNL A   1      42.835  33.363  32.183  1.00  0.00     0.037 A 
BRANCH  42  56
ATOM     56  C   UNL A   1      46.165  28.384  30.639  1.00  0.00     0.064 A 
ATOM     57  C   UNL A   1      46.449  27.415  31.614  1.00  0.00     0.173 A 
ATOM     58  C   UNL A   1      47.156  28.661  29.685  1.00  0.00     0.173 A 
ATOM     59  F   UNL A   1      45.542  27.123  32.560  1.00  0.00    -0.203 F 
ATOM     60  C   UNL A   1      47.686  26.777  31.652  1.00  0.00     0.198 A 
ATOM     61  C   UNL A   1      48.379  27.997  29.706  1.00  0.00     0.198 A 
ATOM     62  F   UNL A   1      46.937  29.577  28.729  1.00  0.00    -0.203 F 
ATOM     63  F   UNL A   1      47.955  25.896  32.626  1.00  0.00    -0.200 F 
ATOM     64  C   UNL A   1      48.647  27.062  30.694  1.00  0.00     0.200 A 
ATOM     65  F   UNL A   1      49.302  28.268  28.772  1.00  0.00    -0.200 F 
ATOM     66  F   UNL A   1      49.836  26.445  30.729  1.00  0.00    -0.200 F 
ENDBRANCH  42  56
BRANCH  43  67
ATOM     67  C   UNL A   1      37.124  32.657  30.267  1.00  0.00     0.064 A 
ATOM     68  C   UNL A   1      36.728  33.532  29.247  1.00  0.00     0.173 A 
ATOM     69  C   UNL A   1      36.197  32.378  31.283  1.00  0.00     0.173 A 
ATOM     70  F   UNL A   1      37.585  33.848  28.265  1.00  0.00    -0.203 F 
ATOM     71  C   UNL A   1      35.463  34.117  29.252  1.00  0.00     0.198 A 
ATOM     72  C   UNL A   1      34.923  32.939  31.271  1.00  0.00     0.198 A 
ATOM     73  F   UNL A   1      36.526  31.546  32.282  1.00  0.00    -0.203 F 
ATOM     74  F   UNL A   1      35.125  34.984  28.288  1.00  0.00    -0.200 F 
ATOM     75  C   UNL A   1      34.559  33.814  30.260  1.00  0.00     0.200 A 
ATOM     76  F   UNL A   1      34.049  32.632  32.239  1.00  0.00    -0.200 F 
ATOM     77  F   UNL A   1      33.340  34.371  30.260  1.00  0.00    -0.200 F 
ENDBRANCH  43  67
BRANCH  55  78
ATOM     78  C   UNL A   1      43.283  34.600  32.912  1.00  0.00     0.064 A 
ATOM     79  C   UNL A   1      43.321  34.658  34.312  1.00  0.00     0.173 A 
ATOM     80  C   UNL A   1      43.723  35.724  32.196  1.00  0.00     0.173 A 
ATOM     81  F   UNL A   1      42.898  33.615  35.043  1.00  0.00    -0.203 F 
ATOM     82  C   UNL A   1      43.754  35.807  34.969  1.00  0.00     0.198 A 
ATOM     83  C   UNL A   1      44.186  36.858  32.855  1.00  0.00     0.198 A 
ATOM     84  F   UNL A   1      43.716  35.717  30.854  1.00  0.00    -0.203 F 
ATOM     85  F   UNL A   1      43.732  35.859  36.309  1.00  0.00    -0.200 F 
ATOM     86  C   UNL A   1      44.194  36.902  34.240  1.00  0.00     0.200 A 
ATOM     87  F   UNL A   1      44.626  37.910  32.149  1.00  0.00    -0.200 F 
ATOM     88  F   UNL A   1      44.618  38.004  34.875  1.00  0.00    -0.200 F 
ENDBRANCH  55  78
ENDBRANCH  29  30
ENDBRANCH  22  24
ENDBRANCH  21  22
ENDBRANCH  20  21
ENDBRANCH   1  20
TORSDOF 16
ENDMDL
