MODEL 1
REMARK VINA RESULT:     -11.9      0.000      0.000
REMARK SMILES Cc1nn(C)c2c1nc(SCC(=O)OCCOCCOC(=O)c1ccc(-c3c4nc(c(-c5c(F)c(F)c(F)c(F)c5F)c5ccc([nH]5)c(-c5c(F)c(F)c(F)c(F)c5F)c5nc(c(-c6c(F)c(F)c(F)c(F)c6F)c6ccc3[nH]6)C=C5)C=C4)cc1)n2[C@H]1CC[N@@H+](C)C1
REMARK SMILES IDX 16 1 15 2 14 3 12 4 13 5 11 6 10 7 9 8 1 9 2 10 3 11 7 12
REMARK SMILES IDX 4 13 6 14 8 15 5 16 86 17 87 18 88 19 92 20 89 21 90 22
REMARK SMILES IDX 91 23 17 25 18 26 19 27 20 28 21 29 22 30 23 31 24 32 85 33
REMARK SMILES IDX 25 34 84 35 26 36 27 37 28 38 78 39 29 40 83 41 77 42 79 43
REMARK SMILES IDX 30 44 82 45 76 46 75 47 31 49 63 50 43 51 62 52 44 53 47 54
REMARK SMILES IDX 61 55 80 56 45 57 46 58 60 60 81 61 48 62 32 63 33 64 41 65
REMARK SMILES IDX 34 66 35 67 39 68 42 69 36 70 37 71 40 72 38 73 64 74 65 75
REMARK SMILES IDX 73 76 66 77 67 78 71 79 74 80 68 81 69 82 72 83 70 84 49 85
REMARK SMILES IDX 50 86 58 87 51 88 52 89 56 90 59 91 53 92 54 93 57 94 55 95
REMARK H PARENT 90 24 79 48 47 59
REMARK Flexibility Score: inf
ROOT
ATOM      1  C   UNL A   1      41.331  20.842  27.262  1.00  0.00     0.202 C 
ENDROOT
BRANCH   1   2
ATOM      2  C   UNL A   1      40.128  21.764  27.052  1.00  0.00     0.261 C 
BRANCH   2   3
ATOM      3  O   UNL A   1      39.319  21.359  25.936  1.00  0.00    -0.463 OA
BRANCH   3   4
ATOM      4  C   UNL A   1      38.286  22.185  25.608  1.00  0.00     0.316 C 
ATOM      5  O   UNL A   1      38.178  23.345  25.997  1.00  0.00    -0.251 OA
BRANCH   4   6
ATOM      6  C   UNL A   1      37.302  21.587  24.622  1.00  0.00     0.200 C 
BRANCH   6   7
ATOM      7  S   UNL A   1      36.476  22.790  23.574  1.00  0.00    -0.076 SA
BRANCH   7   8
ATOM      8  C   UNL A   1      35.219  23.480  24.561  1.00  0.00     0.171 A 
ATOM      9  C   UNL A   1      33.326  27.204  26.341  1.00  0.00     0.071 C 
ATOM     10  C   UNL A   1      33.057  25.783  26.031  1.00  0.00     0.087 A 
ATOM     11  N   UNL A   1      31.822  25.270  26.196  1.00  0.00    -0.174 NA
ATOM     12  C   UNL A   1      33.901  24.804  25.499  1.00  0.00     0.132 A 
ATOM     13  N   UNL A   1      31.914  23.994  25.735  1.00  0.00    -0.250 N 
ATOM     14  C   UNL A   1      33.171  23.678  25.332  1.00  0.00     0.159 A 
ATOM     15  N   UNL A   1      35.174  24.707  25.048  1.00  0.00    -0.219 NA
ATOM     16  C   UNL A   1      30.694  23.242  25.587  1.00  0.00     0.176 C 
ATOM     17  N   UNL A   1      34.041  22.765  24.819  1.00  0.00    -0.295 N 
BRANCH  17  18
ATOM     18  C   UNL A   1      33.944  21.332  24.689  1.00  0.00     0.152 C 
ATOM     19  C   UNL A   1      33.539  20.654  26.007  1.00  0.00     0.093 C 
ATOM     20  C   UNL A   1      33.027  20.676  23.666  1.00  0.00     0.288 C 
ATOM     21  C   UNL A   1      32.828  19.374  25.579  1.00  0.00     0.264 C 
ATOM     22  N   UNL A   1      33.110  19.291  24.144  1.00  0.00    -0.336 N 
ATOM     23  C   UNL A   1      32.255  18.356  23.441  1.00  0.00     0.332 C 
ATOM     24  H   UNL A   1      34.034  18.902  23.959  1.00  0.00     0.347 HD
ENDBRANCH  17  18
ENDBRANCH   7   8
ENDBRANCH   6   7
ENDBRANCH   4   6
ENDBRANCH   3   4
ENDBRANCH   2   3
ENDBRANCH   1   2
BRANCH   1  25
ATOM     25  O   UNL A   1      41.991  20.371  26.088  1.00  0.00    -0.374 OA
BRANCH  25  26
ATOM     26  C   UNL A   1      42.478  19.030  26.076  1.00  0.00     0.202 C 
BRANCH  26  27
ATOM     27  C   UNL A   1      43.733  18.763  25.263  1.00  0.00     0.261 C 
BRANCH  27  28
ATOM     28  O   UNL A   1      43.957  19.731  24.241  1.00  0.00    -0.460 OA
BRANCH  28  29
ATOM     29  C   UNL A   1      45.188  20.286  24.285  1.00  0.00     0.338 C 
ATOM     30  O   UNL A   1      46.257  19.714  24.166  1.00  0.00    -0.246 OA
BRANCH  29  31
ATOM     31  C   UNL A   1      45.062  21.682  24.722  1.00  0.00     0.060 A 
ATOM     32  C   UNL A   1      45.825  22.038  25.835  1.00  0.00     0.016 A 
ATOM     33  C   UNL A   1      44.086  22.543  24.194  1.00  0.00     0.016 A 
ATOM     34  C   UNL A   1      45.525  23.206  26.497  1.00  0.00     0.010 A 
ATOM     35  C   UNL A   1      43.789  23.718  24.857  1.00  0.00     0.010 A 
ATOM     36  C   UNL A   1      44.478  24.010  26.030  1.00  0.00    -0.014 A 
BRANCH  36  37
ATOM     37  C   UNL A   1      44.228  25.224  26.780  1.00  0.00     0.031 A 
ATOM     38  C   UNL A   1      45.278  26.257  26.622  1.00  0.00     0.074 A 
ATOM     39  C   UNL A   1      43.137  25.413  27.539  1.00  0.00     0.049 A 
ATOM     40  N   UNL A   1      46.065  26.731  27.531  1.00  0.00    -0.248 NA
ATOM     41  C   UNL A   1      45.566  26.726  25.259  1.00  0.00     0.031 C 
ATOM     42  C   UNL A   1      41.915  24.613  27.591  1.00  0.00     0.029 A 
ATOM     43  N   UNL A   1      42.876  26.445  28.384  1.00  0.00    -0.354 N 
ATOM     44  C   UNL A   1      46.856  27.675  26.886  1.00  0.00     0.074 A 
ATOM     45  C   UNL A   1      46.597  27.540  25.476  1.00  0.00     0.031 C 
ATOM     46  C   UNL A   1      40.963  25.307  28.258  1.00  0.00     0.029 A 
ATOM     47  C   UNL A   1      41.556  26.526  28.788  1.00  0.00     0.049 A 
ATOM     48  H   UNL A   1      43.567  27.080  28.683  1.00  0.00     0.167 HD
ATOM     49  C   UNL A   1      47.508  28.644  27.581  1.00  0.00     0.037 A 
ATOM     50  C   UNL A   1      40.987  27.560  29.449  1.00  0.00     0.037 A 
ATOM     51  C   UNL A   1      47.696  28.276  28.958  1.00  0.00     0.049 A 
ATOM     52  C   UNL A   1      42.071  28.350  30.089  1.00  0.00     0.074 A 
ATOM     53  C   UNL A   1      48.359  27.252  29.604  1.00  0.00     0.029 A 
ATOM     54  N   UNL A   1      46.872  28.835  29.904  1.00  0.00    -0.354 N 
ATOM     55  N   UNL A   1      42.778  27.933  31.102  1.00  0.00    -0.248 NA
ATOM     56  C   UNL A   1      42.660  29.445  29.330  1.00  0.00     0.031 C 
ATOM     57  C   UNL A   1      47.558  26.946  30.743  1.00  0.00     0.029 A 
ATOM     58  C   UNL A   1      46.473  27.823  30.739  1.00  0.00     0.049 A 
ATOM     59  H   UNL A   1      46.615  29.783  29.970  1.00  0.00     0.167 HD
ATOM     60  C   UNL A   1      44.060  28.405  30.858  1.00  0.00     0.074 A 
ATOM     61  C   UNL A   1      43.903  29.413  29.816  1.00  0.00     0.031 C 
ATOM     62  C   UNL A   1      45.157  27.739  31.325  1.00  0.00     0.037 A 
BRANCH  49  63
ATOM     63  C   UNL A   1      47.652  30.059  27.086  1.00  0.00     0.064 A 
ATOM     64  C   UNL A   1      48.905  30.695  27.167  1.00  0.00     0.173 A 
ATOM     65  C   UNL A   1      46.553  30.907  26.823  1.00  0.00     0.173 A 
ATOM     66  F   UNL A   1      50.013  29.988  27.436  1.00  0.00    -0.203 F 
ATOM     67  C   UNL A   1      49.032  32.083  27.075  1.00  0.00     0.198 A 
ATOM     68  C   UNL A   1      46.692  32.284  26.675  1.00  0.00     0.198 A 
ATOM     69  F   UNL A   1      45.291  30.459  26.816  1.00  0.00    -0.203 F 
ATOM     70  F   UNL A   1      50.224  32.656  27.291  1.00  0.00    -0.200 F 
ATOM     71  C   UNL A   1      47.925  32.877  26.835  1.00  0.00     0.200 A 
ATOM     72  F   UNL A   1      45.603  33.036  26.463  1.00  0.00    -0.200 F 
ATOM     73  F   UNL A   1      48.035  34.211  26.812  1.00  0.00    -0.200 F 
ENDBRANCH  49  63
BRANCH  50  74
ATOM     74  C   UNL A   1      39.603  28.059  29.312  1.00  0.00     0.064 A 
ATOM     75  C   UNL A   1      38.748  28.162  30.418  1.00  0.00     0.173 A 
ATOM     76  C   UNL A   1      39.174  28.684  28.124  1.00  0.00     0.173 A 
ATOM     77  F   UNL A   1      39.106  27.638  31.599  1.00  0.00    -0.203 F 
ATOM     78  C   UNL A   1      37.536  28.858  30.342  1.00  0.00     0.198 A 
ATOM     79  C   UNL A   1      37.964  29.371  28.046  1.00  0.00     0.198 A 
ATOM     80  F   UNL A   1      39.963  28.717  27.039  1.00  0.00    -0.203 F 
ATOM     81  F   UNL A   1      36.765  28.979  31.431  1.00  0.00    -0.200 F 
ATOM     82  C   UNL A   1      37.149  29.466  29.158  1.00  0.00     0.200 A 
ATOM     83  F   UNL A   1      37.621  29.982  26.904  1.00  0.00    -0.200 F 
ATOM     84  F   UNL A   1      36.013  30.175  29.098  1.00  0.00    -0.200 F 
ENDBRANCH  50  74
BRANCH  62  85
ATOM     85  C   UNL A   1      44.932  26.653  32.338  1.00  0.00     0.064 A 
ATOM     86  C   UNL A   1      44.839  26.883  33.721  1.00  0.00     0.173 A 
ATOM     87  C   UNL A   1      44.664  25.355  31.878  1.00  0.00     0.173 A 
ATOM     88  F   UNL A   1      44.974  28.117  34.225  1.00  0.00    -0.203 F 
ATOM     89  C   UNL A   1      44.547  25.848  34.607  1.00  0.00     0.198 A 
ATOM     90  C   UNL A   1      44.335  24.332  32.762  1.00  0.00     0.198 A 
ATOM     91  F   UNL A   1      44.679  25.092  30.562  1.00  0.00    -0.203 F 
ATOM     92  F   UNL A   1      44.484  26.089  35.925  1.00  0.00    -0.200 F 
ATOM     93  C   UNL A   1      44.289  24.575  34.126  1.00  0.00     0.200 A 
ATOM     94  F   UNL A   1      44.036  23.114  32.289  1.00  0.00    -0.200 F 
ATOM     95  F   UNL A   1      43.970  23.587  34.973  1.00  0.00    -0.200 F 
ENDBRANCH  62  85
ENDBRANCH  36  37
ENDBRANCH  29  31
ENDBRANCH  28  29
ENDBRANCH  27  28
ENDBRANCH  26  27
ENDBRANCH  25  26
ENDBRANCH   1  25
TORSDOF 17
ENDMDL
MODEL 2
REMARK VINA RESULT:     -11.7      0.949      2.298
REMARK SMILES Cc1nn(C)c2c1nc(SCC(=O)OCCOCCOC(=O)c1ccc(-c3c4nc(c(-c5c(F)c(F)c(F)c(F)c5F)c5ccc([nH]5)c(-c5c(F)c(F)c(F)c(F)c5F)c5nc(c(-c6c(F)c(F)c(F)c(F)c6F)c6ccc3[nH]6)C=C5)C=C4)cc1)n2[C@H]1CC[N@@H+](C)C1
REMARK SMILES IDX 16 1 15 2 14 3 12 4 13 5 11 6 10 7 9 8 1 9 2 10 3 11 7 12
REMARK SMILES IDX 4 13 6 14 8 15 5 16 86 17 87 18 88 19 92 20 89 21 90 22
REMARK SMILES IDX 91 23 17 25 18 26 19 27 20 28 21 29 22 30 23 31 24 32 85 33
REMARK SMILES IDX 25 34 84 35 26 36 27 37 28 38 78 39 29 40 83 41 77 42 79 43
REMARK SMILES IDX 30 44 82 45 76 46 75 47 31 49 63 50 43 51 62 52 44 53 47 54
REMARK SMILES IDX 61 55 80 56 45 57 46 58 60 60 81 61 48 62 32 63 33 64 41 65
REMARK SMILES IDX 34 66 35 67 39 68 42 69 36 70 37 71 40 72 38 73 64 74 65 75
REMARK SMILES IDX 73 76 66 77 67 78 71 79 74 80 68 81 69 82 72 83 70 84 49 85
REMARK SMILES IDX 50 86 58 87 51 88 52 89 56 90 59 91 53 92 54 93 57 94 55 95
REMARK H PARENT 90 24 79 48 47 59
REMARK Flexibility Score: inf
ROOT
ATOM      1  C   UNL A   1      41.362  19.996  27.227  1.00  0.00     0.202 C 
ENDROOT
BRANCH   1   2
ATOM      2  C   UNL A   1      41.588  21.430  26.739  1.00  0.00     0.261 C 
BRANCH   2   3
ATOM      3  O   UNL A   1      40.614  21.832  25.762  1.00  0.00    -0.463 OA
BRANCH   3   4
ATOM      4  C   UNL A   1      39.393  22.198  26.244  1.00  0.00     0.316 C 
ATOM      5  O   UNL A   1      39.223  22.881  27.249  1.00  0.00    -0.251 OA
BRANCH   4   6
ATOM      6  C   UNL A   1      38.228  21.771  25.371  1.00  0.00     0.200 C 
BRANCH   6   7
ATOM      7  S   UNL A   1      37.106  23.103  24.927  1.00  0.00    -0.076 SA
BRANCH   7   8
ATOM      8  C   UNL A   1      35.540  22.359  24.775  1.00  0.00     0.171 A 
ATOM      9  C   UNL A   1      33.056  18.558  24.873  1.00  0.00     0.071 C 
ATOM     10  C   UNL A   1      32.953  20.032  24.953  1.00  0.00     0.087 A 
ATOM     11  N   UNL A   1      31.776  20.619  25.244  1.00  0.00    -0.174 NA
ATOM     12  C   UNL A   1      33.944  21.010  24.829  1.00  0.00     0.132 A 
ATOM     13  N   UNL A   1      32.063  21.945  25.328  1.00  0.00    -0.250 N 
ATOM     14  C   UNL A   1      33.366  22.212  25.054  1.00  0.00     0.159 A 
ATOM     15  N   UNL A   1      35.283  21.070  24.637  1.00  0.00    -0.219 NA
ATOM     16  C   UNL A   1      31.041  22.825  25.833  1.00  0.00     0.176 C 
ATOM     17  N   UNL A   1      34.371  23.120  24.917  1.00  0.00    -0.295 N 
BRANCH  17  18
ATOM     18  C   UNL A   1      34.339  24.553  24.762  1.00  0.00     0.152 C 
ATOM     19  C   UNL A   1      33.805  24.978  23.385  1.00  0.00     0.093 C 
ATOM     20  C   UNL A   1      33.573  25.450  25.724  1.00  0.00     0.288 C 
ATOM     21  C   UNL A   1      33.194  26.356  23.618  1.00  0.00     0.264 C 
ATOM     22  N   UNL A   1      33.647  26.706  24.967  1.00  0.00    -0.336 N 
ATOM     23  C   UNL A   1      32.913  27.810  25.553  1.00  0.00     0.332 C 
ATOM     24  H   UNL A   1      34.599  27.071  24.967  1.00  0.00     0.347 HD
ENDBRANCH  17  18
ENDBRANCH   7   8
ENDBRANCH   6   7
ENDBRANCH   4   6
ENDBRANCH   3   4
ENDBRANCH   2   3
ENDBRANCH   1   2
BRANCH   1  25
ATOM     25  O   UNL A   1      42.494  19.129  27.215  1.00  0.00    -0.374 OA
BRANCH  25  26
ATOM     26  C   UNL A   1      42.778  18.402  26.022  1.00  0.00     0.202 C 
BRANCH  26  27
ATOM     27  C   UNL A   1      44.028  18.801  25.255  1.00  0.00     0.261 C 
BRANCH  27  28
ATOM     28  O   UNL A   1      43.934  20.091  24.660  1.00  0.00    -0.460 OA
BRANCH  28  29
ATOM     29  C   UNL A   1      45.122  20.724  24.552  1.00  0.00     0.338 C 
ATOM     30  O   UNL A   1      46.210  20.215  24.344  1.00  0.00    -0.246 OA
BRANCH  29  31
ATOM     31  C   UNL A   1      44.949  22.127  24.946  1.00  0.00     0.060 A 
ATOM     32  C   UNL A   1      45.668  22.533  26.071  1.00  0.00     0.016 A 
ATOM     33  C   UNL A   1      43.969  22.949  24.364  1.00  0.00     0.016 A 
ATOM     34  C   UNL A   1      45.320  23.711  26.692  1.00  0.00     0.010 A 
ATOM     35  C   UNL A   1      43.623  24.134  24.985  1.00  0.00     0.010 A 
ATOM     36  C   UNL A   1      44.268  24.475  26.171  1.00  0.00    -0.014 A 
BRANCH  36  37
ATOM     37  C   UNL A   1      43.966  25.702  26.878  1.00  0.00     0.031 A 
ATOM     38  C   UNL A   1      44.963  26.778  26.672  1.00  0.00     0.074 A 
ATOM     39  C   UNL A   1      42.873  25.866  27.641  1.00  0.00     0.049 A 
ATOM     40  N   UNL A   1      45.733  27.323  27.555  1.00  0.00    -0.248 NA
ATOM     41  C   UNL A   1      45.215  27.211  25.290  1.00  0.00     0.031 C 
ATOM     42  C   UNL A   1      41.692  25.010  27.734  1.00  0.00     0.029 A 
ATOM     43  N   UNL A   1      42.569  26.915  28.451  1.00  0.00    -0.354 N 
ATOM     44  C   UNL A   1      46.471  28.280  26.868  1.00  0.00     0.074 A 
ATOM     45  C   UNL A   1      46.207  28.081  25.467  1.00  0.00     0.031 C 
ATOM     46  C   UNL A   1      40.713  25.681  28.385  1.00  0.00     0.029 A 
ATOM     47  C   UNL A   1      41.250  26.946  28.865  1.00  0.00     0.049 A 
ATOM     48  H   UNL A   1      43.230  27.593  28.719  1.00  0.00     0.167 HD
ATOM     49  C   UNL A   1      47.081  29.305  27.520  1.00  0.00     0.037 A 
ATOM     50  C   UNL A   1      40.637  27.975  29.494  1.00  0.00     0.037 A 
ATOM     51  C   UNL A   1      47.298  28.998  28.909  1.00  0.00     0.049 A 
ATOM     52  C   UNL A   1      41.686  28.840  30.093  1.00  0.00     0.074 A 
ATOM     53  C   UNL A   1      48.016  28.031  29.584  1.00  0.00     0.029 A 
ATOM     54  N   UNL A   1      46.456  29.550  29.842  1.00  0.00    -0.354 N 
ATOM     55  N   UNL A   1      42.422  28.494  31.113  1.00  0.00    -0.248 NA
ATOM     56  C   UNL A   1      42.214  29.933  29.289  1.00  0.00     0.031 C 
ATOM     57  C   UNL A   1      47.241  27.728  30.742  1.00  0.00     0.029 A 
ATOM     58  C   UNL A   1      46.114  28.551  30.717  1.00  0.00     0.049 A 
ATOM     59  H   UNL A   1      46.153  30.486  29.875  1.00  0.00     0.167 HD
ATOM     60  C   UNL A   1      43.676  29.020  30.839  1.00  0.00     0.074 A 
ATOM     61  C   UNL A   1      43.462  29.979  29.763  1.00  0.00     0.031 C 
ATOM     62  C   UNL A   1      44.809  28.425  31.319  1.00  0.00     0.037 A 
BRANCH  49  63
ATOM     63  C   UNL A   1      47.151  30.706  26.973  1.00  0.00     0.064 A 
ATOM     64  C   UNL A   1      48.378  31.396  26.997  1.00  0.00     0.173 A 
ATOM     65  C   UNL A   1      46.010  31.497  26.711  1.00  0.00     0.173 A 
ATOM     66  F   UNL A   1      49.522  30.746  27.259  1.00  0.00    -0.203 F 
ATOM     67  C   UNL A   1      48.443  32.784  26.853  1.00  0.00     0.198 A 
ATOM     68  C   UNL A   1      46.087  32.873  26.512  1.00  0.00     0.198 A 
ATOM     69  F   UNL A   1      44.769  30.997  26.755  1.00  0.00    -0.203 F 
ATOM     70  F   UNL A   1      49.614  33.414  27.016  1.00  0.00    -0.200 F 
ATOM     71  C   UNL A   1      47.297  33.522  26.617  1.00  0.00     0.200 A 
ATOM     72  F   UNL A   1      44.961  33.570  26.304  1.00  0.00    -0.200 F 
ATOM     73  F   UNL A   1      47.349  34.857  26.545  1.00  0.00    -0.200 F 
ENDBRANCH  49  63
BRANCH  50  74
ATOM     74  C   UNL A   1      39.228  28.401  29.353  1.00  0.00     0.064 A 
ATOM     75  C   UNL A   1      38.387  28.532  30.466  1.00  0.00     0.173 A 
ATOM     76  C   UNL A   1      38.752  28.932  28.137  1.00  0.00     0.173 A 
ATOM     77  F   UNL A   1      38.789  28.098  31.670  1.00  0.00    -0.203 F 
ATOM     78  C   UNL A   1      37.143  29.165  30.371  1.00  0.00     0.198 A 
ATOM     79  C   UNL A   1      37.510  29.556  28.041  1.00  0.00     0.198 A 
ATOM     80  F   UNL A   1      39.521  28.934  27.038  1.00  0.00    -0.203 F 
ATOM     81  F   UNL A   1      36.385  29.318  31.465  1.00  0.00    -0.200 F 
ATOM     82  C   UNL A   1      36.710  29.681  29.160  1.00  0.00     0.200 A 
ATOM     83  F   UNL A   1      37.121  30.080  26.870  1.00  0.00    -0.200 F 
ATOM     84  F   UNL A   1      35.541  30.333  29.079  1.00  0.00    -0.200 F 
ENDBRANCH  50  74
BRANCH  62  85
ATOM     85  C   UNL A   1      44.645  27.367  32.373  1.00  0.00     0.064 A 
ATOM     86  C   UNL A   1      44.503  27.647  33.743  1.00  0.00     0.173 A 
ATOM     87  C   UNL A   1      44.490  26.035  31.964  1.00  0.00     0.173 A 
ATOM     88  F   UNL A   1      44.530  28.907  34.196  1.00  0.00    -0.203 F 
ATOM     89  C   UNL A   1      44.272  26.629  34.666  1.00  0.00     0.198 A 
ATOM     90  C   UNL A   1      44.221  25.026  32.884  1.00  0.00     0.198 A 
ATOM     91  F   UNL A   1      44.556  25.719  30.661  1.00  0.00    -0.203 F 
ATOM     92  F   UNL A   1      44.160  26.918  35.971  1.00  0.00    -0.200 F 
ATOM     93  C   UNL A   1      44.125  25.321  34.236  1.00  0.00     0.200 A 
ATOM     94  F   UNL A   1      44.029  23.769  32.458  1.00  0.00    -0.200 F 
ATOM     95  F   UNL A   1      43.865  24.346  35.118  1.00  0.00    -0.200 F 
ENDBRANCH  62  85
ENDBRANCH  36  37
ENDBRANCH  29  31
ENDBRANCH  28  29
ENDBRANCH  27  28
ENDBRANCH  26  27
ENDBRANCH  25  26
ENDBRANCH   1  25
TORSDOF 17
ENDMDL
MODEL 3
REMARK VINA RESULT:     -11.5      5.163     10.331
REMARK SMILES Cc1nn(C)c2c1nc(SCC(=O)OCCOCCOC(=O)c1ccc(-c3c4nc(c(-c5c(F)c(F)c(F)c(F)c5F)c5ccc([nH]5)c(-c5c(F)c(F)c(F)c(F)c5F)c5nc(c(-c6c(F)c(F)c(F)c(F)c6F)c6ccc3[nH]6)C=C5)C=C4)cc1)n2[C@H]1CC[N@@H+](C)C1
REMARK SMILES IDX 16 1 15 2 14 3 12 4 13 5 11 6 10 7 9 8 1 9 2 10 3 11 7 12
REMARK SMILES IDX 4 13 6 14 8 15 5 16 86 17 87 18 88 19 92 20 89 21 90 22
REMARK SMILES IDX 91 23 17 25 18 26 19 27 20 28 21 29 22 30 23 31 24 32 85 33
REMARK SMILES IDX 25 34 84 35 26 36 27 37 28 38 78 39 29 40 83 41 77 42 79 43
REMARK SMILES IDX 30 44 82 45 76 46 75 47 31 49 63 50 43 51 62 52 44 53 47 54
REMARK SMILES IDX 61 55 80 56 45 57 46 58 60 60 81 61 48 62 32 63 33 64 41 65
REMARK SMILES IDX 34 66 35 67 39 68 42 69 36 70 37 71 40 72 38 73 64 74 65 75
REMARK SMILES IDX 73 76 66 77 67 78 71 79 74 80 68 81 69 82 72 83 70 84 49 85
REMARK SMILES IDX 50 86 58 87 51 88 52 89 56 90 59 91 53 92 54 93 57 94 55 95
REMARK H PARENT 90 24 79 48 47 59
REMARK Flexibility Score: inf
ROOT
ATOM      1  C   UNL A   1      33.952  34.041  28.057  1.00  0.00     0.202 C 
ENDROOT
BRANCH   1   2
ATOM      2  C   UNL A   1      34.323  32.672  28.632  1.00  0.00     0.261 C 
BRANCH   2   3
ATOM      3  O   UNL A   1      34.670  31.727  27.607  1.00  0.00    -0.463 OA
BRANCH   3   4
ATOM      4  C   UNL A   1      33.693  30.851  27.238  1.00  0.00     0.316 C 
ATOM      5  O   UNL A   1      32.508  31.148  27.119  1.00  0.00    -0.251 OA
BRANCH   4   6
ATOM      6  C   UNL A   1      34.202  29.469  26.878  1.00  0.00     0.200 C 
BRANCH   6   7
ATOM      7  S   UNL A   1      33.057  28.136  27.251  1.00  0.00    -0.076 SA
BRANCH   7   8
ATOM      8  C   UNL A   1      32.219  27.813  25.760  1.00  0.00     0.171 A 
ATOM      9  C   UNL A   1      29.418  29.310  22.514  1.00  0.00     0.071 C 
ATOM     10  C   UNL A   1      30.431  28.272  22.806  1.00  0.00     0.087 A 
ATOM     11  N   UNL A   1      30.855  27.440  21.833  1.00  0.00    -0.174 NA
ATOM     12  C   UNL A   1      31.132  28.006  23.985  1.00  0.00     0.132 A 
ATOM     13  N   UNL A   1      31.833  26.698  22.418  1.00  0.00    -0.250 N 
ATOM     14  C   UNL A   1      32.001  27.002  23.730  1.00  0.00     0.159 A 
ATOM     15  N   UNL A   1      31.231  28.515  25.236  1.00  0.00    -0.219 NA
ATOM     16  C   UNL A   1      32.631  25.849  21.570  1.00  0.00     0.176 C 
ATOM     17  N   UNL A   1      32.648  26.786  24.908  1.00  0.00    -0.295 N 
BRANCH  17  18
ATOM     18  C   UNL A   1      33.472  25.688  25.349  1.00  0.00     0.152 C 
ATOM     19  C   UNL A   1      32.648  24.569  26.005  1.00  0.00     0.093 C 
ATOM     20  C   UNL A   1      34.386  24.932  24.395  1.00  0.00     0.288 C 
ATOM     21  C   UNL A   1      33.463  23.301  25.768  1.00  0.00     0.264 C 
ATOM     22  N   UNL A   1      34.744  23.808  25.268  1.00  0.00    -0.336 N 
ATOM     23  C   UNL A   1      35.562  22.790  24.640  1.00  0.00     0.332 C 
ATOM     24  H   UNL A   1      35.352  24.120  26.025  1.00  0.00     0.347 HD
ENDBRANCH  17  18
ENDBRANCH   7   8
ENDBRANCH   6   7
ENDBRANCH   4   6
ENDBRANCH   3   4
ENDBRANCH   2   3
ENDBRANCH   1   2
BRANCH   1  25
ATOM     25  O   UNL A   1      32.877  34.732  28.688  1.00  0.00    -0.374 OA
BRANCH  25  26
ATOM     26  C   UNL A   1      33.092  36.078  29.111  1.00  0.00     0.202 C 
BRANCH  26  27
ATOM     27  C   UNL A   1      32.849  36.382  30.580  1.00  0.00     0.261 C 
BRANCH  27  28
ATOM     28  O   UNL A   1      32.884  35.223  31.407  1.00  0.00    -0.460 OA
BRANCH  28  29
ATOM     29  C   UNL A   1      33.527  35.415  32.579  1.00  0.00     0.338 C 
ATOM     30  O   UNL A   1      33.353  36.322  33.374  1.00  0.00    -0.246 OA
BRANCH  29  31
ATOM     31  C   UNL A   1      34.649  34.472  32.663  1.00  0.00     0.060 A 
ATOM     32  C   UNL A   1      35.911  35.045  32.822  1.00  0.00     0.016 A 
ATOM     33  C   UNL A   1      34.493  33.102  32.392  1.00  0.00     0.016 A 
ATOM     34  C   UNL A   1      37.025  34.273  32.585  1.00  0.00     0.010 A 
ATOM     35  C   UNL A   1      35.612  32.326  32.158  1.00  0.00     0.010 A 
ATOM     36  C   UNL A   1      36.863  32.934  32.207  1.00  0.00    -0.014 A 
BRANCH  36  37
ATOM     37  C   UNL A   1      38.083  32.188  31.979  1.00  0.00     0.031 A 
ATOM     38  C   UNL A   1      38.943  32.057  33.179  1.00  0.00     0.074 A 
ATOM     39  C   UNL A   1      38.407  31.644  30.796  1.00  0.00     0.049 A 
ATOM     40  N   UNL A   1      40.133  32.528  33.355  1.00  0.00    -0.248 NA
ATOM     41  C   UNL A   1      38.352  31.429  34.369  1.00  0.00     0.031 C 
ATOM     42  C   UNL A   1      37.565  31.467  29.614  1.00  0.00     0.029 A 
ATOM     43  N   UNL A   1      39.579  31.052  30.441  1.00  0.00    -0.354 N 
ATOM     44  C   UNL A   1      40.508  32.129  34.632  1.00  0.00     0.074 A 
ATOM     45  C   UNL A   1      39.336  31.571  35.255  1.00  0.00     0.031 C 
ATOM     46  C   UNL A   1      38.183  30.623  28.756  1.00  0.00     0.029 A 
ATOM     47  C   UNL A   1      39.510  30.319  29.270  1.00  0.00     0.049 A 
ATOM     48  H   UNL A   1      40.403  31.138  30.971  1.00  0.00     0.167 HD
ATOM     49  C   UNL A   1      41.814  32.095  35.007  1.00  0.00     0.037 A 
ATOM     50  C   UNL A   1      40.456  29.470  28.805  1.00  0.00     0.037 A 
ATOM     51  C   UNL A   1      42.626  32.951  34.184  1.00  0.00     0.049 A 
ATOM     52  C   UNL A   1      41.744  29.809  29.465  1.00  0.00     0.074 A 
ATOM     53  C   UNL A   1      42.650  34.308  33.929  1.00  0.00     0.029 A 
ATOM     54  N   UNL A   1      43.398  32.379  33.204  1.00  0.00    -0.354 N 
ATOM     55  N   UNL A   1      42.424  30.895  29.222  1.00  0.00    -0.248 NA
ATOM     56  C   UNL A   1      42.069  29.140  30.716  1.00  0.00     0.031 C 
ATOM     57  C   UNL A   1      43.025  34.425  32.558  1.00  0.00     0.029 A 
ATOM     58  C   UNL A   1      43.237  33.134  32.072  1.00  0.00     0.049 A 
ATOM     59  H   UNL A   1      43.960  31.576  33.296  1.00  0.00     0.167 HD
ATOM     60  C   UNL A   1      42.942  31.272  30.453  1.00  0.00     0.074 A 
ATOM     61  C   UNL A   1      42.781  30.102  31.308  1.00  0.00     0.031 C 
ATOM     62  C   UNL A   1      43.197  32.583  30.739  1.00  0.00     0.037 A 
BRANCH  49  63
ATOM     63  C   UNL A   1      42.392  31.016  35.884  1.00  0.00     0.064 A 
ATOM     64  C   UNL A   1      43.197  31.377  36.982  1.00  0.00     0.173 A 
ATOM     65  C   UNL A   1      42.440  29.654  35.513  1.00  0.00     0.173 A 
ATOM     66  F   UNL A   1      43.245  32.649  37.405  1.00  0.00    -0.203 F 
ATOM     67  C   UNL A   1      44.044  30.458  37.605  1.00  0.00     0.198 A 
ATOM     68  C   UNL A   1      43.245  28.729  36.173  1.00  0.00     0.198 A 
ATOM     69  F   UNL A   1      41.807  29.186  34.430  1.00  0.00    -0.203 F 
ATOM     70  F   UNL A   1      44.889  30.874  38.558  1.00  0.00    -0.200 F 
ATOM     71  C   UNL A   1      44.073  29.137  37.197  1.00  0.00     0.200 A 
ATOM     72  F   UNL A   1      43.271  27.459  35.748  1.00  0.00    -0.200 F 
ATOM     73  F   UNL A   1      44.932  28.271  37.748  1.00  0.00    -0.200 F 
ENDBRANCH  49  63
BRANCH  50  74
ATOM     74  C   UNL A   1      40.243  28.214  28.056  1.00  0.00     0.064 A 
ATOM     75  C   UNL A   1      40.892  27.968  26.838  1.00  0.00     0.173 A 
ATOM     76  C   UNL A   1      39.587  27.119  28.654  1.00  0.00     0.173 A 
ATOM     77  F   UNL A   1      41.581  28.945  26.232  1.00  0.00    -0.203 F 
ATOM     78  C   UNL A   1      40.891  26.697  26.254  1.00  0.00     0.198 A 
ATOM     79  C   UNL A   1      39.580  25.854  28.068  1.00  0.00     0.198 A 
ATOM     80  F   UNL A   1      39.015  27.233  29.862  1.00  0.00    -0.203 F 
ATOM     81  F   UNL A   1      41.562  26.484  25.114  1.00  0.00    -0.200 F 
ATOM     82  C   UNL A   1      40.240  25.641  26.873  1.00  0.00     0.200 A 
ATOM     83  F   UNL A   1      38.976  24.836  28.697  1.00  0.00    -0.200 F 
ATOM     84  F   UNL A   1      40.281  24.412  26.340  1.00  0.00    -0.200 F 
ENDBRANCH  50  74
BRANCH  62  85
ATOM     85  C   UNL A   1      43.170  33.560  29.599  1.00  0.00     0.064 A 
ATOM     86  C   UNL A   1      42.048  34.339  29.265  1.00  0.00     0.173 A 
ATOM     87  C   UNL A   1      44.363  33.816  28.908  1.00  0.00     0.173 A 
ATOM     88  F   UNL A   1      40.903  34.229  29.953  1.00  0.00    -0.203 F 
ATOM     89  C   UNL A   1      42.106  35.290  28.248  1.00  0.00     0.198 A 
ATOM     90  C   UNL A   1      44.428  34.793  27.919  1.00  0.00     0.198 A 
ATOM     91  F   UNL A   1      45.481  33.145  29.226  1.00  0.00    -0.203 F 
ATOM     92  F   UNL A   1      41.016  36.006  27.935  1.00  0.00    -0.200 F 
ATOM     93  C   UNL A   1      43.297  35.520  27.580  1.00  0.00     0.200 A 
ATOM     94  F   UNL A   1      45.595  35.049  27.310  1.00  0.00    -0.200 F 
ATOM     95  F   UNL A   1      43.364  36.461  26.628  1.00  0.00    -0.200 F 
ENDBRANCH  62  85
ENDBRANCH  36  37
ENDBRANCH  29  31
ENDBRANCH  28  29
ENDBRANCH  27  28
ENDBRANCH  26  27
ENDBRANCH  25  26
ENDBRANCH   1  25
TORSDOF 17
ENDMDL
