MODEL 1
REMARK VINA RESULT:     -11.8      0.000      0.000
REMARK SMILES CC(=O)O[C@@H]1[C@H](O)C(C)=C(CC[C@@H](C)CC(=O)OCCOCCOC(=O)c2ccc(-c3c4nc(c(-c5c(F)c(F)c(F)c(F)c5F)c5ccc([nH]5)c(-c5c(F)c(F)c(F)c(F)c5F)c5nc(c(-c6c(F)c(F)c(F)c(F)c6F)c6ccc3[nH]6)C=C5)C=C4)cc2)[C@@]2(C)CCCC(C)(C)[C@H]12
REMARK SMILES IDX 19 1 18 2 16 3 17 4 15 5 13 6 14 7 12 8 11 9 10 10 5 11 6 12
REMARK SMILES IDX 98 13 8 14 90 15 95 16 9 17 92 18 91 19 94 20 96 21 97 22
REMARK SMILES IDX 93 23 4 24 2 25 1 26 3 27 7 28 20 30 21 31 22 32 23 33 24 34
REMARK SMILES IDX 25 35 26 36 27 37 28 38 89 39 29 40 88 41 30 42 31 43 32 44
REMARK SMILES IDX 82 45 33 46 87 47 81 48 83 49 34 50 86 51 80 52 79 53 35 55
REMARK SMILES IDX 67 56 47 57 66 58 48 59 51 60 65 61 84 62 49 63 50 64 64 66
REMARK SMILES IDX 85 67 52 68 36 69 37 70 45 71 38 72 39 73 43 74 46 75 40 76
REMARK SMILES IDX 41 77 44 78 42 79 68 80 69 81 77 82 70 83 71 84 75 85 78 86
REMARK SMILES IDX 72 87 73 88 76 89 74 90 53 91 54 92 62 93 55 94 56 95 60 96
REMARK SMILES IDX 63 97 57 98 58 99 61 100 59 101
REMARK H PARENT 7 29 83 54 51 65
REMARK Flexibility Score: inf
ROOT
ATOM      1  C   UNL A   1      32.940  28.959  23.636  1.00  0.00     0.261 C 
ENDROOT
BRANCH   1   2
ATOM      2  O   UNL A   1      32.230  27.974  22.840  1.00  0.00    -0.463 OA
BRANCH   2   3
ATOM      3  C   UNL A   1      30.889  28.175  22.677  1.00  0.00     0.306 C 
ATOM      4  O   UNL A   1      30.397  28.765  21.724  1.00  0.00    -0.252 OA
BRANCH   3   5
ATOM      5  C   UNL A   1      30.069  27.727  23.893  1.00  0.00     0.126 C 
BRANCH   5   6
ATOM      6  C   UNL A   1      29.479  26.286  23.929  1.00  0.00    -0.003 C 
ATOM      7  C   UNL A   1      27.964  26.346  24.154  1.00  0.00     0.008 C 
BRANCH   6   8
ATOM      8  C   UNL A   1      30.141  25.455  25.061  1.00  0.00     0.008 C 
BRANCH   8   9
ATOM      9  C   UNL A   1      30.784  24.082  24.730  1.00  0.00     0.032 C 
BRANCH   9  10
ATOM     10  C   UNL A   1      32.117  23.893  23.989  1.00  0.00    -0.062 C 
ATOM     11  C   UNL A   1      32.547  21.105  23.997  1.00  0.00     0.213 C 
ATOM     12  C   UNL A   1      31.649  21.783  22.921  1.00  0.00     0.181 C 
ATOM     13  C   UNL A   1      33.584  22.109  24.756  1.00  0.00     0.049 C 
ATOM     14  C   UNL A   1      32.161  23.205  22.782  1.00  0.00    -0.042 C 
ATOM     15  C   UNL A   1      33.416  23.725  24.789  1.00  0.00    -0.004 C 
ATOM     16  C   UNL A   1      34.888  21.636  25.481  1.00  0.00    -0.028 C 
ATOM     17  C   UNL A   1      33.362  23.191  21.812  1.00  0.00     0.042 C 
ATOM     18  C   UNL A   1      33.636  24.071  26.320  1.00  0.00     0.011 C 
ATOM     19  C   UNL A   1      34.350  24.806  24.130  1.00  0.00     0.016 C 
ATOM     20  C   UNL A   1      34.478  21.722  26.978  1.00  0.00     0.007 C 
ATOM     21  C   UNL A   1      36.142  22.514  25.249  1.00  0.00     0.011 C 
ATOM     22  C   UNL A   1      35.394  20.243  25.095  1.00  0.00     0.011 C 
ATOM     23  C   UNL A   1      33.613  22.938  27.350  1.00  0.00     0.001 C 
BRANCH  11  24
ATOM     24  O   UNL A   1      33.127  19.881  23.493  1.00  0.00    -0.459 OA
BRANCH  24  25
ATOM     25  C   UNL A   1      32.741  18.635  23.892  1.00  0.00     0.303 C 
ATOM     26  C   UNL A   1      33.134  17.441  23.059  1.00  0.00     0.139 C 
ATOM     27  O   UNL A   1      32.044  18.503  24.895  1.00  0.00    -0.253 OA
ENDBRANCH  24  25
ENDBRANCH  11  24
BRANCH  12  28
ATOM     28  O   UNL A   1      31.635  21.059  21.696  1.00  0.00    -0.385 OA
ATOM     29  H   UNL A   1      30.982  21.453  21.096  1.00  0.00     0.211 HD
ENDBRANCH  12  28
ENDBRANCH   9  10
ENDBRANCH   8   9
ENDBRANCH   6   8
ENDBRANCH   5   6
ENDBRANCH   3   5
ENDBRANCH   2   3
ENDBRANCH   1   2
BRANCH   1  30
ATOM     30  C   UNL A   1      33.457  28.532  25.023  1.00  0.00     0.202 C 
BRANCH  30  31
ATOM     31  O   UNL A   1      32.683  28.999  26.123  1.00  0.00    -0.374 OA
BRANCH  31  32
ATOM     32  C   UNL A   1      31.795  30.072  25.815  1.00  0.00     0.202 C 
BRANCH  32  33
ATOM     33  C   UNL A   1      32.002  31.314  26.704  1.00  0.00     0.261 C 
BRANCH  33  34
ATOM     34  O   UNL A   1      33.141  31.169  27.585  1.00  0.00    -0.460 OA
BRANCH  34  35
ATOM     35  C   UNL A   1      33.988  32.235  27.714  1.00  0.00     0.338 C 
ATOM     36  O   UNL A   1      33.746  33.393  27.522  1.00  0.00    -0.246 OA
BRANCH  35  37
ATOM     37  C   UNL A   1      35.329  31.717  28.119  1.00  0.00     0.060 A 
ATOM     38  C   UNL A   1      36.412  32.566  28.332  1.00  0.00     0.016 A 
ATOM     39  C   UNL A   1      35.479  30.367  28.407  1.00  0.00     0.016 A 
ATOM     40  C   UNL A   1      37.635  32.052  28.835  1.00  0.00     0.010 A 
ATOM     41  C   UNL A   1      36.639  29.920  29.070  1.00  0.00     0.010 A 
ATOM     42  C   UNL A   1      37.781  30.713  29.258  1.00  0.00    -0.014 A 
BRANCH  42  43
ATOM     43  C   UNL A   1      39.084  30.146  29.828  1.00  0.00     0.031 A 
ATOM     44  C   UNL A   1      39.618  30.537  31.218  1.00  0.00     0.074 A 
ATOM     45  C   UNL A   1      39.882  29.296  29.129  1.00  0.00     0.049 A 
ATOM     46  N   UNL A   1      40.701  30.118  31.846  1.00  0.00    -0.248 NA
ATOM     47  C   UNL A   1      38.915  31.591  31.961  1.00  0.00     0.031 C 
ATOM     48  C   UNL A   1      39.730  28.918  27.724  1.00  0.00     0.029 A 
ATOM     49  N   UNL A   1      40.996  28.574  29.528  1.00  0.00    -0.354 N 
ATOM     50  C   UNL A   1      40.816  30.907  32.989  1.00  0.00     0.074 A 
ATOM     51  C   UNL A   1      39.801  31.925  32.885  1.00  0.00     0.031 C 
ATOM     52  C   UNL A   1      40.634  27.973  27.413  1.00  0.00     0.029 A 
ATOM     53  C   UNL A   1      41.463  27.688  28.582  1.00  0.00     0.049 A 
ATOM     54  H   UNL A   1      41.418  28.686  30.410  1.00  0.00     0.167 HD
ATOM     55  C   UNL A   1      41.595  30.766  34.093  1.00  0.00     0.037 A 
ATOM     56  C   UNL A   1      42.417  26.731  28.639  1.00  0.00     0.037 A 
ATOM     57  C   UNL A   1      42.523  29.693  34.313  1.00  0.00     0.049 A 
ATOM     58  C   UNL A   1      43.198  26.481  29.909  1.00  0.00     0.074 A 
ATOM     59  C   UNL A   1      43.226  29.381  35.466  1.00  0.00     0.029 A 
ATOM     60  N   UNL A   1      42.874  28.750  33.366  1.00  0.00    -0.354 N 
ATOM     61  N   UNL A   1      43.146  27.116  31.052  1.00  0.00    -0.248 NA
ATOM     62  C   UNL A   1      44.159  25.363  29.897  1.00  0.00     0.031 C 
ATOM     63  C   UNL A   1      44.030  28.268  35.204  1.00  0.00     0.029 A 
ATOM     64  C   UNL A   1      43.790  27.861  33.903  1.00  0.00     0.049 A 
ATOM     65  H   UNL A   1      42.523  28.715  32.446  1.00  0.00     0.167 HD
ATOM     66  C   UNL A   1      44.036  26.458  31.898  1.00  0.00     0.074 A 
ATOM     67  C   UNL A   1      44.603  25.363  31.146  1.00  0.00     0.031 C 
ATOM     68  C   UNL A   1      44.349  26.747  33.184  1.00  0.00     0.037 A 
BRANCH  55  69
ATOM     69  C   UNL A   1      41.403  31.759  35.213  1.00  0.00     0.064 A 
ATOM     70  C   UNL A   1      40.349  31.629  36.135  1.00  0.00     0.173 A 
ATOM     71  C   UNL A   1      42.290  32.831  35.389  1.00  0.00     0.173 A 
ATOM     72  F   UNL A   1      39.475  30.616  36.023  1.00  0.00    -0.203 F 
ATOM     73  C   UNL A   1      40.147  32.571  37.138  1.00  0.00     0.198 A 
ATOM     74  C   UNL A   1      42.114  33.745  36.427  1.00  0.00     0.198 A 
ATOM     75  F   UNL A   1      43.337  32.987  34.565  1.00  0.00    -0.203 F 
ATOM     76  F   UNL A   1      39.082  32.468  37.945  1.00  0.00    -0.200 F 
ATOM     77  C   UNL A   1      41.033  33.626  37.286  1.00  0.00     0.200 A 
ATOM     78  F   UNL A   1      42.990  34.746  36.593  1.00  0.00    -0.200 F 
ATOM     79  F   UNL A   1      40.841  34.529  38.257  1.00  0.00    -0.200 F 
ENDBRANCH  55  69
BRANCH  56  80
ATOM     80  C   UNL A   1      42.654  25.845  27.462  1.00  0.00     0.064 A 
ATOM     81  C   UNL A   1      41.863  24.703  27.255  1.00  0.00     0.173 A 
ATOM     82  C   UNL A   1      43.693  26.088  26.555  1.00  0.00     0.173 A 
ATOM     83  F   UNL A   1      40.876  24.410  28.115  1.00  0.00    -0.203 F 
ATOM     84  C   UNL A   1      42.118  23.827  26.202  1.00  0.00     0.198 A 
ATOM     85  C   UNL A   1      43.929  25.227  25.483  1.00  0.00     0.198 A 
ATOM     86  F   UNL A   1      44.478  27.165  26.705  1.00  0.00    -0.203 F 
ATOM     87  F   UNL A   1      41.383  22.716  26.064  1.00  0.00    -0.200 F 
ATOM     88  C   UNL A   1      43.148  24.092  25.313  1.00  0.00     0.200 A 
ATOM     89  F   UNL A   1      44.918  25.492  24.618  1.00  0.00    -0.200 F 
ATOM     90  F   UNL A   1      43.394  23.251  24.300  1.00  0.00    -0.200 F 
ENDBRANCH  56  80
BRANCH  68  91
ATOM     91  C   UNL A   1      45.315  25.853  33.909  1.00  0.00     0.064 A 
ATOM     92  C   UNL A   1      46.683  26.151  33.989  1.00  0.00     0.173 A 
ATOM     93  C   UNL A   1      44.853  24.716  34.592  1.00  0.00     0.173 A 
ATOM     94  F   UNL A   1      47.180  27.220  33.347  1.00  0.00    -0.203 F 
ATOM     95  C   UNL A   1      47.555  25.335  34.708  1.00  0.00     0.198 A 
ATOM     96  C   UNL A   1      45.722  23.920  35.335  1.00  0.00     0.198 A 
ATOM     97  F   UNL A   1      43.553  24.388  34.557  1.00  0.00    -0.203 F 
ATOM     98  F   UNL A   1      48.865  25.619  34.738  1.00  0.00    -0.200 F 
ATOM     99  C   UNL A   1      47.072  24.226  35.387  1.00  0.00     0.200 A 
ATOM    100  F   UNL A   1      45.250  22.858  36.003  1.00  0.00    -0.200 F 
ATOM    101  F   UNL A   1      47.911  23.451  36.089  1.00  0.00    -0.200 F 
ENDBRANCH  68  91
ENDBRANCH  42  43
ENDBRANCH  35  37
ENDBRANCH  34  35
ENDBRANCH  33  34
ENDBRANCH  32  33
ENDBRANCH  31  32
ENDBRANCH  30  31
ENDBRANCH   1  30
TORSDOF 21
ENDMDL
MODEL 2
REMARK VINA RESULT:     -11.6      3.594      8.759
REMARK SMILES CC(=O)O[C@@H]1[C@H](O)C(C)=C(CC[C@@H](C)CC(=O)OCCOCCOC(=O)c2ccc(-c3c4nc(c(-c5c(F)c(F)c(F)c(F)c5F)c5ccc([nH]5)c(-c5c(F)c(F)c(F)c(F)c5F)c5nc(c(-c6c(F)c(F)c(F)c(F)c6F)c6ccc3[nH]6)C=C5)C=C4)cc2)[C@@]2(C)CCCC(C)(C)[C@H]12
REMARK SMILES IDX 19 1 18 2 16 3 17 4 15 5 13 6 14 7 12 8 11 9 10 10 5 11 6 12
REMARK SMILES IDX 98 13 8 14 90 15 95 16 9 17 92 18 91 19 94 20 96 21 97 22
REMARK SMILES IDX 93 23 4 24 2 25 1 26 3 27 7 28 20 30 21 31 22 32 23 33 24 34
REMARK SMILES IDX 25 35 26 36 27 37 28 38 89 39 29 40 88 41 30 42 31 43 32 44
REMARK SMILES IDX 82 45 33 46 87 47 81 48 83 49 34 50 86 51 80 52 79 53 35 55
REMARK SMILES IDX 67 56 47 57 66 58 48 59 51 60 65 61 84 62 49 63 50 64 64 66
REMARK SMILES IDX 85 67 52 68 36 69 37 70 45 71 38 72 39 73 43 74 46 75 40 76
REMARK SMILES IDX 41 77 44 78 42 79 68 80 69 81 77 82 70 83 71 84 75 85 78 86
REMARK SMILES IDX 72 87 73 88 76 89 74 90 53 91 54 92 62 93 55 94 56 95 60 96
REMARK SMILES IDX 63 97 57 98 58 99 61 100 59 101
REMARK H PARENT 7 29 83 54 51 65
REMARK Flexibility Score: inf
ROOT
ATOM      1  C   UNL A   1      41.788  20.088  27.244  1.00  0.00     0.261 C 
ENDROOT
BRANCH   1   2
ATOM      2  O   UNL A   1      40.377  20.434  27.212  1.00  0.00    -0.463 OA
BRANCH   2   3
ATOM      3  C   UNL A   1      40.076  21.736  26.931  1.00  0.00     0.306 C 
ATOM      4  O   UNL A   1      40.342  22.674  27.671  1.00  0.00    -0.252 OA
BRANCH   3   5
ATOM      5  C   UNL A   1      39.225  21.888  25.665  1.00  0.00     0.126 C 
BRANCH   5   6
ATOM      6  C   UNL A   1      37.699  21.582  25.727  1.00  0.00    -0.003 C 
ATOM      7  C   UNL A   1      37.363  20.407  24.802  1.00  0.00     0.008 C 
BRANCH   6   8
ATOM      8  C   UNL A   1      36.877  22.830  25.305  1.00  0.00     0.008 C 
BRANCH   8   9
ATOM      9  C   UNL A   1      36.032  23.586  26.364  1.00  0.00     0.032 C 
BRANCH   9  10
ATOM     10  C   UNL A   1      34.496  23.624  26.397  1.00  0.00    -0.062 C 
ATOM     11  C   UNL A   1      33.697  21.218  25.162  1.00  0.00     0.213 C 
ATOM     12  C   UNL A   1      34.075  21.266  26.670  1.00  0.00     0.181 C 
ATOM     13  C   UNL A   1      33.308  22.659  24.506  1.00  0.00     0.049 C 
ATOM     14  C   UNL A   1      33.783  22.683  27.131  1.00  0.00    -0.042 C 
ATOM     15  C   UNL A   1      33.718  24.089  25.159  1.00  0.00    -0.004 C 
ATOM     16  C   UNL A   1      32.443  22.827  23.211  1.00  0.00    -0.028 C 
ATOM     17  C   UNL A   1      32.281  22.778  27.475  1.00  0.00     0.042 C 
ATOM     18  C   UNL A   1      34.301  24.889  23.920  1.00  0.00     0.011 C 
ATOM     19  C   UNL A   1      32.762  25.184  25.762  1.00  0.00     0.016 C 
ATOM     20  C   UNL A   1      33.518  23.186  22.147  1.00  0.00     0.007 C 
ATOM     21  C   UNL A   1      31.380  23.952  23.255  1.00  0.00     0.011 C 
ATOM     22  C   UNL A   1      31.608  21.609  22.809  1.00  0.00     0.011 C 
ATOM     23  C   UNL A   1      34.632  24.129  22.633  1.00  0.00     0.001 C 
BRANCH  11  24
ATOM     24  O   UNL A   1      32.767  20.144  24.894  1.00  0.00    -0.459 OA
BRANCH  24  25
ATOM     25  C   UNL A   1      33.068  18.822  25.045  1.00  0.00     0.303 C 
ATOM     26  C   UNL A   1      34.303  18.268  24.382  1.00  0.00     0.139 C 
ATOM     27  O   UNL A   1      32.310  18.092  25.678  1.00  0.00    -0.253 OA
ENDBRANCH  24  25
ENDBRANCH  11  24
BRANCH  12  28
ATOM     28  O   UNL A   1      33.398  20.269  27.429  1.00  0.00    -0.385 OA
ATOM     29  H   UNL A   1      33.888  19.433  27.370  1.00  0.00     0.211 HD
ENDBRANCH  12  28
ENDBRANCH   9  10
ENDBRANCH   8   9
ENDBRANCH   6   8
ENDBRANCH   5   6
ENDBRANCH   3   5
ENDBRANCH   2   3
ENDBRANCH   1   2
BRANCH   1  30
ATOM     30  C   UNL A   1      42.383  19.361  26.023  1.00  0.00     0.202 C 
BRANCH  30  31
ATOM     31  O   UNL A   1      43.076  20.199  25.105  1.00  0.00    -0.374 OA
BRANCH  31  32
ATOM     32  C   UNL A   1      43.614  21.392  25.674  1.00  0.00     0.202 C 
BRANCH  32  33
ATOM     33  C   UNL A   1      44.252  22.333  24.634  1.00  0.00     0.261 C 
BRANCH  33  34
ATOM     34  O   UNL A   1      43.787  23.697  24.777  1.00  0.00    -0.460 OA
BRANCH  34  35
ATOM     35  C   UNL A   1      44.704  24.651  25.122  1.00  0.00     0.338 C 
ATOM     36  O   UNL A   1      45.751  24.892  24.590  1.00  0.00    -0.246 OA
BRANCH  35  37
ATOM     37  C   UNL A   1      44.201  25.362  26.335  1.00  0.00     0.060 A 
ATOM     38  C   UNL A   1      44.454  26.713  26.554  1.00  0.00     0.016 A 
ATOM     39  C   UNL A   1      43.361  24.693  27.216  1.00  0.00     0.016 A 
ATOM     40  C   UNL A   1      43.857  27.383  27.653  1.00  0.00     0.010 A 
ATOM     41  C   UNL A   1      42.645  25.423  28.186  1.00  0.00     0.010 A 
ATOM     42  C   UNL A   1      42.899  26.769  28.489  1.00  0.00    -0.014 A 
BRANCH  42  43
ATOM     43  C   UNL A   1      42.224  27.483  29.664  1.00  0.00     0.031 A 
ATOM     44  C   UNL A   1      42.809  27.465  31.088  1.00  0.00     0.074 A 
ATOM     45  C   UNL A   1      41.041  28.139  29.542  1.00  0.00     0.049 A 
ATOM     46  N   UNL A   1      42.358  28.047  32.185  1.00  0.00    -0.248 NA
ATOM     47  C   UNL A   1      43.984  26.625  31.347  1.00  0.00     0.031 C 
ATOM     48  C   UNL A   1      40.167  28.145  28.369  1.00  0.00     0.029 A 
ATOM     49  N   UNL A   1      40.367  28.956  30.437  1.00  0.00    -0.354 N 
ATOM     50  C   UNL A   1      43.152  27.576  33.228  1.00  0.00     0.074 A 
ATOM     51  C   UNL A   1      43.995  26.549  32.667  1.00  0.00     0.031 C 
ATOM     52  C   UNL A   1      39.145  28.994  28.574  1.00  0.00     0.029 A 
ATOM     53  C   UNL A   1      39.258  29.580  29.908  1.00  0.00     0.049 A 
ATOM     54  H   UNL A   1      40.655  29.079  31.370  1.00  0.00     0.167 HD
ATOM     55  C   UNL A   1      43.284  28.005  34.510  1.00  0.00     0.037 A 
ATOM     56  C   UNL A   1      38.439  30.535  30.406  1.00  0.00     0.037 A 
ATOM     57  C   UNL A   1      42.572  29.113  35.084  1.00  0.00     0.049 A 
ATOM     58  C   UNL A   1      38.661  31.111  31.786  1.00  0.00     0.074 A 
ATOM     59  C   UNL A   1      42.764  29.718  36.315  1.00  0.00     0.029 A 
ATOM     60  N   UNL A   1      41.539  29.789  34.464  1.00  0.00    -0.354 N 
ATOM     61  N   UNL A   1      39.553  30.787  32.687  1.00  0.00    -0.248 NA
ATOM     62  C   UNL A   1      37.766  32.204  32.208  1.00  0.00     0.031 C 
ATOM     63  C   UNL A   1      41.820  30.741  36.455  1.00  0.00     0.029 A 
ATOM     64  C   UNL A   1      41.076  30.800  35.290  1.00  0.00     0.049 A 
ATOM     65  H   UNL A   1      41.186  29.585  33.567  1.00  0.00     0.167 HD
ATOM     66  C   UNL A   1      39.350  31.651  33.759  1.00  0.00     0.074 A 
ATOM     67  C   UNL A   1      38.261  32.528  33.395  1.00  0.00     0.031 C 
ATOM     68  C   UNL A   1      40.012  31.703  34.939  1.00  0.00     0.037 A 
BRANCH  55  69
ATOM     69  C   UNL A   1      44.322  27.326  35.370  1.00  0.00     0.064 A 
ATOM     70  C   UNL A   1      45.653  27.777  35.404  1.00  0.00     0.173 A 
ATOM     71  C   UNL A   1      43.984  26.239  36.189  1.00  0.00     0.173 A 
ATOM     72  F   UNL A   1      46.032  28.822  34.650  1.00  0.00    -0.203 F 
ATOM     73  C   UNL A   1      46.618  27.121  36.161  1.00  0.00     0.198 A 
ATOM     74  C   UNL A   1      44.943  25.615  36.985  1.00  0.00     0.198 A 
ATOM     75  F   UNL A   1      42.722  25.786  36.229  1.00  0.00    -0.203 F 
ATOM     76  F   UNL A   1      47.896  27.520  36.102  1.00  0.00    -0.200 F 
ATOM     77  C   UNL A   1      46.261  26.044  36.955  1.00  0.00     0.200 A 
ATOM     78  F   UNL A   1      44.592  24.595  37.780  1.00  0.00    -0.200 F 
ATOM     79  F   UNL A   1      47.190  25.417  37.690  1.00  0.00    -0.200 F 
ENDBRANCH  55  69
BRANCH  56  80
ATOM     80  C   UNL A   1      37.348  31.096  29.558  1.00  0.00     0.064 A 
ATOM     81  C   UNL A   1      37.454  32.389  29.018  1.00  0.00     0.173 A 
ATOM     82  C   UNL A   1      36.169  30.383  29.307  1.00  0.00     0.173 A 
ATOM     83  F   UNL A   1      38.551  33.124  29.257  1.00  0.00    -0.203 F 
ATOM     84  C   UNL A   1      36.413  32.954  28.285  1.00  0.00     0.198 A 
ATOM     85  C   UNL A   1      35.140  30.939  28.547  1.00  0.00     0.198 A 
ATOM     86  F   UNL A   1      36.016  29.144  29.798  1.00  0.00    -0.203 F 
ATOM     87  F   UNL A   1      36.520  34.211  27.833  1.00  0.00    -0.200 F 
ATOM     88  C   UNL A   1      35.258  32.227  28.046  1.00  0.00     0.200 A 
ATOM     89  F   UNL A   1      34.029  30.229  28.307  1.00  0.00    -0.200 F 
ATOM     90  F   UNL A   1      34.257  32.769  27.340  1.00  0.00    -0.200 F 
ENDBRANCH  56  80
BRANCH  68  91
ATOM     91  C   UNL A   1      39.634  32.767  35.931  1.00  0.00     0.064 A 
ATOM     92  C   UNL A   1      38.652  32.552  36.910  1.00  0.00     0.173 A 
ATOM     93  C   UNL A   1      40.313  33.996  35.946  1.00  0.00     0.173 A 
ATOM     94  F   UNL A   1      37.966  31.400  36.936  1.00  0.00    -0.203 F 
ATOM     95  C   UNL A   1      38.352  33.534  37.853  1.00  0.00     0.198 A 
ATOM     96  C   UNL A   1      40.032  34.963  36.908  1.00  0.00     0.198 A 
ATOM     97  F   UNL A   1      41.268  34.252  35.039  1.00  0.00    -0.203 F 
ATOM     98  F   UNL A   1      37.382  33.321  38.753  1.00  0.00    -0.200 F 
ATOM     99  C   UNL A   1      39.047  34.734  37.856  1.00  0.00     0.200 A 
ATOM    100  F   UNL A   1      40.717  36.116  36.919  1.00  0.00    -0.200 F 
ATOM    101  F   UNL A   1      38.765  35.672  38.772  1.00  0.00    -0.200 F 
ENDBRANCH  68  91
ENDBRANCH  42  43
ENDBRANCH  35  37
ENDBRANCH  34  35
ENDBRANCH  33  34
ENDBRANCH  32  33
ENDBRANCH  31  32
ENDBRANCH  30  31
ENDBRANCH   1  30
TORSDOF 21
ENDMDL
MODEL 3
REMARK VINA RESULT:     -11.5      3.506      8.702
REMARK SMILES CC(=O)O[C@@H]1[C@H](O)C(C)=C(CC[C@@H](C)CC(=O)OCCOCCOC(=O)c2ccc(-c3c4nc(c(-c5c(F)c(F)c(F)c(F)c5F)c5ccc([nH]5)c(-c5c(F)c(F)c(F)c(F)c5F)c5nc(c(-c6c(F)c(F)c(F)c(F)c6F)c6ccc3[nH]6)C=C5)C=C4)cc2)[C@@]2(C)CCCC(C)(C)[C@H]12
REMARK SMILES IDX 19 1 18 2 16 3 17 4 15 5 13 6 14 7 12 8 11 9 10 10 5 11 6 12
REMARK SMILES IDX 98 13 8 14 90 15 95 16 9 17 92 18 91 19 94 20 96 21 97 22
REMARK SMILES IDX 93 23 4 24 2 25 1 26 3 27 7 28 20 30 21 31 22 32 23 33 24 34
REMARK SMILES IDX 25 35 26 36 27 37 28 38 89 39 29 40 88 41 30 42 31 43 32 44
REMARK SMILES IDX 82 45 33 46 87 47 81 48 83 49 34 50 86 51 80 52 79 53 35 55
REMARK SMILES IDX 67 56 47 57 66 58 48 59 51 60 65 61 84 62 49 63 50 64 64 66
REMARK SMILES IDX 85 67 52 68 36 69 37 70 45 71 38 72 39 73 43 74 46 75 40 76
REMARK SMILES IDX 41 77 44 78 42 79 68 80 69 81 77 82 70 83 71 84 75 85 78 86
REMARK SMILES IDX 72 87 73 88 76 89 74 90 53 91 54 92 62 93 55 94 56 95 60 96
REMARK SMILES IDX 63 97 57 98 58 99 61 100 59 101
REMARK H PARENT 7 29 83 54 51 65
REMARK Flexibility Score: inf
ROOT
ATOM      1  C   UNL A   1      41.538  19.795  26.323  1.00  0.00     0.261 C 
ENDROOT
BRANCH   1   2
ATOM      2  O   UNL A   1      40.501  20.637  25.752  1.00  0.00    -0.463 OA
BRANCH   2   3
ATOM      3  C   UNL A   1      40.022  21.637  26.548  1.00  0.00     0.306 C 
ATOM      4  O   UNL A   1      40.628  22.099  27.506  1.00  0.00    -0.252 OA
BRANCH   3   5
ATOM      5  C   UNL A   1      38.573  22.016  26.218  1.00  0.00     0.126 C 
BRANCH   5   6
ATOM      6  C   UNL A   1      38.249  23.465  25.748  1.00  0.00    -0.003 C 
ATOM      7  C   UNL A   1      38.512  24.456  26.887  1.00  0.00     0.008 C 
BRANCH   6   8
ATOM      8  C   UNL A   1      36.766  23.572  25.297  1.00  0.00     0.008 C 
BRANCH   8   9
ATOM      9  C   UNL A   1      36.283  22.776  24.055  1.00  0.00     0.032 C 
BRANCH   9  10
ATOM     10  C   UNL A   1      34.813  22.589  23.651  1.00  0.00    -0.062 C 
ATOM     11  C   UNL A   1      33.538  24.963  24.486  1.00  0.00     0.213 C 
ATOM     12  C   UNL A   1      34.283  24.881  23.122  1.00  0.00     0.181 C 
ATOM     13  C   UNL A   1      33.116  23.523  25.124  1.00  0.00     0.049 C 
ATOM     14  C   UNL A   1      34.232  23.424  22.702  1.00  0.00    -0.042 C 
ATOM     15  C   UNL A   1      33.791  22.110  24.690  1.00  0.00    -0.004 C 
ATOM     16  C   UNL A   1      31.972  23.333  26.176  1.00  0.00    -0.028 C 
ATOM     17  C   UNL A   1      32.876  23.170  22.008  1.00  0.00     0.042 C 
ATOM     18  C   UNL A   1      34.109  21.428  26.085  1.00  0.00     0.011 C 
ATOM     19  C   UNL A   1      33.108  20.902  23.947  1.00  0.00     0.016 C 
ATOM     20  C   UNL A   1      32.772  23.128  27.493  1.00  0.00     0.007 C 
ATOM     21  C   UNL A   1      31.048  22.110  25.950  1.00  0.00     0.011 C 
ATOM     22  C   UNL A   1      30.967  24.482  26.278  1.00  0.00     0.011 C 
ATOM     23  C   UNL A   1      34.045  22.274  27.359  1.00  0.00     0.001 C 
BRANCH  11  24
ATOM     24  O   UNL A   1      32.487  25.954  24.445  1.00  0.00    -0.459 OA
BRANCH  24  25
ATOM     25  C   UNL A   1      32.627  27.231  24.904  1.00  0.00     0.303 C 
ATOM     26  C   UNL A   1      33.827  27.582  25.747  1.00  0.00     0.139 C 
ATOM     27  O   UNL A   1      31.757  28.065  24.667  1.00  0.00    -0.253 OA
ENDBRANCH  24  25
ENDBRANCH  11  24
BRANCH  12  28
ATOM     28  O   UNL A   1      33.739  25.773  22.155  1.00  0.00    -0.385 OA
ATOM     29  H   UNL A   1      32.834  26.012  22.411  1.00  0.00     0.211 HD
ENDBRANCH  12  28
ENDBRANCH   9  10
ENDBRANCH   8   9
ENDBRANCH   6   8
ENDBRANCH   5   6
ENDBRANCH   3   5
ENDBRANCH   2   3
ENDBRANCH   1   2
BRANCH   1  30
ATOM     30  C   UNL A   1      42.962  19.909  25.747  1.00  0.00     0.202 C 
BRANCH  30  31
ATOM     31  O   UNL A   1      43.290  21.183  25.205  1.00  0.00    -0.374 OA
BRANCH  31  32
ATOM     32  C   UNL A   1      44.620  21.293  24.701  1.00  0.00     0.202 C 
BRANCH  32  33
ATOM     33  C   UNL A   1      44.886  22.614  23.953  1.00  0.00     0.261 C 
BRANCH  33  34
ATOM     34  O   UNL A   1      44.148  23.721  24.523  1.00  0.00    -0.460 OA
BRANCH  34  35
ATOM     35  C   UNL A   1      44.860  24.794  24.984  1.00  0.00     0.338 C 
ATOM     36  O   UNL A   1      45.941  25.168  24.624  1.00  0.00    -0.246 OA
BRANCH  35  37
ATOM     37  C   UNL A   1      44.072  25.442  26.074  1.00  0.00     0.060 A 
ATOM     38  C   UNL A   1      43.193  24.721  26.876  1.00  0.00     0.016 A 
ATOM     39  C   UNL A   1      44.304  26.777  26.379  1.00  0.00     0.016 A 
ATOM     40  C   UNL A   1      42.555  25.344  27.979  1.00  0.00     0.010 A 
ATOM     41  C   UNL A   1      43.799  27.316  27.579  1.00  0.00     0.010 A 
ATOM     42  C   UNL A   1      42.865  26.658  28.393  1.00  0.00    -0.014 A 
BRANCH  42  43
ATOM     43  C   UNL A   1      42.208  27.340  29.596  1.00  0.00     0.031 A 
ATOM     44  C   UNL A   1      42.816  27.287  31.010  1.00  0.00     0.074 A 
ATOM     45  C   UNL A   1      41.022  27.997  29.510  1.00  0.00     0.049 A 
ATOM     46  N   UNL A   1      42.382  27.840  32.128  1.00  0.00    -0.248 NA
ATOM     47  C   UNL A   1      43.996  26.442  31.228  1.00  0.00     0.031 C 
ATOM     48  C   UNL A   1      40.129  28.032  28.352  1.00  0.00     0.029 A 
ATOM     49  N   UNL A   1      40.361  28.790  30.436  1.00  0.00    -0.354 N 
ATOM     50  C   UNL A   1      43.193  27.343  33.147  1.00  0.00     0.074 A 
ATOM     51  C   UNL A   1      44.028  26.333  32.546  1.00  0.00     0.031 C 
ATOM     52  C   UNL A   1      39.109  28.874  28.595  1.00  0.00     0.029 A 
ATOM     53  C   UNL A   1      39.244  29.425  29.941  1.00  0.00     0.049 A 
ATOM     54  H   UNL A   1      40.664  28.889  31.368  1.00  0.00     0.167 HD
ATOM     55  C   UNL A   1      43.344  27.740  34.437  1.00  0.00     0.037 A 
ATOM     56  C   UNL A   1      38.432  30.366  30.477  1.00  0.00     0.037 A 
ATOM     57  C   UNL A   1      42.640  28.831  35.050  1.00  0.00     0.049 A 
ATOM     58  C   UNL A   1      38.674  30.906  31.867  1.00  0.00     0.074 A 
ATOM     59  C   UNL A   1      42.851  29.405  36.294  1.00  0.00     0.029 A 
ATOM     60  N   UNL A   1      41.597  29.522  34.464  1.00  0.00    -0.354 N 
ATOM     61  N   UNL A   1      39.582  30.561  32.745  1.00  0.00    -0.248 NA
ATOM     62  C   UNL A   1      37.785  31.987  32.332  1.00  0.00     0.031 C 
ATOM     63  C   UNL A   1      41.909  30.422  36.474  1.00  0.00     0.029 A 
ATOM     64  C   UNL A   1      41.145  30.510  35.324  1.00  0.00     0.049 A 
ATOM     65  H   UNL A   1      41.230  29.339  33.569  1.00  0.00     0.167 HD
ATOM     66  C   UNL A   1      39.394  31.397  33.842  1.00  0.00     0.074 A 
ATOM     67  C   UNL A   1      38.298  32.281  33.518  1.00  0.00     0.031 C 
ATOM     68  C   UNL A   1      40.075  31.420  35.013  1.00  0.00     0.037 A 
BRANCH  55  69
ATOM     69  C   UNL A   1      44.397  27.041  35.262  1.00  0.00     0.064 A 
ATOM     70  C   UNL A   1      44.090  25.903  36.029  1.00  0.00     0.173 A 
ATOM     71  C   UNL A   1      45.726  27.488  35.267  1.00  0.00     0.173 A 
ATOM     72  F   UNL A   1      42.836  25.423  36.054  1.00  0.00    -0.203 F 
ATOM     73  C   UNL A   1      45.051  25.289  36.826  1.00  0.00     0.198 A 
ATOM     74  C   UNL A   1      46.699  26.839  36.027  1.00  0.00     0.198 A 
ATOM     75  F   UNL A   1      46.090  28.545  34.526  1.00  0.00    -0.203 F 
ATOM     76  F   UNL A   1      44.706  24.262  37.614  1.00  0.00    -0.200 F 
ATOM     77  C   UNL A   1      46.356  25.754  36.819  1.00  0.00     0.200 A 
ATOM     78  F   UNL A   1      47.968  27.266  35.995  1.00  0.00    -0.200 F 
ATOM     79  F   UNL A   1      47.282  25.157  37.581  1.00  0.00    -0.200 F 
ENDBRANCH  55  69
BRANCH  56  80
ATOM     80  C   UNL A   1      37.326  30.947  29.661  1.00  0.00     0.064 A 
ATOM     81  C   UNL A   1      36.168  30.200  29.390  1.00  0.00     0.173 A 
ATOM     82  C   UNL A   1      37.419  32.228  29.102  1.00  0.00     0.173 A 
ATOM     83  F   UNL A   1      36.046  28.956  29.877  1.00  0.00    -0.203 F 
ATOM     84  C   UNL A   1      35.159  30.702  28.570  1.00  0.00     0.198 A 
ATOM     85  C   UNL A   1      36.394  32.741  28.306  1.00  0.00     0.198 A 
ATOM     86  F   UNL A   1      38.502  32.984  29.330  1.00  0.00    -0.203 F 
ATOM     87  F   UNL A   1      34.093  29.944  28.282  1.00  0.00    -0.200 F 
ATOM     88  C   UNL A   1      35.271  31.975  28.032  1.00  0.00     0.200 A 
ATOM     89  F   UNL A   1      36.499  33.977  27.797  1.00  0.00    -0.200 F 
ATOM     90  F   UNL A   1      34.301  32.458  27.245  1.00  0.00    -0.200 F 
ENDBRANCH  56  80
BRANCH  68  91
ATOM     91  C   UNL A   1      39.711  32.457  36.038  1.00  0.00     0.064 A 
ATOM     92  C   UNL A   1      40.362  33.698  36.099  1.00  0.00     0.173 A 
ATOM     93  C   UNL A   1      38.649  32.232  36.929  1.00  0.00     0.173 A 
ATOM     94  F   UNL A   1      41.390  33.963  35.278  1.00  0.00    -0.203 F 
ATOM     95  C   UNL A   1      39.977  34.666  37.025  1.00  0.00     0.198 A 
ATOM     96  C   UNL A   1      38.247  33.213  37.832  1.00  0.00     0.198 A 
ATOM     97  F   UNL A   1      37.985  31.067  36.909  1.00  0.00    -0.203 F 
ATOM     98  F   UNL A   1      40.639  35.830  37.090  1.00  0.00    -0.200 F 
ATOM     99  C   UNL A   1      38.914  34.426  37.884  1.00  0.00     0.200 A 
ATOM    100  F   UNL A   1      37.210  32.984  38.651  1.00  0.00    -0.200 F 
ATOM    101  F   UNL A   1      38.537  35.364  38.765  1.00  0.00    -0.200 F 
ENDBRANCH  68  91
ENDBRANCH  42  43
ENDBRANCH  35  37
ENDBRANCH  34  35
ENDBRANCH  33  34
ENDBRANCH  32  33
ENDBRANCH  31  32
ENDBRANCH  30  31
ENDBRANCH   1  30
TORSDOF 21
ENDMDL
