MODEL 1
REMARK VINA RESULT:     -11.0      0.000      0.000
REMARK SMILES CC[C@@H](C(=O)OCCOCCOC(=O)c1ccc(-c2c3nc(c(-c4c(F)c(F)c(F)c(F)c4F)c4ccc([nH]4)c(-c4c(F)c(F)c(F)c(F)c4F)c4nc(c(-c5c(F)c(F)c(F)c(F)c5F)c5ccc2[nH]5)C=C4)C=C3)cc1)n1c(SCc2cccc(C(F)(F)F)c2)nc2ccncc21
REMARK SMILES IDX 7 1 6 2 4 3 5 4 3 5 2 6 1 7 78 8 79 9 98 10 92 11 93 12
REMARK SMILES IDX 97 13 94 14 96 15 95 16 80 17 81 18 82 19 83 20 91 21 84 22
REMARK SMILES IDX 86 23 85 24 87 25 88 26 89 27 90 28 8 29 9 30 10 31 11 32
REMARK SMILES IDX 12 33 13 34 14 35 15 36 16 37 77 38 17 39 76 40 18 41 19 42
REMARK SMILES IDX 20 43 70 44 21 45 75 46 69 47 71 48 22 49 74 50 68 51 67 52
REMARK SMILES IDX 23 54 55 55 35 56 54 57 36 58 39 59 53 60 72 61 37 62 38 63
REMARK SMILES IDX 52 65 73 66 40 67 24 68 25 69 33 70 26 71 27 72 31 73 34 74
REMARK SMILES IDX 28 75 29 76 32 77 30 78 56 79 57 80 65 81 58 82 59 83 63 84
REMARK SMILES IDX 66 85 60 86 61 87 64 88 62 89 41 90 42 91 50 92 43 93 44 94
REMARK SMILES IDX 48 95 51 96 45 97 46 98 49 99 47 100
REMARK H PARENT 71 53 39 64
REMARK Flexibility Score: inf
ROOT
ATOM      1  C   UNL A   1      36.324  23.548  25.171  1.00  0.00     0.261 C 
ENDROOT
BRANCH   1   2
ATOM      2  O   UNL A   1      34.950  23.641  24.728  1.00  0.00    -0.462 OA
BRANCH   2   3
ATOM      3  C   UNL A   1      34.703  23.116  23.496  1.00  0.00     0.329 C 
ATOM      4  O   UNL A   1      35.552  23.032  22.615  1.00  0.00    -0.250 OA
BRANCH   3   5
ATOM      5  C   UNL A   1      33.270  22.594  23.307  1.00  0.00     0.199 C 
BRANCH   5   6
ATOM      6  C   UNL A   1      32.195  23.680  23.122  1.00  0.00     0.034 C 
ATOM      7  C   UNL A   1      32.558  24.831  22.197  1.00  0.00     0.007 C 
ENDBRANCH   5   6
BRANCH   5   8
ATOM      8  N   UNL A   1      32.963  21.571  24.319  1.00  0.00    -0.303 N 
ATOM      9  C   UNL A   1      32.831  21.691  25.693  1.00  0.00     0.170 A 
ATOM     10  C   UNL A   1      32.765  20.227  24.041  1.00  0.00     0.088 A 
ATOM     11  N   UNL A   1      33.119  20.535  26.262  1.00  0.00    -0.222 NA
ATOM     12  C   UNL A   1      32.915  19.602  25.274  1.00  0.00     0.093 A 
ATOM     13  C   UNL A   1      32.490  19.505  22.887  1.00  0.00     0.139 A 
ATOM     14  C   UNL A   1      32.790  18.216  25.367  1.00  0.00     0.051 A 
ATOM     15  N   UNL A   1      32.326  18.164  22.985  1.00  0.00    -0.262 NA
ATOM     16  C   UNL A   1      32.474  17.561  24.187  1.00  0.00     0.113 A 
BRANCH   9  17
ATOM     17  S   UNL A   1      31.551  22.642  26.411  1.00  0.00    -0.083 SA
BRANCH  17  18
ATOM     18  C   UNL A   1      32.141  24.282  26.805  1.00  0.00     0.113 C 
BRANCH  18  19
ATOM     19  C   UNL A   1      31.729  25.527  26.064  1.00  0.00    -0.037 A 
ATOM     20  C   UNL A   1      30.443  25.770  25.572  1.00  0.00     0.004 A 
ATOM     21  C   UNL A   1      32.750  26.445  25.735  1.00  0.00     0.017 A 
ATOM     22  C   UNL A   1      30.181  26.917  24.811  1.00  0.00     0.001 A 
ATOM     23  C   UNL A   1      32.503  27.602  24.978  1.00  0.00     0.056 A 
ATOM     24  C   UNL A   1      31.202  27.827  24.515  1.00  0.00     0.013 A 
BRANCH  23  25
ATOM     25  C   UNL A   1      33.613  28.580  24.677  1.00  0.00     0.416 C 
ATOM     26  F   UNL A   1      34.438  28.789  25.738  1.00  0.00    -0.166 F 
ATOM     27  F   UNL A   1      34.411  28.187  23.648  1.00  0.00    -0.166 F 
ATOM     28  F   UNL A   1      33.152  29.814  24.315  1.00  0.00    -0.166 F 
ENDBRANCH  23  25
ENDBRANCH  18  19
ENDBRANCH  17  18
ENDBRANCH   9  17
ENDBRANCH   5   8
ENDBRANCH   3   5
ENDBRANCH   2   3
ENDBRANCH   1   2
BRANCH   1  29
ATOM     29  C   UNL A   1      36.664  22.187  25.790  1.00  0.00     0.202 C 
BRANCH  29  30
ATOM     30  O   UNL A   1      37.914  21.597  25.448  1.00  0.00    -0.374 OA
BRANCH  30  31
ATOM     31  C   UNL A   1      37.908  20.260  24.981  1.00  0.00     0.202 C 
BRANCH  31  32
ATOM     32  C   UNL A   1      39.081  19.345  25.358  1.00  0.00     0.261 C 
BRANCH  32  33
ATOM     33  O   UNL A   1      39.824  19.638  26.544  1.00  0.00    -0.460 OA
BRANCH  33  34
ATOM     34  C   UNL A   1      41.168  19.682  26.351  1.00  0.00     0.338 C 
ATOM     35  O   UNL A   1      41.881  18.805  25.899  1.00  0.00    -0.246 OA
BRANCH  34  36
ATOM     36  C   UNL A   1      41.664  21.028  26.679  1.00  0.00     0.060 A 
ATOM     37  C   UNL A   1      41.572  22.013  25.692  1.00  0.00     0.016 A 
ATOM     38  C   UNL A   1      42.245  21.309  27.920  1.00  0.00     0.016 A 
ATOM     39  C   UNL A   1      42.048  23.296  25.951  1.00  0.00     0.010 A 
ATOM     40  C   UNL A   1      42.728  22.595  28.175  1.00  0.00     0.010 A 
ATOM     41  C   UNL A   1      42.628  23.594  27.193  1.00  0.00    -0.014 A 
BRANCH  41  42
ATOM     42  C   UNL A   1      43.074  24.976  27.477  1.00  0.00     0.031 A 
ATOM     43  C   UNL A   1      44.483  25.398  27.200  1.00  0.00     0.074 A 
ATOM     44  C   UNL A   1      42.181  25.846  27.985  1.00  0.00     0.049 A 
ATOM     45  N   UNL A   1      45.041  26.572  27.362  1.00  0.00    -0.248 NA
ATOM     46  C   UNL A   1      45.388  24.367  26.671  1.00  0.00     0.031 C 
ATOM     47  C   UNL A   1      40.785  25.528  28.289  1.00  0.00     0.029 A 
ATOM     48  N   UNL A   1      42.312  27.163  28.341  1.00  0.00    -0.354 N 
ATOM     49  C   UNL A   1      46.357  26.425  26.944  1.00  0.00     0.074 A 
ATOM     50  C   UNL A   1      46.525  25.040  26.554  1.00  0.00     0.031 C 
ATOM     51  C   UNL A   1      40.188  26.621  28.791  1.00  0.00     0.029 A 
ATOM     52  C   UNL A   1      41.164  27.703  28.867  1.00  0.00     0.049 A 
ATOM     53  H   UNL A   1      43.147  27.673  28.230  1.00  0.00     0.167 HD
ATOM     54  C   UNL A   1      47.327  27.370  26.885  1.00  0.00     0.037 A 
ATOM     55  C   UNL A   1      40.934  28.931  29.367  1.00  0.00     0.037 A 
ATOM     56  C   UNL A   1      47.146  28.739  27.298  1.00  0.00     0.049 A 
ATOM     57  C   UNL A   1      42.047  29.942  29.345  1.00  0.00     0.074 A 
ATOM     58  C   UNL A   1      48.049  29.786  27.246  1.00  0.00     0.029 A 
ATOM     59  N   UNL A   1      45.981  29.246  27.858  1.00  0.00    -0.354 N 
ATOM     60  N   UNL A   1      43.270  29.814  28.887  1.00  0.00    -0.248 NA
ATOM     61  C   UNL A   1      41.750  31.267  29.904  1.00  0.00     0.031 C 
ATOM     62  C   UNL A   1      47.450  30.911  27.826  1.00  0.00     0.029 A 
ATOM     63  C   UNL A   1      46.155  30.580  28.192  1.00  0.00     0.049 A 
ATOM     64  H   UNL A   1      45.152  28.733  27.997  1.00  0.00     0.167 HD
ATOM     65  C   UNL A   1      43.884  31.041  29.089  1.00  0.00     0.074 A 
ATOM     66  C   UNL A   1      42.889  31.909  29.690  1.00  0.00     0.031 C 
ATOM     67  C   UNL A   1      45.155  31.418  28.806  1.00  0.00     0.037 A 
BRANCH  54  68
ATOM     68  C   UNL A   1      48.677  26.953  26.375  1.00  0.00     0.064 A 
ATOM     69  C   UNL A   1      49.025  27.086  25.021  1.00  0.00     0.173 A 
ATOM     70  C   UNL A   1      49.651  26.457  27.254  1.00  0.00     0.173 A 
ATOM     71  F   UNL A   1      48.129  27.548  24.137  1.00  0.00    -0.203 F 
ATOM     72  C   UNL A   1      50.288  26.714  24.565  1.00  0.00     0.198 A 
ATOM     73  C   UNL A   1      50.921  26.111  26.799  1.00  0.00     0.198 A 
ATOM     74  F   UNL A   1      49.375  26.315  28.559  1.00  0.00    -0.203 F 
ATOM     75  F   UNL A   1      50.584  26.813  23.261  1.00  0.00    -0.200 F 
ATOM     76  C   UNL A   1      51.236  26.233  25.455  1.00  0.00     0.200 A 
ATOM     77  F   UNL A   1      51.841  25.657  27.663  1.00  0.00    -0.200 F 
ATOM     78  F   UNL A   1      52.453  25.883  25.015  1.00  0.00    -0.200 F 
ENDBRANCH  54  68
BRANCH  55  79
ATOM     79  C   UNL A   1      39.598  29.262  29.925  1.00  0.00     0.064 A 
ATOM     80  C   UNL A   1      38.571  29.753  29.108  1.00  0.00     0.173 A 
ATOM     81  C   UNL A   1      39.315  29.074  31.287  1.00  0.00     0.173 A 
ATOM     82  F   UNL A   1      38.799  29.967  27.804  1.00  0.00    -0.203 F 
ATOM     83  C   UNL A   1      37.317  30.056  29.633  1.00  0.00     0.198 A 
ATOM     84  C   UNL A   1      38.052  29.350  31.805  1.00  0.00     0.198 A 
ATOM     85  F   UNL A   1      40.262  28.601  32.111  1.00  0.00    -0.203 F 
ATOM     86  F   UNL A   1      36.363  30.558  28.837  1.00  0.00    -0.200 F 
ATOM     87  C   UNL A   1      37.055  29.846  30.980  1.00  0.00     0.200 A 
ATOM     88  F   UNL A   1      37.800  29.130  33.103  1.00  0.00    -0.200 F 
ATOM     89  F   UNL A   1      35.845  30.127  31.481  1.00  0.00    -0.200 F 
ENDBRANCH  55  79
BRANCH  67  90
ATOM     90  C   UNL A   1      45.536  32.829  29.146  1.00  0.00     0.064 A 
ATOM     91  C   UNL A   1      45.317  33.882  28.246  1.00  0.00     0.173 A 
ATOM     92  C   UNL A   1      46.101  33.135  30.393  1.00  0.00     0.173 A 
ATOM     93  F   UNL A   1      44.795  33.637  27.034  1.00  0.00    -0.203 F 
ATOM     94  C   UNL A   1      45.671  35.188  28.573  1.00  0.00     0.198 A 
ATOM     95  C   UNL A   1      46.428  34.445  30.728  1.00  0.00     0.198 A 
ATOM     96  F   UNL A   1      46.328  32.164  31.290  1.00  0.00    -0.203 F 
ATOM     97  F   UNL A   1      45.499  36.171  27.679  1.00  0.00    -0.200 F 
ATOM     98  C   UNL A   1      46.220  35.469  29.815  1.00  0.00     0.200 A 
ATOM     99  F   UNL A   1      46.948  34.718  31.933  1.00  0.00    -0.200 F 
ATOM    100  F   UNL A   1      46.558  36.727  30.130  1.00  0.00    -0.200 F 
ENDBRANCH  67  90
ENDBRANCH  41  42
ENDBRANCH  34  36
ENDBRANCH  33  34
ENDBRANCH  32  33
ENDBRANCH  31  32
ENDBRANCH  30  31
ENDBRANCH  29  30
ENDBRANCH   1  29
TORSDOF 20
ENDMDL
MODEL 2
REMARK VINA RESULT:     -10.9      5.238      9.200
REMARK SMILES CC[C@@H](C(=O)OCCOCCOC(=O)c1ccc(-c2c3nc(c(-c4c(F)c(F)c(F)c(F)c4F)c4ccc([nH]4)c(-c4c(F)c(F)c(F)c(F)c4F)c4nc(c(-c5c(F)c(F)c(F)c(F)c5F)c5ccc2[nH]5)C=C4)C=C3)cc1)n1c(SCc2cccc(C(F)(F)F)c2)nc2ccncc21
REMARK SMILES IDX 7 1 6 2 4 3 5 4 3 5 2 6 1 7 78 8 79 9 98 10 92 11 93 12
REMARK SMILES IDX 97 13 94 14 96 15 95 16 80 17 81 18 82 19 83 20 91 21 84 22
REMARK SMILES IDX 86 23 85 24 87 25 88 26 89 27 90 28 8 29 9 30 10 31 11 32
REMARK SMILES IDX 12 33 13 34 14 35 15 36 16 37 77 38 17 39 76 40 18 41 19 42
REMARK SMILES IDX 20 43 70 44 21 45 75 46 69 47 71 48 22 49 74 50 68 51 67 52
REMARK SMILES IDX 23 54 55 55 35 56 54 57 36 58 39 59 53 60 72 61 37 62 38 63
REMARK SMILES IDX 52 65 73 66 40 67 24 68 25 69 33 70 26 71 27 72 31 73 34 74
REMARK SMILES IDX 28 75 29 76 32 77 30 78 56 79 57 80 65 81 58 82 59 83 63 84
REMARK SMILES IDX 66 85 60 86 61 87 64 88 62 89 41 90 42 91 50 92 43 93 44 94
REMARK SMILES IDX 48 95 51 96 45 97 46 98 49 99 47 100
REMARK H PARENT 71 53 39 64
REMARK Flexibility Score: inf
ROOT
ATOM      1  C   UNL A   1      33.115  28.584  27.224  1.00  0.00     0.261 C 
ENDROOT
BRANCH   1   2
ATOM      2  O   UNL A   1      31.894  28.092  26.625  1.00  0.00    -0.462 OA
BRANCH   2   3
ATOM      3  C   UNL A   1      32.011  26.905  25.968  1.00  0.00     0.329 C 
ATOM      4  O   UNL A   1      32.950  26.132  26.131  1.00  0.00    -0.250 OA
BRANCH   3   5
ATOM      5  C   UNL A   1      30.840  26.586  25.025  1.00  0.00     0.199 C 
BRANCH   5   6
ATOM      6  C   UNL A   1      30.604  25.090  24.754  1.00  0.00     0.034 C 
ATOM      7  C   UNL A   1      30.180  24.251  25.949  1.00  0.00     0.007 C 
ENDBRANCH   5   6
BRANCH   5   8
ATOM      8  N   UNL A   1      30.903  27.439  23.828  1.00  0.00    -0.303 N 
ATOM      9  C   UNL A   1      31.972  27.722  22.993  1.00  0.00     0.170 A 
ATOM     10  C   UNL A   1      29.835  28.165  23.325  1.00  0.00     0.088 A 
ATOM     11  N   UNL A   1      31.787  28.901  22.429  1.00  0.00    -0.222 NA
ATOM     12  C   UNL A   1      30.429  29.102  22.486  1.00  0.00     0.093 A 
ATOM     13  C   UNL A   1      28.459  28.120  23.506  1.00  0.00     0.139 A 
ATOM     14  C   UNL A   1      29.633  30.025  21.807  1.00  0.00     0.051 A 
ATOM     15  N   UNL A   1      27.684  28.988  22.814  1.00  0.00    -0.262 NA
ATOM     16  C   UNL A   1      28.267  29.898  22.000  1.00  0.00     0.113 A 
BRANCH   9  17
ATOM     17  S   UNL A   1      32.731  26.479  22.024  1.00  0.00    -0.083 SA
BRANCH  17  18
ATOM     18  C   UNL A   1      33.844  25.504  23.026  1.00  0.00     0.113 C 
BRANCH  18  19
ATOM     19  C   UNL A   1      33.714  24.016  23.225  1.00  0.00    -0.037 A 
ATOM     20  C   UNL A   1      32.630  23.248  22.790  1.00  0.00     0.004 A 
ATOM     21  C   UNL A   1      34.697  23.388  24.020  1.00  0.00     0.017 A 
ATOM     22  C   UNL A   1      32.555  21.885  23.107  1.00  0.00     0.001 A 
ATOM     23  C   UNL A   1      34.640  22.021  24.342  1.00  0.00     0.056 A 
ATOM     24  C   UNL A   1      33.552  21.275  23.878  1.00  0.00     0.013 A 
BRANCH  23  25
ATOM     25  C   UNL A   1      35.730  21.376  25.164  1.00  0.00     0.416 C 
ATOM     26  F   UNL A   1      36.967  21.863  24.881  1.00  0.00    -0.166 F 
ATOM     27  F   UNL A   1      35.556  21.534  26.504  1.00  0.00    -0.166 F 
ATOM     28  F   UNL A   1      35.809  20.025  24.975  1.00  0.00    -0.166 F 
ENDBRANCH  23  25
ENDBRANCH  18  19
ENDBRANCH  17  18
ENDBRANCH   9  17
ENDBRANCH   5   8
ENDBRANCH   3   5
ENDBRANCH   2   3
ENDBRANCH   1   2
BRANCH   1  29
ATOM     29  C   UNL A   1      33.191  30.116  27.262  1.00  0.00     0.202 C 
BRANCH  29  30
ATOM     30  O   UNL A   1      32.576  30.836  26.199  1.00  0.00    -0.374 OA
BRANCH  30  31
ATOM     31  C   UNL A   1      31.451  31.640  26.509  1.00  0.00     0.202 C 
BRANCH  31  32
ATOM     32  C   UNL A   1      31.687  33.045  27.077  1.00  0.00     0.261 C 
BRANCH  32  33
ATOM     33  O   UNL A   1      33.027  33.539  27.150  1.00  0.00    -0.460 OA
BRANCH  33  34
ATOM     34  C   UNL A   1      33.293  34.233  28.286  1.00  0.00     0.338 C 
ATOM     35  O   UNL A   1      32.652  35.152  28.763  1.00  0.00    -0.246 OA
BRANCH  34  36
ATOM     36  C   UNL A   1      34.459  33.637  28.959  1.00  0.00     0.060 A 
ATOM     37  C   UNL A   1      34.228  32.588  29.852  1.00  0.00     0.016 A 
ATOM     38  C   UNL A   1      35.752  34.126  28.746  1.00  0.00     0.016 A 
ATOM     39  C   UNL A   1      35.300  32.008  30.527  1.00  0.00     0.010 A 
ATOM     40  C   UNL A   1      36.825  33.547  29.429  1.00  0.00     0.010 A 
ATOM     41  C   UNL A   1      36.603  32.483  30.319  1.00  0.00    -0.014 A 
BRANCH  41  42
ATOM     42  C   UNL A   1      37.738  31.818  30.996  1.00  0.00     0.031 A 
ATOM     43  C   UNL A   1      38.550  30.779  30.286  1.00  0.00     0.074 A 
ATOM     44  C   UNL A   1      38.029  32.175  32.260  1.00  0.00     0.049 A 
ATOM     45  N   UNL A   1      39.593  30.112  30.713  1.00  0.00    -0.248 NA
ATOM     46  C   UNL A   1      38.136  30.441  28.917  1.00  0.00     0.031 C 
ATOM     47  C   UNL A   1      37.296  33.178  33.034  1.00  0.00     0.029 A 
ATOM     48  N   UNL A   1      39.004  31.734  33.117  1.00  0.00    -0.354 N 
ATOM     49  C   UNL A   1      39.969  29.286  29.663  1.00  0.00     0.074 A 
ATOM     50  C   UNL A   1      39.020  29.508  28.590  1.00  0.00     0.031 C 
ATOM     51  C   UNL A   1      37.845  33.273  34.255  1.00  0.00     0.029 A 
ATOM     52  C   UNL A   1      38.947  32.322  34.357  1.00  0.00     0.049 A 
ATOM     53  H   UNL A   1      39.678  31.061  32.869  1.00  0.00     0.167 HD
ATOM     54  C   UNL A   1      41.017  28.430  29.604  1.00  0.00     0.037 A 
ATOM     55  C   UNL A   1      39.696  32.104  35.454  1.00  0.00     0.037 A 
ATOM     56  C   UNL A   1      41.938  28.207  30.691  1.00  0.00     0.049 A 
ATOM     57  C   UNL A   1      40.816  31.103  35.380  1.00  0.00     0.074 A 
ATOM     58  C   UNL A   1      43.056  27.391  30.726  1.00  0.00     0.029 A 
ATOM     59  N   UNL A   1      41.833  28.793  31.946  1.00  0.00    -0.354 N 
ATOM     60  N   UNL A   1      41.205  30.374  34.361  1.00  0.00    -0.248 NA
ATOM     61  C   UNL A   1      41.602  30.897  36.603  1.00  0.00     0.031 C 
ATOM     62  C   UNL A   1      43.594  27.441  32.017  1.00  0.00     0.029 A 
ATOM     63  C   UNL A   1      42.844  28.327  32.773  1.00  0.00     0.049 A 
ATOM     64  H   UNL A   1      41.144  29.445  32.208  1.00  0.00     0.167 HD
ATOM     65  C   UNL A   1      42.287  29.633  34.813  1.00  0.00     0.074 A 
ATOM     66  C   UNL A   1      42.507  30.020  36.193  1.00  0.00     0.031 C 
ATOM     67  C   UNL A   1      43.031  28.715  34.150  1.00  0.00     0.037 A 
BRANCH  54  68
ATOM     68  C   UNL A   1      41.216  27.655  28.333  1.00  0.00     0.064 A 
ATOM     69  C   UNL A   1      42.002  28.154  27.282  1.00  0.00     0.173 A 
ATOM     70  C   UNL A   1      40.653  26.380  28.178  1.00  0.00     0.173 A 
ATOM     71  F   UNL A   1      42.558  29.371  27.375  1.00  0.00    -0.203 F 
ATOM     72  C   UNL A   1      42.195  27.416  26.116  1.00  0.00     0.198 A 
ATOM     73  C   UNL A   1      40.869  25.634  27.022  1.00  0.00     0.198 A 
ATOM     74  F   UNL A   1      39.898  25.851  29.153  1.00  0.00    -0.203 F 
ATOM     75  F   UNL A   1      42.917  27.930  25.111  1.00  0.00    -0.200 F 
ATOM     76  C   UNL A   1      41.634  26.154  25.990  1.00  0.00     0.200 A 
ATOM     77  F   UNL A   1      40.336  24.409  26.906  1.00  0.00    -0.200 F 
ATOM     78  F   UNL A   1      41.826  25.443  24.870  1.00  0.00    -0.200 F 
ENDBRANCH  54  68
BRANCH  55  79
ATOM     79  C   UNL A   1      39.404  32.849  36.705  1.00  0.00     0.064 A 
ATOM     80  C   UNL A   1      40.067  34.045  37.010  1.00  0.00     0.173 A 
ATOM     81  C   UNL A   1      38.439  32.388  37.615  1.00  0.00     0.173 A 
ATOM     82  F   UNL A   1      41.010  34.516  36.180  1.00  0.00    -0.203 F 
ATOM     83  C   UNL A   1      39.787  34.746  38.181  1.00  0.00     0.198 A 
ATOM     84  C   UNL A   1      38.140  33.104  38.772  1.00  0.00     0.198 A 
ATOM     85  F   UNL A   1      37.773  31.251  37.369  1.00  0.00    -0.203 F 
ATOM     86  F   UNL A   1      40.460  35.868  38.465  1.00  0.00    -0.200 F 
ATOM     87  C   UNL A   1      38.817  34.279  39.057  1.00  0.00     0.200 A 
ATOM     88  F   UNL A   1      37.190  32.657  39.606  1.00  0.00    -0.200 F 
ATOM     89  F   UNL A   1      38.540  34.960  40.177  1.00  0.00    -0.200 F 
ENDBRANCH  55  79
BRANCH  67  90
ATOM     90  C   UNL A   1      44.150  28.068  34.913  1.00  0.00     0.064 A 
ATOM     91  C   UNL A   1      45.425  28.650  34.972  1.00  0.00     0.173 A 
ATOM     92  C   UNL A   1      43.938  26.871  35.612  1.00  0.00     0.173 A 
ATOM     93  F   UNL A   1      45.681  29.786  34.305  1.00  0.00    -0.203 F 
ATOM     94  C   UNL A   1      46.454  28.043  35.686  1.00  0.00     0.198 A 
ATOM     95  C   UNL A   1      44.962  26.282  36.348  1.00  0.00     0.198 A 
ATOM     96  F   UNL A   1      42.736  26.277  35.589  1.00  0.00    -0.203 F 
ATOM     97  F   UNL A   1      47.678  28.590  35.688  1.00  0.00    -0.200 F 
ATOM     98  C   UNL A   1      46.221  26.864  36.378  1.00  0.00     0.200 A 
ATOM     99  F   UNL A   1      44.733  25.149  37.026  1.00  0.00    -0.200 F 
ATOM    100  F   UNL A   1      47.212  26.283  37.067  1.00  0.00    -0.200 F 
ENDBRANCH  67  90
ENDBRANCH  41  42
ENDBRANCH  34  36
ENDBRANCH  33  34
ENDBRANCH  32  33
ENDBRANCH  31  32
ENDBRANCH  30  31
ENDBRANCH  29  30
ENDBRANCH   1  29
TORSDOF 20
ENDMDL
MODEL 3
REMARK VINA RESULT:     -10.9      5.226     10.552
REMARK SMILES CC[C@@H](C(=O)OCCOCCOC(=O)c1ccc(-c2c3nc(c(-c4c(F)c(F)c(F)c(F)c4F)c4ccc([nH]4)c(-c4c(F)c(F)c(F)c(F)c4F)c4nc(c(-c5c(F)c(F)c(F)c(F)c5F)c5ccc2[nH]5)C=C4)C=C3)cc1)n1c(SCc2cccc(C(F)(F)F)c2)nc2ccncc21
REMARK SMILES IDX 7 1 6 2 4 3 5 4 3 5 2 6 1 7 78 8 79 9 98 10 92 11 93 12
REMARK SMILES IDX 97 13 94 14 96 15 95 16 80 17 81 18 82 19 83 20 91 21 84 22
REMARK SMILES IDX 86 23 85 24 87 25 88 26 89 27 90 28 8 29 9 30 10 31 11 32
REMARK SMILES IDX 12 33 13 34 14 35 15 36 16 37 77 38 17 39 76 40 18 41 19 42
REMARK SMILES IDX 20 43 70 44 21 45 75 46 69 47 71 48 22 49 74 50 68 51 67 52
REMARK SMILES IDX 23 54 55 55 35 56 54 57 36 58 39 59 53 60 72 61 37 62 38 63
REMARK SMILES IDX 52 65 73 66 40 67 24 68 25 69 33 70 26 71 27 72 31 73 34 74
REMARK SMILES IDX 28 75 29 76 32 77 30 78 56 79 57 80 65 81 58 82 59 83 63 84
REMARK SMILES IDX 66 85 60 86 61 87 64 88 62 89 41 90 42 91 50 92 43 93 44 94
REMARK SMILES IDX 48 95 51 96 45 97 46 98 49 99 47 100
REMARK H PARENT 71 53 39 64
REMARK Flexibility Score: inf
ROOT
ATOM      1  C   UNL A   1      33.086  28.573  27.211  1.00  0.00     0.261 C 
ENDROOT
BRANCH   1   2
ATOM      2  O   UNL A   1      31.852  28.073  26.650  1.00  0.00    -0.462 OA
BRANCH   2   3
ATOM      3  C   UNL A   1      31.952  26.878  26.005  1.00  0.00     0.329 C 
ATOM      4  O   UNL A   1      32.878  26.092  26.180  1.00  0.00    -0.250 OA
BRANCH   3   5
ATOM      5  C   UNL A   1      30.781  26.569  25.059  1.00  0.00     0.199 C 
BRANCH   5   6
ATOM      6  C   UNL A   1      30.515  25.074  24.809  1.00  0.00     0.034 C 
ATOM      7  C   UNL A   1      30.445  24.191  26.045  1.00  0.00     0.007 C 
ENDBRANCH   5   6
BRANCH   5   8
ATOM      8  N   UNL A   1      30.871  27.402  23.849  1.00  0.00    -0.303 N 
ATOM      9  C   UNL A   1      31.954  27.657  23.023  1.00  0.00     0.170 A 
ATOM     10  C   UNL A   1      29.818  28.134  23.321  1.00  0.00     0.088 A 
ATOM     11  N   UNL A   1      31.791  28.829  22.438  1.00  0.00    -0.222 NA
ATOM     12  C   UNL A   1      30.436  29.048  22.474  1.00  0.00     0.093 A 
ATOM     13  C   UNL A   1      28.440  28.110  23.486  1.00  0.00     0.139 A 
ATOM     14  C   UNL A   1      29.660  29.971  21.770  1.00  0.00     0.051 A 
ATOM     15  N   UNL A   1      27.685  28.976  22.769  1.00  0.00    -0.262 NA
ATOM     16  C   UNL A   1      28.291  29.865  21.949  1.00  0.00     0.113 A 
BRANCH   9  17
ATOM     17  S   UNL A   1      32.707  26.387  22.084  1.00  0.00    -0.083 SA
BRANCH  17  18
ATOM     18  C   UNL A   1      33.773  25.397  23.121  1.00  0.00     0.113 C 
BRANCH  18  19
ATOM     19  C   UNL A   1      33.634  23.906  23.291  1.00  0.00    -0.037 A 
ATOM     20  C   UNL A   1      32.520  23.162  22.897  1.00  0.00     0.004 A 
ATOM     21  C   UNL A   1      34.650  23.247  24.017  1.00  0.00     0.017 A 
ATOM     22  C   UNL A   1      32.444  21.792  23.185  1.00  0.00     0.001 A 
ATOM     23  C   UNL A   1      34.593  21.874  24.309  1.00  0.00     0.056 A 
ATOM     24  C   UNL A   1      33.472  21.152  23.886  1.00  0.00     0.013 A 
BRANCH  23  25
ATOM     25  C   UNL A   1      35.716  21.196  25.056  1.00  0.00     0.416 C 
ATOM     26  F   UNL A   1      35.675  19.841  24.960  1.00  0.00    -0.166 F 
ATOM     27  F   UNL A   1      36.950  21.571  24.625  1.00  0.00    -0.166 F 
ATOM     28  F   UNL A   1      35.710  21.475  26.394  1.00  0.00    -0.166 F 
ENDBRANCH  23  25
ENDBRANCH  18  19
ENDBRANCH  17  18
ENDBRANCH   9  17
ENDBRANCH   5   8
ENDBRANCH   3   5
ENDBRANCH   2   3
ENDBRANCH   1   2
BRANCH   1  29
ATOM     29  C   UNL A   1      33.161  30.105  27.231  1.00  0.00     0.202 C 
BRANCH  29  30
ATOM     30  O   UNL A   1      32.505  30.814  26.184  1.00  0.00    -0.374 OA
BRANCH  30  31
ATOM     31  C   UNL A   1      31.404  31.636  26.531  1.00  0.00     0.202 C 
BRANCH  31  32
ATOM     32  C   UNL A   1      31.682  33.034  27.098  1.00  0.00     0.261 C 
BRANCH  32  33
ATOM     33  O   UNL A   1      33.034  33.498  27.147  1.00  0.00    -0.460 OA
BRANCH  33  34
ATOM     34  C   UNL A   1      33.325  34.219  28.261  1.00  0.00     0.338 C 
ATOM     35  O   UNL A   1      32.692  35.147  28.730  1.00  0.00    -0.246 OA
BRANCH  34  36
ATOM     36  C   UNL A   1      34.507  33.641  28.919  1.00  0.00     0.060 A 
ATOM     37  C   UNL A   1      34.308  32.558  29.780  1.00  0.00     0.016 A 
ATOM     38  C   UNL A   1      35.784  34.178  28.727  1.00  0.00     0.016 A 
ATOM     39  C   UNL A   1      35.396  31.994  30.442  1.00  0.00     0.010 A 
ATOM     40  C   UNL A   1      36.873  33.614  29.397  1.00  0.00     0.010 A 
ATOM     41  C   UNL A   1      36.683  32.517  30.254  1.00  0.00    -0.014 A 
BRANCH  41  42
ATOM     42  C   UNL A   1      37.838  31.870  30.914  1.00  0.00     0.031 A 
ATOM     43  C   UNL A   1      38.255  32.273  32.295  1.00  0.00     0.074 A 
ATOM     44  C   UNL A   1      38.500  30.906  30.248  1.00  0.00     0.049 A 
ATOM     45  N   UNL A   1      39.224  31.797  33.037  1.00  0.00    -0.248 NA
ATOM     46  C   UNL A   1      37.485  33.353  32.927  1.00  0.00     0.031 C 
ATOM     47  C   UNL A   1      38.169  30.444  28.899  1.00  0.00     0.029 A 
ATOM     48  N   UNL A   1      39.587  30.150  30.605  1.00  0.00    -0.354 N 
ATOM     49  C   UNL A   1      39.172  32.509  34.227  1.00  0.00     0.074 A 
ATOM     50  C   UNL A   1      38.099  33.475  34.096  1.00  0.00     0.031 C 
ATOM     51  C   UNL A   1      39.038  29.487  28.540  1.00  0.00     0.029 A 
ATOM     52  C   UNL A   1      39.999  29.287  29.620  1.00  0.00     0.049 A 
ATOM     53  H   UNL A   1      40.029  30.220  31.482  1.00  0.00     0.167 HD
ATOM     54  C   UNL A   1      39.947  32.358  35.328  1.00  0.00     0.037 A 
ATOM     55  C   UNL A   1      41.045  28.442  29.591  1.00  0.00     0.037 A 
ATOM     56  C   UNL A   1      41.024  31.405  35.432  1.00  0.00     0.049 A 
ATOM     57  C   UNL A   1      41.926  28.337  30.805  1.00  0.00     0.074 A 
ATOM     58  C   UNL A   1      41.848  31.142  36.513  1.00  0.00     0.029 A 
ATOM     59  N   UNL A   1      41.438  30.569  34.403  1.00  0.00    -0.354 N 
ATOM     60  N   UNL A   1      41.830  28.968  31.951  1.00  0.00    -0.248 NA
ATOM     61  C   UNL A   1      43.057  27.404  30.725  1.00  0.00     0.031 C 
ATOM     62  C   UNL A   1      42.794  30.189  36.121  1.00  0.00     0.029 A 
ATOM     63  C   UNL A   1      42.530  29.818  34.812  1.00  0.00     0.049 A 
ATOM     64  H   UNL A   1      41.017  30.516  33.515  1.00  0.00     0.167 HD
ATOM     65  C   UNL A   1      42.876  28.500  32.733  1.00  0.00     0.074 A 
ATOM     66  C   UNL A   1      43.580  27.514  31.937  1.00  0.00     0.031 C 
ATOM     67  C   UNL A   1      43.224  28.854  33.995  1.00  0.00     0.037 A 
BRANCH  54  68
ATOM     68  C   UNL A   1      39.674  33.253  36.503  1.00  0.00     0.064 A 
ATOM     69  C   UNL A   1      38.710  32.925  37.471  1.00  0.00     0.173 A 
ATOM     70  C   UNL A   1      40.413  34.431  36.691  1.00  0.00     0.173 A 
ATOM     71  F   UNL A   1      37.971  31.814  37.336  1.00  0.00    -0.203 F 
ATOM     72  C   UNL A   1      38.482  33.755  38.567  1.00  0.00     0.198 A 
ATOM     73  C   UNL A   1      40.200  35.244  37.801  1.00  0.00     0.198 A 
ATOM     74  F   UNL A   1      41.351  34.790  35.801  1.00  0.00    -0.203 F 
ATOM     75  F   UNL A   1      37.530  33.441  39.455  1.00  0.00    -0.200 F 
ATOM     76  C   UNL A   1      39.231  34.910  38.733  1.00  0.00     0.200 A 
ATOM     77  F   UNL A   1      40.933  36.355  37.968  1.00  0.00    -0.200 F 
ATOM     78  F   UNL A   1      39.014  35.703  39.792  1.00  0.00    -0.200 F 
ENDBRANCH  54  68
BRANCH  55  79
ATOM     79  C   UNL A   1      41.307  27.635  28.372  1.00  0.00     0.064 A 
ATOM     80  C   UNL A   1      40.681  26.397  28.172  1.00  0.00     0.173 A 
ATOM     81  C   UNL A   1      42.177  28.095  27.370  1.00  0.00     0.173 A 
ATOM     82  F   UNL A   1      39.856  25.907  29.108  1.00  0.00    -0.203 F 
ATOM     83  C   UNL A   1      40.923  25.645  27.024  1.00  0.00     0.198 A 
ATOM     84  C   UNL A   1      42.397  27.355  26.211  1.00  0.00     0.198 A 
ATOM     85  F   UNL A   1      42.798  29.275  27.511  1.00  0.00    -0.203 F 
ATOM     86  F   UNL A   1      40.339  24.449  26.874  1.00  0.00    -0.200 F 
ATOM     87  C   UNL A   1      41.774  26.129  26.041  1.00  0.00     0.200 A 
ATOM     88  F   UNL A   1      43.207  27.835  25.257  1.00  0.00    -0.200 F 
ATOM     89  F   UNL A   1      41.998  25.410  24.932  1.00  0.00    -0.200 F 
ENDBRANCH  55  79
BRANCH  67  90
ATOM     90  C   UNL A   1      44.422  28.169  34.585  1.00  0.00     0.064 A 
ATOM     91  C   UNL A   1      44.301  26.952  35.274  1.00  0.00     0.173 A 
ATOM     92  C   UNL A   1      45.703  28.718  34.439  1.00  0.00     0.173 A 
ATOM     93  F   UNL A   1      43.093  26.396  35.455  1.00  0.00    -0.203 F 
ATOM     94  C   UNL A   1      45.419  26.324  35.815  1.00  0.00     0.198 A 
ATOM     95  C   UNL A   1      46.822  28.073  34.956  1.00  0.00     0.198 A 
ATOM     96  F   UNL A   1      45.872  29.878  33.786  1.00  0.00    -0.203 F 
ATOM     97  F   UNL A   1      45.274  25.188  36.511  1.00  0.00    -0.200 F 
ATOM     98  C   UNL A   1      46.678  26.880  35.650  1.00  0.00     0.200 A 
ATOM     99  F   UNL A   1      48.041  28.606  34.788  1.00  0.00    -0.200 F 
ATOM    100  F   UNL A   1      47.754  26.272  36.169  1.00  0.00    -0.200 F 
ENDBRANCH  67  90
ENDBRANCH  41  42
ENDBRANCH  34  36
ENDBRANCH  33  34
ENDBRANCH  32  33
ENDBRANCH  31  32
ENDBRANCH  30  31
ENDBRANCH  29  30
ENDBRANCH   1  29
TORSDOF 20
ENDMDL
