MODEL 1
REMARK VINA RESULT:     -12.4      0.000      0.000
REMARK SMILES COc1ccccc1[C@@H]1CN(C(=O)c2cnn3ccccc23)C[C@H]1C(=O)OCCOCCOC(=O)c1ccc(-c2c3nc(c(-c4c(F)c(F)c(F)c(F)c4F)c4ccc([nH]4)c(-c4c(F)c(F)c(F)c(F)c4F)c4nc(c(-c5c(F)c(F)c(F)c(F)c5F)c5ccc2[nH]5)C=C4)C=C3)cc1
REMARK SMILES IDX 30 1 29 2 28 3 27 4 25 5 26 6 24 7 9 8 10 9 11 10 23 11 8 12
REMARK SMILES IDX 3 13 4 14 5 15 7 16 6 17 2 18 1 19 12 20 13 21 14 22 15 23
REMARK SMILES IDX 22 24 16 25 17 26 21 27 18 28 20 29 19 30 31 31 32 32 33 33
REMARK SMILES IDX 34 34 35 35 36 36 37 37 98 38 38 39 97 40 39 41 40 42 41 43
REMARK SMILES IDX 91 44 42 45 96 46 90 47 92 48 43 49 95 50 89 51 88 52 44 54
REMARK SMILES IDX 76 55 56 56 75 57 57 58 60 59 74 60 93 61 58 62 59 63 73 65
REMARK SMILES IDX 94 66 61 67 45 68 46 69 54 70 47 71 48 72 52 73 55 74 49 75
REMARK SMILES IDX 50 76 53 77 51 78 77 79 78 80 86 81 79 82 80 83 84 84 87 85
REMARK SMILES IDX 81 86 82 87 85 88 83 89 62 90 63 91 71 92 64 93 65 94 69 95
REMARK SMILES IDX 72 96 66 97 67 98 70 99 68 100
REMARK H PARENT 92 53 60 64
REMARK Flexibility Score: inf
ROOT
ATOM      1  O   UNL A   1      39.311  19.520  25.517  1.00  0.00    -0.374 OA
ENDROOT
BRANCH   1   2
ATOM      2  C   UNL A   1      38.107  20.166  25.124  1.00  0.00     0.202 C 
BRANCH   2   3
ATOM      3  C   UNL A   1      37.959  21.674  25.353  1.00  0.00     0.261 C 
BRANCH   3   4
ATOM      4  O   UNL A   1      36.635  22.096  25.751  1.00  0.00    -0.463 OA
BRANCH   4   5
ATOM      5  C   UNL A   1      36.217  23.213  25.113  1.00  0.00     0.311 C 
ATOM      6  O   UNL A   1      36.924  23.881  24.359  1.00  0.00    -0.252 OA
BRANCH   5   7
ATOM      7  C   UNL A   1      34.794  23.646  25.357  1.00  0.00     0.128 C 
ATOM      8  C   UNL A   1      33.862  24.332  24.330  1.00  0.00     0.058 C 
ATOM      9  C   UNL A   1      32.486  23.759  24.688  1.00  0.00     0.129 C 
ATOM     10  N   UNL A   1      32.784  22.403  25.095  1.00  0.00    -0.337 N 
ATOM     11  C   UNL A   1      34.069  22.356  25.752  1.00  0.00     0.135 C 
BRANCH   8  12
ATOM     12  C   UNL A   1      33.786  25.853  24.275  1.00  0.00    -0.000 A 
ATOM     13  C   UNL A   1      33.582  26.621  23.114  1.00  0.00     0.122 A 
ATOM     14  C   UNL A   1      33.469  28.019  23.185  1.00  0.00     0.047 A 
ATOM     15  C   UNL A   1      33.647  28.686  24.398  1.00  0.00     0.004 A 
ATOM     16  C   UNL A   1      34.070  26.567  25.458  1.00  0.00     0.008 A 
ATOM     17  C   UNL A   1      33.998  27.961  25.527  1.00  0.00     0.001 A 
BRANCH  13  18
ATOM     18  O   UNL A   1      33.866  26.103  21.876  1.00  0.00    -0.496 OA
ATOM     19  C   UNL A   1      32.755  25.648  21.120  1.00  0.00     0.278 C 
ENDBRANCH  13  18
ENDBRANCH   8  12
BRANCH  10  20
ATOM     20  C   UNL A   1      31.955  21.299  25.121  1.00  0.00     0.257 C 
ATOM     21  O   UNL A   1      30.976  21.251  25.861  1.00  0.00    -0.269 OA
BRANCH  20  22
ATOM     22  C   UNL A   1      32.264  20.197  24.241  1.00  0.00     0.085 A 
ATOM     23  C   UNL A   1      32.169  20.205  22.836  1.00  0.00     0.150 A 
ATOM     24  C   UNL A   1      32.607  18.892  24.545  1.00  0.00     0.079 A 
ATOM     25  N   UNL A   1      32.514  19.045  22.278  1.00  0.00    -0.176 NA
ATOM     26  N   UNL A   1      32.798  18.232  23.326  1.00  0.00    -0.240 N 
ATOM     27  C   UNL A   1      32.797  18.138  25.745  1.00  0.00     0.029 A 
ATOM     28  C   UNL A   1      33.230  16.907  23.266  1.00  0.00     0.113 A 
ATOM     29  C   UNL A   1      33.233  16.867  25.672  1.00  0.00     0.004 A 
ATOM     30  C   UNL A   1      33.467  16.218  24.394  1.00  0.00     0.020 A 
ENDBRANCH  20  22
ENDBRANCH  10  20
ENDBRANCH   5   7
ENDBRANCH   4   5
ENDBRANCH   3   4
ENDBRANCH   2   3
ENDBRANCH   1   2
BRANCH   1  31
ATOM     31  C   UNL A   1      40.401  20.274  26.034  1.00  0.00     0.202 C 
BRANCH  31  32
ATOM     32  C   UNL A   1      41.725  19.562  26.274  1.00  0.00     0.261 C 
BRANCH  32  33
ATOM     33  O   UNL A   1      42.794  20.479  26.491  1.00  0.00    -0.460 OA
BRANCH  33  34
ATOM     34  C   UNL A   1      43.561  20.697  25.399  1.00  0.00     0.338 C 
ATOM     35  O   UNL A   1      43.938  19.870  24.591  1.00  0.00    -0.246 OA
BRANCH  34  36
ATOM     36  C   UNL A   1      44.011  22.096  25.378  1.00  0.00     0.060 A 
ATOM     37  C   UNL A   1      44.902  22.437  26.393  1.00  0.00     0.016 A 
ATOM     38  C   UNL A   1      43.284  23.062  24.675  1.00  0.00     0.016 A 
ATOM     39  C   UNL A   1      44.795  23.690  26.939  1.00  0.00     0.010 A 
ATOM     40  C   UNL A   1      43.158  24.312  25.232  1.00  0.00     0.010 A 
ATOM     41  C   UNL A   1      43.827  24.558  26.425  1.00  0.00    -0.014 A 
BRANCH  41  42
ATOM     42  C   UNL A   1      43.580  25.779  27.153  1.00  0.00     0.031 A 
ATOM     43  C   UNL A   1      44.589  26.816  26.869  1.00  0.00     0.074 A 
ATOM     44  C   UNL A   1      42.523  25.934  27.968  1.00  0.00     0.049 A 
ATOM     45  N   UNL A   1      45.505  27.244  27.670  1.00  0.00    -0.248 NA
ATOM     46  C   UNL A   1      44.728  27.274  25.480  1.00  0.00     0.031 C 
ATOM     47  C   UNL A   1      41.373  25.052  28.175  1.00  0.00     0.029 A 
ATOM     48  N   UNL A   1      42.231  27.008  28.748  1.00  0.00    -0.354 N 
ATOM     49  C   UNL A   1      46.230  28.171  26.936  1.00  0.00     0.074 A 
ATOM     50  C   UNL A   1      45.837  28.008  25.561  1.00  0.00     0.031 C 
ATOM     51  C   UNL A   1      40.407  25.732  28.838  1.00  0.00     0.029 A 
ATOM     52  C   UNL A   1      40.919  27.040  29.204  1.00  0.00     0.049 A 
ATOM     53  H   UNL A   1      42.892  27.704  28.970  1.00  0.00     0.167 HD
ATOM     54  C   UNL A   1      46.909  29.171  27.557  1.00  0.00     0.037 A 
ATOM     55  C   UNL A   1      40.313  28.131  29.738  1.00  0.00     0.037 A 
ATOM     56  C   UNL A   1      47.103  28.889  28.955  1.00  0.00     0.049 A 
ATOM     57  C   UNL A   1      41.395  29.029  30.240  1.00  0.00     0.074 A 
ATOM     58  C   UNL A   1      47.764  27.897  29.652  1.00  0.00     0.029 A 
ATOM     59  N   UNL A   1      46.240  29.468  29.855  1.00  0.00    -0.354 N 
ATOM     60  N   UNL A   1      42.158  28.717  31.255  1.00  0.00    -0.248 NA
ATOM     61  C   UNL A   1      41.965  29.995  29.309  1.00  0.00     0.031 C 
ATOM     62  C   UNL A   1      46.925  27.608  30.769  1.00  0.00     0.029 A 
ATOM     63  C   UNL A   1      45.844  28.487  30.729  1.00  0.00     0.049 A 
ATOM     64  H   UNL A   1      45.957  30.411  29.869  1.00  0.00     0.167 HD
ATOM     65  C   UNL A   1      43.436  29.098  30.869  1.00  0.00     0.074 A 
ATOM     66  C   UNL A   1      43.247  29.935  29.686  1.00  0.00     0.031 C 
ATOM     67  C   UNL A   1      44.542  28.457  31.352  1.00  0.00     0.037 A 
BRANCH  54  68
ATOM     68  C   UNL A   1      47.042  30.555  26.986  1.00  0.00     0.064 A 
ATOM     69  C   UNL A   1      48.302  31.179  26.995  1.00  0.00     0.173 A 
ATOM     70  C   UNL A   1      45.939  31.395  26.720  1.00  0.00     0.173 A 
ATOM     71  F   UNL A   1      49.411  30.473  27.258  1.00  0.00    -0.203 F 
ATOM     72  C   UNL A   1      48.434  32.559  26.829  1.00  0.00     0.198 A 
ATOM     73  C   UNL A   1      46.081  32.760  26.497  1.00  0.00     0.198 A 
ATOM     74  F   UNL A   1      44.674  30.959  26.784  1.00  0.00    -0.203 F 
ATOM     75  F   UNL A   1      49.635  33.132  26.975  1.00  0.00    -0.200 F 
ATOM     76  C   UNL A   1      47.324  33.348  26.587  1.00  0.00     0.200 A 
ATOM     77  F   UNL A   1      44.989  33.508  26.285  1.00  0.00    -0.200 F 
ATOM     78  F   UNL A   1      47.440  34.679  26.493  1.00  0.00    -0.200 F 
ENDBRANCH  54  68
BRANCH  55  79
ATOM     79  C   UNL A   1      38.922  28.586  29.492  1.00  0.00     0.064 A 
ATOM     80  C   UNL A   1      38.029  28.834  30.546  1.00  0.00     0.173 A 
ATOM     81  C   UNL A   1      38.514  29.030  28.216  1.00  0.00     0.173 A 
ATOM     82  F   UNL A   1      38.360  28.498  31.803  1.00  0.00    -0.203 F 
ATOM     83  C   UNL A   1      36.808  29.490  30.339  1.00  0.00     0.198 A 
ATOM     84  C   UNL A   1      37.295  29.676  28.008  1.00  0.00     0.198 A 
ATOM     85  F   UNL A   1      39.329  28.930  27.157  1.00  0.00    -0.203 F 
ATOM     86  F   UNL A   1      36.004  29.755  31.378  1.00  0.00    -0.200 F 
ATOM     87  C   UNL A   1      36.445  29.916  29.071  1.00  0.00     0.200 A 
ATOM     88  F   UNL A   1      36.980  30.118  26.782  1.00  0.00    -0.200 F 
ATOM     89  F   UNL A   1      35.304  30.589  28.878  1.00  0.00    -0.200 F 
ENDBRANCH  55  79
BRANCH  67  90
ATOM     90  C   UNL A   1      44.348  27.463  32.462  1.00  0.00     0.064 A 
ATOM     91  C   UNL A   1      44.154  26.086  32.250  1.00  0.00     0.173 A 
ATOM     92  C   UNL A   1      44.525  27.890  33.784  1.00  0.00     0.173 A 
ATOM     93  F   UNL A   1      44.092  25.584  31.011  1.00  0.00    -0.203 F 
ATOM     94  C   UNL A   1      44.088  25.190  33.315  1.00  0.00     0.198 A 
ATOM     95  C   UNL A   1      44.497  26.988  34.844  1.00  0.00     0.198 A 
ATOM     96  F   UNL A   1      44.781  29.182  34.042  1.00  0.00    -0.203 F 
ATOM     97  F   UNL A   1      43.891  23.883  33.083  1.00  0.00    -0.200 F 
ATOM     98  C   UNL A   1      44.265  25.642  34.611  1.00  0.00     0.200 A 
ATOM     99  F   UNL A   1      44.725  27.421  36.091  1.00  0.00    -0.200 F 
ATOM    100  F   UNL A   1      44.245  24.776  35.634  1.00  0.00    -0.200 F 
ENDBRANCH  67  90
ENDBRANCH  41  42
ENDBRANCH  34  36
ENDBRANCH  33  34
ENDBRANCH  32  33
ENDBRANCH  31  32
ENDBRANCH   1  31
TORSDOF 18
ENDMDL
MODEL 2
REMARK VINA RESULT:     -12.2      2.629      5.038
REMARK SMILES COc1ccccc1[C@@H]1CN(C(=O)c2cnn3ccccc23)C[C@H]1C(=O)OCCOCCOC(=O)c1ccc(-c2c3nc(c(-c4c(F)c(F)c(F)c(F)c4F)c4ccc([nH]4)c(-c4c(F)c(F)c(F)c(F)c4F)c4nc(c(-c5c(F)c(F)c(F)c(F)c5F)c5ccc2[nH]5)C=C4)C=C3)cc1
REMARK SMILES IDX 30 1 29 2 28 3 27 4 25 5 26 6 24 7 9 8 10 9 11 10 23 11 8 12
REMARK SMILES IDX 3 13 4 14 5 15 7 16 6 17 2 18 1 19 12 20 13 21 14 22 15 23
REMARK SMILES IDX 22 24 16 25 17 26 21 27 18 28 20 29 19 30 31 31 32 32 33 33
REMARK SMILES IDX 34 34 35 35 36 36 37 37 98 38 38 39 97 40 39 41 40 42 41 43
REMARK SMILES IDX 91 44 42 45 96 46 90 47 92 48 43 49 95 50 89 51 88 52 44 54
REMARK SMILES IDX 76 55 56 56 75 57 57 58 60 59 74 60 93 61 58 62 59 63 73 65
REMARK SMILES IDX 94 66 61 67 45 68 46 69 54 70 47 71 48 72 52 73 55 74 49 75
REMARK SMILES IDX 50 76 53 77 51 78 77 79 78 80 86 81 79 82 80 83 84 84 87 85
REMARK SMILES IDX 81 86 82 87 85 88 83 89 62 90 63 91 71 92 64 93 65 94 69 95
REMARK SMILES IDX 72 96 66 97 67 98 70 99 68 100
REMARK H PARENT 92 53 60 64
REMARK Flexibility Score: inf
ROOT
ATOM      1  O   UNL A   1      36.986  22.181  25.250  1.00  0.00    -0.374 OA
ENDROOT
BRANCH   1   2
ATOM      2  C   UNL A   1      36.648  22.270  23.872  1.00  0.00     0.202 C 
BRANCH   2   3
ATOM      3  C   UNL A   1      35.985  23.549  23.349  1.00  0.00     0.261 C 
BRANCH   3   4
ATOM      4  O   UNL A   1      34.887  23.328  22.434  1.00  0.00    -0.463 OA
BRANCH   4   5
ATOM      5  C   UNL A   1      33.840  24.156  22.648  1.00  0.00     0.311 C 
ATOM      6  O   UNL A   1      33.838  25.353  22.363  1.00  0.00    -0.252 OA
BRANCH   5   7
ATOM      7  C   UNL A   1      32.611  23.552  23.278  1.00  0.00     0.128 C 
ATOM      8  C   UNL A   1      32.577  22.676  24.553  1.00  0.00     0.058 C 
ATOM      9  C   UNL A   1      31.249  23.081  25.205  1.00  0.00     0.129 C 
ATOM     10  N   UNL A   1      31.141  24.490  24.895  1.00  0.00    -0.337 N 
ATOM     11  C   UNL A   1      31.720  24.756  23.599  1.00  0.00     0.135 C 
BRANCH   8  12
ATOM     12  C   UNL A   1      32.647  21.158  24.431  1.00  0.00    -0.000 A 
ATOM     13  C   UNL A   1      33.259  20.290  25.354  1.00  0.00     0.122 A 
ATOM     14  C   UNL A   1      33.213  18.898  25.173  1.00  0.00     0.047 A 
ATOM     15  C   UNL A   1      32.638  18.349  24.026  1.00  0.00     0.004 A 
ATOM     16  C   UNL A   1      32.177  20.575  23.237  1.00  0.00     0.008 A 
ATOM     17  C   UNL A   1      32.165  19.192  23.033  1.00  0.00     0.001 A 
BRANCH  13  18
ATOM     18  O   UNL A   1      34.218  20.755  26.217  1.00  0.00    -0.496 OA
ATOM     19  C   UNL A   1      33.745  21.456  27.357  1.00  0.00     0.278 C 
ENDBRANCH  13  18
ENDBRANCH   8  12
BRANCH  10  20
ATOM     20  C   UNL A   1      30.414  25.471  25.540  1.00  0.00     0.257 C 
ATOM     21  O   UNL A   1      29.555  25.188  26.372  1.00  0.00    -0.269 OA
BRANCH  20  22
ATOM     22  C   UNL A   1      30.699  26.849  25.218  1.00  0.00     0.085 A 
ATOM     23  C   UNL A   1      30.188  27.568  24.121  1.00  0.00     0.150 A 
ATOM     24  C   UNL A   1      31.584  27.730  25.813  1.00  0.00     0.079 A 
ATOM     25  N   UNL A   1      30.623  28.827  24.068  1.00  0.00    -0.176 NA
ATOM     26  N   UNL A   1      31.476  28.939  25.116  1.00  0.00    -0.240 N 
ATOM     27  C   UNL A   1      32.505  27.673  26.904  1.00  0.00     0.029 A 
ATOM     28  C   UNL A   1      32.182  30.078  25.505  1.00  0.00     0.113 A 
ATOM     29  C   UNL A   1      33.165  28.785  27.280  1.00  0.00     0.004 A 
ATOM     30  C   UNL A   1      33.002  30.040  26.567  1.00  0.00     0.020 A 
ENDBRANCH  20  22
ENDBRANCH  10  20
ENDBRANCH   5   7
ENDBRANCH   4   5
ENDBRANCH   3   4
ENDBRANCH   2   3
ENDBRANCH   1   2
BRANCH   1  31
ATOM     31  C   UNL A   1      37.772  21.098  25.734  1.00  0.00     0.202 C 
BRANCH  31  32
ATOM     32  C   UNL A   1      39.228  21.364  26.091  1.00  0.00     0.261 C 
BRANCH  32  33
ATOM     33  O   UNL A   1      39.417  22.672  26.623  1.00  0.00    -0.460 OA
BRANCH  33  34
ATOM     34  C   UNL A   1      40.584  22.831  27.288  1.00  0.00     0.338 C 
ATOM     35  O   UNL A   1      41.112  22.037  28.043  1.00  0.00    -0.246 OA
BRANCH  34  36
ATOM     36  C   UNL A   1      41.097  24.192  27.076  1.00  0.00     0.060 A 
ATOM     37  C   UNL A   1      42.160  24.549  27.903  1.00  0.00     0.016 A 
ATOM     38  C   UNL A   1      40.314  25.148  26.421  1.00  0.00     0.016 A 
ATOM     39  C   UNL A   1      42.210  25.844  28.351  1.00  0.00     0.010 A 
ATOM     40  C   UNL A   1      40.348  26.442  26.883  1.00  0.00     0.010 A 
ATOM     41  C   UNL A   1      41.217  26.733  27.928  1.00  0.00    -0.014 A 
BRANCH  41  42
ATOM     42  C   UNL A   1      41.159  28.018  28.580  1.00  0.00     0.031 A 
ATOM     43  C   UNL A   1      42.290  28.888  28.211  1.00  0.00     0.074 A 
ATOM     44  C   UNL A   1      40.155  28.366  29.404  1.00  0.00     0.049 A 
ATOM     45  N   UNL A   1      43.277  29.235  28.964  1.00  0.00    -0.248 NA
ATOM     46  C   UNL A   1      42.451  29.236  26.792  1.00  0.00     0.031 C 
ATOM     47  C   UNL A   1      38.903  27.664  29.690  1.00  0.00     0.029 A 
ATOM     48  N   UNL A   1      40.033  29.515  30.119  1.00  0.00    -0.354 N 
ATOM     49  C   UNL A   1      44.101  30.007  28.158  1.00  0.00     0.074 A 
ATOM     50  C   UNL A   1      43.651  29.816  26.804  1.00  0.00     0.031 C 
ATOM     51  C   UNL A   1      38.057  28.509  30.326  1.00  0.00     0.029 A 
ATOM     52  C   UNL A   1      38.751  29.755  30.597  1.00  0.00     0.049 A 
ATOM     53  H   UNL A   1      40.788  30.127  30.283  1.00  0.00     0.167 HD
ATOM     54  C   UNL A   1      44.926  30.941  28.700  1.00  0.00     0.037 A 
ATOM     55  C   UNL A   1      38.314  30.949  31.072  1.00  0.00     0.037 A 
ATOM     56  C   UNL A   1      45.119  30.722  30.110  1.00  0.00     0.049 A 
ATOM     57  C   UNL A   1      39.521  31.719  31.494  1.00  0.00     0.074 A 
ATOM     58  C   UNL A   1      45.659  29.692  30.856  1.00  0.00     0.029 A 
ATOM     59  N   UNL A   1      44.368  31.466  30.986  1.00  0.00    -0.354 N 
ATOM     60  N   UNL A   1      40.263  31.368  32.511  1.00  0.00    -0.248 NA
ATOM     61  C   UNL A   1      40.190  32.540  30.491  1.00  0.00     0.031 C 
ATOM     62  C   UNL A   1      44.821  29.590  32.005  1.00  0.00     0.029 A 
ATOM     63  C   UNL A   1      43.867  30.605  31.929  1.00  0.00     0.049 A 
ATOM     64  H   UNL A   1      44.216  32.439  30.945  1.00  0.00     0.167 HD
ATOM     65  C   UNL A   1      41.569  31.547  32.077  1.00  0.00     0.074 A 
ATOM     66  C   UNL A   1      41.462  32.328  30.846  1.00  0.00     0.031 C 
ATOM     67  C   UNL A   1      42.591  30.792  32.578  1.00  0.00     0.037 A 
BRANCH  54  68
ATOM     68  C   UNL A   1      45.228  32.256  28.038  1.00  0.00     0.064 A 
ATOM     69  C   UNL A   1      46.565  32.581  27.746  1.00  0.00     0.173 A 
ATOM     70  C   UNL A   1      44.304  33.320  27.966  1.00  0.00     0.173 A 
ATOM     71  F   UNL A   1      47.524  31.646  27.808  1.00  0.00    -0.203 F 
ATOM     72  C   UNL A   1      46.955  33.895  27.480  1.00  0.00     0.198 A 
ATOM     73  C   UNL A   1      44.688  34.618  27.643  1.00  0.00     0.198 A 
ATOM     74  F   UNL A   1      43.020  33.180  28.320  1.00  0.00    -0.203 F 
ATOM     75  F   UNL A   1      48.254  34.185  27.337  1.00  0.00    -0.200 F 
ATOM     76  C   UNL A   1      46.018  34.912  27.435  1.00  0.00     0.200 A 
ATOM     77  F   UNL A   1      43.766  35.590  27.626  1.00  0.00    -0.200 F 
ATOM     78  F   UNL A   1      46.398  36.182  27.245  1.00  0.00    -0.200 F 
ENDBRANCH  54  68
BRANCH  55  79
ATOM     79  C   UNL A   1      36.990  31.574  30.824  1.00  0.00     0.064 A 
ATOM     80  C   UNL A   1      36.086  31.825  31.867  1.00  0.00     0.173 A 
ATOM     81  C   UNL A   1      36.686  32.170  29.582  1.00  0.00     0.173 A 
ATOM     82  F   UNL A   1      36.326  31.346  33.097  1.00  0.00    -0.203 F 
ATOM     83  C   UNL A   1      34.952  32.627  31.682  1.00  0.00     0.198 A 
ATOM     84  C   UNL A   1      35.552  32.962  29.395  1.00  0.00     0.198 A 
ATOM     85  F   UNL A   1      37.529  32.074  28.544  1.00  0.00    -0.203 F 
ATOM     86  F   UNL A   1      34.138  32.887  32.714  1.00  0.00    -0.200 F 
ATOM     87  C   UNL A   1      34.690  33.200  30.447  1.00  0.00     0.200 A 
ATOM     88  F   UNL A   1      35.338  33.542  28.205  1.00  0.00    -0.200 F 
ATOM     89  F   UNL A   1      33.635  34.010  30.281  1.00  0.00    -0.200 F 
ENDBRANCH  55  79
BRANCH  67  90
ATOM     90  C   UNL A   1      42.296  29.903  33.754  1.00  0.00     0.064 A 
ATOM     91  C   UNL A   1      41.806  28.590  33.634  1.00  0.00     0.173 A 
ATOM     92  C   UNL A   1      42.671  30.334  35.032  1.00  0.00     0.173 A 
ATOM     93  F   UNL A   1      41.534  28.064  32.434  1.00  0.00    -0.203 F 
ATOM     94  C   UNL A   1      41.652  27.769  34.749  1.00  0.00     0.198 A 
ATOM     95  C   UNL A   1      42.552  29.499  36.140  1.00  0.00     0.198 A 
ATOM     96  F   UNL A   1      43.208  31.553  35.197  1.00  0.00    -0.203 F 
ATOM     97  F   UNL A   1      41.172  26.523  34.607  1.00  0.00    -0.200 F 
ATOM     98  C   UNL A   1      42.030  28.223  36.001  1.00  0.00     0.200 A 
ATOM     99  F   UNL A   1      42.972  29.922  37.340  1.00  0.00    -0.200 F 
ATOM    100  F   UNL A   1      41.922  27.420  37.069  1.00  0.00    -0.200 F 
ENDBRANCH  67  90
ENDBRANCH  41  42
ENDBRANCH  34  36
ENDBRANCH  33  34
ENDBRANCH  32  33
ENDBRANCH  31  32
ENDBRANCH   1  31
TORSDOF 18
ENDMDL
MODEL 3
REMARK VINA RESULT:     -12.2      1.285      4.007
REMARK SMILES COc1ccccc1[C@@H]1CN(C(=O)c2cnn3ccccc23)C[C@H]1C(=O)OCCOCCOC(=O)c1ccc(-c2c3nc(c(-c4c(F)c(F)c(F)c(F)c4F)c4ccc([nH]4)c(-c4c(F)c(F)c(F)c(F)c4F)c4nc(c(-c5c(F)c(F)c(F)c(F)c5F)c5ccc2[nH]5)C=C4)C=C3)cc1
REMARK SMILES IDX 30 1 29 2 28 3 27 4 25 5 26 6 24 7 9 8 10 9 11 10 23 11 8 12
REMARK SMILES IDX 3 13 4 14 5 15 7 16 6 17 2 18 1 19 12 20 13 21 14 22 15 23
REMARK SMILES IDX 22 24 16 25 17 26 21 27 18 28 20 29 19 30 31 31 32 32 33 33
REMARK SMILES IDX 34 34 35 35 36 36 37 37 98 38 38 39 97 40 39 41 40 42 41 43
REMARK SMILES IDX 91 44 42 45 96 46 90 47 92 48 43 49 95 50 89 51 88 52 44 54
REMARK SMILES IDX 76 55 56 56 75 57 57 58 60 59 74 60 93 61 58 62 59 63 73 65
REMARK SMILES IDX 94 66 61 67 45 68 46 69 54 70 47 71 48 72 52 73 55 74 49 75
REMARK SMILES IDX 50 76 53 77 51 78 77 79 78 80 86 81 79 82 80 83 84 84 87 85
REMARK SMILES IDX 81 86 82 87 85 88 83 89 62 90 63 91 71 92 64 93 65 94 69 95
REMARK SMILES IDX 72 96 66 97 67 98 70 99 68 100
REMARK H PARENT 92 53 60 64
REMARK Flexibility Score: inf
ROOT
ATOM      1  O   UNL A   1      39.338  21.088  26.336  1.00  0.00    -0.374 OA
ENDROOT
BRANCH   1   2
ATOM      2  C   UNL A   1      38.890  22.239  25.632  1.00  0.00     0.202 C 
BRANCH   2   3
ATOM      3  C   UNL A   1      37.410  22.351  25.250  1.00  0.00     0.261 C 
BRANCH   3   4
ATOM      4  O   UNL A   1      36.925  23.706  25.109  1.00  0.00    -0.463 OA
BRANCH   4   5
ATOM      5  C   UNL A   1      35.583  23.808  25.241  1.00  0.00     0.311 C 
ATOM      6  O   UNL A   1      35.021  24.244  26.245  1.00  0.00    -0.252 OA
BRANCH   5   7
ATOM      7  C   UNL A   1      34.746  23.352  24.074  1.00  0.00     0.128 C 
ATOM      8  C   UNL A   1      33.290  22.834  24.144  1.00  0.00     0.058 C 
ATOM      9  C   UNL A   1      32.683  23.356  22.836  1.00  0.00     0.129 C 
ATOM     10  N   UNL A   1      33.336  24.632  22.651  1.00  0.00    -0.337 N 
ATOM     11  C   UNL A   1      34.689  24.572  23.150  1.00  0.00     0.135 C 
BRANCH   8  12
ATOM     12  C   UNL A   1      33.024  21.339  24.273  1.00  0.00    -0.000 A 
ATOM     13  C   UNL A   1      33.309  20.551  25.404  1.00  0.00     0.122 A 
ATOM     14  C   UNL A   1      32.968  19.189  25.438  1.00  0.00     0.047 A 
ATOM     15  C   UNL A   1      32.419  18.565  24.316  1.00  0.00     0.004 A 
ATOM     16  C   UNL A   1      32.575  20.652  23.127  1.00  0.00     0.008 A 
ATOM     17  C   UNL A   1      32.270  19.288  23.142  1.00  0.00     0.001 A 
BRANCH  13  18
ATOM     18  O   UNL A   1      34.243  20.961  26.322  1.00  0.00    -0.496 OA
ATOM     19  C   UNL A   1      33.733  21.485  27.538  1.00  0.00     0.278 C 
ENDBRANCH  13  18
ENDBRANCH   8  12
BRANCH  10  20
ATOM     20  C   UNL A   1      32.920  25.725  21.916  1.00  0.00     0.257 C 
ATOM     21  O   UNL A   1      33.146  25.810  20.711  1.00  0.00    -0.269 OA
BRANCH  20  22
ATOM     22  C   UNL A   1      32.196  26.769  22.602  1.00  0.00     0.085 A 
ATOM     23  C   UNL A   1      30.881  27.188  22.324  1.00  0.00     0.150 A 
ATOM     24  C   UNL A   1      32.627  27.648  23.580  1.00  0.00     0.079 A 
ATOM     25  N   UNL A   1      30.465  28.177  23.115  1.00  0.00    -0.176 NA
ATOM     26  N   UNL A   1      31.534  28.459  23.901  1.00  0.00    -0.240 N 
ATOM     27  C   UNL A   1      33.853  27.879  24.278  1.00  0.00     0.029 A 
ATOM     28  C   UNL A   1      31.599  29.415  24.916  1.00  0.00     0.113 A 
ATOM     29  C   UNL A   1      33.896  28.791  25.267  1.00  0.00     0.004 A 
ATOM     30  C   UNL A   1      32.733  29.589  25.612  1.00  0.00     0.020 A 
ENDBRANCH  20  22
ENDBRANCH  10  20
ENDBRANCH   5   7
ENDBRANCH   4   5
ENDBRANCH   3   4
ENDBRANCH   2   3
ENDBRANCH   1   2
BRANCH   1  31
ATOM     31  C   UNL A   1      40.680  21.001  26.802  1.00  0.00     0.202 C 
BRANCH  31  32
ATOM     32  C   UNL A   1      41.647  20.092  26.056  1.00  0.00     0.261 C 
BRANCH  32  33
ATOM     33  O   UNL A   1      43.006  20.397  26.357  1.00  0.00    -0.460 OA
BRANCH  33  34
ATOM     34  C   UNL A   1      43.769  20.636  25.266  1.00  0.00     0.338 C 
ATOM     35  O   UNL A   1      44.203  19.816  24.480  1.00  0.00    -0.246 OA
BRANCH  34  36
ATOM     36  C   UNL A   1      44.132  22.059  25.216  1.00  0.00     0.060 A 
ATOM     37  C   UNL A   1      45.097  22.448  26.143  1.00  0.00     0.016 A 
ATOM     38  C   UNL A   1      43.285  22.984  24.597  1.00  0.00     0.016 A 
ATOM     39  C   UNL A   1      44.970  23.690  26.710  1.00  0.00     0.010 A 
ATOM     40  C   UNL A   1      43.141  24.222  25.176  1.00  0.00     0.010 A 
ATOM     41  C   UNL A   1      43.908  24.502  26.301  1.00  0.00    -0.014 A 
BRANCH  41  42
ATOM     42  C   UNL A   1      43.662  25.702  27.062  1.00  0.00     0.031 A 
ATOM     43  C   UNL A   1      44.674  26.745  26.809  1.00  0.00     0.074 A 
ATOM     44  C   UNL A   1      42.604  25.837  27.879  1.00  0.00     0.049 A 
ATOM     45  N   UNL A   1      45.589  27.148  27.623  1.00  0.00    -0.248 NA
ATOM     46  C   UNL A   1      44.817  27.240  25.433  1.00  0.00     0.031 C 
ATOM     47  C   UNL A   1      41.451  24.953  28.060  1.00  0.00     0.029 A 
ATOM     48  N   UNL A   1      42.313  26.890  28.688  1.00  0.00    -0.354 N 
ATOM     49  C   UNL A   1      46.318  28.093  26.917  1.00  0.00     0.074 A 
ATOM     50  C   UNL A   1      45.927  27.970  25.537  1.00  0.00     0.031 C 
ATOM     51  C   UNL A   1      40.486  25.616  28.739  1.00  0.00     0.029 A 
ATOM     52  C   UNL A   1      41.000  26.913  29.142  1.00  0.00     0.049 A 
ATOM     53  H   UNL A   1      42.974  27.578  28.931  1.00  0.00     0.167 HD
ATOM     54  C   UNL A   1      46.998  29.075  27.566  1.00  0.00     0.037 A 
ATOM     55  C   UNL A   1      40.395  27.990  29.705  1.00  0.00     0.037 A 
ATOM     56  C   UNL A   1      47.189  28.754  28.957  1.00  0.00     0.049 A 
ATOM     57  C   UNL A   1      41.478  28.871  30.234  1.00  0.00     0.074 A 
ATOM     58  C   UNL A   1      47.846  27.741  29.627  1.00  0.00     0.029 A 
ATOM     59  N   UNL A   1      46.325  29.309  29.870  1.00  0.00    -0.354 N 
ATOM     60  N   UNL A   1      42.239  28.529  31.241  1.00  0.00    -0.248 NA
ATOM     61  C   UNL A   1      42.052  29.861  29.331  1.00  0.00     0.031 C 
ATOM     62  C   UNL A   1      47.004  27.423  30.734  1.00  0.00     0.029 A 
ATOM     63  C   UNL A   1      45.924  28.306  30.716  1.00  0.00     0.049 A 
ATOM     64  H   UNL A   1      46.044  30.252  29.910  1.00  0.00     0.167 HD
ATOM     65  C   UNL A   1      43.518  28.918  30.869  1.00  0.00     0.074 A 
ATOM     66  C   UNL A   1      43.333  29.788  29.709  1.00  0.00     0.031 C 
ATOM     67  C   UNL A   1      44.622  28.262  31.335  1.00  0.00     0.037 A 
BRANCH  54  68
ATOM     68  C   UNL A   1      47.134  30.473  27.034  1.00  0.00     0.064 A 
ATOM     69  C   UNL A   1      48.402  31.082  27.033  1.00  0.00     0.173 A 
ATOM     70  C   UNL A   1      46.036  31.333  26.818  1.00  0.00     0.173 A 
ATOM     71  F   UNL A   1      49.508  30.355  27.250  1.00  0.00    -0.203 F 
ATOM     72  C   UNL A   1      48.548  32.465  26.905  1.00  0.00     0.198 A 
ATOM     73  C   UNL A   1      46.191  32.703  26.633  1.00  0.00     0.198 A 
ATOM     74  F   UNL A   1      44.768  30.911  26.898  1.00  0.00    -0.203 F 
ATOM     75  F   UNL A   1      49.759  33.019  27.041  1.00  0.00    -0.200 F 
ATOM     76  C   UNL A   1      47.442  33.274  26.712  1.00  0.00     0.200 A 
ATOM     77  F   UNL A   1      45.103  33.470  26.468  1.00  0.00    -0.200 F 
ATOM     78  F   UNL A   1      47.573  34.605  26.655  1.00  0.00    -0.200 F 
ENDBRANCH  54  68
BRANCH  55  79
ATOM     79  C   UNL A   1      39.005  28.454  29.469  1.00  0.00     0.064 A 
ATOM     80  C   UNL A   1      38.116  28.689  30.529  1.00  0.00     0.173 A 
ATOM     81  C   UNL A   1      38.597  28.920  28.201  1.00  0.00     0.173 A 
ATOM     82  F   UNL A   1      38.447  28.332  31.779  1.00  0.00    -0.203 F 
ATOM     83  C   UNL A   1      36.897  29.353  30.334  1.00  0.00     0.198 A 
ATOM     84  C   UNL A   1      37.380  29.574  28.006  1.00  0.00     0.198 A 
ATOM     85  F   UNL A   1      39.409  28.834  27.138  1.00  0.00    -0.203 F 
ATOM     86  F   UNL A   1      36.096  29.605  31.379  1.00  0.00    -0.200 F 
ATOM     87  C   UNL A   1      36.534  29.801  29.074  1.00  0.00     0.200 A 
ATOM     88  F   UNL A   1      37.065  30.037  26.787  1.00  0.00    -0.200 F 
ATOM     89  F   UNL A   1      35.394  30.483  28.894  1.00  0.00    -0.200 F 
ENDBRANCH  55  79
BRANCH  67  90
ATOM     90  C   UNL A   1      44.423  27.238  32.417  1.00  0.00     0.064 A 
ATOM     91  C   UNL A   1      44.228  25.867  32.166  1.00  0.00     0.173 A 
ATOM     92  C   UNL A   1      44.597  27.628  33.751  1.00  0.00     0.173 A 
ATOM     93  F   UNL A   1      44.169  25.399  30.914  1.00  0.00    -0.203 F 
ATOM     94  C   UNL A   1      44.158  24.942  33.206  1.00  0.00     0.198 A 
ATOM     95  C   UNL A   1      44.565  26.697  34.786  1.00  0.00     0.198 A 
ATOM     96  F   UNL A   1      44.853  28.912  34.045  1.00  0.00    -0.203 F 
ATOM     97  F   UNL A   1      43.961  23.642  32.938  1.00  0.00    -0.200 F 
ATOM     98  C   UNL A   1      44.332  25.358  34.515  1.00  0.00     0.200 A 
ATOM     99  F   UNL A   1      44.789  27.095  36.045  1.00  0.00    -0.200 F 
ATOM    100  F   UNL A   1      44.308  24.464  35.514  1.00  0.00    -0.200 F 
ENDBRANCH  67  90
ENDBRANCH  41  42
ENDBRANCH  34  36
ENDBRANCH  33  34
ENDBRANCH  32  33
ENDBRANCH  31  32
ENDBRANCH   1  31
TORSDOF 18
ENDMDL
