MODEL 1
REMARK VINA RESULT:     -13.6      0.000      0.000
REMARK SMILES Cc1ccc(-c2nc(NC(=O)[C@H]3[C@@H](C(=O)OCCOCCOC(=O)c4ccc(-c5c6nc(c(-c7c(F)c(F)c(F)c(F)c7F)c7ccc([nH]7)c(-c7c(F)c(F)c(F)c(F)c7F)c7nc(c(-c8c(F)c(F)c(F)c(F)c8F)c8ccc5[nH]8)C=C7)C=C6)cc4)[C@@H]4CC[C@H]3O4)sc2C)cc1
REMARK SMILES IDX 18 1 17 2 16 3 14 4 15 5 13 6 12 7 91 8 88 9 90 10 92 11
REMARK SMILES IDX 89 12 10 13 9 14 11 16 8 17 6 18 7 19 94 20 93 21 95 22 5 23
REMARK SMILES IDX 1 24 2 25 3 26 97 27 4 28 96 29 19 30 20 31 21 32 22 33
REMARK SMILES IDX 23 34 24 35 25 36 26 37 87 38 27 39 86 40 28 41 29 42 30 43
REMARK SMILES IDX 80 44 31 45 85 46 79 47 81 48 32 49 84 50 78 51 77 52 33 54
REMARK SMILES IDX 65 55 45 56 64 57 46 58 49 59 63 60 82 61 47 62 48 63 62 65
REMARK SMILES IDX 83 66 50 67 34 68 35 69 43 70 36 71 37 72 41 73 44 74 38 75
REMARK SMILES IDX 39 76 42 77 40 78 66 79 67 80 75 81 68 82 69 83 73 84 76 85
REMARK SMILES IDX 70 86 71 87 74 88 72 89 51 90 52 91 60 92 53 93 54 94 58 95
REMARK SMILES IDX 61 96 55 97 56 98 59 99 57 100
REMARK H PARENT 9 15 81 53 49 64
REMARK Flexibility Score: inf
ROOT
ATOM      1  C   UNL A   1      34.257  26.674  24.932  1.00  0.00     0.202 C 
ENDROOT
BRANCH   1   2
ATOM      2  C   UNL A   1      33.855  26.086  23.549  1.00  0.00     0.261 C 
BRANCH   2   3
ATOM      3  O   UNL A   1      33.438  24.704  23.135  1.00  0.00    -0.463 OA
BRANCH   3   4
ATOM      4  C   UNL A   1      33.554  23.374  22.991  1.00  0.00     0.312 C 
ATOM      5  O   UNL A   1      32.865  22.743  22.187  1.00  0.00    -0.252 OA
BRANCH   4   6
ATOM      6  C   UNL A   1      34.439  22.600  23.873  1.00  0.00     0.143 C 
ATOM      7  C   UNL A   1      33.864  21.289  24.231  1.00  0.00     0.124 C 
ATOM      8  C   UNL A   1      34.779  20.921  25.398  1.00  0.00     0.132 C 
ATOM      9  C   UNL A   1      34.865  23.093  25.289  1.00  0.00     0.133 C 
ATOM     10  C   UNL A   1      36.291  21.235  25.239  1.00  0.00     0.035 C 
ATOM     11  O   UNL A   1      34.376  22.055  26.211  1.00  0.00    -0.373 OA
ATOM     12  C   UNL A   1      36.328  22.752  25.525  1.00  0.00     0.036 C 
BRANCH   7  13
ATOM     13  C   UNL A   1      32.426  21.269  24.819  1.00  0.00     0.232 C 
ATOM     14  N   UNL A   1      31.518  22.243  25.106  1.00  0.00    -0.302 N 
ATOM     15  H   UNL A   1      30.661  21.788  25.279  1.00  0.00     0.172 HD
ATOM     16  O   UNL A   1      31.963  20.108  24.882  1.00  0.00    -0.274 OA
BRANCH  14  17
ATOM     17  C   UNL A   1      31.285  23.595  25.259  1.00  0.00     0.190 A 
ATOM     18  C   UNL A   1      30.244  25.547  24.822  1.00  0.00     0.086 A 
ATOM     19  N   UNL A   1      30.359  24.187  24.526  1.00  0.00    -0.220 NA
ATOM     20  C   UNL A   1      30.891  25.902  25.985  1.00  0.00     0.031 A 
ATOM     21  S   UNL A   1      31.808  24.533  26.578  1.00  0.00    -0.101 S 
ATOM     22  C   UNL A   1      30.949  27.227  26.651  1.00  0.00     0.059 C 
BRANCH  18  23
ATOM     23  C   UNL A   1      29.721  26.486  23.791  1.00  0.00     0.001 A 
ATOM     24  C   UNL A   1      28.097  30.501  21.209  1.00  0.00     0.044 C 
ATOM     25  C   UNL A   1      28.603  29.689  22.392  1.00  0.00    -0.051 A 
ATOM     26  C   UNL A   1      30.336  29.208  22.306  1.00  0.00     0.004 A 
ATOM     27  C   UNL A   1      27.405  28.621  23.220  1.00  0.00     0.004 A 
ATOM     28  C   UNL A   1      30.898  27.638  23.059  1.00  0.00     0.010 A 
ATOM     29  C   UNL A   1      27.948  26.943  23.777  1.00  0.00     0.010 A 
ENDBRANCH  18  23
ENDBRANCH  14  17
ENDBRANCH   7  13
ENDBRANCH   4   6
ENDBRANCH   3   4
ENDBRANCH   2   3
ENDBRANCH   1   2
BRANCH   1  30
ATOM     30  O   UNL A   1      33.982  28.074  25.030  1.00  0.00    -0.374 OA
BRANCH  30  31
ATOM     31  C   UNL A   1      34.302  28.793  26.227  1.00  0.00     0.202 C 
BRANCH  31  32
ATOM     32  C   UNL A   1      33.467  30.025  26.591  1.00  0.00     0.261 C 
BRANCH  32  33
ATOM     33  O   UNL A   1      33.776  30.522  27.910  1.00  0.00    -0.460 OA
BRANCH  33  34
ATOM     34  C   UNL A   1      34.311  31.776  27.975  1.00  0.00     0.338 C 
ATOM     35  O   UNL A   1      33.961  32.717  27.285  1.00  0.00    -0.246 OA
BRANCH  34  36
ATOM     36  C   UNL A   1      35.542  31.752  28.827  1.00  0.00     0.060 A 
ATOM     37  C   UNL A   1      36.589  32.680  28.702  1.00  0.00     0.016 A 
ATOM     38  C   UNL A   1      35.804  30.559  29.448  1.00  0.00     0.016 A 
ATOM     39  C   UNL A   1      37.912  32.331  29.105  1.00  0.00     0.010 A 
ATOM     40  C   UNL A   1      37.106  30.135  29.388  1.00  0.00     0.010 A 
ATOM     41  C   UNL A   1      38.225  30.985  29.382  1.00  0.00    -0.014 A 
BRANCH  41  42
ATOM     42  C   UNL A   1      39.761  30.251  29.498  1.00  0.00     0.031 A 
ATOM     43  C   UNL A   1      40.682  28.732  28.267  1.00  0.00     0.074 A 
ATOM     44  C   UNL A   1      40.252  31.147  30.571  1.00  0.00     0.049 A 
ATOM     45  N   UNL A   1      41.516  27.683  28.636  1.00  0.00    -0.248 NA
ATOM     46  C   UNL A   1      40.760  28.377  26.633  1.00  0.00     0.031 C 
ATOM     47  C   UNL A   1      41.637  31.673  30.850  1.00  0.00     0.029 A 
ATOM     48  N   UNL A   1      39.664  31.472  31.826  1.00  0.00    -0.354 N 
ATOM     49  C   UNL A   1      42.428  27.308  27.714  1.00  0.00     0.074 A 
ATOM     50  C   UNL A   1      41.850  27.631  26.453  1.00  0.00     0.031 C 
ATOM     51  C   UNL A   1      41.887  31.813  32.138  1.00  0.00     0.029 A 
ATOM     52  C   UNL A   1      40.655  31.583  32.800  1.00  0.00     0.049 A 
ATOM     53  H   UNL A   1      38.700  31.600  31.982  1.00  0.00     0.167 HD
ATOM     54  C   UNL A   1      43.653  26.857  28.115  1.00  0.00     0.037 A 
ATOM     55  C   UNL A   1      40.674  31.330  34.115  1.00  0.00     0.037 A 
ATOM     56  C   UNL A   1      44.063  27.309  29.476  1.00  0.00     0.049 A 
ATOM     57  C   UNL A   1      41.697  30.257  34.365  1.00  0.00     0.074 A 
ATOM     58  C   UNL A   1      44.981  28.273  29.882  1.00  0.00     0.029 A 
ATOM     59  N   UNL A   1      43.375  26.959  30.651  1.00  0.00    -0.354 N 
ATOM     60  N   UNL A   1      42.110  29.465  33.392  1.00  0.00    -0.248 NA
ATOM     61  C   UNL A   1      42.345  29.972  35.635  1.00  0.00     0.031 C 
ATOM     62  C   UNL A   1      44.810  28.528  31.273  1.00  0.00     0.029 A 
ATOM     63  C   UNL A   1      43.819  27.691  31.767  1.00  0.00     0.049 A 
ATOM     64  H   UNL A   1      42.663  26.281  30.687  1.00  0.00     0.167 HD
ATOM     65  C   UNL A   1      42.982  28.541  33.894  1.00  0.00     0.074 A 
ATOM     66  C   UNL A   1      43.110  28.918  35.297  1.00  0.00     0.031 C 
ATOM     67  C   UNL A   1      43.388  27.451  33.166  1.00  0.00     0.037 A 
BRANCH  54  68
ATOM     68  C   UNL A   1      44.572  26.224  27.097  1.00  0.00     0.064 A 
ATOM     69  C   UNL A   1      45.252  26.960  26.112  1.00  0.00     0.173 A 
ATOM     70  C   UNL A   1      44.884  24.844  27.130  1.00  0.00     0.173 A 
ATOM     71  F   UNL A   1      45.136  28.291  26.027  1.00  0.00    -0.203 F 
ATOM     72  C   UNL A   1      46.105  26.346  25.187  1.00  0.00     0.198 A 
ATOM     73  C   UNL A   1      45.663  24.221  26.159  1.00  0.00     0.198 A 
ATOM     74  F   UNL A   1      44.478  24.061  28.140  1.00  0.00    -0.203 F 
ATOM     75  F   UNL A   1      46.767  27.096  24.294  1.00  0.00    -0.200 F 
ATOM     76  C   UNL A   1      46.281  24.974  25.187  1.00  0.00     0.200 A 
ATOM     77  F   UNL A   1      45.824  22.890  26.190  1.00  0.00    -0.200 F 
ATOM     78  F   UNL A   1      47.073  24.386  24.281  1.00  0.00    -0.200 F 
ENDBRANCH  54  68
BRANCH  55  79
ATOM     79  C   UNL A   1      39.656  32.105  34.843  1.00  0.00     0.064 A 
ATOM     80  C   UNL A   1      39.931  33.486  35.008  1.00  0.00     0.173 A 
ATOM     81  C   UNL A   1      38.317  31.739  34.657  1.00  0.00     0.173 A 
ATOM     82  F   UNL A   1      41.199  33.905  35.150  1.00  0.00    -0.203 F 
ATOM     83  C   UNL A   1      38.941  34.452  34.811  1.00  0.00     0.198 A 
ATOM     84  C   UNL A   1      37.337  32.710  34.430  1.00  0.00     0.198 A 
ATOM     85  F   UNL A   1      38.008  30.454  34.439  1.00  0.00    -0.203 F 
ATOM     86  F   UNL A   1      39.268  35.753  34.782  1.00  0.00    -0.200 F 
ATOM     87  C   UNL A   1      37.656  34.060  34.470  1.00  0.00     0.200 A 
ATOM     88  F   UNL A   1      36.119  32.329  34.021  1.00  0.00    -0.200 F 
ATOM     89  F   UNL A   1      36.757  34.977  34.087  1.00  0.00    -0.200 F 
ENDBRANCH  55  79
BRANCH  67  90
ATOM     90  C   UNL A   1      43.556  26.098  33.826  1.00  0.00     0.064 A 
ATOM     91  C   UNL A   1      42.552  25.484  34.608  1.00  0.00     0.173 A 
ATOM     92  C   UNL A   1      44.679  25.286  33.561  1.00  0.00     0.173 A 
ATOM     93  F   UNL A   1      41.361  26.060  34.819  1.00  0.00    -0.203 F 
ATOM     94  C   UNL A   1      42.705  24.213  35.163  1.00  0.00     0.198 A 
ATOM     95  C   UNL A   1      44.793  23.985  34.051  1.00  0.00     0.198 A 
ATOM     96  F   UNL A   1      45.689  25.707  32.789  1.00  0.00    -0.203 F 
ATOM     97  F   UNL A   1      41.742  23.716  35.951  1.00  0.00    -0.200 F 
ATOM     98  C   UNL A   1      43.820  23.458  34.874  1.00  0.00     0.200 A 
ATOM     99  F   UNL A   1      45.848  23.236  33.698  1.00  0.00    -0.200 F 
ATOM    100  F   UNL A   1      43.945  22.219  35.365  1.00  0.00    -0.200 F 
ENDBRANCH  67  90
ENDBRANCH  41  42
ENDBRANCH  34  36
ENDBRANCH  33  34
ENDBRANCH  32  33
ENDBRANCH  31  32
ENDBRANCH  30  31
ENDBRANCH   1  30
TORSDOF 17
ENDMDL
MODEL 2
REMARK VINA RESULT:     -13.3      1.464      2.067
REMARK SMILES Cc1ccc(-c2nc(NC(=O)[C@H]3[C@@H](C(=O)OCCOCCOC(=O)c4ccc(-c5c6nc(c(-c7c(F)c(F)c(F)c(F)c7F)c7ccc([nH]7)c(-c7c(F)c(F)c(F)c(F)c7F)c7nc(c(-c8c(F)c(F)c(F)c(F)c8F)c8ccc5[nH]8)C=C7)C=C6)cc4)[C@@H]4CC[C@H]3O4)sc2C)cc1
REMARK SMILES IDX 18 1 17 2 16 3 14 4 15 5 13 6 12 7 91 8 88 9 90 10 92 11
REMARK SMILES IDX 89 12 10 13 9 14 11 16 8 17 6 18 7 19 94 20 93 21 95 22 5 23
REMARK SMILES IDX 1 24 2 25 3 26 97 27 4 28 96 29 19 30 20 31 21 32 22 33
REMARK SMILES IDX 23 34 24 35 25 36 26 37 87 38 27 39 86 40 28 41 29 42 30 43
REMARK SMILES IDX 80 44 31 45 85 46 79 47 81 48 32 49 84 50 78 51 77 52 33 54
REMARK SMILES IDX 65 55 45 56 64 57 46 58 49 59 63 60 82 61 47 62 48 63 62 65
REMARK SMILES IDX 83 66 50 67 34 68 35 69 43 70 36 71 37 72 41 73 44 74 38 75
REMARK SMILES IDX 39 76 42 77 40 78 66 79 67 80 75 81 68 82 69 83 73 84 76 85
REMARK SMILES IDX 70 86 71 87 74 88 72 89 51 90 52 91 60 92 53 93 54 94 58 95
REMARK SMILES IDX 61 96 55 97 56 98 59 99 57 100
REMARK H PARENT 9 15 81 53 49 64
REMARK Flexibility Score: inf
ROOT
ATOM      1  C   UNL A   1      33.411  28.242  25.410  1.00  0.00     0.202 C 
ENDROOT
BRANCH   1   2
ATOM      2  C   UNL A   1      33.892  26.763  25.402  1.00  0.00     0.261 C 
BRANCH   2   3
ATOM      3  O   UNL A   1      34.060  25.774  24.284  1.00  0.00    -0.463 OA
BRANCH   3   4
ATOM      4  C   UNL A   1      34.522  24.670  23.676  1.00  0.00     0.312 C 
ATOM      5  O   UNL A   1      34.051  24.267  22.611  1.00  0.00    -0.252 OA
BRANCH   4   6
ATOM      6  C   UNL A   1      35.545  23.833  24.320  1.00  0.00     0.143 C 
ATOM      7  C   UNL A   1      35.361  22.399  24.024  1.00  0.00     0.124 C 
ATOM      8  C   UNL A   1      36.277  21.800  25.091  1.00  0.00     0.132 C 
ATOM      9  C   UNL A   1      35.726  23.758  25.867  1.00  0.00     0.133 C 
ATOM     10  C   UNL A   1      37.636  22.509  25.337  1.00  0.00     0.035 C 
ATOM     11  O   UNL A   1      35.513  22.341  26.202  1.00  0.00    -0.373 OA
ATOM     12  C   UNL A   1      37.209  23.716  26.201  1.00  0.00     0.036 C 
BRANCH   7  13
ATOM     13  C   UNL A   1      33.962  21.781  24.294  1.00  0.00     0.232 C 
ATOM     14  N   UNL A   1      32.739  22.314  24.565  1.00  0.00    -0.302 N 
ATOM     15  H   UNL A   1      32.085  21.582  24.474  1.00  0.00     0.172 HD
ATOM     16  O   UNL A   1      33.937  20.554  24.047  1.00  0.00    -0.274 OA
BRANCH  14  17
ATOM     17  C   UNL A   1      32.023  23.442  24.914  1.00  0.00     0.190 A 
ATOM     18  C   UNL A   1      30.487  25.062  24.595  1.00  0.00     0.086 A 
ATOM     19  N   UNL A   1      31.129  23.936  24.076  1.00  0.00    -0.220 NA
ATOM     20  C   UNL A   1      30.706  25.233  25.945  1.00  0.00     0.031 A 
ATOM     21  S   UNL A   1      31.891  24.067  26.491  1.00  0.00    -0.101 S 
ATOM     22  C   UNL A   1      30.154  26.269  26.852  1.00  0.00     0.059 C 
BRANCH  18  23
ATOM     23  C   UNL A   1      29.905  26.073  23.669  1.00  0.00     0.001 A 
ATOM     24  C   UNL A   1      28.156  30.267  21.484  1.00  0.00     0.044 C 
ATOM     25  C   UNL A   1      28.735  29.373  22.570  1.00  0.00    -0.051 A 
ATOM     26  C   UNL A   1      30.450  28.882  22.326  1.00  0.00     0.004 A 
ATOM     27  C   UNL A   1      27.585  28.263  23.411  1.00  0.00     0.004 A 
ATOM     28  C   UNL A   1      31.042  27.260  22.930  1.00  0.00     0.010 A 
ATOM     29  C   UNL A   1      28.143  26.547  23.815  1.00  0.00     0.010 A 
ENDBRANCH  18  23
ENDBRANCH  14  17
ENDBRANCH   7  13
ENDBRANCH   4   6
ENDBRANCH   3   4
ENDBRANCH   2   3
ENDBRANCH   1   2
BRANCH   1  30
ATOM     30  O   UNL A   1      32.373  28.472  26.366  1.00  0.00    -0.374 OA
BRANCH  30  31
ATOM     31  C   UNL A   1      32.068  29.803  26.799  1.00  0.00     0.202 C 
BRANCH  31  32
ATOM     32  C   UNL A   1      33.146  30.884  26.669  1.00  0.00     0.261 C 
BRANCH  32  33
ATOM     33  O   UNL A   1      33.655  31.303  27.952  1.00  0.00    -0.460 OA
BRANCH  33  34
ATOM     34  C   UNL A   1      34.984  31.612  28.006  1.00  0.00     0.338 C 
ATOM     35  O   UNL A   1      35.466  32.671  27.646  1.00  0.00    -0.246 OA
BRANCH  34  36
ATOM     36  C   UNL A   1      35.772  30.380  28.328  1.00  0.00     0.060 A 
ATOM     37  C   UNL A   1      36.183  30.041  29.628  1.00  0.00     0.016 A 
ATOM     38  C   UNL A   1      36.432  29.812  27.270  1.00  0.00     0.016 A 
ATOM     39  C   UNL A   1      37.334  29.221  29.828  1.00  0.00     0.010 A 
ATOM     40  C   UNL A   1      37.728  29.437  27.515  1.00  0.00     0.010 A 
ATOM     41  C   UNL A   1      38.205  28.968  28.750  1.00  0.00    -0.014 A 
BRANCH  41  42
ATOM     42  C   UNL A   1      39.804  28.372  28.791  1.00  0.00     0.031 A 
ATOM     43  C   UNL A   1      40.669  26.618  27.872  1.00  0.00     0.074 A 
ATOM     44  C   UNL A   1      40.364  29.556  29.486  1.00  0.00     0.049 A 
ATOM     45  N   UNL A   1      41.645  25.757  28.358  1.00  0.00    -0.248 NA
ATOM     46  C   UNL A   1      40.532  25.826  26.404  1.00  0.00     0.031 C 
ATOM     47  C   UNL A   1      41.719  30.208  29.372  1.00  0.00     0.029 A 
ATOM     48  N   UNL A   1      39.944  30.188  30.690  1.00  0.00    -0.354 N 
ATOM     49  C   UNL A   1      42.439  25.186  27.427  1.00  0.00     0.074 A 
ATOM     50  C   UNL A   1      41.649  25.116  26.244  1.00  0.00     0.031 C 
ATOM     51  C   UNL A   1      42.147  30.714  30.513  1.00  0.00     0.029 A 
ATOM     52  C   UNL A   1      41.057  30.616  31.413  1.00  0.00     0.049 A 
ATOM     53  H   UNL A   1      39.008  30.307  30.970  1.00  0.00     0.167 HD
ATOM     54  C   UNL A   1      43.748  24.927  27.716  1.00  0.00     0.037 A 
ATOM     55  C   UNL A   1      41.299  30.741  32.725  1.00  0.00     0.037 A 
ATOM     56  C   UNL A   1      44.314  25.761  28.816  1.00  0.00     0.049 A 
ATOM     57  C   UNL A   1      42.446  29.833  33.073  1.00  0.00     0.074 A 
ATOM     58  C   UNL A   1      45.186  26.845  28.787  1.00  0.00     0.029 A 
ATOM     59  N   UNL A   1      43.848  25.719  30.142  1.00  0.00    -0.354 N 
ATOM     60  N   UNL A   1      42.781  28.823  32.290  1.00  0.00    -0.248 NA
ATOM     61  C   UNL A   1      43.303  29.947  34.242  1.00  0.00     0.031 C 
ATOM     62  C   UNL A   1      45.205  27.469  30.067  1.00  0.00     0.029 A 
ATOM     63  C   UNL A   1      44.385  26.754  30.929  1.00  0.00     0.049 A 
ATOM     64  H   UNL A   1      43.218  25.043  30.480  1.00  0.00     0.167 HD
ATOM     65  C   UNL A   1      43.803  28.120  32.863  1.00  0.00     0.074 A 
ATOM     66  C   UNL A   1      44.105  28.880  34.071  1.00  0.00     0.031 C 
ATOM     67  C   UNL A   1      44.196  26.893  32.393  1.00  0.00     0.037 A 
BRANCH  54  68
ATOM     68  C   UNL A   1      44.558  24.082  26.762  1.00  0.00     0.064 A 
ATOM     69  C   UNL A   1      44.380  22.696  26.621  1.00  0.00     0.173 A 
ATOM     70  C   UNL A   1      45.495  24.656  25.870  1.00  0.00     0.173 A 
ATOM     71  F   UNL A   1      43.454  22.034  27.326  1.00  0.00    -0.203 F 
ATOM     72  C   UNL A   1      45.142  21.940  25.721  1.00  0.00     0.198 A 
ATOM     73  C   UNL A   1      46.311  23.894  25.038  1.00  0.00     0.198 A 
ATOM     74  F   UNL A   1      45.616  25.986  25.744  1.00  0.00    -0.203 F 
ATOM     75  F   UNL A   1      44.905  20.627  25.591  1.00  0.00    -0.200 F 
ATOM     76  C   UNL A   1      46.131  22.533  24.958  1.00  0.00     0.200 A 
ATOM     77  F   UNL A   1      47.256  24.497  24.302  1.00  0.00    -0.200 F 
ATOM     78  F   UNL A   1      46.879  21.801  24.121  1.00  0.00    -0.200 F 
ENDBRANCH  54  68
BRANCH  55  79
ATOM     79  C   UNL A   1      40.334  31.637  33.383  1.00  0.00     0.064 A 
ATOM     80  C   UNL A   1      40.383  32.997  32.987  1.00  0.00     0.173 A 
ATOM     81  C   UNL A   1      39.074  31.107  33.692  1.00  0.00     0.173 A 
ATOM     82  F   UNL A   1      41.555  33.554  32.640  1.00  0.00    -0.203 F 
ATOM     83  C   UNL A   1      39.214  33.722  32.738  1.00  0.00     0.198 A 
ATOM     84  C   UNL A   1      37.909  31.827  33.412  1.00  0.00     0.198 A 
ATOM     85  F   UNL A   1      38.965  29.812  34.017  1.00  0.00    -0.203 F 
ATOM     86  F   UNL A   1      39.286  34.941  32.181  1.00  0.00    -0.200 F 
ATOM     87  C   UNL A   1      37.979  33.116  32.902  1.00  0.00     0.200 A 
ATOM     88  F   UNL A   1      36.722  31.211  33.493  1.00  0.00    -0.200 F 
ATOM     89  F   UNL A   1      36.869  33.735  32.478  1.00  0.00    -0.200 F 
ENDBRANCH  55  79
BRANCH  67  90
ATOM     90  C   UNL A   1      44.590  25.788  33.352  1.00  0.00     0.064 A 
ATOM     91  C   UNL A   1      43.682  25.166  34.239  1.00  0.00     0.173 A 
ATOM     92  C   UNL A   1      45.868  25.192  33.300  1.00  0.00     0.173 A 
ATOM     93  F   UNL A   1      42.389  25.511  34.292  1.00  0.00    -0.203 F 
ATOM     94  C   UNL A   1      44.052  24.113  35.075  1.00  0.00     0.198 A 
ATOM     95  C   UNL A   1      46.210  24.087  34.080  1.00  0.00     0.198 A 
ATOM     96  F   UNL A   1      46.820  25.633  32.468  1.00  0.00    -0.203 F 
ATOM     97  F   UNL A   1      43.160  23.613  35.942  1.00  0.00    -0.200 F 
ATOM     98  C   UNL A   1      45.312  23.565  34.987  1.00  0.00     0.200 A 
ATOM     99  F   UNL A   1      47.414  23.518  33.927  1.00  0.00    -0.200 F 
ATOM    100  F   UNL A   1      45.652  22.521  35.754  1.00  0.00    -0.200 F 
ENDBRANCH  67  90
ENDBRANCH  41  42
ENDBRANCH  34  36
ENDBRANCH  33  34
ENDBRANCH  32  33
ENDBRANCH  31  32
ENDBRANCH  30  31
ENDBRANCH   1  30
TORSDOF 17
ENDMDL
MODEL 3
REMARK VINA RESULT:     -13.0      1.533      2.375
REMARK SMILES Cc1ccc(-c2nc(NC(=O)[C@H]3[C@@H](C(=O)OCCOCCOC(=O)c4ccc(-c5c6nc(c(-c7c(F)c(F)c(F)c(F)c7F)c7ccc([nH]7)c(-c7c(F)c(F)c(F)c(F)c7F)c7nc(c(-c8c(F)c(F)c(F)c(F)c8F)c8ccc5[nH]8)C=C7)C=C6)cc4)[C@@H]4CC[C@H]3O4)sc2C)cc1
REMARK SMILES IDX 18 1 17 2 16 3 14 4 15 5 13 6 12 7 91 8 88 9 90 10 92 11
REMARK SMILES IDX 89 12 10 13 9 14 11 16 8 17 6 18 7 19 94 20 93 21 95 22 5 23
REMARK SMILES IDX 1 24 2 25 3 26 97 27 4 28 96 29 19 30 20 31 21 32 22 33
REMARK SMILES IDX 23 34 24 35 25 36 26 37 87 38 27 39 86 40 28 41 29 42 30 43
REMARK SMILES IDX 80 44 31 45 85 46 79 47 81 48 32 49 84 50 78 51 77 52 33 54
REMARK SMILES IDX 65 55 45 56 64 57 46 58 49 59 63 60 82 61 47 62 48 63 62 65
REMARK SMILES IDX 83 66 50 67 34 68 35 69 43 70 36 71 37 72 41 73 44 74 38 75
REMARK SMILES IDX 39 76 42 77 40 78 66 79 67 80 75 81 68 82 69 83 73 84 76 85
REMARK SMILES IDX 70 86 71 87 74 88 72 89 51 90 52 91 60 92 53 93 54 94 58 95
REMARK SMILES IDX 61 96 55 97 56 98 59 99 57 100
REMARK H PARENT 9 15 81 53 49 64
REMARK Flexibility Score: inf
ROOT
ATOM      1  C   UNL A   1      31.795  28.316  27.644  1.00  0.00     0.202 C 
ENDROOT
BRANCH   1   2
ATOM      2  C   UNL A   1      31.466  27.169  26.647  1.00  0.00     0.261 C 
BRANCH   2   3
ATOM      3  O   UNL A   1      32.350  26.286  25.813  1.00  0.00    -0.463 OA
BRANCH   3   4
ATOM      4  C   UNL A   1      33.508  25.786  25.353  1.00  0.00     0.312 C 
ATOM      5  O   UNL A   1      34.270  26.449  24.646  1.00  0.00    -0.252 OA
BRANCH   4   6
ATOM      6  C   UNL A   1      33.862  24.379  25.588  1.00  0.00     0.143 C 
ATOM      7  C   UNL A   1      34.539  23.771  24.427  1.00  0.00     0.124 C 
ATOM      8  C   UNL A   1      34.423  22.296  24.808  1.00  0.00     0.132 C 
ATOM      9  C   UNL A   1      32.799  23.275  25.877  1.00  0.00     0.133 C 
ATOM     10  C   UNL A   1      34.669  21.928  26.297  1.00  0.00     0.035 C 
ATOM     11  O   UNL A   1      32.970  22.295  24.792  1.00  0.00    -0.373 OA
ATOM     12  C   UNL A   1      33.326  22.331  26.946  1.00  0.00     0.036 C 
BRANCH   7  13
ATOM     13  C   UNL A   1      33.842  23.890  23.043  1.00  0.00     0.232 C 
ATOM     14  N   UNL A   1      32.782  24.613  22.587  1.00  0.00    -0.302 N 
ATOM     15  H   UNL A   1      32.796  24.544  21.604  1.00  0.00     0.172 HD
ATOM     16  O   UNL A   1      34.500  23.327  22.139  1.00  0.00    -0.274 OA
BRANCH  14  17
ATOM     17  C   UNL A   1      31.697  25.401  22.913  1.00  0.00     0.190 A 
ATOM     18  C   UNL A   1      30.409  27.248  22.795  1.00  0.00     0.086 A 
ATOM     19  N   UNL A   1      31.570  26.599  22.370  1.00  0.00    -0.220 NA
ATOM     20  C   UNL A   1      29.525  26.408  23.437  1.00  0.00     0.031 A 
ATOM     21  S   UNL A   1      30.277  24.844  23.668  1.00  0.00    -0.101 S 
ATOM     22  C   UNL A   1      28.177  26.713  23.976  1.00  0.00     0.059 C 
BRANCH  18  23
ATOM     23  C   UNL A   1      30.349  28.736  22.784  1.00  0.00     0.001 A 
ATOM     24  C   UNL A   1      29.154  33.587  23.470  1.00  0.00     0.044 C 
ATOM     25  C   UNL A   1      29.035  32.073  23.563  1.00  0.00    -0.051 A 
ATOM     26  C   UNL A   1      30.220  31.276  24.661  1.00  0.00     0.004 A 
ATOM     27  C   UNL A   1      28.438  31.210  22.093  1.00  0.00     0.004 A 
ATOM     28  C   UNL A   1      30.825  29.589  24.298  1.00  0.00     0.010 A 
ATOM     29  C   UNL A   1      29.225  29.603  21.627  1.00  0.00     0.010 A 
ENDBRANCH  18  23
ENDBRANCH  14  17
ENDBRANCH   7  13
ENDBRANCH   4   6
ENDBRANCH   3   4
ENDBRANCH   2   3
ENDBRANCH   1   2
BRANCH   1  30
ATOM     30  O   UNL A   1      33.177  28.679  27.620  1.00  0.00    -0.374 OA
BRANCH  30  31
ATOM     31  C   UNL A   1      33.645  29.694  26.723  1.00  0.00     0.202 C 
BRANCH  31  32
ATOM     32  C   UNL A   1      33.262  31.152  26.997  1.00  0.00     0.261 C 
BRANCH  32  33
ATOM     33  O   UNL A   1      33.566  31.550  28.350  1.00  0.00    -0.460 OA
BRANCH  33  34
ATOM     34  C   UNL A   1      34.027  32.824  28.518  1.00  0.00     0.338 C 
ATOM     35  O   UNL A   1      33.539  33.813  27.999  1.00  0.00    -0.246 OA
BRANCH  34  36
ATOM     36  C   UNL A   1      35.350  32.791  29.217  1.00  0.00     0.060 A 
ATOM     37  C   UNL A   1      36.452  33.570  28.828  1.00  0.00     0.016 A 
ATOM     38  C   UNL A   1      35.580  31.681  29.986  1.00  0.00     0.016 A 
ATOM     39  C   UNL A   1      37.779  33.141  29.130  1.00  0.00     0.010 A 
ATOM     40  C   UNL A   1      36.820  31.113  29.848  1.00  0.00     0.010 A 
ATOM     41  C   UNL A   1      38.001  31.825  29.580  1.00  0.00    -0.014 A 
BRANCH  41  42
ATOM     42  C   UNL A   1      39.466  30.952  29.636  1.00  0.00     0.031 A 
ATOM     43  C   UNL A   1      40.139  29.270  28.457  1.00  0.00     0.074 A 
ATOM     44  C   UNL A   1      40.123  31.865  30.601  1.00  0.00     0.049 A 
ATOM     45  N   UNL A   1      40.899  28.171  28.841  1.00  0.00    -0.248 NA
ATOM     46  C   UNL A   1      40.052  28.801  26.853  1.00  0.00     0.031 C 
ATOM     47  C   UNL A   1      41.570  32.269  30.737  1.00  0.00     0.029 A 
ATOM     48  N   UNL A   1      39.671  32.330  31.868  1.00  0.00    -0.354 N 
ATOM     49  C   UNL A   1      41.695  27.647  27.884  1.00  0.00     0.074 A 
ATOM     50  C   UNL A   1      41.050  27.941  26.649  1.00  0.00     0.031 C 
ATOM     51  C   UNL A   1      41.935  32.470  31.989  1.00  0.00     0.029 A 
ATOM     52  C   UNL A   1      40.744  32.407  32.755  1.00  0.00     0.049 A 
ATOM     53  H   UNL A   1      38.740  32.563  32.085  1.00  0.00     0.167 HD
ATOM     54  C   UNL A   1      42.901  27.106  28.226  1.00  0.00     0.037 A 
ATOM     55  C   UNL A   1      40.845  32.242  34.080  1.00  0.00     0.037 A 
ATOM     56  C   UNL A   1      43.460  27.604  29.516  1.00  0.00     0.049 A 
ATOM     57  C   UNL A   1      41.780  31.092  34.333  1.00  0.00     0.074 A 
ATOM     58  C   UNL A   1      44.493  28.499  29.781  1.00  0.00     0.029 A 
ATOM     59  N   UNL A   1      42.838  27.404  30.761  1.00  0.00    -0.354 N 
ATOM     60  N   UNL A   1      42.038  30.200  33.394  1.00  0.00    -0.248 NA
ATOM     61  C   UNL A   1      42.500  30.831  35.570  1.00  0.00     0.031 C 
ATOM     62  C   UNL A   1      44.459  28.862  31.158  1.00  0.00     0.029 A 
ATOM     63  C   UNL A   1      43.438  28.161  31.784  1.00  0.00     0.049 A 
ATOM     64  H   UNL A   1      42.071  26.803  30.900  1.00  0.00     0.167 HD
ATOM     65  C   UNL A   1      42.858  29.230  33.897  1.00  0.00     0.074 A 
ATOM     66  C   UNL A   1      43.133  29.685  35.256  1.00  0.00     0.031 C 
ATOM     67  C   UNL A   1      43.101  28.059  33.225  1.00  0.00     0.037 A 
BRANCH  54  68
ATOM     68  C   UNL A   1      43.672  26.318  27.193  1.00  0.00     0.064 A 
ATOM     69  C   UNL A   1      44.620  26.898  26.334  1.00  0.00     0.173 A 
ATOM     70  C   UNL A   1      43.555  24.911  27.087  1.00  0.00     0.173 A 
ATOM     71  F   UNL A   1      44.913  28.203  26.394  1.00  0.00    -0.203 F 
ATOM     72  C   UNL A   1      45.326  26.140  25.392  1.00  0.00     0.198 A 
ATOM     73  C   UNL A   1      44.191  24.172  26.095  1.00  0.00     0.198 A 
ATOM     74  F   UNL A   1      42.850  24.201  27.980  1.00  0.00    -0.203 F 
ATOM     75  F   UNL A   1      46.253  26.731  24.625  1.00  0.00    -0.200 F 
ATOM     76  C   UNL A   1      45.085  24.786  25.247  1.00  0.00     0.200 A 
ATOM     77  F   UNL A   1      43.946  22.859  25.984  1.00  0.00    -0.200 F 
ATOM     78  F   UNL A   1      45.739  24.070  24.323  1.00  0.00    -0.200 F 
ENDBRANCH  54  68
BRANCH  55  79
ATOM     79  C   UNL A   1      39.967  33.160  34.822  1.00  0.00     0.064 A 
ATOM     80  C   UNL A   1      38.815  32.577  35.408  1.00  0.00     0.173 A 
ATOM     81  C   UNL A   1      40.578  34.207  35.524  1.00  0.00     0.173 A 
ATOM     82  F   UNL A   1      38.205  31.543  34.805  1.00  0.00    -0.203 F 
ATOM     83  C   UNL A   1      38.417  32.904  36.707  1.00  0.00     0.198 A 
ATOM     84  C   UNL A   1      40.195  34.507  36.835  1.00  0.00     0.198 A 
ATOM     85  F   UNL A   1      41.702  34.756  35.043  1.00  0.00    -0.203 F 
ATOM     86  F   UNL A   1      37.445  32.201  37.309  1.00  0.00    -0.200 F 
ATOM     87  C   UNL A   1      39.143  33.832  37.436  1.00  0.00     0.200 A 
ATOM     88  F   UNL A   1      40.948  35.344  37.563  1.00  0.00    -0.200 F 
ATOM     89  F   UNL A   1      38.890  34.003  38.741  1.00  0.00    -0.200 F 
ENDBRANCH  55  79
BRANCH  67  90
ATOM     90  C   UNL A   1      43.194  26.744  33.969  1.00  0.00     0.064 A 
ATOM     91  C   UNL A   1      42.115  26.175  34.684  1.00  0.00     0.173 A 
ATOM     92  C   UNL A   1      44.331  25.915  33.858  1.00  0.00     0.173 A 
ATOM     93  F   UNL A   1      40.914  26.765  34.748  1.00  0.00    -0.203 F 
ATOM     94  C   UNL A   1      42.204  24.936  35.317  1.00  0.00     0.198 A 
ATOM     95  C   UNL A   1      44.388  24.642  34.426  1.00  0.00     0.198 A 
ATOM     96  F   UNL A   1      45.414  26.292  33.165  1.00  0.00    -0.203 F 
ATOM     97  F   UNL A   1      41.166  24.484  36.035  1.00  0.00    -0.200 F 
ATOM     98  C   UNL A   1      43.336  24.164  35.178  1.00  0.00     0.200 A 
ATOM     99  F   UNL A   1      45.465  23.873  34.216  1.00  0.00    -0.200 F 
ATOM    100  F   UNL A   1      43.404  22.952  35.745  1.00  0.00    -0.200 F 
ENDBRANCH  67  90
ENDBRANCH  41  42
ENDBRANCH  34  36
ENDBRANCH  33  34
ENDBRANCH  32  33
ENDBRANCH  31  32
ENDBRANCH  30  31
ENDBRANCH   1  30
TORSDOF 17
ENDMDL
