MODEL 1
REMARK VINA RESULT:     -12.3      0.000      0.000
REMARK SMILES Nc1c(Cl)ccc2c1C=C(C(=O)OCCOCCOC(=O)c1ccc(-c3c4nc(c(-c5c(F)c(F)c(F)c(F)c5F)c5ccc([nH]5)c(-c5c(F)c(F)c(F)c(F)c5F)c5nc(c(-c6c(F)c(F)c(F)c(F)c6F)c6ccc3[nH]6)C=C5)C=C4)cc1)[C@@H](C(F)(F)F)O2
REMARK SMILES IDX 17 1 16 2 15 3 14 4 13 5 11 6 12 7 10 8 2 9 3 10 8 11 4 12
REMARK SMILES IDX 5 13 7 14 9 15 6 16 90 17 85 18 1 19 86 22 87 23 88 24 89 25
REMARK SMILES IDX 18 26 19 27 20 28 21 29 22 30 23 31 84 32 24 33 83 34 25 35
REMARK SMILES IDX 26 36 27 37 77 38 28 39 82 40 76 41 78 42 29 43 81 44 75 45
REMARK SMILES IDX 74 46 30 48 62 49 42 50 61 51 43 52 46 53 60 54 79 55 44 56
REMARK SMILES IDX 45 57 59 59 80 60 47 61 31 62 32 63 40 64 33 65 34 66 38 67
REMARK SMILES IDX 41 68 35 69 36 70 39 71 37 72 63 73 64 74 72 75 65 76 66 77
REMARK SMILES IDX 70 78 73 79 67 80 68 81 71 82 69 83 48 84 49 85 57 86 50 87
REMARK SMILES IDX 51 88 55 89 58 90 52 91 53 92 56 93 54 94
REMARK H PARENT 1 20 1 21 78 47 46 58
REMARK Flexibility Score: inf
ROOT
ATOM      1  C   UNL A   1      36.104  21.096  25.049  1.00  0.00     0.202 C 
ENDROOT
BRANCH   1   2
ATOM      2  O   UNL A   1      35.648  21.959  26.093  1.00  0.00    -0.374 OA
BRANCH   2   3
ATOM      3  C   UNL A   1      35.675  23.363  25.849  1.00  0.00     0.202 C 
BRANCH   3   4
ATOM      4  C   UNL A   1      34.366  24.116  26.096  1.00  0.00     0.261 C 
BRANCH   4   5
ATOM      5  O   UNL A   1      33.272  23.210  26.312  1.00  0.00    -0.460 OA
BRANCH   5   6
ATOM      6  C   UNL A   1      32.277  23.302  25.399  1.00  0.00     0.338 C 
ATOM      7  O   UNL A   1      31.565  24.271  25.188  1.00  0.00    -0.246 OA
BRANCH   6   8
ATOM      8  C   UNL A   1      32.240  22.077  24.576  1.00  0.00     0.088 C 
ATOM      9  C   UNL A   1      32.755  18.441  25.114  1.00  0.00     0.061 A 
ATOM     10  C   UNL A   1      32.994  17.320  24.290  1.00  0.00     0.064 A 
ATOM     11  C   UNL A   1      32.496  19.682  24.487  1.00  0.00     0.042 A 
ATOM     12  Cl  UNL A   1      33.415  15.789  24.983  1.00  0.00    -0.082 Cl
ATOM     13  C   UNL A   1      32.886  17.401  22.902  1.00  0.00     0.026 A 
ATOM     14  C   UNL A   1      32.354  19.749  23.093  1.00  0.00     0.130 A 
ATOM     15  C   UNL A   1      32.427  20.931  25.240  1.00  0.00     0.029 C 
ATOM     16  C   UNL A   1      32.541  18.611  22.306  1.00  0.00     0.049 A 
ATOM     17  O   UNL A   1      32.026  20.884  22.405  1.00  0.00    -0.475 OA
ATOM     18  C   UNL A   1      32.030  22.162  23.094  1.00  0.00     0.316 C 
BRANCH   9  19
ATOM     19  N   UNL A   1      32.901  18.332  26.502  1.00  0.00    -0.397 N 
ATOM     20  H   UNL A   1      33.356  19.045  27.008  1.00  0.00     0.156 HD
ATOM     21  H   UNL A   1      32.550  17.543  26.975  1.00  0.00     0.156 HD
ENDBRANCH   9  19
BRANCH  18  22
ATOM     22  C   UNL A   1      33.052  23.079  22.403  1.00  0.00     0.430 C 
ATOM     23  F   UNL A   1      33.171  22.775  21.088  1.00  0.00    -0.167 F 
ATOM     24  F   UNL A   1      32.683  24.379  22.465  1.00  0.00    -0.167 F 
ATOM     25  F   UNL A   1      34.282  22.979  22.956  1.00  0.00    -0.167 F 
ENDBRANCH  18  22
ENDBRANCH   6   8
ENDBRANCH   5   6
ENDBRANCH   4   5
ENDBRANCH   3   4
ENDBRANCH   2   3
ENDBRANCH   1   2
BRANCH   1  26
ATOM     26  C   UNL A   1      37.465  20.425  25.260  1.00  0.00     0.261 C 
BRANCH  26  27
ATOM     27  O   UNL A   1      38.536  21.390  25.295  1.00  0.00    -0.460 OA
BRANCH  27  28
ATOM     28  C   UNL A   1      39.500  21.141  26.210  1.00  0.00     0.338 C 
ATOM     29  O   UNL A   1      40.044  20.072  26.451  1.00  0.00    -0.246 OA
BRANCH  28  30
ATOM     30  C   UNL A   1      39.961  22.403  26.808  1.00  0.00     0.060 A 
ATOM     31  C   UNL A   1      39.350  23.591  26.389  1.00  0.00     0.016 A 
ATOM     32  C   UNL A   1      41.060  22.428  27.669  1.00  0.00     0.016 A 
ATOM     33  C   UNL A   1      39.865  24.820  26.796  1.00  0.00     0.010 A 
ATOM     34  C   UNL A   1      41.588  23.662  28.060  1.00  0.00     0.010 A 
ATOM     35  C   UNL A   1      41.015  24.859  27.594  1.00  0.00    -0.014 A 
BRANCH  35  36
ATOM     36  C   UNL A   1      41.723  26.144  27.789  1.00  0.00     0.031 A 
ATOM     37  C   UNL A   1      41.020  27.252  28.523  1.00  0.00     0.074 A 
ATOM     38  C   UNL A   1      42.978  26.315  27.342  1.00  0.00     0.049 A 
ATOM     39  N   UNL A   1      41.424  28.470  28.774  1.00  0.00    -0.248 NA
ATOM     40  C   UNL A   1      39.681  26.941  29.050  1.00  0.00     0.031 C 
ATOM     41  C   UNL A   1      43.779  25.295  26.670  1.00  0.00     0.029 A 
ATOM     42  N   UNL A   1      43.796  27.415  27.386  1.00  0.00    -0.354 N 
ATOM     43  C   UNL A   1      40.398  29.067  29.494  1.00  0.00     0.074 A 
ATOM     44  C   UNL A   1      39.338  28.090  29.615  1.00  0.00     0.031 C 
ATOM     45  C   UNL A   1      44.974  25.823  26.351  1.00  0.00     0.029 A 
ATOM     46  C   UNL A   1      45.008  27.222  26.772  1.00  0.00     0.049 A 
ATOM     47  H   UNL A   1      43.538  28.262  27.817  1.00  0.00     0.167 HD
ATOM     48  C   UNL A   1      40.350  30.314  30.015  1.00  0.00     0.037 A 
ATOM     49  C   UNL A   1      46.018  28.088  26.558  1.00  0.00     0.037 A 
ATOM     50  C   UNL A   1      41.398  31.290  29.877  1.00  0.00     0.049 A 
ATOM     51  C   UNL A   1      45.897  29.504  27.056  1.00  0.00     0.074 A 
ATOM     52  C   UNL A   1      41.439  32.586  30.359  1.00  0.00     0.029 A 
ATOM     53  N   UNL A   1      42.588  31.076  29.198  1.00  0.00    -0.354 N 
ATOM     54  N   UNL A   1      44.925  30.062  27.738  1.00  0.00    -0.248 NA
ATOM     55  C   UNL A   1      47.012  30.413  26.753  1.00  0.00     0.031 C 
ATOM     56  C   UNL A   1      42.636  33.171  29.935  1.00  0.00     0.029 A 
ATOM     57  C   UNL A   1      43.362  32.224  29.229  1.00  0.00     0.049 A 
ATOM     58  H   UNL A   1      42.845  30.233  28.759  1.00  0.00     0.167 HD
ATOM     59  C   UNL A   1      45.321  31.373  27.967  1.00  0.00     0.074 A 
ATOM     60  C   UNL A   1      46.625  31.528  27.358  1.00  0.00     0.031 C 
ATOM     61  C   UNL A   1      44.661  32.359  28.624  1.00  0.00     0.037 A 
BRANCH  48  62
ATOM     62  C   UNL A   1      39.116  30.704  30.772  1.00  0.00     0.064 A 
ATOM     63  C   UNL A   1      38.005  31.259  30.121  1.00  0.00     0.173 A 
ATOM     64  C   UNL A   1      39.025  30.472  32.152  1.00  0.00     0.173 A 
ATOM     65  F   UNL A   1      38.050  31.513  28.805  1.00  0.00    -0.203 F 
ATOM     66  C   UNL A   1      36.849  31.578  30.829  1.00  0.00     0.198 A 
ATOM     67  C   UNL A   1      37.859  30.771  32.852  1.00  0.00     0.198 A 
ATOM     68  F   UNL A   1      40.061  29.944  32.820  1.00  0.00    -0.203 F 
ATOM     69  F   UNL A   1      35.808  32.136  30.194  1.00  0.00    -0.200 F 
ATOM     70  C   UNL A   1      36.773  31.326  32.191  1.00  0.00     0.200 A 
ATOM     71  F   UNL A   1      37.784  30.518  34.166  1.00  0.00    -0.200 F 
ATOM     72  F   UNL A   1      35.655  31.623  32.868  1.00  0.00    -0.200 F 
ENDBRANCH  48  62
BRANCH  49  73
ATOM     73  C   UNL A   1      47.234  27.637  25.835  1.00  0.00     0.064 A 
ATOM     74  C   UNL A   1      48.336  27.123  26.532  1.00  0.00     0.173 A 
ATOM     75  C   UNL A   1      47.317  27.703  24.437  1.00  0.00     0.173 A 
ATOM     76  F   UNL A   1      48.313  27.065  27.872  1.00  0.00    -0.203 F 
ATOM     77  C   UNL A   1      49.479  26.700  25.856  1.00  0.00     0.198 A 
ATOM     78  C   UNL A   1      48.450  27.257  23.762  1.00  0.00     0.198 A 
ATOM     79  F   UNL A   1      46.289  28.190  23.725  1.00  0.00    -0.203 F 
ATOM     80  F   UNL A   1      50.532  26.244  26.549  1.00  0.00    -0.200 F 
ATOM     81  C   UNL A   1      49.532  26.759  24.472  1.00  0.00     0.200 A 
ATOM     82  F   UNL A   1      48.494  27.308  22.423  1.00  0.00    -0.200 F 
ATOM     83  F   UNL A   1      50.629  26.344  23.823  1.00  0.00    -0.200 F 
ENDBRANCH  49  73
BRANCH  61  84
ATOM     84  C   UNL A   1      45.344  33.690  28.746  1.00  0.00     0.064 A 
ATOM     85  C   UNL A   1      45.129  34.713  27.812  1.00  0.00     0.173 A 
ATOM     86  C   UNL A   1      46.163  33.969  29.851  1.00  0.00     0.173 A 
ATOM     87  F   UNL A   1      44.364  34.491  26.732  1.00  0.00    -0.203 F 
ATOM     88  C   UNL A   1      45.720  35.963  27.973  1.00  0.00     0.198 A 
ATOM     89  C   UNL A   1      46.730  35.228  30.023  1.00  0.00     0.198 A 
ATOM     90  F   UNL A   1      46.392  33.026  30.778  1.00  0.00    -0.203 F 
ATOM     91  F   UNL A   1      45.527  36.916  27.051  1.00  0.00    -0.200 F 
ATOM     92  C   UNL A   1      46.511  36.223  29.082  1.00  0.00     0.200 A 
ATOM     93  F   UNL A   1      47.481  35.482  31.103  1.00  0.00    -0.200 F 
ATOM     94  F   UNL A   1      47.066  37.432  29.243  1.00  0.00    -0.200 F 
ENDBRANCH  61  84
ENDBRANCH  35  36
ENDBRANCH  28  30
ENDBRANCH  27  28
ENDBRANCH  26  27
ENDBRANCH   1  26
TORSDOF 16
ENDMDL
MODEL 2
REMARK VINA RESULT:     -12.3      5.469     10.338
REMARK SMILES Nc1c(Cl)ccc2c1C=C(C(=O)OCCOCCOC(=O)c1ccc(-c3c4nc(c(-c5c(F)c(F)c(F)c(F)c5F)c5ccc([nH]5)c(-c5c(F)c(F)c(F)c(F)c5F)c5nc(c(-c6c(F)c(F)c(F)c(F)c6F)c6ccc3[nH]6)C=C5)C=C4)cc1)[C@@H](C(F)(F)F)O2
REMARK SMILES IDX 17 1 16 2 15 3 14 4 13 5 11 6 12 7 10 8 2 9 3 10 8 11 4 12
REMARK SMILES IDX 5 13 7 14 9 15 6 16 90 17 85 18 1 19 86 22 87 23 88 24 89 25
REMARK SMILES IDX 18 26 19 27 20 28 21 29 22 30 23 31 84 32 24 33 83 34 25 35
REMARK SMILES IDX 26 36 27 37 77 38 28 39 82 40 76 41 78 42 29 43 81 44 75 45
REMARK SMILES IDX 74 46 30 48 62 49 42 50 61 51 43 52 46 53 60 54 79 55 44 56
REMARK SMILES IDX 45 57 59 59 80 60 47 61 31 62 32 63 40 64 33 65 34 66 38 67
REMARK SMILES IDX 41 68 35 69 36 70 39 71 37 72 63 73 64 74 72 75 65 76 66 77
REMARK SMILES IDX 70 78 73 79 67 80 68 81 71 82 69 83 48 84 49 85 57 86 50 87
REMARK SMILES IDX 51 88 55 89 58 90 52 91 53 92 56 93 54 94
REMARK H PARENT 1 20 1 21 78 47 46 58
REMARK Flexibility Score: inf
ROOT
ATOM      1  C   UNL A   1      31.772  29.739  25.566  1.00  0.00     0.202 C 
ENDROOT
BRANCH   1   2
ATOM      2  O   UNL A   1      33.026  29.240  25.095  1.00  0.00    -0.374 OA
BRANCH   2   3
ATOM      3  C   UNL A   1      33.694  28.270  25.897  1.00  0.00     0.202 C 
BRANCH   3   4
ATOM      4  C   UNL A   1      33.688  26.835  25.365  1.00  0.00     0.261 C 
BRANCH   4   5
ATOM      5  O   UNL A   1      33.297  26.790  23.984  1.00  0.00    -0.460 OA
BRANCH   5   6
ATOM      6  C   UNL A   1      32.391  25.829  23.686  1.00  0.00     0.338 C 
ATOM      7  O   UNL A   1      32.595  24.627  23.618  1.00  0.00    -0.246 OA
BRANCH   6   8
ATOM      8  C   UNL A   1      31.048  26.429  23.568  1.00  0.00     0.088 C 
ATOM      9  C   UNL A   1      29.577  29.496  22.082  1.00  0.00     0.061 A 
ATOM     10  C   UNL A   1      28.359  30.198  22.210  1.00  0.00     0.064 A 
ATOM     11  C   UNL A   1      29.707  28.264  22.765  1.00  0.00     0.042 A 
ATOM     12  Cl  UNL A   1      28.160  31.759  21.483  1.00  0.00    -0.082 Cl
ATOM     13  C   UNL A   1      27.278  29.660  22.908  1.00  0.00     0.026 A 
ATOM     14  C   UNL A   1      28.604  27.712  23.435  1.00  0.00     0.130 A 
ATOM     15  C   UNL A   1      30.982  27.558  22.853  1.00  0.00     0.029 C 
ATOM     16  C   UNL A   1      27.395  28.404  23.498  1.00  0.00     0.049 A 
ATOM     17  O   UNL A   1      28.610  26.494  24.055  1.00  0.00    -0.475 OA
ATOM     18  C   UNL A   1      29.870  25.794  24.243  1.00  0.00     0.316 C 
BRANCH   9  19
ATOM     19  N   UNL A   1      30.652  30.078  21.400  1.00  0.00    -0.397 N 
ATOM     20  H   UNL A   1      31.318  30.612  21.893  1.00  0.00     0.156 HD
ATOM     21  H   UNL A   1      30.744  29.956  20.428  1.00  0.00     0.156 HD
ENDBRANCH   9  19
BRANCH  18  22
ATOM     22  C   UNL A   1      30.088  25.594  25.751  1.00  0.00     0.430 C 
ATOM     23  F   UNL A   1      28.909  25.424  26.398  1.00  0.00    -0.167 F 
ATOM     24  F   UNL A   1      30.830  24.492  26.009  1.00  0.00    -0.167 F 
ATOM     25  F   UNL A   1      30.715  26.648  26.320  1.00  0.00    -0.167 F 
ENDBRANCH  18  22
ENDBRANCH   6   8
ENDBRANCH   5   6
ENDBRANCH   4   5
ENDBRANCH   3   4
ENDBRANCH   2   3
ENDBRANCH   1   2
BRANCH   1  26
ATOM     26  C   UNL A   1      31.786  31.129  26.210  1.00  0.00     0.261 C 
BRANCH  26  27
ATOM     27  O   UNL A   1      32.525  31.136  27.448  1.00  0.00    -0.460 OA
BRANCH  27  28
ATOM     28  C   UNL A   1      33.367  32.182  27.605  1.00  0.00     0.338 C 
ATOM     29  O   UNL A   1      33.096  33.374  27.562  1.00  0.00    -0.246 OA
BRANCH  28  30
ATOM     30  C   UNL A   1      34.694  31.699  28.015  1.00  0.00     0.060 A 
ATOM     31  C   UNL A   1      34.823  30.349  28.365  1.00  0.00     0.016 A 
ATOM     32  C   UNL A   1      35.761  32.584  28.174  1.00  0.00     0.016 A 
ATOM     33  C   UNL A   1      36.013  29.885  28.921  1.00  0.00     0.010 A 
ATOM     34  C   UNL A   1      36.948  32.122  28.751  1.00  0.00     0.010 A 
ATOM     35  C   UNL A   1      37.063  30.781  29.161  1.00  0.00    -0.014 A 
BRANCH  35  36
ATOM     36  C   UNL A   1      38.205  30.359  30.002  1.00  0.00     0.031 A 
ATOM     37  C   UNL A   1      39.197  29.382  29.434  1.00  0.00     0.074 A 
ATOM     38  C   UNL A   1      38.369  30.853  31.240  1.00  0.00     0.049 A 
ATOM     39  N   UNL A   1      40.245  28.841  29.998  1.00  0.00    -0.248 NA
ATOM     40  C   UNL A   1      38.980  28.964  28.039  1.00  0.00     0.031 C 
ATOM     41  C   UNL A   1      37.505  31.847  31.872  1.00  0.00     0.029 A 
ATOM     42  N   UNL A   1      39.322  30.579  32.187  1.00  0.00    -0.354 N 
ATOM     43  C   UNL A   1      40.817  28.029  29.029  1.00  0.00     0.074 A 
ATOM     44  C   UNL A   1      39.985  28.122  27.849  1.00  0.00     0.031 C 
ATOM     45  C   UNL A   1      37.962  32.092  33.113  1.00  0.00     0.029 A 
ATOM     46  C   UNL A   1      39.130  31.251  33.368  1.00  0.00     0.049 A 
ATOM     47  H   UNL A   1      40.072  29.959  32.035  1.00  0.00     0.167 HD
ATOM     48  C   UNL A   1      41.942  27.281  29.113  1.00  0.00     0.037 A 
ATOM     49  C   UNL A   1      39.812  31.176  34.528  1.00  0.00     0.037 A 
ATOM     50  C   UNL A   1      42.757  27.176  30.293  1.00  0.00     0.049 A 
ATOM     51  C   UNL A   1      40.999  30.255  34.631  1.00  0.00     0.074 A 
ATOM     52  C   UNL A   1      43.910  26.435  30.482  1.00  0.00     0.029 A 
ATOM     53  N   UNL A   1      42.499  27.828  31.489  1.00  0.00    -0.354 N 
ATOM     54  N   UNL A   1      41.536  29.491  33.710  1.00  0.00    -0.248 NA
ATOM     55  C   UNL A   1      41.674  30.183  35.935  1.00  0.00     0.031 C 
ATOM     56  C   UNL A   1      44.325  26.604  31.806  1.00  0.00     0.029 A 
ATOM     57  C   UNL A   1      43.458  27.488  32.429  1.00  0.00     0.049 A 
ATOM     58  H   UNL A   1      41.745  28.441  31.647  1.00  0.00     0.167 HD
ATOM     59  C   UNL A   1      42.623  28.870  34.313  1.00  0.00     0.074 A 
ATOM     60  C   UNL A   1      42.674  29.351  35.677  1.00  0.00     0.031 C 
ATOM     61  C   UNL A   1      43.499  27.982  33.781  1.00  0.00     0.037 A 
BRANCH  48  62
ATOM     62  C   UNL A   1      42.351  26.503  27.899  1.00  0.00     0.064 A 
ATOM     63  C   UNL A   1      43.282  27.015  26.983  1.00  0.00     0.173 A 
ATOM     64  C   UNL A   1      41.850  25.211  27.678  1.00  0.00     0.173 A 
ATOM     65  F   UNL A   1      43.778  28.250  27.144  1.00  0.00    -0.203 F 
ATOM     66  C   UNL A   1      43.686  26.265  25.881  1.00  0.00     0.198 A 
ATOM     67  C   UNL A   1      42.274  24.456  26.588  1.00  0.00     0.198 A 
ATOM     68  F   UNL A   1      40.958  24.678  28.525  1.00  0.00    -0.203 F 
ATOM     69  F   UNL A   1      44.553  26.785  25.001  1.00  0.00    -0.200 F 
ATOM     70  C   UNL A   1      43.190  24.985  25.690  1.00  0.00     0.200 A 
ATOM     71  F   UNL A   1      41.801  23.215  26.409  1.00  0.00    -0.200 F 
ATOM     72  F   UNL A   1      43.589  24.260  24.635  1.00  0.00    -0.200 F 
ENDBRANCH  48  62
BRANCH  49  73
ATOM     73  C   UNL A   1      39.385  31.999  35.688  1.00  0.00     0.064 A 
ATOM     74  C   UNL A   1      38.424  31.526  36.591  1.00  0.00     0.173 A 
ATOM     75  C   UNL A   1      39.931  33.269  35.921  1.00  0.00     0.173 A 
ATOM     76  F   UNL A   1      37.853  30.328  36.395  1.00  0.00    -0.203 F 
ATOM     77  C   UNL A   1      38.020  32.296  37.680  1.00  0.00     0.198 A 
ATOM     78  C   UNL A   1      39.545  34.028  37.023  1.00  0.00     0.198 A 
ATOM     79  F   UNL A   1      40.853  33.768  35.082  1.00  0.00    -0.203 F 
ATOM     80  F   UNL A   1      37.075  31.834  38.510  1.00  0.00    -0.200 F 
ATOM     81  C   UNL A   1      38.587  33.542  37.900  1.00  0.00     0.200 A 
ATOM     82  F   UNL A   1      40.102  35.228  37.237  1.00  0.00    -0.200 F 
ATOM     83  F   UNL A   1      38.204  34.279  38.952  1.00  0.00    -0.200 F 
ENDBRANCH  49  73
BRANCH  61  84
ATOM     84  C   UNL A   1      44.607  27.487  34.663  1.00  0.00     0.064 A 
ATOM     85  C   UNL A   1      44.479  26.307  35.410  1.00  0.00     0.173 A 
ATOM     86  C   UNL A   1      45.838  28.160  34.701  1.00  0.00     0.173 A 
ATOM     87  F   UNL A   1      43.318  25.635  35.415  1.00  0.00    -0.203 F 
ATOM     88  C   UNL A   1      45.538  25.827  36.174  1.00  0.00     0.198 A 
ATOM     89  C   UNL A   1      46.904  27.662  35.445  1.00  0.00     0.198 A 
ATOM     90  F   UNL A   1      46.014  29.288  33.996  1.00  0.00    -0.203 F 
ATOM     91  F   UNL A   1      45.383  24.715  36.905  1.00  0.00    -0.200 F 
ATOM     92  C   UNL A   1      46.752  26.498  36.184  1.00  0.00     0.200 A 
ATOM     93  F   UNL A   1      48.080  28.304  35.440  1.00  0.00    -0.200 F 
ATOM     94  F   UNL A   1      47.776  26.025  36.907  1.00  0.00    -0.200 F 
ENDBRANCH  61  84
ENDBRANCH  35  36
ENDBRANCH  28  30
ENDBRANCH  27  28
ENDBRANCH  26  27
ENDBRANCH   1  26
TORSDOF 16
ENDMDL
MODEL 3
REMARK VINA RESULT:     -12.3      0.341      1.667
REMARK SMILES Nc1c(Cl)ccc2c1C=C(C(=O)OCCOCCOC(=O)c1ccc(-c3c4nc(c(-c5c(F)c(F)c(F)c(F)c5F)c5ccc([nH]5)c(-c5c(F)c(F)c(F)c(F)c5F)c5nc(c(-c6c(F)c(F)c(F)c(F)c6F)c6ccc3[nH]6)C=C5)C=C4)cc1)[C@@H](C(F)(F)F)O2
REMARK SMILES IDX 17 1 16 2 15 3 14 4 13 5 11 6 12 7 10 8 2 9 3 10 8 11 4 12
REMARK SMILES IDX 5 13 7 14 9 15 6 16 90 17 85 18 1 19 86 22 87 23 88 24 89 25
REMARK SMILES IDX 18 26 19 27 20 28 21 29 22 30 23 31 84 32 24 33 83 34 25 35
REMARK SMILES IDX 26 36 27 37 77 38 28 39 82 40 76 41 78 42 29 43 81 44 75 45
REMARK SMILES IDX 74 46 30 48 62 49 42 50 61 51 43 52 46 53 60 54 79 55 44 56
REMARK SMILES IDX 45 57 59 59 80 60 47 61 31 62 32 63 40 64 33 65 34 66 38 67
REMARK SMILES IDX 41 68 35 69 36 70 39 71 37 72 63 73 64 74 72 75 65 76 66 77
REMARK SMILES IDX 70 78 73 79 67 80 68 81 71 82 69 83 48 84 49 85 57 86 50 87
REMARK SMILES IDX 51 88 55 89 58 90 52 91 53 92 56 93 54 94
REMARK H PARENT 1 20 1 21 78 47 46 58
REMARK Flexibility Score: inf
ROOT
ATOM      1  C   UNL A   1      35.901  21.320  25.198  1.00  0.00     0.202 C 
ENDROOT
BRANCH   1   2
ATOM      2  O   UNL A   1      36.024  22.742  25.109  1.00  0.00    -0.374 OA
BRANCH   2   3
ATOM      3  C   UNL A   1      35.381  23.524  26.112  1.00  0.00     0.202 C 
BRANCH   3   4
ATOM      4  C   UNL A   1      34.035  24.141  25.726  1.00  0.00     0.261 C 
BRANCH   4   5
ATOM      5  O   UNL A   1      32.941  23.289  26.102  1.00  0.00    -0.460 OA
BRANCH   5   6
ATOM      6  C   UNL A   1      31.939  23.225  25.194  1.00  0.00     0.338 C 
ATOM      7  O   UNL A   1      31.111  24.090  24.956  1.00  0.00    -0.246 OA
BRANCH   6   8
ATOM      8  C   UNL A   1      32.053  21.979  24.413  1.00  0.00     0.088 C 
ATOM      9  C   UNL A   1      32.833  18.416  25.104  1.00  0.00     0.061 A 
ATOM     10  C   UNL A   1      33.212  17.295  24.333  1.00  0.00     0.064 A 
ATOM     11  C   UNL A   1      32.510  19.612  24.421  1.00  0.00     0.042 A 
ATOM     12  Cl  UNL A   1      33.715  15.826  25.102  1.00  0.00    -0.082 Cl
ATOM     13  C   UNL A   1      33.181  17.326  22.939  1.00  0.00     0.026 A 
ATOM     14  C   UNL A   1      32.447  19.625  23.019  1.00  0.00     0.130 A 
ATOM     15  C   UNL A   1      32.293  20.872  25.126  1.00  0.00     0.029 C 
ATOM     16  C   UNL A   1      32.774  18.485  22.284  1.00  0.00     0.049 A 
ATOM     17  O   UNL A   1      32.069  20.708  22.275  1.00  0.00    -0.475 OA
ATOM     18  C   UNL A   1      31.926  22.002  22.919  1.00  0.00     0.316 C 
BRANCH   9  19
ATOM     19  N   UNL A   1      32.903  18.360  26.501  1.00  0.00    -0.397 N 
ATOM     20  H   UNL A   1      33.055  19.184  27.020  1.00  0.00     0.156 HD
ATOM     21  H   UNL A   1      32.802  17.499  26.966  1.00  0.00     0.156 HD
ENDBRANCH   9  19
BRANCH  18  22
ATOM     22  C   UNL A   1      32.908  22.981  22.257  1.00  0.00     0.430 C 
ATOM     23  F   UNL A   1      34.147  22.869  22.796  1.00  0.00    -0.167 F 
ATOM     24  F   UNL A   1      33.042  22.739  20.932  1.00  0.00    -0.167 F 
ATOM     25  F   UNL A   1      32.519  24.268  22.398  1.00  0.00    -0.167 F 
ENDBRANCH  18  22
ENDBRANCH   6   8
ENDBRANCH   5   6
ENDBRANCH   4   5
ENDBRANCH   3   4
ENDBRANCH   2   3
ENDBRANCH   1   2
BRANCH   1  26
ATOM     26  C   UNL A   1      37.201  20.514  25.114  1.00  0.00     0.261 C 
BRANCH  26  27
ATOM     27  O   UNL A   1      38.360  21.371  25.080  1.00  0.00    -0.460 OA
BRANCH  27  28
ATOM     28  C   UNL A   1      39.275  21.133  26.045  1.00  0.00     0.338 C 
ATOM     29  O   UNL A   1      39.812  20.068  26.322  1.00  0.00    -0.246 OA
BRANCH  28  30
ATOM     30  C   UNL A   1      39.698  22.401  26.659  1.00  0.00     0.060 A 
ATOM     31  C   UNL A   1      39.155  23.589  26.153  1.00  0.00     0.016 A 
ATOM     32  C   UNL A   1      40.704  22.429  27.626  1.00  0.00     0.016 A 
ATOM     33  C   UNL A   1      39.650  24.818  26.582  1.00  0.00     0.010 A 
ATOM     34  C   UNL A   1      41.214  23.663  28.040  1.00  0.00     0.010 A 
ATOM     35  C   UNL A   1      40.715  24.858  27.491  1.00  0.00    -0.014 A 
BRANCH  35  36
ATOM     36  C   UNL A   1      41.424  26.135  27.728  1.00  0.00     0.031 A 
ATOM     37  C   UNL A   1      40.703  27.237  28.455  1.00  0.00     0.074 A 
ATOM     38  C   UNL A   1      42.693  26.304  27.324  1.00  0.00     0.049 A 
ATOM     39  N   UNL A   1      41.107  28.448  28.736  1.00  0.00    -0.248 NA
ATOM     40  C   UNL A   1      39.346  26.928  28.934  1.00  0.00     0.031 C 
ATOM     41  C   UNL A   1      43.510  25.289  26.664  1.00  0.00     0.029 A 
ATOM     42  N   UNL A   1      43.516  27.398  27.411  1.00  0.00    -0.354 N 
ATOM     43  C   UNL A   1      40.062  29.042  29.431  1.00  0.00     0.074 A 
ATOM     44  C   UNL A   1      38.993  28.070  29.504  1.00  0.00     0.031 C 
ATOM     45  C   UNL A   1      44.718  25.813  26.392  1.00  0.00     0.029 A 
ATOM     46  C   UNL A   1      44.746  27.206  26.834  1.00  0.00     0.049 A 
ATOM     47  H   UNL A   1      43.250  28.241  27.845  1.00  0.00     0.167 HD
ATOM     48  C   UNL A   1      40.005  30.282  29.968  1.00  0.00     0.037 A 
ATOM     49  C   UNL A   1      45.768  28.068  26.665  1.00  0.00     0.037 A 
ATOM     50  C   UNL A   1      41.063  31.252  29.879  1.00  0.00     0.049 A 
ATOM     51  C   UNL A   1      45.640  29.477  27.180  1.00  0.00     0.074 A 
ATOM     52  C   UNL A   1      41.096  32.541  30.381  1.00  0.00     0.029 A 
ATOM     53  N   UNL A   1      42.273  31.040  29.236  1.00  0.00    -0.354 N 
ATOM     54  N   UNL A   1      44.650  30.031  27.838  1.00  0.00    -0.248 NA
ATOM     55  C   UNL A   1      46.770  30.383  26.926  1.00  0.00     0.031 C 
ATOM     56  C   UNL A   1      42.310  33.124  30.005  1.00  0.00     0.029 A 
ATOM     57  C   UNL A   1      43.052  32.183  29.309  1.00  0.00     0.049 A 
ATOM     58  H   UNL A   1      42.538  30.202  28.793  1.00  0.00     0.167 HD
ATOM     59  C   UNL A   1      45.046  31.337  28.098  1.00  0.00     0.074 A 
ATOM     60  C   UNL A   1      46.370  31.492  27.535  1.00  0.00     0.031 C 
ATOM     61  C   UNL A   1      44.372  32.318  28.748  1.00  0.00     0.037 A 
BRANCH  48  62
ATOM     62  C   UNL A   1      38.750  30.669  30.691  1.00  0.00     0.064 A 
ATOM     63  C   UNL A   1      38.648  30.565  32.086  1.00  0.00     0.173 A 
ATOM     64  C   UNL A   1      37.658  31.200  29.988  1.00  0.00     0.173 A 
ATOM     65  F   UNL A   1      39.660  30.049  32.800  1.00  0.00    -0.203 F 
ATOM     66  C   UNL A   1      37.492  30.967  32.750  1.00  0.00     0.198 A 
ATOM     67  C   UNL A   1      36.513  31.622  30.658  1.00  0.00     0.198 A 
ATOM     68  F   UNL A   1      37.706  31.320  28.654  1.00  0.00    -0.203 F 
ATOM     69  F   UNL A   1      37.404  30.830  34.081  1.00  0.00    -0.200 F 
ATOM     70  C   UNL A   1      36.430  31.503  32.037  1.00  0.00     0.200 A 
ATOM     71  F   UNL A   1      35.491  32.149  29.969  1.00  0.00    -0.200 F 
ATOM     72  F   UNL A   1      35.323  31.901  32.680  1.00  0.00    -0.200 F 
ENDBRANCH  48  62
BRANCH  49  73
ATOM     73  C   UNL A   1      47.004  27.619  25.976  1.00  0.00     0.064 A 
ATOM     74  C   UNL A   1      48.081  27.091  26.700  1.00  0.00     0.173 A 
ATOM     75  C   UNL A   1      47.132  27.701  24.582  1.00  0.00     0.173 A 
ATOM     76  F   UNL A   1      48.016  27.017  28.038  1.00  0.00    -0.203 F 
ATOM     77  C   UNL A   1      49.243  26.670  26.056  1.00  0.00     0.198 A 
ATOM     78  C   UNL A   1      48.283  27.257  23.937  1.00  0.00     0.198 A 
ATOM     79  F   UNL A   1      46.129  28.202  23.844  1.00  0.00    -0.203 F 
ATOM     80  F   UNL A   1      50.272  26.201  26.776  1.00  0.00    -0.200 F 
ATOM     81  C   UNL A   1      49.340  26.745  24.675  1.00  0.00     0.200 A 
ATOM     82  F   UNL A   1      48.370  27.324  22.601  1.00  0.00    -0.200 F 
ATOM     83  F   UNL A   1      50.455  26.332  24.056  1.00  0.00    -0.200 F 
ENDBRANCH  49  73
BRANCH  61  84
ATOM     84  C   UNL A   1      45.058  33.642  28.911  1.00  0.00     0.064 A 
ATOM     85  C   UNL A   1      45.924  33.892  29.986  1.00  0.00     0.173 A 
ATOM     86  C   UNL A   1      44.907  34.644  27.940  1.00  0.00     0.173 A 
ATOM     87  F   UNL A   1      46.091  32.970  30.946  1.00  0.00    -0.203 F 
ATOM     88  C   UNL A   1      46.602  35.103  30.090  1.00  0.00     0.198 A 
ATOM     89  C   UNL A   1      45.608  35.843  28.033  1.00  0.00     0.198 A 
ATOM     90  F   UNL A   1      44.098  34.450  26.888  1.00  0.00    -0.203 F 
ATOM     91  F   UNL A   1      47.400  35.333  31.142  1.00  0.00    -0.200 F 
ATOM     92  C   UNL A   1      46.452  36.073  29.110  1.00  0.00     0.200 A 
ATOM     93  F   UNL A   1      45.474  36.772  27.078  1.00  0.00    -0.200 F 
ATOM     94  F   UNL A   1      47.119  37.231  29.203  1.00  0.00    -0.200 F 
ENDBRANCH  61  84
ENDBRANCH  35  36
ENDBRANCH  28  30
ENDBRANCH  27  28
ENDBRANCH  26  27
ENDBRANCH   1  26
TORSDOF 16
ENDMDL
