MODEL 1
REMARK VINA RESULT:     -12.0      0.000      0.000
REMARK SMILES O=C(CNc1nc(-c2ccccc2)c(-c2ccccc2)s1)OCCOCCOC(=O)c1ccc(-c2c3nc(c(-c4c(F)c(F)c(F)c(F)c4F)c4ccc([nH]4)c(-c4c(F)c(F)c(F)c(F)c4F)c4nc(c(-c5c(F)c(F)c(F)c(F)c5F)c5ccc2[nH]5)C=C4)C=C3)cc1
REMARK SMILES IDX 24 1 23 2 22 3 2 4 1 5 3 6 4 7 5 9 6 10 21 11 7 12 14 13
REMARK SMILES IDX 8 14 9 15 13 16 10 17 12 18 11 19 15 20 16 21 20 22 17 23
REMARK SMILES IDX 19 24 18 25 25 26 26 27 27 28 28 29 29 30 30 31 31 32 32 33
REMARK SMILES IDX 93 34 33 35 92 36 34 37 35 38 36 39 86 40 37 41 91 42 85 43
REMARK SMILES IDX 87 44 38 45 90 46 84 47 83 48 39 50 71 51 51 52 70 53 52 54
REMARK SMILES IDX 55 55 69 56 88 57 53 58 54 59 68 61 89 62 56 63 40 64 41 65
REMARK SMILES IDX 49 66 42 67 43 68 47 69 50 70 44 71 45 72 48 73 46 74 72 75
REMARK SMILES IDX 73 76 81 77 74 78 75 79 79 80 82 81 76 82 77 83 80 84 78 85
REMARK SMILES IDX 57 86 58 87 66 88 59 89 60 90 64 91 67 92 61 93 62 94 65 95
REMARK SMILES IDX 63 96
REMARK H PARENT 4 8 87 49 55 60
REMARK Flexibility Score: inf
ROOT
ATOM      1  C   UNL A   1      34.127  34.781  29.926  1.00  0.00     0.202 C 
ENDROOT
BRANCH   1   2
ATOM      2  C   UNL A   1      33.536  34.436  28.562  1.00  0.00     0.261 C 
BRANCH   2   3
ATOM      3  O   UNL A   1      34.414  33.741  27.670  1.00  0.00    -0.462 OA
BRANCH   3   4
ATOM      4  C   UNL A   1      34.878  32.480  27.846  1.00  0.00     0.325 C 
ATOM      5  O   UNL A   1      36.088  32.320  28.016  1.00  0.00    -0.250 OA
BRANCH   4   6
ATOM      6  C   UNL A   1      33.936  31.276  27.785  1.00  0.00     0.238 C 
BRANCH   6   7
ATOM      7  N   UNL A   1      34.345  30.262  26.830  1.00  0.00    -0.351 N 
ATOM      8  H   UNL A   1      35.293  30.001  26.778  1.00  0.00     0.163 HD
BRANCH   7   9
ATOM      9  C   UNL A   1      33.450  29.668  26.013  1.00  0.00     0.184 A 
ATOM     10  N   UNL A   1      33.665  28.624  25.248  1.00  0.00    -0.220 NA
ATOM     11  S   UNL A   1      31.886  30.371  25.864  1.00  0.00    -0.096 S 
ATOM     12  C   UNL A   1      32.554  28.376  24.450  1.00  0.00     0.091 A 
ATOM     13  C   UNL A   1      31.513  29.280  24.598  1.00  0.00     0.064 A 
BRANCH  12  14
ATOM     14  C   UNL A   1      32.446  27.176  23.628  1.00  0.00     0.002 A 
ATOM     15  C   UNL A   1      31.975  25.963  24.148  1.00  0.00     0.010 A 
ATOM     16  C   UNL A   1      32.962  27.205  22.326  1.00  0.00     0.010 A 
ATOM     17  C   UNL A   1      32.086  24.786  23.402  1.00  0.00     0.001 A 
ATOM     18  C   UNL A   1      33.074  26.028  21.584  1.00  0.00     0.001 A 
ATOM     19  C   UNL A   1      32.652  24.816  22.129  1.00  0.00     0.000 A 
ENDBRANCH  12  14
BRANCH  13  20
ATOM     20  C   UNL A   1      30.196  29.353  23.977  1.00  0.00    -0.006 A 
ATOM     21  C   UNL A   1      29.540  28.190  23.550  1.00  0.00     0.009 A 
ATOM     22  C   UNL A   1      29.580  30.597  23.800  1.00  0.00     0.009 A 
ATOM     23  C   UNL A   1      28.290  28.278  22.934  1.00  0.00     0.001 A 
ATOM     24  C   UNL A   1      28.334  30.682  23.183  1.00  0.00     0.001 A 
ATOM     25  C   UNL A   1      27.692  29.523  22.746  1.00  0.00     0.000 A 
ENDBRANCH  13  20
ENDBRANCH   7   9
ENDBRANCH   6   7
ENDBRANCH   4   6
ENDBRANCH   3   4
ENDBRANCH   2   3
ENDBRANCH   1   2
BRANCH   1  26
ATOM     26  O   UNL A   1      34.071  33.782  30.935  1.00  0.00    -0.374 OA
BRANCH  26  27
ATOM     27  C   UNL A   1      34.004  34.244  32.286  1.00  0.00     0.202 C 
BRANCH  27  28
ATOM     28  C   UNL A   1      34.664  33.336  33.327  1.00  0.00     0.261 C 
BRANCH  28  29
ATOM     29  O   UNL A   1      35.392  32.269  32.697  1.00  0.00    -0.460 OA
BRANCH  29  30
ATOM     30  C   UNL A   1      36.526  31.905  33.338  1.00  0.00     0.338 C 
ATOM     31  O   UNL A   1      36.814  32.097  34.510  1.00  0.00    -0.246 OA
BRANCH  30  32
ATOM     32  C   UNL A   1      37.332  31.039  32.457  1.00  0.00     0.060 A 
ATOM     33  C   UNL A   1      38.422  30.374  33.035  1.00  0.00     0.016 A 
ATOM     34  C   UNL A   1      37.063  30.914  31.092  1.00  0.00     0.016 A 
ATOM     35  C   UNL A   1      39.314  29.675  32.231  1.00  0.00     0.010 A 
ATOM     36  C   UNL A   1      37.959  30.211  30.284  1.00  0.00     0.010 A 
ATOM     37  C   UNL A   1      39.121  29.654  30.844  1.00  0.00    -0.014 A 
BRANCH  37  38
ATOM     38  C   UNL A   1      40.262  29.279  29.977  1.00  0.00     0.031 A 
ATOM     39  C   UNL A   1      41.343  30.303  29.749  1.00  0.00     0.074 A 
ATOM     40  C   UNL A   1      40.369  28.042  29.468  1.00  0.00     0.049 A 
ATOM     41  N   UNL A   1      42.447  30.210  29.054  1.00  0.00    -0.248 NA
ATOM     42  C   UNL A   1      41.149  31.613  30.392  1.00  0.00     0.031 C 
ATOM     43  C   UNL A   1      39.403  26.963  29.661  1.00  0.00     0.029 A 
ATOM     44  N   UNL A   1      41.348  27.485  28.686  1.00  0.00    -0.354 N 
ATOM     45  C   UNL A   1      43.066  31.449  29.163  1.00  0.00     0.074 A 
ATOM     46  C   UNL A   1      42.201  32.290  29.958  1.00  0.00     0.031 C 
ATOM     47  C   UNL A   1      39.840  25.868  29.016  1.00  0.00     0.029 A 
ATOM     48  C   UNL A   1      41.099  26.181  28.343  1.00  0.00     0.049 A 
ATOM     49  H   UNL A   1      42.152  27.975  28.399  1.00  0.00     0.167 HD
ATOM     50  C   UNL A   1      44.258  31.844  28.660  1.00  0.00     0.037 A 
ATOM     51  C   UNL A   1      41.811  25.344  27.564  1.00  0.00     0.037 A 
ATOM     52  C   UNL A   1      45.117  30.995  27.878  1.00  0.00     0.049 A 
ATOM     53  C   UNL A   1      43.109  25.826  26.969  1.00  0.00     0.074 A 
ATOM     54  C   UNL A   1      46.356  31.283  27.334  1.00  0.00     0.029 A 
ATOM     55  N   UNL A   1      44.818  29.686  27.525  1.00  0.00    -0.354 N 
ATOM     56  N   UNL A   1      43.705  26.988  27.102  1.00  0.00    -0.248 NA
ATOM     57  C   UNL A   1      43.843  24.871  26.128  1.00  0.00     0.031 C 
ATOM     58  C   UNL A   1      46.777  30.171  26.599  1.00  0.00     0.029 A 
ATOM     59  C   UNL A   1      45.838  29.162  26.748  1.00  0.00     0.049 A 
ATOM     60  H   UNL A   1      44.002  29.202  27.788  1.00  0.00     0.167 HD
ATOM     61  C   UNL A   1      44.900  26.889  26.399  1.00  0.00     0.074 A 
ATOM     62  C   UNL A   1      44.948  25.548  25.853  1.00  0.00     0.031 C 
ATOM     63  C   UNL A   1      45.873  27.819  26.226  1.00  0.00     0.037 A 
BRANCH  50  64
ATOM     64  C   UNL A   1      44.682  33.265  28.906  1.00  0.00     0.064 A 
ATOM     65  C   UNL A   1      45.440  33.632  30.028  1.00  0.00     0.173 A 
ATOM     66  C   UNL A   1      44.339  34.273  27.992  1.00  0.00     0.173 A 
ATOM     67  F   UNL A   1      45.782  32.712  30.943  1.00  0.00    -0.203 F 
ATOM     68  C   UNL A   1      45.811  34.957  30.243  1.00  0.00     0.198 A 
ATOM     69  C   UNL A   1      44.740  35.592  28.192  1.00  0.00     0.198 A 
ATOM     70  F   UNL A   1      43.614  33.980  26.902  1.00  0.00    -0.203 F 
ATOM     71  F   UNL A   1      46.485  35.293  31.351  1.00  0.00    -0.200 F 
ATOM     72  C   UNL A   1      45.467  35.934  29.320  1.00  0.00     0.200 A 
ATOM     73  F   UNL A   1      44.418  36.531  27.291  1.00  0.00    -0.200 F 
ATOM     74  F   UNL A   1      45.830  37.209  29.524  1.00  0.00    -0.200 F 
ENDBRANCH  50  64
BRANCH  51  75
ATOM     75  C   UNL A   1      41.321  23.963  27.310  1.00  0.00     0.064 A 
ATOM     76  C   UNL A   1      40.180  23.732  26.529  1.00  0.00     0.173 A 
ATOM     77  C   UNL A   1      41.972  22.847  27.857  1.00  0.00     0.173 A 
ATOM     78  F   UNL A   1      39.510  24.767  25.999  1.00  0.00    -0.203 F 
ATOM     79  C   UNL A   1      39.693  22.443  26.328  1.00  0.00     0.198 A 
ATOM     80  C   UNL A   1      41.502  21.556  27.629  1.00  0.00     0.198 A 
ATOM     81  F   UNL A   1      43.069  23.011  28.610  1.00  0.00    -0.203 F 
ATOM     82  F   UNL A   1      38.569  22.256  25.622  1.00  0.00    -0.200 F 
ATOM     83  C   UNL A   1      40.357  21.354  26.873  1.00  0.00     0.200 A 
ATOM     84  F   UNL A   1      42.157  20.507  28.145  1.00  0.00    -0.200 F 
ATOM     85  F   UNL A   1      39.890  20.114  26.677  1.00  0.00    -0.200 F 
ENDBRANCH  51  75
BRANCH  63  86
ATOM     86  C   UNL A   1      47.102  27.396  25.470  1.00  0.00     0.064 A 
ATOM     87  C   UNL A   1      47.286  27.703  24.114  1.00  0.00     0.173 A 
ATOM     88  C   UNL A   1      48.122  26.688  26.126  1.00  0.00     0.173 A 
ATOM     89  F   UNL A   1      46.338  28.369  23.437  1.00  0.00    -0.203 F 
ATOM     90  C   UNL A   1      48.423  27.276  23.432  1.00  0.00     0.198 A 
ATOM     91  C   UNL A   1      49.275  26.299  25.451  1.00  0.00     0.198 A 
ATOM     92  F   UNL A   1      48.004  26.379  27.426  1.00  0.00    -0.203 F 
ATOM     93  F   UNL A   1      48.544  27.520  22.119  1.00  0.00    -0.200 F 
ATOM     94  C   UNL A   1      49.419  26.582  24.101  1.00  0.00     0.200 A 
ATOM     95  F   UNL A   1      50.244  25.645  26.106  1.00  0.00    -0.200 F 
ATOM     96  F   UNL A   1      50.512  26.174  23.444  1.00  0.00    -0.200 F 
ENDBRANCH  63  86
ENDBRANCH  37  38
ENDBRANCH  30  32
ENDBRANCH  29  30
ENDBRANCH  28  29
ENDBRANCH  27  28
ENDBRANCH  26  27
ENDBRANCH   1  26
TORSDOF 18
ENDMDL
MODEL 2
REMARK VINA RESULT:     -11.7      3.826      8.766
REMARK SMILES O=C(CNc1nc(-c2ccccc2)c(-c2ccccc2)s1)OCCOCCOC(=O)c1ccc(-c2c3nc(c(-c4c(F)c(F)c(F)c(F)c4F)c4ccc([nH]4)c(-c4c(F)c(F)c(F)c(F)c4F)c4nc(c(-c5c(F)c(F)c(F)c(F)c5F)c5ccc2[nH]5)C=C4)C=C3)cc1
REMARK SMILES IDX 24 1 23 2 22 3 2 4 1 5 3 6 4 7 5 9 6 10 21 11 7 12 14 13
REMARK SMILES IDX 8 14 9 15 13 16 10 17 12 18 11 19 15 20 16 21 20 22 17 23
REMARK SMILES IDX 19 24 18 25 25 26 26 27 27 28 28 29 29 30 30 31 31 32 32 33
REMARK SMILES IDX 93 34 33 35 92 36 34 37 35 38 36 39 86 40 37 41 91 42 85 43
REMARK SMILES IDX 87 44 38 45 90 46 84 47 83 48 39 50 71 51 51 52 70 53 52 54
REMARK SMILES IDX 55 55 69 56 88 57 53 58 54 59 68 61 89 62 56 63 40 64 41 65
REMARK SMILES IDX 49 66 42 67 43 68 47 69 50 70 44 71 45 72 48 73 46 74 72 75
REMARK SMILES IDX 73 76 81 77 74 78 75 79 79 80 82 81 76 82 77 83 80 84 78 85
REMARK SMILES IDX 57 86 58 87 66 88 59 89 60 90 64 91 67 92 61 93 62 94 65 95
REMARK SMILES IDX 63 96
REMARK H PARENT 4 8 87 49 55 60
REMARK Flexibility Score: inf
ROOT
ATOM      1  C   UNL A   1      36.795  22.414  25.556  1.00  0.00     0.202 C 
ENDROOT
BRANCH   1   2
ATOM      2  C   UNL A   1      36.504  22.874  24.130  1.00  0.00     0.261 C 
BRANCH   2   3
ATOM      3  O   UNL A   1      35.191  23.400  23.911  1.00  0.00    -0.462 OA
BRANCH   3   4
ATOM      4  C   UNL A   1      34.076  22.664  23.682  1.00  0.00     0.325 C 
ATOM      5  O   UNL A   1      33.975  21.567  24.236  1.00  0.00    -0.250 OA
BRANCH   4   6
ATOM      6  C   UNL A   1      32.988  23.153  22.724  1.00  0.00     0.238 C 
BRANCH   6   7
ATOM      7  N   UNL A   1      33.262  24.455  22.144  1.00  0.00    -0.351 N 
ATOM      8  H   UNL A   1      33.912  24.529  21.407  1.00  0.00     0.163 HD
BRANCH   7   9
ATOM      9  C   UNL A   1      32.643  25.566  22.594  1.00  0.00     0.184 A 
ATOM     10  N   UNL A   1      32.832  26.149  23.754  1.00  0.00    -0.220 NA
ATOM     11  S   UNL A   1      31.413  26.270  21.618  1.00  0.00    -0.096 S 
ATOM     12  C   UNL A   1      31.927  27.189  23.924  1.00  0.00     0.091 A 
ATOM     13  C   UNL A   1      31.022  27.353  22.886  1.00  0.00     0.064 A 
BRANCH  12  14
ATOM     14  C   UNL A   1      32.019  28.119  25.044  1.00  0.00     0.002 A 
ATOM     15  C   UNL A   1      32.722  29.328  24.946  1.00  0.00     0.010 A 
ATOM     16  C   UNL A   1      31.512  27.724  26.289  1.00  0.00     0.010 A 
ATOM     17  C   UNL A   1      32.975  30.090  26.090  1.00  0.00     0.001 A 
ATOM     18  C   UNL A   1      31.769  28.486  27.430  1.00  0.00     0.001 A 
ATOM     19  C   UNL A   1      32.514  29.659  27.333  1.00  0.00     0.000 A 
ENDBRANCH  12  14
BRANCH  13  20
ATOM     20  C   UNL A   1      29.954  28.321  22.674  1.00  0.00    -0.006 A 
ATOM     21  C   UNL A   1      28.652  28.063  23.126  1.00  0.00     0.009 A 
ATOM     22  C   UNL A   1      30.226  29.522  22.008  1.00  0.00     0.009 A 
ATOM     23  C   UNL A   1      27.633  28.989  22.893  1.00  0.00     0.001 A 
ATOM     24  C   UNL A   1      29.207  30.443  21.775  1.00  0.00     0.001 A 
ATOM     25  C   UNL A   1      27.911  30.173  22.213  1.00  0.00     0.000 A 
ENDBRANCH  13  20
ENDBRANCH   7   9
ENDBRANCH   6   7
ENDBRANCH   4   6
ENDBRANCH   3   4
ENDBRANCH   2   3
ENDBRANCH   1   2
BRANCH   1  26
ATOM     26  O   UNL A   1      37.868  23.045  26.241  1.00  0.00    -0.374 OA
BRANCH  26  27
ATOM     27  C   UNL A   1      39.158  22.449  26.089  1.00  0.00     0.202 C 
BRANCH  27  28
ATOM     28  C   UNL A   1      39.159  20.946  25.796  1.00  0.00     0.261 C 
BRANCH  28  29
ATOM     29  O   UNL A   1      39.939  20.229  26.767  1.00  0.00    -0.460 OA
BRANCH  29  30
ATOM     30  C   UNL A   1      41.159  19.839  26.334  1.00  0.00     0.338 C 
ATOM     31  O   UNL A   1      41.447  18.804  25.751  1.00  0.00    -0.246 OA
BRANCH  30  32
ATOM     32  C   UNL A   1      42.115  20.951  26.489  1.00  0.00     0.060 A 
ATOM     33  C   UNL A   1      42.339  21.429  27.787  1.00  0.00     0.016 A 
ATOM     34  C   UNL A   1      42.742  21.548  25.392  1.00  0.00     0.016 A 
ATOM     35  C   UNL A   1      43.099  22.575  27.983  1.00  0.00     0.010 A 
ATOM     36  C   UNL A   1      43.507  22.700  25.589  1.00  0.00     0.010 A 
ATOM     37  C   UNL A   1      43.624  23.253  26.876  1.00  0.00    -0.014 A 
BRANCH  37  38
ATOM     38  C   UNL A   1      44.061  24.657  27.048  1.00  0.00     0.031 A 
ATOM     39  C   UNL A   1      43.051  25.657  27.544  1.00  0.00     0.074 A 
ATOM     40  C   UNL A   1      45.338  25.016  26.838  1.00  0.00     0.049 A 
ATOM     41  N   UNL A   1      43.193  26.932  27.796  1.00  0.00    -0.248 NA
ATOM     42  C   UNL A   1      41.691  25.147  27.786  1.00  0.00     0.031 C 
ATOM     43  C   UNL A   1      46.406  24.121  26.399  1.00  0.00     0.029 A 
ATOM     44  N   UNL A   1      45.951  26.235  26.975  1.00  0.00    -0.354 N 
ATOM     45  C   UNL A   1      41.942  27.376  28.208  1.00  0.00     0.074 A 
ATOM     46  C   UNL A   1      41.043  26.247  28.138  1.00  0.00     0.031 C 
ATOM     47  C   UNL A   1      47.548  24.822  26.304  1.00  0.00     0.029 A 
ATOM     48  C   UNL A   1      47.283  26.218  26.649  1.00  0.00     0.049 A 
ATOM     49  H   UNL A   1      45.479  27.044  27.278  1.00  0.00     0.167 HD
ATOM     50  C   UNL A   1      41.580  28.612  28.624  1.00  0.00     0.037 A 
ATOM     51  C   UNL A   1      48.178  27.223  26.626  1.00  0.00     0.037 A 
ATOM     52  C   UNL A   1      42.486  29.728  28.700  1.00  0.00     0.049 A 
ATOM     53  C   UNL A   1      47.736  28.604  27.043  1.00  0.00     0.074 A 
ATOM     54  C   UNL A   1      42.234  31.019  29.126  1.00  0.00     0.029 A 
ATOM     55  N   UNL A   1      43.824  29.680  28.333  1.00  0.00    -0.354 N 
ATOM     56  N   UNL A   1      46.561  29.011  27.461  1.00  0.00    -0.248 NA
ATOM     57  C   UNL A   1      48.753  29.662  26.997  1.00  0.00     0.031 C 
ATOM     58  C   UNL A   1      43.401  31.768  28.957  1.00  0.00     0.029 A 
ATOM     59  C   UNL A   1      44.403  30.927  28.499  1.00  0.00     0.049 A 
ATOM     60  H   UNL A   1      44.292  28.878  28.004  1.00  0.00     0.167 HD
ATOM     61  C   UNL A   1      46.709  30.358  27.770  1.00  0.00     0.074 A 
ATOM     62  C   UNL A   1      48.091  30.694  27.500  1.00  0.00     0.031 C 
ATOM     63  C   UNL A   1      45.787  31.236  28.239  1.00  0.00     0.037 A 
BRANCH  50  64
ATOM     64  C   UNL A   1      40.139  28.830  28.990  1.00  0.00     0.064 A 
ATOM     65  C   UNL A   1      39.171  29.174  28.033  1.00  0.00     0.173 A 
ATOM     66  C   UNL A   1      39.716  28.673  30.319  1.00  0.00     0.173 A 
ATOM     67  F   UNL A   1      39.522  29.353  26.751  1.00  0.00    -0.203 F 
ATOM     68  C   UNL A   1      37.843  29.383  28.398  1.00  0.00     0.198 A 
ATOM     69  C   UNL A   1      38.381  28.849  30.675  1.00  0.00     0.198 A 
ATOM     70  F   UNL A   1      40.598  28.345  31.275  1.00  0.00    -0.203 F 
ATOM     71  F   UNL A   1      36.949  29.768  27.477  1.00  0.00    -0.200 F 
ATOM     72  C   UNL A   1      37.449  29.213  29.717  1.00  0.00     0.200 A 
ATOM     73  F   UNL A   1      38.000  28.670  31.947  1.00  0.00    -0.200 F 
ATOM     74  F   UNL A   1      36.169  29.408  30.066  1.00  0.00    -0.200 F 
ENDBRANCH  50  64
BRANCH  51  75
ATOM     75  C   UNL A   1      49.580  26.965  26.206  1.00  0.00     0.064 A 
ATOM     76  C   UNL A   1      49.958  27.037  24.858  1.00  0.00     0.173 A 
ATOM     77  C   UNL A   1      50.569  26.624  27.142  1.00  0.00     0.173 A 
ATOM     78  F   UNL A   1      49.045  27.340  23.923  1.00  0.00    -0.203 F 
ATOM     79  C   UNL A   1      51.260  26.749  24.458  1.00  0.00     0.198 A 
ATOM     80  C   UNL A   1      51.879  26.369  26.744  1.00  0.00     0.198 A 
ATOM     81  F   UNL A   1      50.263  26.544  28.444  1.00  0.00    -0.203 F 
ATOM     82  F   UNL A   1      51.579  26.772  23.157  1.00  0.00    -0.200 F 
ATOM     83  C   UNL A   1      52.223  26.421  25.401  1.00  0.00     0.200 A 
ATOM     84  F   UNL A   1      52.809  26.067  27.661  1.00  0.00    -0.200 F 
ATOM     85  F   UNL A   1      53.476  26.148  25.016  1.00  0.00    -0.200 F 
ENDBRANCH  51  75
BRANCH  63  86
ATOM     86  C   UNL A   1      46.262  32.628  28.555  1.00  0.00     0.064 A 
ATOM     87  C   UNL A   1      46.216  33.664  27.611  1.00  0.00     0.173 A 
ATOM     88  C   UNL A   1      46.751  32.929  29.836  1.00  0.00     0.173 A 
ATOM     89  F   UNL A   1      45.767  33.427  26.369  1.00  0.00    -0.203 F 
ATOM     90  C   UNL A   1      46.687  34.937  27.923  1.00  0.00     0.198 A 
ATOM     91  C   UNL A   1      47.183  34.213  30.157  1.00  0.00     0.198 A 
ATOM     92  F   UNL A   1      46.805  31.979  30.782  1.00  0.00    -0.203 F 
ATOM     93  F   UNL A   1      46.699  35.893  26.984  1.00  0.00    -0.200 F 
ATOM     94  C   UNL A   1      47.163  35.213  29.196  1.00  0.00     0.200 A 
ATOM     95  F   UNL A   1      47.623  34.481  31.394  1.00  0.00    -0.200 F 
ATOM     96  F   UNL A   1      47.613  36.438  29.495  1.00  0.00    -0.200 F 
ENDBRANCH  63  86
ENDBRANCH  37  38
ENDBRANCH  30  32
ENDBRANCH  29  30
ENDBRANCH  28  29
ENDBRANCH  27  28
ENDBRANCH  26  27
ENDBRANCH   1  26
TORSDOF 18
ENDMDL
MODEL 3
REMARK VINA RESULT:     -11.7      6.025     11.321
REMARK SMILES O=C(CNc1nc(-c2ccccc2)c(-c2ccccc2)s1)OCCOCCOC(=O)c1ccc(-c2c3nc(c(-c4c(F)c(F)c(F)c(F)c4F)c4ccc([nH]4)c(-c4c(F)c(F)c(F)c(F)c4F)c4nc(c(-c5c(F)c(F)c(F)c(F)c5F)c5ccc2[nH]5)C=C4)C=C3)cc1
REMARK SMILES IDX 24 1 23 2 22 3 2 4 1 5 3 6 4 7 5 9 6 10 21 11 7 12 14 13
REMARK SMILES IDX 8 14 9 15 13 16 10 17 12 18 11 19 15 20 16 21 20 22 17 23
REMARK SMILES IDX 19 24 18 25 25 26 26 27 27 28 28 29 29 30 30 31 31 32 32 33
REMARK SMILES IDX 93 34 33 35 92 36 34 37 35 38 36 39 86 40 37 41 91 42 85 43
REMARK SMILES IDX 87 44 38 45 90 46 84 47 83 48 39 50 71 51 51 52 70 53 52 54
REMARK SMILES IDX 55 55 69 56 88 57 53 58 54 59 68 61 89 62 56 63 40 64 41 65
REMARK SMILES IDX 49 66 42 67 43 68 47 69 50 70 44 71 45 72 48 73 46 74 72 75
REMARK SMILES IDX 73 76 81 77 74 78 75 79 79 80 82 81 76 82 77 83 80 84 78 85
REMARK SMILES IDX 57 86 58 87 66 88 59 89 60 90 64 91 67 92 61 93 62 94 65 95
REMARK SMILES IDX 63 96
REMARK H PARENT 4 8 87 49 55 60
REMARK Flexibility Score: inf
ROOT
ATOM      1  C   UNL A   1      44.058  20.971  25.470  1.00  0.00     0.202 C 
ENDROOT
BRANCH   1   2
ATOM      2  C   UNL A   1      42.819  20.948  26.361  1.00  0.00     0.261 C 
BRANCH   2   3
ATOM      3  O   UNL A   1      41.596  21.329  25.722  1.00  0.00    -0.462 OA
BRANCH   3   4
ATOM      4  C   UNL A   1      40.355  20.946  26.106  1.00  0.00     0.325 C 
ATOM      5  O   UNL A   1      40.083  19.744  26.093  1.00  0.00    -0.250 OA
BRANCH   4   6
ATOM      6  C   UNL A   1      39.295  21.977  26.501  1.00  0.00     0.238 C 
BRANCH   6   7
ATOM      7  N   UNL A   1      38.433  22.378  25.404  1.00  0.00    -0.351 N 
ATOM      8  H   UNL A   1      38.805  22.921  24.671  1.00  0.00     0.163 HD
BRANCH   7   9
ATOM      9  C   UNL A   1      37.133  22.021  25.368  1.00  0.00     0.184 A 
ATOM     10  N   UNL A   1      36.647  20.890  24.915  1.00  0.00    -0.220 NA
ATOM     11  S   UNL A   1      35.955  23.169  25.875  1.00  0.00    -0.096 S 
ATOM     12  C   UNL A   1      35.257  20.928  24.915  1.00  0.00     0.091 A 
ATOM     13  C   UNL A   1      34.705  22.128  25.337  1.00  0.00     0.064 A 
BRANCH  12  14
ATOM     14  C   UNL A   1      34.452  19.747  24.626  1.00  0.00     0.002 A 
ATOM     15  C   UNL A   1      35.003  18.458  24.625  1.00  0.00     0.010 A 
ATOM     16  C   UNL A   1      33.129  19.923  24.200  1.00  0.00     0.010 A 
ATOM     17  C   UNL A   1      34.264  17.377  24.137  1.00  0.00     0.001 A 
ATOM     18  C   UNL A   1      32.394  18.842  23.710  1.00  0.00     0.001 A 
ATOM     19  C   UNL A   1      32.968  17.573  23.663  1.00  0.00     0.000 A 
ENDBRANCH  12  14
BRANCH  13  20
ATOM     20  C   UNL A   1      33.321  22.554  25.501  1.00  0.00    -0.006 A 
ATOM     21  C   UNL A   1      32.574  23.003  24.403  1.00  0.00     0.009 A 
ATOM     22  C   UNL A   1      32.730  22.521  26.770  1.00  0.00     0.009 A 
ATOM     23  C   UNL A   1      31.257  23.432  24.581  1.00  0.00     0.001 A 
ATOM     24  C   UNL A   1      31.417  22.952  26.944  1.00  0.00     0.001 A 
ATOM     25  C   UNL A   1      30.683  23.412  25.851  1.00  0.00     0.000 A 
ENDBRANCH  13  20
ENDBRANCH   7   9
ENDBRANCH   6   7
ENDBRANCH   4   6
ENDBRANCH   3   4
ENDBRANCH   2   3
ENDBRANCH   1   2
BRANCH   1  26
ATOM     26  O   UNL A   1      43.997  21.753  24.285  1.00  0.00    -0.374 OA
BRANCH  26  27
ATOM     27  C   UNL A   1      45.221  22.356  23.856  1.00  0.00     0.202 C 
BRANCH  27  28
ATOM     28  C   UNL A   1      45.699  23.544  24.695  1.00  0.00     0.261 C 
BRANCH  28  29
ATOM     29  O   UNL A   1      44.590  24.327  25.166  1.00  0.00    -0.460 OA
BRANCH  29  30
ATOM     30  C   UNL A   1      44.830  25.655  25.247  1.00  0.00     0.338 C 
ATOM     31  O   UNL A   1      45.662  26.300  24.626  1.00  0.00    -0.246 OA
BRANCH  30  32
ATOM     32  C   UNL A   1      43.790  26.294  26.074  1.00  0.00     0.060 A 
ATOM     33  C   UNL A   1      43.867  27.683  26.242  1.00  0.00     0.016 A 
ATOM     34  C   UNL A   1      42.793  25.554  26.714  1.00  0.00     0.016 A 
ATOM     35  C   UNL A   1      43.019  28.323  27.137  1.00  0.00     0.010 A 
ATOM     36  C   UNL A   1      41.939  26.196  27.613  1.00  0.00     0.010 A 
ATOM     37  C   UNL A   1      42.101  27.567  27.877  1.00  0.00    -0.014 A 
BRANCH  37  38
ATOM     38  C   UNL A   1      41.510  28.167  29.094  1.00  0.00     0.031 A 
ATOM     39  C   UNL A   1      42.217  27.951  30.406  1.00  0.00     0.074 A 
ATOM     40  C   UNL A   1      40.416  28.943  29.024  1.00  0.00     0.049 A 
ATOM     41  N   UNL A   1      41.914  28.388  31.600  1.00  0.00    -0.248 NA
ATOM     42  C   UNL A   1      43.434  27.122  30.364  1.00  0.00     0.031 C 
ATOM     43  C   UNL A   1      39.678  29.253  27.802  1.00  0.00     0.029 A 
ATOM     44  N   UNL A   1      39.740  29.616  30.009  1.00  0.00    -0.354 N 
ATOM     45  C   UNL A   1      42.889  27.876  32.448  1.00  0.00     0.074 A 
ATOM     46  C   UNL A   1      43.773  27.065  31.642  1.00  0.00     0.031 C 
ATOM     47  C   UNL A   1      38.649  30.061  28.109  1.00  0.00     0.029 A 
ATOM     48  C   UNL A   1      38.643  30.299  29.551  1.00  0.00     0.049 A 
ATOM     49  H   UNL A   1      40.016  29.609  30.954  1.00  0.00     0.167 HD
ATOM     50  C   UNL A   1      43.043  28.079  33.777  1.00  0.00     0.037 A 
ATOM     51  C   UNL A   1      37.734  31.026  30.230  1.00  0.00     0.037 A 
ATOM     52  C   UNL A   1      42.163  28.898  34.568  1.00  0.00     0.049 A 
ATOM     53  C   UNL A   1      37.898  31.192  31.719  1.00  0.00     0.074 A 
ATOM     54  C   UNL A   1      42.235  29.190  35.919  1.00  0.00     0.029 A 
ATOM     55  N   UNL A   1      41.043  29.552  34.075  1.00  0.00    -0.354 N 
ATOM     56  N   UNL A   1      38.839  30.732  32.510  1.00  0.00    -0.248 NA
ATOM     57  C   UNL A   1      36.878  31.993  32.408  1.00  0.00     0.031 C 
ATOM     58  C   UNL A   1      41.124  29.968  36.254  1.00  0.00     0.029 A 
ATOM     59  C   UNL A   1      40.401  30.226  35.100  1.00  0.00     0.049 A 
ATOM     60  H   UNL A   1      40.749  29.539  33.135  1.00  0.00     0.167 HD
ATOM     61  C   UNL A   1      38.549  31.223  33.778  1.00  0.00     0.074 A 
ATOM     62  C   UNL A   1      37.351  32.026  33.645  1.00  0.00     0.031 C 
ATOM     63  C   UNL A   1      39.216  31.033  34.944  1.00  0.00     0.037 A 
BRANCH  50  64
ATOM     64  C   UNL A   1      44.180  27.374  34.462  1.00  0.00     0.064 A 
ATOM     65  C   UNL A   1      44.065  26.057  34.932  1.00  0.00     0.173 A 
ATOM     66  C   UNL A   1      45.412  28.023  34.635  1.00  0.00     0.173 A 
ATOM     67  F   UNL A   1      42.905  25.394  34.809  1.00  0.00    -0.203 F 
ATOM     68  C   UNL A   1      45.129  25.428  35.575  1.00  0.00     0.198 A 
ATOM     69  C   UNL A   1      46.485  27.380  35.248  1.00  0.00     0.198 A 
ATOM     70  F   UNL A   1      45.579  29.284  34.205  1.00  0.00    -0.203 F 
ATOM     71  F   UNL A   1      44.976  24.191  36.067  1.00  0.00    -0.200 F 
ATOM     72  C   UNL A   1      46.340  26.088  35.726  1.00  0.00     0.200 A 
ATOM     73  F   UNL A   1      47.658  28.015  35.379  1.00  0.00    -0.200 F 
ATOM     74  F   UNL A   1      47.365  25.480  36.339  1.00  0.00    -0.200 F 
ENDBRANCH  50  64
BRANCH  51  75
ATOM     75  C   UNL A   1      36.598  31.660  29.511  1.00  0.00     0.064 A 
ATOM     76  C   UNL A   1      35.528  30.894  29.028  1.00  0.00     0.173 A 
ATOM     77  C   UNL A   1      36.567  33.043  29.276  1.00  0.00     0.173 A 
ATOM     78  F   UNL A   1      35.520  29.565  29.211  1.00  0.00    -0.203 F 
ATOM     79  C   UNL A   1      34.486  31.481  28.315  1.00  0.00     0.198 A 
ATOM     80  C   UNL A   1      35.508  33.633  28.590  1.00  0.00     0.198 A 
ATOM     81  F   UNL A   1      37.564  33.823  29.718  1.00  0.00    -0.203 F 
ATOM     82  F   UNL A   1      33.504  30.716  27.818  1.00  0.00    -0.200 F 
ATOM     83  C   UNL A   1      34.473  32.851  28.101  1.00  0.00     0.200 A 
ATOM     84  F   UNL A   1      35.492  34.959  28.399  1.00  0.00    -0.200 F 
ATOM     85  F   UNL A   1      33.469  33.415  27.416  1.00  0.00    -0.200 F 
ENDBRANCH  51  75
BRANCH  63  86
ATOM     86  C   UNL A   1      38.703  31.761  36.156  1.00  0.00     0.064 A 
ATOM     87  C   UNL A   1      37.886  31.137  37.109  1.00  0.00     0.173 A 
ATOM     88  C   UNL A   1      39.058  33.102  36.372  1.00  0.00     0.173 A 
ATOM     89  F   UNL A   1      37.509  29.860  36.945  1.00  0.00    -0.203 F 
ATOM     90  C   UNL A   1      37.403  31.843  38.209  1.00  0.00     0.198 A 
ATOM     91  C   UNL A   1      38.607  33.791  37.494  1.00  0.00     0.198 A 
ATOM     92  F   UNL A   1      39.848  33.744  35.499  1.00  0.00    -0.203 F 
ATOM     93  F   UNL A   1      36.566  31.246  39.070  1.00  0.00    -0.200 F 
ATOM     94  C   UNL A   1      37.770  33.166  38.405  1.00  0.00     0.200 A 
ATOM     95  F   UNL A   1      38.979  35.064  37.690  1.00  0.00    -0.200 F 
ATOM     96  F   UNL A   1      37.306  33.842  39.464  1.00  0.00    -0.200 F 
ENDBRANCH  63  86
ENDBRANCH  37  38
ENDBRANCH  30  32
ENDBRANCH  29  30
ENDBRANCH  28  29
ENDBRANCH  27  28
ENDBRANCH  26  27
ENDBRANCH   1  26
TORSDOF 18
ENDMDL
