MODEL 1
REMARK VINA RESULT:     -10.9      0.000      0.000
REMARK SMILES CC[C@@H](C)NC(=O)Cn1cccc1C(=O)OCCOCCOC(=O)c1ccc(-c2c3nc(c(-c4c(F)c(F)c(F)c(F)c4F)c4ccc([nH]4)c(-c4c(F)c(F)c(F)c(F)c4F)c4nc(c(-c5c(F)c(F)c(F)c(F)c5F)c5ccc2[nH]5)C=C4)C=C3)cc1
REMARK SMILES IDX 18 1 17 2 16 3 14 4 15 5 13 6 9 7 10 8 11 9 12 10 8 11 6 12
REMARK SMILES IDX 5 13 7 15 3 16 4 17 2 18 1 19 19 20 20 21 21 22 22 23 23 24
REMARK SMILES IDX 24 25 25 26 26 27 87 28 27 29 86 30 28 31 29 32 30 33 80 34
REMARK SMILES IDX 31 35 85 36 79 37 81 38 32 39 84 40 78 41 77 42 33 44 65 45
REMARK SMILES IDX 45 46 64 47 46 48 49 49 63 50 82 51 47 52 48 53 62 55 83 56
REMARK SMILES IDX 50 57 34 58 35 59 43 60 36 61 37 62 41 63 44 64 38 65 39 66
REMARK SMILES IDX 42 67 40 68 66 69 67 70 75 71 68 72 69 73 73 74 76 75 70 76
REMARK SMILES IDX 71 77 74 78 72 79 51 80 52 81 60 82 53 83 54 84 58 85 61 86
REMARK SMILES IDX 55 87 56 88 59 89 57 90
REMARK H PARENT 5 14 81 43 49 54
REMARK Flexibility Score: inf
ROOT
ATOM      1  C   UNL A   1      32.648  28.450  27.248  1.00  0.00     0.202 C 
ENDROOT
BRANCH   1   2
ATOM      2  C   UNL A   1      31.376  27.673  26.913  1.00  0.00     0.261 C 
BRANCH   2   3
ATOM      3  O   UNL A   1      31.675  26.288  26.656  1.00  0.00    -0.459 OA
BRANCH   3   4
ATOM      4  C   UNL A   1      30.690  25.598  26.017  1.00  0.00     0.355 C 
ATOM      5  O   UNL A   1      29.618  25.320  26.501  1.00  0.00    -0.244 OA
BRANCH   4   6
ATOM      6  C   UNL A   1      31.042  25.365  24.620  1.00  0.00     0.128 A 
ATOM      7  N   UNL A   1      30.865  26.140  23.487  1.00  0.00    -0.333 N 
ATOM      8  C   UNL A   1      31.543  25.559  22.434  1.00  0.00     0.087 A 
ATOM      9  C   UNL A   1      31.934  24.301  22.813  1.00  0.00     0.020 A 
ATOM     10  C   UNL A   1      31.630  24.181  24.181  1.00  0.00     0.035 A 
BRANCH   7  11
ATOM     11  C   UNL A   1      30.105  27.377  23.331  1.00  0.00     0.222 C 
BRANCH  11  12
ATOM     12  C   UNL A   1      30.979  28.607  23.444  1.00  0.00     0.240 C 
ATOM     13  N   UNL A   1      30.432  29.854  23.502  1.00  0.00    -0.352 N 
ATOM     14  H   UNL A   1      31.045  30.540  23.852  1.00  0.00     0.163 HD
ATOM     15  O   UNL A   1      32.210  28.516  23.476  1.00  0.00    -0.273 OA
BRANCH  13  16
ATOM     16  C   UNL A   1      29.117  30.371  23.148  1.00  0.00     0.078 C 
ATOM     17  C   UNL A   1      29.002  30.447  21.622  1.00  0.00     0.031 C 
BRANCH  16  18
ATOM     18  C   UNL A   1      28.964  31.746  23.806  1.00  0.00     0.021 C 
ATOM     19  C   UNL A   1      28.768  32.878  22.816  1.00  0.00     0.006 C 
ENDBRANCH  16  18
ENDBRANCH  13  16
ENDBRANCH  11  12
ENDBRANCH   7  11
ENDBRANCH   4   6
ENDBRANCH   3   4
ENDBRANCH   2   3
ENDBRANCH   1   2
BRANCH   1  20
ATOM     20  O   UNL A   1      32.947  29.550  26.384  1.00  0.00    -0.374 OA
BRANCH  20  21
ATOM     21  C   UNL A   1      32.672  30.864  26.865  1.00  0.00     0.202 C 
BRANCH  21  22
ATOM     22  C   UNL A   1      33.764  31.517  27.704  1.00  0.00     0.261 C 
BRANCH  22  23
ATOM     23  O   UNL A   1      33.926  32.883  27.332  1.00  0.00    -0.460 OA
BRANCH  23  24
ATOM     24  C   UNL A   1      33.273  33.755  28.142  1.00  0.00     0.338 C 
ATOM     25  O   UNL A   1      32.154  34.213  27.978  1.00  0.00    -0.246 OA
BRANCH  24  26
ATOM     26  C   UNL A   1      34.193  34.218  29.202  1.00  0.00     0.060 A 
ATOM     27  C   UNL A   1      35.430  34.599  28.697  1.00  0.00     0.016 A 
ATOM     28  C   UNL A   1      34.092  33.552  30.422  1.00  0.00     0.016 A 
ATOM     29  C   UNL A   1      36.532  33.959  29.203  1.00  0.00     0.010 A 
ATOM     30  C   UNL A   1      35.127  32.763  30.822  1.00  0.00     0.010 A 
ATOM     31  C   UNL A   1      36.346  32.984  30.196  1.00  0.00    -0.014 A 
BRANCH  31  32
ATOM     32  C   UNL A   1      37.534  32.399  30.786  1.00  0.00     0.031 A 
ATOM     33  C   UNL A   1      37.895  31.146  29.951  1.00  0.00     0.074 A 
ATOM     34  C   UNL A   1      37.941  33.011  31.940  1.00  0.00     0.049 A 
ATOM     35  N   UNL A   1      38.337  29.996  30.345  1.00  0.00    -0.248 NA
ATOM     36  C   UNL A   1      37.621  31.114  28.478  1.00  0.00     0.031 C 
ATOM     37  C   UNL A   1      37.413  34.291  32.488  1.00  0.00     0.029 A 
ATOM     38  N   UNL A   1      38.857  32.681  32.908  1.00  0.00    -0.354 N 
ATOM     39  C   UNL A   1      38.577  29.207  29.198  1.00  0.00     0.074 A 
ATOM     40  C   UNL A   1      37.996  29.894  28.094  1.00  0.00     0.031 C 
ATOM     41  C   UNL A   1      37.925  34.547  33.716  1.00  0.00     0.029 A 
ATOM     42  C   UNL A   1      38.827  33.476  34.090  1.00  0.00     0.049 A 
ATOM     43  H   UNL A   1      39.496  31.940  32.793  1.00  0.00     0.167 HD
ATOM     44  C   UNL A   1      39.374  28.101  29.227  1.00  0.00     0.037 A 
ATOM     45  C   UNL A   1      39.429  33.215  35.295  1.00  0.00     0.037 A 
ATOM     46  C   UNL A   1      39.828  27.891  30.558  1.00  0.00     0.049 A 
ATOM     47  C   UNL A   1      40.173  31.973  35.044  1.00  0.00     0.074 A 
ATOM     48  C   UNL A   1      39.172  27.430  31.668  1.00  0.00     0.029 A 
ATOM     49  N   UNL A   1      40.946  28.591  30.944  1.00  0.00    -0.354 N 
ATOM     50  N   UNL A   1      41.246  31.885  34.317  1.00  0.00    -0.248 NA
ATOM     51  C   UNL A   1      39.580  30.712  35.505  1.00  0.00     0.031 C 
ATOM     52  C   UNL A   1      39.622  28.303  32.678  1.00  0.00     0.029 A 
ATOM     53  C   UNL A   1      40.723  29.038  32.222  1.00  0.00     0.049 A 
ATOM     54  H   UNL A   1      41.756  28.743  30.405  1.00  0.00     0.167 HD
ATOM     55  C   UNL A   1      41.257  30.554  33.979  1.00  0.00     0.074 A 
ATOM     56  C   UNL A   1      40.449  29.865  34.962  1.00  0.00     0.031 C 
ATOM     57  C   UNL A   1      41.465  30.184  32.689  1.00  0.00     0.037 A 
BRANCH  44  58
ATOM     58  C   UNL A   1      40.020  27.278  28.154  1.00  0.00     0.064 A 
ATOM     59  C   UNL A   1      39.883  25.870  28.248  1.00  0.00     0.173 A 
ATOM     60  C   UNL A   1      41.041  27.750  27.323  1.00  0.00     0.173 A 
ATOM     61  F   UNL A   1      38.883  25.323  28.958  1.00  0.00    -0.203 F 
ATOM     62  C   UNL A   1      40.823  25.002  27.704  1.00  0.00     0.198 A 
ATOM     63  C   UNL A   1      41.951  26.870  26.730  1.00  0.00     0.198 A 
ATOM     64  F   UNL A   1      41.249  29.063  27.153  1.00  0.00    -0.203 F 
ATOM     65  F   UNL A   1      40.750  23.690  27.968  1.00  0.00    -0.200 F 
ATOM     66  C   UNL A   1      41.874  25.506  26.964  1.00  0.00     0.200 A 
ATOM     67  F   UNL A   1      42.960  27.357  25.995  1.00  0.00    -0.200 F 
ATOM     68  F   UNL A   1      42.828  24.684  26.507  1.00  0.00    -0.200 F 
ENDBRANCH  44  58
BRANCH  45  69
ATOM     69  C   UNL A   1      39.412  33.701  36.732  1.00  0.00     0.064 A 
ATOM     70  C   UNL A   1      40.276  34.639  37.306  1.00  0.00     0.173 A 
ATOM     71  C   UNL A   1      38.387  33.246  37.619  1.00  0.00     0.173 A 
ATOM     72  F   UNL A   1      41.367  35.056  36.652  1.00  0.00    -0.203 F 
ATOM     73  C   UNL A   1      40.051  35.170  38.596  1.00  0.00     0.198 A 
ATOM     74  C   UNL A   1      38.125  33.814  38.865  1.00  0.00     0.198 A 
ATOM     75  F   UNL A   1      37.589  32.217  37.305  1.00  0.00    -0.203 F 
ATOM     76  F   UNL A   1      40.905  36.069  39.106  1.00  0.00    -0.200 F 
ATOM     77  C   UNL A   1      38.950  34.794  39.350  1.00  0.00     0.200 A 
ATOM     78  F   UNL A   1      37.057  33.408  39.568  1.00  0.00    -0.200 F 
ATOM     79  F   UNL A   1      38.697  35.357  40.539  1.00  0.00    -0.200 F 
ENDBRANCH  45  69
BRANCH  57  80
ATOM     80  C   UNL A   1      42.166  31.232  31.836  1.00  0.00     0.064 A 
ATOM     81  C   UNL A   1      43.493  31.585  32.121  1.00  0.00     0.173 A 
ATOM     82  C   UNL A   1      41.546  31.984  30.823  1.00  0.00     0.173 A 
ATOM     83  F   UNL A   1      44.177  30.904  33.052  1.00  0.00    -0.203 F 
ATOM     84  C   UNL A   1      44.140  32.632  31.455  1.00  0.00     0.198 A 
ATOM     85  C   UNL A   1      42.184  33.035  30.157  1.00  0.00     0.198 A 
ATOM     86  F   UNL A   1      40.303  31.714  30.441  1.00  0.00    -0.203 F 
ATOM     87  F   UNL A   1      45.412  32.929  31.759  1.00  0.00    -0.200 F 
ATOM     88  C   UNL A   1      43.485  33.362  30.478  1.00  0.00     0.200 A 
ATOM     89  F   UNL A   1      41.536  33.718  29.199  1.00  0.00    -0.200 F 
ATOM     90  F   UNL A   1      44.109  34.357  29.833  1.00  0.00    -0.200 F 
ENDBRANCH  57  80
ENDBRANCH  31  32
ENDBRANCH  24  26
ENDBRANCH  23  24
ENDBRANCH  22  23
ENDBRANCH  21  22
ENDBRANCH  20  21
ENDBRANCH   1  20
TORSDOF 18
ENDMDL
MODEL 2
REMARK VINA RESULT:     -10.7      4.671     10.277
REMARK SMILES CC[C@@H](C)NC(=O)Cn1cccc1C(=O)OCCOCCOC(=O)c1ccc(-c2c3nc(c(-c4c(F)c(F)c(F)c(F)c4F)c4ccc([nH]4)c(-c4c(F)c(F)c(F)c(F)c4F)c4nc(c(-c5c(F)c(F)c(F)c(F)c5F)c5ccc2[nH]5)C=C4)C=C3)cc1
REMARK SMILES IDX 18 1 17 2 16 3 14 4 15 5 13 6 9 7 10 8 11 9 12 10 8 11 6 12
REMARK SMILES IDX 5 13 7 15 3 16 4 17 2 18 1 19 19 20 20 21 21 22 22 23 23 24
REMARK SMILES IDX 24 25 25 26 26 27 87 28 27 29 86 30 28 31 29 32 30 33 80 34
REMARK SMILES IDX 31 35 85 36 79 37 81 38 32 39 84 40 78 41 77 42 33 44 65 45
REMARK SMILES IDX 45 46 64 47 46 48 49 49 63 50 82 51 47 52 48 53 62 55 83 56
REMARK SMILES IDX 50 57 34 58 35 59 43 60 36 61 37 62 41 63 44 64 38 65 39 66
REMARK SMILES IDX 42 67 40 68 66 69 67 70 75 71 68 72 69 73 73 74 76 75 70 76
REMARK SMILES IDX 71 77 74 78 72 79 51 80 52 81 60 82 53 83 54 84 58 85 61 86
REMARK SMILES IDX 55 87 56 88 59 89 57 90
REMARK H PARENT 5 14 81 43 49 54
REMARK Flexibility Score: inf
ROOT
ATOM      1  C   UNL A   1      36.461  23.204  24.033  1.00  0.00     0.202 C 
ENDROOT
BRANCH   1   2
ATOM      2  C   UNL A   1      35.140  23.059  24.786  1.00  0.00     0.261 C 
BRANCH   2   3
ATOM      3  O   UNL A   1      34.074  22.702  23.885  1.00  0.00    -0.459 OA
BRANCH   3   4
ATOM      4  C   UNL A   1      32.930  23.424  24.038  1.00  0.00     0.355 C 
ATOM      5  O   UNL A   1      32.001  23.104  24.741  1.00  0.00    -0.244 OA
BRANCH   4   6
ATOM      6  C   UNL A   1      33.032  24.710  23.354  1.00  0.00     0.128 A 
ATOM      7  N   UNL A   1      33.344  25.976  23.820  1.00  0.00    -0.333 N 
ATOM      8  C   UNL A   1      33.497  26.826  22.743  1.00  0.00     0.087 A 
ATOM      9  C   UNL A   1      33.038  26.188  21.620  1.00  0.00     0.020 A 
ATOM     10  C   UNL A   1      32.755  24.863  21.997  1.00  0.00     0.035 A 
BRANCH   7  11
ATOM     11  C   UNL A   1      33.504  26.432  25.197  1.00  0.00     0.222 C 
BRANCH  11  12
ATOM     12  C   UNL A   1      32.178  26.719  25.866  1.00  0.00     0.240 C 
ATOM     13  N   UNL A   1      31.459  27.834  25.550  1.00  0.00    -0.352 N 
ATOM     14  H   UNL A   1      30.513  27.784  25.817  1.00  0.00     0.163 HD
ATOM     15  O   UNL A   1      31.716  25.961  26.722  1.00  0.00    -0.273 OA
BRANCH  13  16
ATOM     16  C   UNL A   1      31.817  29.085  24.894  1.00  0.00     0.078 C 
ATOM     17  C   UNL A   1      31.700  30.232  25.903  1.00  0.00     0.031 C 
BRANCH  16  18
ATOM     18  C   UNL A   1      30.875  29.270  23.700  1.00  0.00     0.021 C 
ATOM     19  C   UNL A   1      29.805  28.200  23.596  1.00  0.00     0.006 C 
ENDBRANCH  16  18
ENDBRANCH  13  16
ENDBRANCH  11  12
ENDBRANCH   7  11
ENDBRANCH   4   6
ENDBRANCH   3   4
ENDBRANCH   2   3
ENDBRANCH   1   2
BRANCH   1  20
ATOM     20  O   UNL A   1      37.359  22.096  24.139  1.00  0.00    -0.374 OA
BRANCH  20  21
ATOM     21  C   UNL A   1      37.801  21.724  25.442  1.00  0.00     0.202 C 
BRANCH  21  22
ATOM     22  C   UNL A   1      38.735  20.522  25.520  1.00  0.00     0.261 C 
BRANCH  22  23
ATOM     23  O   UNL A   1      39.953  20.880  26.165  1.00  0.00    -0.460 OA
BRANCH  23  24
ATOM     24  C   UNL A   1      40.946  19.968  26.012  1.00  0.00     0.338 C 
ATOM     25  O   UNL A   1      40.822  18.786  25.735  1.00  0.00    -0.246 OA
BRANCH  24  26
ATOM     26  C   UNL A   1      42.235  20.582  26.398  1.00  0.00     0.060 A 
ATOM     27  C   UNL A   1      42.303  20.852  27.758  1.00  0.00     0.016 A 
ATOM     28  C   UNL A   1      42.791  21.454  25.464  1.00  0.00     0.016 A 
ATOM     29  C   UNL A   1      42.551  22.151  28.121  1.00  0.00     0.010 A 
ATOM     30  C   UNL A   1      42.853  22.780  25.769  1.00  0.00     0.010 A 
ATOM     31  C   UNL A   1      42.730  23.109  27.111  1.00  0.00    -0.014 A 
BRANCH  31  32
ATOM     32  C   UNL A   1      43.092  24.451  27.523  1.00  0.00     0.031 A 
ATOM     33  C   UNL A   1      41.777  25.234  27.756  1.00  0.00     0.074 A 
ATOM     34  C   UNL A   1      44.437  24.700  27.489  1.00  0.00     0.049 A 
ATOM     35  N   UNL A   1      41.491  26.463  27.473  1.00  0.00    -0.248 NA
ATOM     36  C   UNL A   1      40.558  24.528  28.270  1.00  0.00     0.031 C 
ATOM     37  C   UNL A   1      45.512  23.690  27.280  1.00  0.00     0.029 A 
ATOM     38  N   UNL A   1      45.186  25.847  27.593  1.00  0.00    -0.354 N 
ATOM     39  C   UNL A   1      40.184  26.724  27.942  1.00  0.00     0.074 A 
ATOM     40  C   UNL A   1      39.614  25.468  28.300  1.00  0.00     0.031 C 
ATOM     41  C   UNL A   1      46.724  24.282  27.158  1.00  0.00     0.029 A 
ATOM     42  C   UNL A   1      46.568  25.718  27.273  1.00  0.00     0.049 A 
ATOM     43  H   UNL A   1      44.792  26.704  27.872  1.00  0.00     0.167 HD
ATOM     44  C   UNL A   1      39.717  27.990  28.136  1.00  0.00     0.037 A 
ATOM     45  C   UNL A   1      47.474  26.721  27.039  1.00  0.00     0.037 A 
ATOM     46  C   UNL A   1      40.720  28.920  27.742  1.00  0.00     0.049 A 
ATOM     47  C   UNL A   1      46.698  27.946  27.282  1.00  0.00     0.074 A 
ATOM     48  C   UNL A   1      41.164  29.288  26.501  1.00  0.00     0.029 A 
ATOM     49  N   UNL A   1      41.674  29.228  28.682  1.00  0.00    -0.354 N 
ATOM     50  N   UNL A   1      46.313  28.361  28.451  1.00  0.00    -0.248 NA
ATOM     51  C   UNL A   1      46.177  28.671  26.117  1.00  0.00     0.031 C 
ATOM     52  C   UNL A   1      42.562  29.321  26.670  1.00  0.00     0.029 A 
ATOM     53  C   UNL A   1      42.882  29.270  28.033  1.00  0.00     0.049 A 
ATOM     54  H   UNL A   1      41.520  29.389  29.641  1.00  0.00     0.167 HD
ATOM     55  C   UNL A   1      45.260  29.183  28.132  1.00  0.00     0.074 A 
ATOM     56  C   UNL A   1      45.438  29.576  26.751  1.00  0.00     0.031 C 
ATOM     57  C   UNL A   1      44.085  29.072  28.805  1.00  0.00     0.037 A 
BRANCH  44  58
ATOM     58  C   UNL A   1      38.534  28.542  28.871  1.00  0.00     0.064 A 
ATOM     59  C   UNL A   1      37.846  29.626  28.269  1.00  0.00     0.173 A 
ATOM     60  C   UNL A   1      38.307  28.343  30.237  1.00  0.00     0.173 A 
ATOM     61  F   UNL A   1      37.939  29.850  26.948  1.00  0.00    -0.203 F 
ATOM     62  C   UNL A   1      37.138  30.557  29.021  1.00  0.00     0.198 A 
ATOM     63  C   UNL A   1      37.545  29.249  30.980  1.00  0.00     0.198 A 
ATOM     64  F   UNL A   1      38.897  27.339  30.901  1.00  0.00    -0.203 F 
ATOM     65  F   UNL A   1      36.654  31.660  28.434  1.00  0.00    -0.200 F 
ATOM     66  C   UNL A   1      37.008  30.380  30.384  1.00  0.00     0.200 A 
ATOM     67  F   UNL A   1      37.402  29.067  32.300  1.00  0.00    -0.200 F 
ATOM     68  F   UNL A   1      36.400  31.313  31.127  1.00  0.00    -0.200 F 
ENDBRANCH  44  58
BRANCH  45  69
ATOM     69  C   UNL A   1      48.872  26.919  26.485  1.00  0.00     0.064 A 
ATOM     70  C   UNL A   1      49.305  26.625  25.188  1.00  0.00     0.173 A 
ATOM     71  C   UNL A   1      49.874  27.533  27.299  1.00  0.00     0.173 A 
ATOM     72  F   UNL A   1      48.531  25.925  24.349  1.00  0.00    -0.203 F 
ATOM     73  C   UNL A   1      50.573  27.032  24.713  1.00  0.00     0.198 A 
ATOM     74  C   UNL A   1      51.098  27.993  26.816  1.00  0.00     0.198 A 
ATOM     75  F   UNL A   1      49.700  27.714  28.615  1.00  0.00    -0.203 F 
ATOM     76  F   UNL A   1      50.945  26.729  23.462  1.00  0.00    -0.200 F 
ATOM     77  C   UNL A   1      51.444  27.757  25.512  1.00  0.00     0.200 A 
ATOM     78  F   UNL A   1      51.918  28.677  27.629  1.00  0.00    -0.200 F 
ATOM     79  F   UNL A   1      52.611  28.209  25.034  1.00  0.00    -0.200 F 
ENDBRANCH  45  69
BRANCH  57  80
ATOM     80  C   UNL A   1      44.199  28.411  30.171  1.00  0.00     0.064 A 
ATOM     81  C   UNL A   1      44.852  29.083  31.215  1.00  0.00     0.173 A 
ATOM     82  C   UNL A   1      43.792  27.098  30.461  1.00  0.00     0.173 A 
ATOM     83  F   UNL A   1      45.251  30.351  31.043  1.00  0.00    -0.203 F 
ATOM     84  C   UNL A   1      45.100  28.471  32.449  1.00  0.00     0.198 A 
ATOM     85  C   UNL A   1      44.040  26.477  31.689  1.00  0.00     0.198 A 
ATOM     86  F   UNL A   1      43.130  26.378  29.562  1.00  0.00    -0.203 F 
ATOM     87  F   UNL A   1      45.723  29.155  33.418  1.00  0.00    -0.200 F 
ATOM     88  C   UNL A   1      44.700  27.166  32.685  1.00  0.00     0.200 A 
ATOM     89  F   UNL A   1      43.628  25.217  31.903  1.00  0.00    -0.200 F 
ATOM     90  F   UNL A   1      44.928  26.584  33.871  1.00  0.00    -0.200 F 
ENDBRANCH  57  80
ENDBRANCH  31  32
ENDBRANCH  24  26
ENDBRANCH  23  24
ENDBRANCH  22  23
ENDBRANCH  21  22
ENDBRANCH  20  21
ENDBRANCH   1  20
TORSDOF 18
ENDMDL
MODEL 3
REMARK VINA RESULT:     -10.6      2.201      4.165
REMARK SMILES CC[C@@H](C)NC(=O)Cn1cccc1C(=O)OCCOCCOC(=O)c1ccc(-c2c3nc(c(-c4c(F)c(F)c(F)c(F)c4F)c4ccc([nH]4)c(-c4c(F)c(F)c(F)c(F)c4F)c4nc(c(-c5c(F)c(F)c(F)c(F)c5F)c5ccc2[nH]5)C=C4)C=C3)cc1
REMARK SMILES IDX 18 1 17 2 16 3 14 4 15 5 13 6 9 7 10 8 11 9 12 10 8 11 6 12
REMARK SMILES IDX 5 13 7 15 3 16 4 17 2 18 1 19 19 20 20 21 21 22 22 23 23 24
REMARK SMILES IDX 24 25 25 26 26 27 87 28 27 29 86 30 28 31 29 32 30 33 80 34
REMARK SMILES IDX 31 35 85 36 79 37 81 38 32 39 84 40 78 41 77 42 33 44 65 45
REMARK SMILES IDX 45 46 64 47 46 48 49 49 63 50 82 51 47 52 48 53 62 55 83 56
REMARK SMILES IDX 50 57 34 58 35 59 43 60 36 61 37 62 41 63 44 64 38 65 39 66
REMARK SMILES IDX 42 67 40 68 66 69 67 70 75 71 68 72 69 73 73 74 76 75 70 76
REMARK SMILES IDX 71 77 74 78 72 79 51 80 52 81 60 82 53 83 54 84 58 85 61 86
REMARK SMILES IDX 55 87 56 88 59 89 57 90
REMARK H PARENT 5 14 81 43 49 54
REMARK Flexibility Score: inf
ROOT
ATOM      1  C   UNL A   1      31.719  27.794  27.288  1.00  0.00     0.202 C 
ENDROOT
BRANCH   1   2
ATOM      2  C   UNL A   1      31.614  26.984  25.997  1.00  0.00     0.261 C 
BRANCH   2   3
ATOM      3  O   UNL A   1      31.701  25.572  26.270  1.00  0.00    -0.459 OA
BRANCH   3   4
ATOM      4  C   UNL A   1      31.960  24.794  25.183  1.00  0.00     0.355 C 
ATOM      5  O   UNL A   1      31.283  24.759  24.182  1.00  0.00    -0.244 OA
BRANCH   4   6
ATOM      6  C   UNL A   1      33.245  24.115  25.325  1.00  0.00     0.128 A 
ATOM      7  N   UNL A   1      33.569  22.772  25.409  1.00  0.00    -0.333 N 
ATOM      8  C   UNL A   1      34.941  22.637  25.342  1.00  0.00     0.087 A 
ATOM      9  C   UNL A   1      35.506  23.879  25.476  1.00  0.00     0.020 A 
ATOM     10  C   UNL A   1      34.448  24.805  25.457  1.00  0.00     0.035 A 
BRANCH   7  11
ATOM     11  C   UNL A   1      32.683  21.621  25.548  1.00  0.00     0.222 C 
BRANCH  11  12
ATOM     12  C   UNL A   1      32.519  20.862  24.249  1.00  0.00     0.240 C 
ATOM     13  N   UNL A   1      32.760  19.521  24.184  1.00  0.00    -0.352 N 
ATOM     14  H   UNL A   1      32.363  19.085  23.397  1.00  0.00     0.163 HD
ATOM     15  O   UNL A   1      32.174  21.435  23.212  1.00  0.00    -0.273 OA
BRANCH  13  16
ATOM     16  C   UNL A   1      33.492  18.609  25.053  1.00  0.00     0.078 C 
ATOM     17  C   UNL A   1      34.626  17.958  24.255  1.00  0.00     0.031 C 
BRANCH  16  18
ATOM     18  C   UNL A   1      32.494  17.574  25.585  1.00  0.00     0.021 C 
ATOM     19  C   UNL A   1      32.841  16.145  25.212  1.00  0.00     0.006 C 
ENDBRANCH  16  18
ENDBRANCH  13  16
ENDBRANCH  11  12
ENDBRANCH   7  11
ENDBRANCH   4   6
ENDBRANCH   3   4
ENDBRANCH   2   3
ENDBRANCH   1   2
BRANCH   1  20
ATOM     20  O   UNL A   1      31.650  29.214  27.134  1.00  0.00    -0.374 OA
BRANCH  20  21
ATOM     21  C   UNL A   1      32.880  29.932  27.057  1.00  0.00     0.202 C 
BRANCH  21  22
ATOM     22  C   UNL A   1      32.769  31.439  26.862  1.00  0.00     0.261 C 
BRANCH  22  23
ATOM     23  O   UNL A   1      33.545  32.125  27.841  1.00  0.00    -0.460 OA
BRANCH  23  24
ATOM     24  C   UNL A   1      33.125  33.392  28.087  1.00  0.00     0.338 C 
ATOM     25  O   UNL A   1      32.212  33.984  27.536  1.00  0.00    -0.246 OA
BRANCH  24  26
ATOM     26  C   UNL A   1      34.059  34.039  29.033  1.00  0.00     0.060 A 
ATOM     27  C   UNL A   1      35.284  34.330  28.448  1.00  0.00     0.016 A 
ATOM     28  C   UNL A   1      33.982  33.599  30.354  1.00  0.00     0.016 A 
ATOM     29  C   UNL A   1      36.399  33.796  29.041  1.00  0.00     0.010 A 
ATOM     30  C   UNL A   1      35.029  32.897  30.868  1.00  0.00     0.010 A 
ATOM     31  C   UNL A   1      36.235  33.010  30.193  1.00  0.00    -0.014 A 
BRANCH  31  32
ATOM     32  C   UNL A   1      37.438  32.544  30.857  1.00  0.00     0.031 A 
ATOM     33  C   UNL A   1      37.903  31.262  30.124  1.00  0.00     0.074 A 
ATOM     34  C   UNL A   1      37.768  33.259  31.976  1.00  0.00     0.049 A 
ATOM     35  N   UNL A   1      38.400  30.172  30.611  1.00  0.00    -0.248 NA
ATOM     36  C   UNL A   1      37.679  31.111  28.649  1.00  0.00     0.031 C 
ATOM     37  C   UNL A   1      37.144  34.537  32.417  1.00  0.00     0.029 A 
ATOM     38  N   UNL A   1      38.669  33.054  32.991  1.00  0.00    -0.354 N 
ATOM     39  C   UNL A   1      38.727  29.323  29.529  1.00  0.00     0.074 A 
ATOM     40  C   UNL A   1      38.141  29.894  28.363  1.00  0.00     0.031 C 
ATOM     41  C   UNL A   1      37.598  34.909  33.638  1.00  0.00     0.029 A 
ATOM     42  C   UNL A   1      38.551  33.926  34.112  1.00  0.00     0.049 A 
ATOM     43  H   UNL A   1      39.355  32.350  32.948  1.00  0.00     0.167 HD
ATOM     44  C   UNL A   1      39.589  28.275  29.659  1.00  0.00     0.037 A 
ATOM     45  C   UNL A   1      39.127  33.787  35.350  1.00  0.00     0.037 A 
ATOM     46  C   UNL A   1      40.011  28.185  31.015  1.00  0.00     0.049 A 
ATOM     47  C   UNL A   1      39.955  32.580  35.209  1.00  0.00     0.074 A 
ATOM     48  C   UNL A   1      39.347  27.761  32.135  1.00  0.00     0.029 A 
ATOM     49  N   UNL A   1      41.070  28.980  31.382  1.00  0.00    -0.354 N 
ATOM     50  N   UNL A   1      41.055  32.511  34.522  1.00  0.00    -0.248 NA
ATOM     51  C   UNL A   1      39.425  31.318  35.740  1.00  0.00     0.031 C 
ATOM     52  C   UNL A   1      39.709  28.728  33.093  1.00  0.00     0.029 A 
ATOM     53  C   UNL A   1      40.777  29.500  32.618  1.00  0.00     0.049 A 
ATOM     54  H   UNL A   1      41.887  29.146  30.858  1.00  0.00     0.167 HD
ATOM     55  C   UNL A   1      41.158  31.163  34.278  1.00  0.00     0.074 A 
ATOM     56  C   UNL A   1      40.362  30.493  35.285  1.00  0.00     0.031 C 
ATOM     57  C   UNL A   1      41.432  30.719  33.024  1.00  0.00     0.037 A 
BRANCH  44  58
ATOM     58  C   UNL A   1      40.319  27.423  28.667  1.00  0.00     0.064 A 
ATOM     59  C   UNL A   1      41.237  28.075  27.805  1.00  0.00     0.173 A 
ATOM     60  C   UNL A   1      39.891  26.151  28.272  1.00  0.00     0.173 A 
ATOM     61  F   UNL A   1      41.766  29.264  28.138  1.00  0.00    -0.203 F 
ATOM     62  C   UNL A   1      41.549  27.573  26.547  1.00  0.00     0.198 A 
ATOM     63  C   UNL A   1      40.254  25.623  27.029  1.00  0.00     0.198 A 
ATOM     64  F   UNL A   1      39.035  25.442  29.019  1.00  0.00    -0.203 F 
ATOM     65  F   UNL A   1      42.279  28.309  25.697  1.00  0.00    -0.200 F 
ATOM     66  C   UNL A   1      41.036  26.355  26.148  1.00  0.00     0.200 A 
ATOM     67  F   UNL A   1      39.772  24.432  26.650  1.00  0.00    -0.200 F 
ATOM     68  F   UNL A   1      41.264  25.904  24.909  1.00  0.00    -0.200 F 
ENDBRANCH  44  58
BRANCH  45  69
ATOM     69  C   UNL A   1      39.033  34.368  36.748  1.00  0.00     0.064 A 
ATOM     70  C   UNL A   1      38.372  33.802  37.844  1.00  0.00     0.173 A 
ATOM     71  C   UNL A   1      39.730  35.576  37.059  1.00  0.00     0.173 A 
ATOM     72  F   UNL A   1      37.562  32.748  37.686  1.00  0.00    -0.203 F 
ATOM     73  C   UNL A   1      38.512  34.323  39.150  1.00  0.00     0.198 A 
ATOM     74  C   UNL A   1      39.923  36.054  38.354  1.00  0.00     0.198 A 
ATOM     75  F   UNL A   1      40.260  36.351  36.103  1.00  0.00    -0.203 F 
ATOM     76  F   UNL A   1      37.861  33.748  40.170  1.00  0.00    -0.200 F 
ATOM     77  C   UNL A   1      39.326  35.415  39.409  1.00  0.00     0.200 A 
ATOM     78  F   UNL A   1      40.707  37.124  38.557  1.00  0.00    -0.200 F 
ATOM     79  F   UNL A   1      39.519  35.858  40.659  1.00  0.00    -0.200 F 
ENDBRANCH  45  69
BRANCH  57  80
ATOM     80  C   UNL A   1      42.095  31.749  32.120  1.00  0.00     0.064 A 
ATOM     81  C   UNL A   1      43.382  32.215  32.425  1.00  0.00     0.173 A 
ATOM     82  C   UNL A   1      41.468  32.378  31.031  1.00  0.00     0.173 A 
ATOM     83  F   UNL A   1      44.071  31.654  33.430  1.00  0.00    -0.203 F 
ATOM     84  C   UNL A   1      43.984  33.253  31.706  1.00  0.00     0.198 A 
ATOM     85  C   UNL A   1      42.060  33.420  30.311  1.00  0.00     0.198 A 
ATOM     86  F   UNL A   1      40.263  31.994  30.626  1.00  0.00    -0.203 F 
ATOM     87  F   UNL A   1      45.218  33.661  32.032  1.00  0.00    -0.200 F 
ATOM     88  C   UNL A   1      43.322  33.861  30.652  1.00  0.00     0.200 A 
ATOM     89  F   UNL A   1      41.408  33.983  29.281  1.00  0.00    -0.200 F 
ATOM     90  F   UNL A   1      43.903  34.848  29.956  1.00  0.00    -0.200 F 
ENDBRANCH  57  80
ENDBRANCH  31  32
ENDBRANCH  24  26
ENDBRANCH  23  24
ENDBRANCH  22  23
ENDBRANCH  21  22
ENDBRANCH  20  21
ENDBRANCH   1  20
TORSDOF 18
ENDMDL
