MODEL 1
REMARK VINA RESULT:     -11.8      0.000      0.000
REMARK SMILES CC[NH+]1CCC2(CC1)OC[C@@H](C(=O)OCCOCCOC(=O)c1ccc(-c3c4nc(c(-c5c(F)c(F)c(F)c(F)c5F)c5ccc([nH]5)c(-c5c(F)c(F)c(F)c(F)c5F)c5nc(c(-c6c(F)c(F)c(F)c(F)c6F)c6ccc3[nH]6)C=C5)C=C4)cc1)N2C(=O)c1ccc(Cl)c([N+](=O)[O-])c1
REMARK SMILES IDX 16 1 15 2 14 3 12 4 13 5 11 6 3 7 4 8 8 9 5 11 7 12 6 13
REMARK SMILES IDX 9 14 86 15 10 16 2 17 1 18 87 19 88 20 89 21 90 22 98 23
REMARK SMILES IDX 91 24 94 25 92 26 93 27 95 28 96 29 97 30 17 31 18 32 19 33
REMARK SMILES IDX 20 34 21 35 22 36 23 37 24 38 85 39 25 40 84 41 26 42 27 43
REMARK SMILES IDX 28 44 78 45 29 46 83 47 77 48 79 49 30 50 82 51 76 52 75 53
REMARK SMILES IDX 31 55 63 56 43 57 62 58 44 59 47 60 61 61 80 62 45 63 46 64
REMARK SMILES IDX 60 66 81 67 48 68 32 69 33 70 41 71 34 72 35 73 39 74 42 75
REMARK SMILES IDX 36 76 37 77 40 78 38 79 64 80 65 81 73 82 66 83 67 84 71 85
REMARK SMILES IDX 74 86 68 87 69 88 72 89 70 90 49 91 50 92 58 93 51 94 52 95
REMARK SMILES IDX 56 96 59 97 53 98 54 99 57 100 55 101
REMARK H PARENT 3 10 79 54 47 65
REMARK Flexibility Score: inf
ROOT
ATOM      1  C   UNL A   1      34.014  21.089  25.330  1.00  0.00     0.202 C 
ENDROOT
BRANCH   1   2
ATOM      2  C   UNL A   1      33.579  21.437  23.899  1.00  0.00     0.261 C 
BRANCH   2   3
ATOM      3  O   UNL A   1      33.160  22.801  23.684  1.00  0.00    -0.462 OA
BRANCH   3   4
ATOM      4  C   UNL A   1      34.173  23.647  23.359  1.00  0.00     0.331 C 
ATOM      5  O   UNL A   1      35.140  23.324  22.669  1.00  0.00    -0.250 OA
BRANCH   4   6
ATOM      6  C   UNL A   1      34.114  25.048  23.981  1.00  0.00     0.224 C 
ATOM      7  N   UNL A   1      32.142  29.460  26.060  1.00  0.00    -0.335 N 
ATOM      8  C   UNL A   1      33.200  29.325  25.062  1.00  0.00     0.267 C 
ATOM      9  C   UNL A   1      31.384  28.244  26.320  1.00  0.00     0.267 C 
ATOM     10  H   UNL A   1      31.414  30.040  25.643  1.00  0.00     0.348 HD
ATOM     11  C   UNL A   1      34.040  28.061  25.141  1.00  0.00     0.120 C 
ATOM     12  C   UNL A   1      32.180  26.960  26.473  1.00  0.00     0.120 C 
ATOM     13  C   UNL A   1      33.277  26.753  25.433  1.00  0.00     0.155 C 
ATOM     14  O   UNL A   1      34.276  25.965  26.150  1.00  0.00    -0.352 OA
ATOM     15  N   UNL A   1      32.969  25.926  24.235  1.00  0.00    -0.293 N 
ATOM     16  C   UNL A   1      34.632  24.820  25.386  1.00  0.00     0.200 C 
BRANCH   7  17
ATOM     17  C   UNL A   1      32.592  30.220  27.228  1.00  0.00     0.258 C 
ATOM     18  C   UNL A   1      34.081  30.548  27.251  1.00  0.00     0.071 C 
ENDBRANCH   7  17
BRANCH  15  19
ATOM     19  C   UNL A   1      32.141  26.184  23.155  1.00  0.00     0.257 C 
ATOM     20  O   UNL A   1      32.491  26.017  21.991  1.00  0.00    -0.269 OA
BRANCH  19  21
ATOM     21  C   UNL A   1      30.782  26.709  23.284  1.00  0.00     0.047 A 
ATOM     22  C   UNL A   1      29.752  25.950  23.847  1.00  0.00     0.016 A 
ATOM     23  C   UNL A   1      30.495  27.927  22.668  1.00  0.00     0.101 A 
ATOM     24  C   UNL A   1      28.452  26.479  23.889  1.00  0.00     0.028 A 
ATOM     25  C   UNL A   1      29.217  28.490  22.800  1.00  0.00     0.288 A 
ATOM     26  C   UNL A   1      28.180  27.766  23.394  1.00  0.00     0.118 A 
ATOM     27  Cl  UNL A   1      26.550  28.320  23.503  1.00  0.00    -0.077 Cl
BRANCH  25  28
ATOM     28  N   UNL A   1      29.056  29.872  22.370  1.00  0.00     0.064 N 
ATOM     29  O   UNL A   1      28.575  30.084  21.251  1.00  0.00    -0.258 OA
ATOM     30  O   UNL A   1      29.336  30.751  23.198  1.00  0.00    -0.258 OA
ENDBRANCH  25  28
ENDBRANCH  19  21
ENDBRANCH  15  19
ENDBRANCH   4   6
ENDBRANCH   3   4
ENDBRANCH   2   3
ENDBRANCH   1   2
BRANCH   1  31
ATOM     31  O   UNL A   1      35.347  21.392  25.722  1.00  0.00    -0.374 OA
BRANCH  31  32
ATOM     32  C   UNL A   1      36.399  20.715  25.030  1.00  0.00     0.202 C 
BRANCH  32  33
ATOM     33  C   UNL A   1      37.735  21.466  24.903  1.00  0.00     0.261 C 
BRANCH  33  34
ATOM     34  O   UNL A   1      37.947  22.398  25.983  1.00  0.00    -0.460 OA
BRANCH  34  35
ATOM     35  C   UNL A   1      39.235  22.580  26.348  1.00  0.00     0.338 C 
ATOM     36  O   UNL A   1      40.184  21.832  26.150  1.00  0.00    -0.246 OA
BRANCH  35  37
ATOM     37  C   UNL A   1      39.405  23.945  26.875  1.00  0.00     0.060 A 
ATOM     38  C   UNL A   1      40.043  24.887  26.059  1.00  0.00     0.016 A 
ATOM     39  C   UNL A   1      39.006  24.284  28.170  1.00  0.00     0.016 A 
ATOM     40  C   UNL A   1      40.306  26.168  26.543  1.00  0.00     0.010 A 
ATOM     41  C   UNL A   1      39.281  25.568  28.659  1.00  0.00     0.010 A 
ATOM     42  C   UNL A   1      39.952  26.509  27.856  1.00  0.00    -0.014 A 
BRANCH  42  43
ATOM     43  C   UNL A   1      40.394  27.811  28.417  1.00  0.00     0.031 A 
ATOM     44  C   UNL A   1      41.854  28.031  28.709  1.00  0.00     0.074 A 
ATOM     45  C   UNL A   1      39.514  28.807  28.625  1.00  0.00     0.049 A 
ATOM     46  N   UNL A   1      42.451  29.083  29.210  1.00  0.00    -0.248 NA
ATOM     47  C   UNL A   1      42.762  26.918  28.389  1.00  0.00     0.031 C 
ATOM     48  C   UNL A   1      38.082  28.742  28.338  1.00  0.00     0.029 A 
ATOM     49  N   UNL A   1      39.700  30.072  29.127  1.00  0.00    -0.354 N 
ATOM     50  C   UNL A   1      43.801  28.767  29.249  1.00  0.00     0.074 A 
ATOM     51  C   UNL A   1      43.936  27.412  28.757  1.00  0.00     0.031 C 
ATOM     52  C   UNL A   1      37.517  29.913  28.680  1.00  0.00     0.029 A 
ATOM     53  C   UNL A   1      38.539  30.798  29.235  1.00  0.00     0.049 A 
ATOM     54  H   UNL A   1      40.582  30.424  29.385  1.00  0.00     0.167 HD
ATOM     55  C   UNL A   1      44.839  29.542  29.646  1.00  0.00     0.037 A 
ATOM     56  C   UNL A   1      38.325  32.028  29.745  1.00  0.00     0.037 A 
ATOM     57  C   UNL A   1      44.715  30.886  30.140  1.00  0.00     0.049 A 
ATOM     58  C   UNL A   1      39.486  32.823  30.286  1.00  0.00     0.074 A 
ATOM     59  C   UNL A   1      45.717  31.752  30.548  1.00  0.00     0.029 A 
ATOM     60  N   UNL A   1      43.515  31.560  30.301  1.00  0.00    -0.354 N 
ATOM     61  N   UNL A   1      40.762  32.525  30.296  1.00  0.00    -0.248 NA
ATOM     62  C   UNL A   1      39.173  34.127  30.892  1.00  0.00     0.031 C 
ATOM     63  C   UNL A   1      45.119  32.934  30.998  1.00  0.00     0.029 A 
ATOM     64  C   UNL A   1      43.748  32.818  30.833  1.00  0.00     0.049 A 
ATOM     65  H   UNL A   1      42.629  31.199  30.071  1.00  0.00     0.167 HD
ATOM     66  C   UNL A   1      41.402  33.604  30.890  1.00  0.00     0.074 A 
ATOM     67  C   UNL A   1      40.379  34.576  31.213  1.00  0.00     0.031 C 
ATOM     68  C   UNL A   1      42.721  33.774  31.151  1.00  0.00     0.037 A 
BRANCH  55  69
ATOM     69  C   UNL A   1      46.215  28.952  29.569  1.00  0.00     0.064 A 
ATOM     70  C   UNL A   1      46.751  28.213  30.632  1.00  0.00     0.173 A 
ATOM     71  C   UNL A   1      46.972  29.067  28.394  1.00  0.00     0.173 A 
ATOM     72  F   UNL A   1      46.065  28.086  31.778  1.00  0.00    -0.203 F 
ATOM     73  C   UNL A   1      48.002  27.613  30.525  1.00  0.00     0.198 A 
ATOM     74  C   UNL A   1      48.215  28.449  28.284  1.00  0.00     0.198 A 
ATOM     75  F   UNL A   1      46.498  29.761  27.349  1.00  0.00    -0.203 F 
ATOM     76  F   UNL A   1      48.507  26.928  31.561  1.00  0.00    -0.200 F 
ATOM     77  C   UNL A   1      48.729  27.725  29.349  1.00  0.00     0.200 A 
ATOM     78  F   UNL A   1      48.912  28.549  27.143  1.00  0.00    -0.200 F 
ATOM     79  F   UNL A   1      49.928  27.135  29.242  1.00  0.00    -0.200 F 
ENDBRANCH  55  69
BRANCH  56  80
ATOM     80  C   UNL A   1      36.947  32.580  29.812  1.00  0.00     0.064 A 
ATOM     81  C   UNL A   1      36.401  33.298  28.740  1.00  0.00     0.173 A 
ATOM     82  C   UNL A   1      36.171  32.447  30.973  1.00  0.00     0.173 A 
ATOM     83  F   UNL A   1      37.117  33.479  27.620  1.00  0.00    -0.203 F 
ATOM     84  C   UNL A   1      35.138  33.880  28.835  1.00  0.00     0.198 A 
ATOM     85  C   UNL A   1      34.899  33.007  31.057  1.00  0.00     0.198 A 
ATOM     86  F   UNL A   1      36.653  31.775  32.030  1.00  0.00    -0.203 F 
ATOM     87  F   UNL A   1      34.660  34.608  27.815  1.00  0.00    -0.200 F 
ATOM     88  C   UNL A   1      34.387  33.731  29.991  1.00  0.00     0.200 A 
ATOM     89  F   UNL A   1      34.175  32.854  32.174  1.00  0.00    -0.200 F 
ATOM     90  F   UNL A   1      33.176  34.298  30.084  1.00  0.00    -0.200 F 
ENDBRANCH  56  80
BRANCH  68  91
ATOM     91  C   UNL A   1      43.137  35.057  31.809  1.00  0.00     0.064 A 
ATOM     92  C   UNL A   1      43.505  36.178  31.050  1.00  0.00     0.173 A 
ATOM     93  C   UNL A   1      43.119  35.184  33.205  1.00  0.00     0.173 A 
ATOM     94  F   UNL A   1      43.553  36.100  29.712  1.00  0.00    -0.203 F 
ATOM     95  C   UNL A   1      43.856  37.375  31.668  1.00  0.00     0.198 A 
ATOM     96  C   UNL A   1      43.448  36.390  33.819  1.00  0.00     0.198 A 
ATOM     97  F   UNL A   1      42.768  34.142  33.974  1.00  0.00    -0.203 F 
ATOM     98  F   UNL A   1      44.239  38.422  30.926  1.00  0.00    -0.200 F 
ATOM     99  C   UNL A   1      43.820  37.482  33.050  1.00  0.00     0.200 A 
ATOM    100  F   UNL A   1      43.401  36.496  35.154  1.00  0.00    -0.200 F 
ATOM    101  F   UNL A   1      44.150  38.638  33.643  1.00  0.00    -0.200 F 
ENDBRANCH  68  91
ENDBRANCH  42  43
ENDBRANCH  35  37
ENDBRANCH  34  35
ENDBRANCH  33  34
ENDBRANCH  32  33
ENDBRANCH  31  32
ENDBRANCH   1  31
TORSDOF 18
ENDMDL
MODEL 2
REMARK VINA RESULT:     -11.8      2.099      3.321
REMARK SMILES CC[NH+]1CCC2(CC1)OC[C@@H](C(=O)OCCOCCOC(=O)c1ccc(-c3c4nc(c(-c5c(F)c(F)c(F)c(F)c5F)c5ccc([nH]5)c(-c5c(F)c(F)c(F)c(F)c5F)c5nc(c(-c6c(F)c(F)c(F)c(F)c6F)c6ccc3[nH]6)C=C5)C=C4)cc1)N2C(=O)c1ccc(Cl)c([N+](=O)[O-])c1
REMARK SMILES IDX 16 1 15 2 14 3 12 4 13 5 11 6 3 7 4 8 8 9 5 11 7 12 6 13
REMARK SMILES IDX 9 14 86 15 10 16 2 17 1 18 87 19 88 20 89 21 90 22 98 23
REMARK SMILES IDX 91 24 94 25 92 26 93 27 95 28 96 29 97 30 17 31 18 32 19 33
REMARK SMILES IDX 20 34 21 35 22 36 23 37 24 38 85 39 25 40 84 41 26 42 27 43
REMARK SMILES IDX 28 44 78 45 29 46 83 47 77 48 79 49 30 50 82 51 76 52 75 53
REMARK SMILES IDX 31 55 63 56 43 57 62 58 44 59 47 60 61 61 80 62 45 63 46 64
REMARK SMILES IDX 60 66 81 67 48 68 32 69 33 70 41 71 34 72 35 73 39 74 42 75
REMARK SMILES IDX 36 76 37 77 40 78 38 79 64 80 65 81 73 82 66 83 67 84 71 85
REMARK SMILES IDX 74 86 68 87 69 88 72 89 70 90 49 91 50 92 58 93 51 94 52 95
REMARK SMILES IDX 56 96 59 97 53 98 54 99 57 100 55 101
REMARK H PARENT 3 10 79 54 47 65
REMARK Flexibility Score: inf
ROOT
ATOM      1  C   UNL A   1      34.345  21.005  25.158  1.00  0.00     0.202 C 
ENDROOT
BRANCH   1   2
ATOM      2  C   UNL A   1      33.493  21.300  23.915  1.00  0.00     0.261 C 
BRANCH   2   3
ATOM      3  O   UNL A   1      33.026  22.659  23.781  1.00  0.00    -0.462 OA
BRANCH   3   4
ATOM      4  C   UNL A   1      33.970  23.527  23.328  1.00  0.00     0.331 C 
ATOM      5  O   UNL A   1      34.837  23.226  22.508  1.00  0.00    -0.250 OA
BRANCH   4   6
ATOM      6  C   UNL A   1      33.972  24.921  23.967  1.00  0.00     0.224 C 
ATOM      7  N   UNL A   1      32.198  29.400  26.080  1.00  0.00    -0.335 N 
ATOM      8  C   UNL A   1      33.257  29.224  25.091  1.00  0.00     0.267 C 
ATOM      9  C   UNL A   1      31.378  28.219  26.318  1.00  0.00     0.267 C 
ATOM     10  H   UNL A   1      31.503  30.019  25.664  1.00  0.00     0.348 HD
ATOM     11  C   UNL A   1      34.034  27.921  25.162  1.00  0.00     0.120 C 
ATOM     12  C   UNL A   1      32.109  26.896  26.463  1.00  0.00     0.120 C 
ATOM     13  C   UNL A   1      33.205  26.648  25.431  1.00  0.00     0.155 C 
ATOM     14  O   UNL A   1      34.158  25.804  26.148  1.00  0.00    -0.352 OA
ATOM     15  N   UNL A   1      32.869  25.851  24.220  1.00  0.00    -0.293 N 
ATOM     16  C   UNL A   1      34.465  24.652  25.373  1.00  0.00     0.200 C 
BRANCH   7  17
ATOM     17  C   UNL A   1      32.672  30.123  27.262  1.00  0.00     0.258 C 
ATOM     18  C   UNL A   1      34.081  30.693  27.147  1.00  0.00     0.071 C 
ENDBRANCH   7  17
BRANCH  15  19
ATOM     19  C   UNL A   1      32.065  26.162  23.135  1.00  0.00     0.257 C 
ATOM     20  O   UNL A   1      32.421  25.995  21.973  1.00  0.00    -0.269 OA
BRANCH  19  21
ATOM     21  C   UNL A   1      30.730  26.746  23.259  1.00  0.00     0.047 A 
ATOM     22  C   UNL A   1      29.661  26.026  23.799  1.00  0.00     0.016 A 
ATOM     23  C   UNL A   1      30.505  27.985  22.660  1.00  0.00     0.101 A 
ATOM     24  C   UNL A   1      28.386  26.613  23.835  1.00  0.00     0.028 A 
ATOM     25  C   UNL A   1      29.253  28.604  22.787  1.00  0.00     0.288 A 
ATOM     26  C   UNL A   1      28.178  27.918  23.358  1.00  0.00     0.118 A 
ATOM     27  Cl  UNL A   1      26.573  28.544  23.458  1.00  0.00    -0.077 Cl
BRANCH  25  28
ATOM     28  N   UNL A   1      29.160  29.998  22.377  1.00  0.00     0.064 N 
ATOM     29  O   UNL A   1      28.996  30.855  23.253  1.00  0.00    -0.258 OA
ATOM     30  O   UNL A   1      29.338  30.240  21.175  1.00  0.00    -0.258 OA
ENDBRANCH  25  28
ENDBRANCH  19  21
ENDBRANCH  15  19
ENDBRANCH   4   6
ENDBRANCH   3   4
ENDBRANCH   2   3
ENDBRANCH   1   2
BRANCH   1  31
ATOM     31  O   UNL A   1      35.760  21.081  25.038  1.00  0.00    -0.374 OA
BRANCH  31  32
ATOM     32  C   UNL A   1      36.468  19.847  24.902  1.00  0.00     0.202 C 
BRANCH  32  33
ATOM     33  C   UNL A   1      38.004  19.926  24.939  1.00  0.00     0.261 C 
BRANCH  33  34
ATOM     34  O   UNL A   1      38.478  21.095  25.641  1.00  0.00    -0.460 OA
BRANCH  34  35
ATOM     35  C   UNL A   1      39.638  20.936  26.314  1.00  0.00     0.338 C 
ATOM     36  O   UNL A   1      40.336  19.932  26.380  1.00  0.00    -0.246 OA
BRANCH  35  37
ATOM     37  C   UNL A   1      40.084  22.241  26.833  1.00  0.00     0.060 A 
ATOM     38  C   UNL A   1      39.467  23.392  26.326  1.00  0.00     0.016 A 
ATOM     39  C   UNL A   1      41.130  22.343  27.753  1.00  0.00     0.016 A 
ATOM     40  C   UNL A   1      39.911  24.654  26.721  1.00  0.00     0.010 A 
ATOM     41  C   UNL A   1      41.582  23.612  28.139  1.00  0.00     0.010 A 
ATOM     42  C   UNL A   1      40.991  24.773  27.608  1.00  0.00    -0.014 A 
BRANCH  42  43
ATOM     43  C   UNL A   1      41.567  26.114  27.881  1.00  0.00     0.031 A 
ATOM     44  C   UNL A   1      42.962  26.426  27.412  1.00  0.00     0.074 A 
ATOM     45  C   UNL A   1      40.843  27.063  28.501  1.00  0.00     0.049 A 
ATOM     46  N   UNL A   1      43.660  27.525  27.556  1.00  0.00    -0.248 NA
ATOM     47  C   UNL A   1      43.663  25.359  26.679  1.00  0.00     0.031 C 
ATOM     48  C   UNL A   1      39.465  26.906  28.962  1.00  0.00     0.029 A 
ATOM     49  N   UNL A   1      41.171  28.350  28.850  1.00  0.00    -0.354 N 
ATOM     50  C   UNL A   1      44.870  27.289  26.919  1.00  0.00     0.074 A 
ATOM     51  C   UNL A   1      44.831  25.931  26.420  1.00  0.00     0.031 C 
ATOM     52  C   UNL A   1      39.068  28.052  29.544  1.00  0.00     0.029 A 
ATOM     53  C   UNL A   1      40.171  29.011  29.523  1.00  0.00     0.049 A 
ATOM     54  H   UNL A   1      42.040  28.760  28.639  1.00  0.00     0.167 HD
ATOM     55  C   UNL A   1      45.916  28.134  26.753  1.00  0.00     0.037 A 
ATOM     56  C   UNL A   1      40.159  30.240  30.076  1.00  0.00     0.037 A 
ATOM     57  C   UNL A   1      45.966  29.483  27.248  1.00  0.00     0.049 A 
ATOM     58  C   UNL A   1      41.381  31.117  29.974  1.00  0.00     0.074 A 
ATOM     59  C   UNL A   1      46.980  30.416  27.109  1.00  0.00     0.029 A 
ATOM     60  N   UNL A   1      44.962  30.090  27.985  1.00  0.00    -0.354 N 
ATOM     61  N   UNL A   1      42.511  30.893  29.349  1.00  0.00    -0.248 NA
ATOM     62  C   UNL A   1      41.326  32.417  30.661  1.00  0.00     0.031 C 
ATOM     63  C   UNL A   1      46.608  31.574  27.801  1.00  0.00     0.029 A 
ATOM     64  C   UNL A   1      45.346  31.374  28.337  1.00  0.00     0.049 A 
ATOM     65  H   UNL A   1      44.103  29.672  28.223  1.00  0.00     0.167 HD
ATOM     66  C   UNL A   1      43.291  32.024  29.552  1.00  0.00     0.074 A 
ATOM     67  C   UNL A   1      42.501  32.943  30.343  1.00  0.00     0.031 C 
ATOM     68  C   UNL A   1      44.551  32.278  29.126  1.00  0.00     0.037 A 
BRANCH  55  69
ATOM     69  C   UNL A   1      47.108  27.624  26.001  1.00  0.00     0.064 A 
ATOM     70  C   UNL A   1      47.164  27.680  24.602  1.00  0.00     0.173 A 
ATOM     71  C   UNL A   1      48.231  27.143  26.690  1.00  0.00     0.173 A 
ATOM     72  F   UNL A   1      46.109  28.123  23.901  1.00  0.00    -0.203 F 
ATOM     73  C   UNL A   1      48.302  27.266  23.916  1.00  0.00     0.198 A 
ATOM     74  C   UNL A   1      49.375  26.748  26.002  1.00  0.00     0.198 A 
ATOM     75  F   UNL A   1      48.224  27.075  28.030  1.00  0.00    -0.203 F 
ATOM     76  F   UNL A   1      48.329  27.307  22.576  1.00  0.00    -0.200 F 
ATOM     77  C   UNL A   1      49.409  26.808  24.616  1.00  0.00     0.200 A 
ATOM     78  F   UNL A   1      50.447  26.316  26.680  1.00  0.00    -0.200 F 
ATOM     79  F   UNL A   1      50.510  26.423  23.956  1.00  0.00    -0.200 F 
ENDBRANCH  55  69
BRANCH  56  80
ATOM     80  C   UNL A   1      38.963  30.713  30.820  1.00  0.00     0.064 A 
ATOM     81  C   UNL A   1      38.852  30.531  32.205  1.00  0.00     0.173 A 
ATOM     82  C   UNL A   1      37.883  31.308  30.151  1.00  0.00     0.173 A 
ATOM     83  F   UNL A   1      39.845  29.939  32.885  1.00  0.00    -0.203 F 
ATOM     84  C   UNL A   1      37.696  30.907  32.889  1.00  0.00     0.198 A 
ATOM     85  C   UNL A   1      36.740  31.706  30.838  1.00  0.00     0.198 A 
ATOM     86  F   UNL A   1      37.938  31.496  28.823  1.00  0.00    -0.203 F 
ATOM     87  F   UNL A   1      37.593  30.672  34.205  1.00  0.00    -0.200 F 
ATOM     88  C   UNL A   1      36.643  31.497  32.205  1.00  0.00     0.200 A 
ATOM     89  F   UNL A   1      35.729  32.282  30.175  1.00  0.00    -0.200 F 
ATOM     90  F   UNL A   1      35.530  31.850  32.862  1.00  0.00    -0.200 F 
ENDBRANCH  56  80
BRANCH  68  91
ATOM     91  C   UNL A   1      45.155  33.601  29.496  1.00  0.00     0.064 A 
ATOM     92  C   UNL A   1      46.005  33.728  30.604  1.00  0.00     0.173 A 
ATOM     93  C   UNL A   1      44.924  34.738  28.709  1.00  0.00     0.173 A 
ATOM     94  F   UNL A   1      46.243  32.673  31.396  1.00  0.00    -0.203 F 
ATOM     95  C   UNL A   1      46.588  34.953  30.920  1.00  0.00     0.198 A 
ATOM     96  C   UNL A   1      45.527  35.955  29.014  1.00  0.00     0.198 A 
ATOM     97  F   UNL A   1      44.123  34.665  27.635  1.00  0.00    -0.203 F 
ATOM     98  F   UNL A   1      47.368  35.061  32.004  1.00  0.00    -0.200 F 
ATOM     99  C   UNL A   1      46.355  36.062  30.120  1.00  0.00     0.200 A 
ATOM    100  F   UNL A   1      45.310  37.024  28.234  1.00  0.00    -0.200 F 
ATOM    101  F   UNL A   1      46.925  37.237  30.421  1.00  0.00    -0.200 F 
ENDBRANCH  68  91
ENDBRANCH  42  43
ENDBRANCH  35  37
ENDBRANCH  34  35
ENDBRANCH  33  34
ENDBRANCH  32  33
ENDBRANCH  31  32
ENDBRANCH   1  31
TORSDOF 18
ENDMDL
MODEL 3
REMARK VINA RESULT:     -11.8      2.109      7.072
REMARK SMILES CC[NH+]1CCC2(CC1)OC[C@@H](C(=O)OCCOCCOC(=O)c1ccc(-c3c4nc(c(-c5c(F)c(F)c(F)c(F)c5F)c5ccc([nH]5)c(-c5c(F)c(F)c(F)c(F)c5F)c5nc(c(-c6c(F)c(F)c(F)c(F)c6F)c6ccc3[nH]6)C=C5)C=C4)cc1)N2C(=O)c1ccc(Cl)c([N+](=O)[O-])c1
REMARK SMILES IDX 16 1 15 2 14 3 12 4 13 5 11 6 3 7 4 8 8 9 5 11 7 12 6 13
REMARK SMILES IDX 9 14 86 15 10 16 2 17 1 18 87 19 88 20 89 21 90 22 98 23
REMARK SMILES IDX 91 24 94 25 92 26 93 27 95 28 96 29 97 30 17 31 18 32 19 33
REMARK SMILES IDX 20 34 21 35 22 36 23 37 24 38 85 39 25 40 84 41 26 42 27 43
REMARK SMILES IDX 28 44 78 45 29 46 83 47 77 48 79 49 30 50 82 51 76 52 75 53
REMARK SMILES IDX 31 55 63 56 43 57 62 58 44 59 47 60 61 61 80 62 45 63 46 64
REMARK SMILES IDX 60 66 81 67 48 68 32 69 33 70 41 71 34 72 35 73 39 74 42 75
REMARK SMILES IDX 36 76 37 77 40 78 38 79 64 80 65 81 73 82 66 83 67 84 71 85
REMARK SMILES IDX 74 86 68 87 69 88 72 89 70 90 49 91 50 92 58 93 51 94 52 95
REMARK SMILES IDX 56 96 59 97 53 98 54 99 57 100 55 101
REMARK H PARENT 3 10 79 54 47 65
REMARK Flexibility Score: inf
ROOT
ATOM      1  C   UNL A   1      33.423  20.373  24.657  1.00  0.00     0.202 C 
ENDROOT
BRANCH   1   2
ATOM      2  C   UNL A   1      32.996  21.322  23.528  1.00  0.00     0.261 C 
BRANCH   2   3
ATOM      3  O   UNL A   1      32.882  22.716  23.887  1.00  0.00    -0.462 OA
BRANCH   3   4
ATOM      4  C   UNL A   1      33.902  23.490  23.435  1.00  0.00     0.331 C 
ATOM      5  O   UNL A   1      34.815  23.071  22.722  1.00  0.00    -0.250 OA
BRANCH   4   6
ATOM      6  C   UNL A   1      33.929  24.939  23.936  1.00  0.00     0.224 C 
ATOM      7  N   UNL A   1      32.237  29.593  25.712  1.00  0.00    -0.335 N 
ATOM      8  C   UNL A   1      33.239  29.328  24.684  1.00  0.00     0.267 C 
ATOM      9  C   UNL A   1      31.444  28.437  26.109  1.00  0.00     0.267 C 
ATOM     10  H   UNL A   1      31.513  30.167  25.280  1.00  0.00     0.348 HD
ATOM     11  C   UNL A   1      34.030  28.040  24.834  1.00  0.00     0.120 C 
ATOM     12  C   UNL A   1      32.194  27.138  26.337  1.00  0.00     0.120 C 
ATOM     13  C   UNL A   1      33.231  26.796  25.271  1.00  0.00     0.155 C 
ATOM     14  O   UNL A   1      34.232  26.028  26.008  1.00  0.00    -0.352 OA
ATOM     15  N   UNL A   1      32.833  25.885  24.164  1.00  0.00    -0.293 N 
ATOM     16  C   UNL A   1      34.504  24.809  25.330  1.00  0.00     0.200 C 
BRANCH   7  17
ATOM     17  C   UNL A   1      32.772  30.429  26.790  1.00  0.00     0.258 C 
ATOM     18  C   UNL A   1      34.156  30.029  27.288  1.00  0.00     0.071 C 
ENDBRANCH   7  17
BRANCH  15  19
ATOM     19  C   UNL A   1      31.965  26.087  23.103  1.00  0.00     0.257 C 
ATOM     20  O   UNL A   1      32.245  25.791  21.946  1.00  0.00    -0.269 OA
BRANCH  19  21
ATOM     21  C   UNL A   1      30.644  26.699  23.244  1.00  0.00     0.047 A 
ATOM     22  C   UNL A   1      29.576  26.014  23.829  1.00  0.00     0.016 A 
ATOM     23  C   UNL A   1      30.426  27.927  22.618  1.00  0.00     0.101 A 
ATOM     24  C   UNL A   1      28.313  26.624  23.882  1.00  0.00     0.028 A 
ATOM     25  C   UNL A   1      29.189  28.571  22.760  1.00  0.00     0.288 A 
ATOM     26  C   UNL A   1      28.117  27.920  23.376  1.00  0.00     0.118 A 
ATOM     27  Cl  UNL A   1      26.526  28.578  23.499  1.00  0.00    -0.077 Cl
BRANCH  25  28
ATOM     28  N   UNL A   1      29.110  29.956  22.317  1.00  0.00     0.064 N 
ATOM     29  O   UNL A   1      28.683  30.182  21.179  1.00  0.00    -0.258 OA
ATOM     30  O   UNL A   1      29.400  30.826  23.150  1.00  0.00    -0.258 OA
ENDBRANCH  25  28
ENDBRANCH  19  21
ENDBRANCH  15  19
ENDBRANCH   4   6
ENDBRANCH   3   4
ENDBRANCH   2   3
ENDBRANCH   1   2
BRANCH   1  31
ATOM     31  O   UNL A   1      34.591  20.695  25.402  1.00  0.00    -0.374 OA
BRANCH  31  32
ATOM     32  C   UNL A   1      35.812  20.068  25.000  1.00  0.00     0.202 C 
BRANCH  32  33
ATOM     33  C   UNL A   1      37.011  20.997  24.746  1.00  0.00     0.261 C 
BRANCH  33  34
ATOM     34  O   UNL A   1      37.561  21.532  25.969  1.00  0.00    -0.460 OA
BRANCH  34  35
ATOM     35  C   UNL A   1      38.893  21.373  26.124  1.00  0.00     0.338 C 
ATOM     36  O   UNL A   1      39.583  20.426  25.765  1.00  0.00    -0.246 OA
BRANCH  35  37
ATOM     37  C   UNL A   1      39.479  22.624  26.635  1.00  0.00     0.060 A 
ATOM     38  C   UNL A   1      38.997  23.832  26.115  1.00  0.00     0.016 A 
ATOM     39  C   UNL A   1      40.526  22.617  27.560  1.00  0.00     0.016 A 
ATOM     40  C   UNL A   1      39.577  25.040  26.502  1.00  0.00     0.010 A 
ATOM     41  C   UNL A   1      41.115  23.831  27.938  1.00  0.00     0.010 A 
ATOM     42  C   UNL A   1      40.659  25.046  27.394  1.00  0.00    -0.014 A 
BRANCH  42  43
ATOM     43  C   UNL A   1      41.380  26.317  27.660  1.00  0.00     0.031 A 
ATOM     44  C   UNL A   1      40.678  27.420  28.405  1.00  0.00     0.074 A 
ATOM     45  C   UNL A   1      42.661  26.476  27.282  1.00  0.00     0.049 A 
ATOM     46  N   UNL A   1      41.116  28.610  28.732  1.00  0.00    -0.248 NA
ATOM     47  C   UNL A   1      39.302  27.142  28.847  1.00  0.00     0.031 C 
ATOM     48  C   UNL A   1      43.470  25.469  26.597  1.00  0.00     0.029 A 
ATOM     49  N   UNL A   1      43.506  27.549  27.423  1.00  0.00    -0.354 N 
ATOM     50  C   UNL A   1      40.080  29.215  29.429  1.00  0.00     0.074 A 
ATOM     51  C   UNL A   1      38.976  28.278  29.448  1.00  0.00     0.031 C 
ATOM     52  C   UNL A   1      44.693  25.978  26.367  1.00  0.00     0.029 A 
ATOM     53  C   UNL A   1      44.745  27.352  26.862  1.00  0.00     0.049 A 
ATOM     54  H   UNL A   1      43.249  28.381  27.882  1.00  0.00     0.167 HD
ATOM     55  C   UNL A   1      40.055  30.436  30.014  1.00  0.00     0.037 A 
ATOM     56  C   UNL A   1      45.790  28.195  26.742  1.00  0.00     0.037 A 
ATOM     57  C   UNL A   1      41.144  31.375  29.997  1.00  0.00     0.049 A 
ATOM     58  C   UNL A   1      45.692  29.591  27.304  1.00  0.00     0.074 A 
ATOM     59  C   UNL A   1      41.211  32.630  30.580  1.00  0.00     0.029 A 
ATOM     60  N   UNL A   1      42.355  31.166  29.357  1.00  0.00    -0.354 N 
ATOM     61  N   UNL A   1      44.716  30.144  27.982  1.00  0.00    -0.248 NA
ATOM     62  C   UNL A   1      46.841  30.481  27.076  1.00  0.00     0.031 C 
ATOM     63  C   UNL A   1      42.447  33.198  30.255  1.00  0.00     0.029 A 
ATOM     64  C   UNL A   1      43.164  32.281  29.503  1.00  0.00     0.049 A 
ATOM     65  H   UNL A   1      42.605  30.347  28.872  1.00  0.00     0.167 HD
ATOM     66  C   UNL A   1      45.139  31.434  28.275  1.00  0.00     0.074 A 
ATOM     67  C   UNL A   1      46.467  31.579  27.718  1.00  0.00     0.031 C 
ATOM     68  C   UNL A   1      44.482  32.414  28.942  1.00  0.00     0.037 A 
BRANCH  55  69
ATOM     69  C   UNL A   1      38.799  30.839  30.726  1.00  0.00     0.064 A 
ATOM     70  C   UNL A   1      38.665  30.677  32.112  1.00  0.00     0.173 A 
ATOM     71  C   UNL A   1      37.754  31.460  30.028  1.00  0.00     0.173 A 
ATOM     72  F   UNL A   1      39.637  30.080  32.819  1.00  0.00    -0.203 F 
ATOM     73  C   UNL A   1      37.523  31.116  32.774  1.00  0.00     0.198 A 
ATOM     74  C   UNL A   1      36.620  31.915  30.697  1.00  0.00     0.198 A 
ATOM     75  F   UNL A   1      37.839  31.640  28.702  1.00  0.00    -0.203 F 
ATOM     76  F   UNL A   1      37.404  30.932  34.097  1.00  0.00    -0.200 F 
ATOM     77  C   UNL A   1      36.505  31.742  32.068  1.00  0.00     0.200 A 
ATOM     78  F   UNL A   1      35.643  32.528  30.015  1.00  0.00    -0.200 F 
ATOM     79  F   UNL A   1      35.412  32.176  32.710  1.00  0.00    -0.200 F 
ENDBRANCH  55  69
BRANCH  56  80
ATOM     80  C   UNL A   1      47.019  27.765  26.024  1.00  0.00     0.064 A 
ATOM     81  C   UNL A   1      47.082  27.779  24.624  1.00  0.00     0.173 A 
ATOM     82  C   UNL A   1      48.133  27.282  26.724  1.00  0.00     0.173 A 
ATOM     83  F   UNL A   1      46.029  28.203  23.910  1.00  0.00    -0.203 F 
ATOM     84  C   UNL A   1      48.206  27.304  23.952  1.00  0.00     0.198 A 
ATOM     85  C   UNL A   1      49.266  26.832  26.052  1.00  0.00     0.198 A 
ATOM     86  F   UNL A   1      48.119  27.241  28.065  1.00  0.00    -0.203 F 
ATOM     87  F   UNL A   1      48.220  27.277  22.611  1.00  0.00    -0.200 F 
ATOM     88  C   UNL A   1      49.299  26.834  24.666  1.00  0.00     0.200 A 
ATOM     89  F   UNL A   1      50.322  26.386  26.746  1.00  0.00    -0.200 F 
ATOM     90  F   UNL A   1      50.376  26.371  24.018  1.00  0.00    -0.200 F 
ENDBRANCH  56  80
BRANCH  68  91
ATOM     91  C   UNL A   1      45.189  33.726  29.116  1.00  0.00     0.064 A 
ATOM     92  C   UNL A   1      45.004  34.778  28.206  1.00  0.00     0.173 A 
ATOM     93  C   UNL A   1      46.015  33.953  30.226  1.00  0.00     0.173 A 
ATOM     94  F   UNL A   1      44.237  34.604  27.121  1.00  0.00    -0.203 F 
ATOM     95  C   UNL A   1      45.637  36.004  28.394  1.00  0.00     0.198 A 
ATOM     96  C   UNL A   1      46.627  35.188  30.423  1.00  0.00     0.198 A 
ATOM     97  F   UNL A   1      46.218  32.980  31.127  1.00  0.00    -0.203 F 
ATOM     98  F   UNL A   1      45.476  36.983  27.494  1.00  0.00    -0.200 F 
ATOM     99  C   UNL A   1      46.441  36.210  29.506  1.00  0.00     0.200 A 
ATOM    100  F   UNL A   1      47.395  35.389  31.503  1.00  0.00    -0.200 F 
ATOM    101  F   UNL A   1      47.041  37.394  29.689  1.00  0.00    -0.200 F 
ENDBRANCH  68  91
ENDBRANCH  42  43
ENDBRANCH  35  37
ENDBRANCH  34  35
ENDBRANCH  33  34
ENDBRANCH  32  33
ENDBRANCH  31  32
ENDBRANCH   1  31
TORSDOF 18
ENDMDL
