MODEL 1
REMARK VINA RESULT:     -12.0      0.000      0.000
REMARK SMILES C[C@@H]1[C@@H](C(=O)OCCOCCOC(=O)c2ccc(-c3c4nc(c(-c5c(F)c(F)c(F)c(F)c5F)c5ccc([nH]5)c(-c5c(F)c(F)c(F)c(F)c5F)c5nc(c(-c6c(F)c(F)c(F)c(F)c6F)c6ccc3[nH]6)C=C5)C=C4)cc2)CC[N@H+]1Cc1c(F)cccc1Cl
REMARK SMILES IDX 9 1 8 2 7 3 6 4 4 5 5 6 3 7 1 8 2 9 80 10 78 11 79 12 81 14
REMARK SMILES IDX 82 15 83 16 88 17 84 18 85 19 87 20 89 21 86 22 10 23 11 24
REMARK SMILES IDX 12 25 13 26 14 27 15 28 16 29 77 30 17 31 76 32 18 33 19 34
REMARK SMILES IDX 20 35 70 36 21 37 75 38 69 39 71 40 22 41 74 42 68 43 67 44
REMARK SMILES IDX 23 46 55 47 35 48 54 49 36 50 39 51 53 52 72 53 37 54 38 55
REMARK SMILES IDX 52 57 73 58 40 59 24 60 25 61 33 62 26 63 27 64 31 65 34 66
REMARK SMILES IDX 28 67 29 68 32 69 30 70 56 71 57 72 65 73 58 74 59 75 63 76
REMARK SMILES IDX 66 77 60 78 61 79 64 80 62 81 41 82 42 83 50 84 43 85 44 86
REMARK SMILES IDX 48 87 51 88 45 89 46 90 49 91 47 92
REMARK H PARENT 80 13 71 45 39 56
REMARK Flexibility Score: inf
ROOT
ATOM      1  O   UNL A   1      32.160  30.813  26.874  1.00  0.00    -0.374 OA
ENDROOT
BRANCH   1   2
ATOM      2  C   UNL A   1      31.779  29.529  26.387  1.00  0.00     0.202 C 
BRANCH   2   3
ATOM      3  C   UNL A   1      31.771  28.384  27.401  1.00  0.00     0.261 C 
BRANCH   3   4
ATOM      4  O   UNL A   1      31.027  27.260  26.915  1.00  0.00    -0.463 OA
BRANCH   4   5
ATOM      5  C   UNL A   1      31.778  26.230  26.426  1.00  0.00     0.315 C 
ATOM      6  O   UNL A   1      32.996  26.160  26.498  1.00  0.00    -0.252 OA
BRANCH   5   7
ATOM      7  C   UNL A   1      30.864  25.154  25.871  1.00  0.00     0.162 C 
ATOM      8  C   UNL A   1      30.853  22.679  26.338  1.00  0.00     0.076 C 
ATOM      9  C   UNL A   1      31.616  23.819  25.667  1.00  0.00     0.195 C 
ATOM     10  N   UNL A   1      31.701  23.739  24.216  1.00  0.00    -0.328 N 
ATOM     11  C   UNL A   1      30.392  25.540  24.469  1.00  0.00     0.083 C 
ATOM     12  C   UNL A   1      31.532  25.035  23.609  1.00  0.00     0.263 C 
ATOM     13  H   UNL A   1      31.193  22.884  23.992  1.00  0.00     0.348 HD
BRANCH  10  14
ATOM     14  C   UNL A   1      32.086  22.585  23.445  1.00  0.00     0.303 C 
BRANCH  14  15
ATOM     15  C   UNL A   1      33.473  22.097  23.804  1.00  0.00     0.061 A 
ATOM     16  C   UNL A   1      34.579  22.871  23.427  1.00  0.00     0.133 A 
ATOM     17  C   UNL A   1      33.733  20.940  24.557  1.00  0.00     0.052 A 
ATOM     18  F   UNL A   1      34.407  23.951  22.650  1.00  0.00    -0.206 F 
ATOM     19  C   UNL A   1      35.873  22.575  23.851  1.00  0.00     0.040 A 
ATOM     20  C   UNL A   1      35.030  20.647  25.002  1.00  0.00     0.021 A 
ATOM     21  Cl  UNL A   1      32.531  19.763  24.937  1.00  0.00    -0.084 Cl
ATOM     22  C   UNL A   1      36.098  21.472  24.663  1.00  0.00     0.005 A 
ENDBRANCH  14  15
ENDBRANCH  10  14
ENDBRANCH   5   7
ENDBRANCH   4   5
ENDBRANCH   3   4
ENDBRANCH   2   3
ENDBRANCH   1   2
BRANCH   1  23
ATOM     23  C   UNL A   1      31.399  31.942  26.446  1.00  0.00     0.202 C 
BRANCH  23  24
ATOM     24  C   UNL A   1      31.913  33.320  26.878  1.00  0.00     0.261 C 
BRANCH  24  25
ATOM     25  O   UNL A   1      32.678  33.248  28.096  1.00  0.00    -0.460 OA
BRANCH  25  26
ATOM     26  C   UNL A   1      33.772  34.038  28.127  1.00  0.00     0.338 C 
ATOM     27  O   UNL A   1      33.806  35.266  28.084  1.00  0.00    -0.246 OA
BRANCH  26  28
ATOM     28  C   UNL A   1      34.973  33.238  28.406  1.00  0.00     0.060 A 
ATOM     29  C   UNL A   1      34.785  31.905  28.797  1.00  0.00     0.016 A 
ATOM     30  C   UNL A   1      36.252  33.799  28.382  1.00  0.00     0.016 A 
ATOM     31  C   UNL A   1      35.868  31.144  29.223  1.00  0.00     0.010 A 
ATOM     32  C   UNL A   1      37.339  33.036  28.823  1.00  0.00     0.010 A 
ATOM     33  C   UNL A   1      37.143  31.721  29.284  1.00  0.00    -0.014 A 
BRANCH  33  34
ATOM     34  C   UNL A   1      38.227  31.002  29.994  1.00  0.00     0.031 A 
ATOM     35  C   UNL A   1      38.476  31.320  31.443  1.00  0.00     0.074 A 
ATOM     36  C   UNL A   1      38.947  30.053  29.374  1.00  0.00     0.049 A 
ATOM     37  N   UNL A   1      39.373  30.829  32.260  1.00  0.00    -0.248 NA
ATOM     38  C   UNL A   1      37.591  32.325  32.054  1.00  0.00     0.031 C 
ATOM     39  C   UNL A   1      38.767  29.630  27.987  1.00  0.00     0.029 A 
ATOM     40  N   UNL A   1      39.979  29.275  29.835  1.00  0.00    -0.354 N 
ATOM     41  C   UNL A   1      39.163  31.466  33.476  1.00  0.00     0.074 A 
ATOM     42  C   UNL A   1      38.075  32.400  33.285  1.00  0.00     0.031 C 
ATOM     43  C   UNL A   1      39.668  28.673  27.705  1.00  0.00     0.029 A 
ATOM     44  C   UNL A   1      40.502  28.437  28.882  1.00  0.00     0.049 A 
ATOM     45  H   UNL A   1      40.311  29.314  30.761  1.00  0.00     0.167 HD
ATOM     46  C   UNL A   1      39.814  31.282  34.649  1.00  0.00     0.037 A 
ATOM     47  C   UNL A   1      41.549  27.593  28.953  1.00  0.00     0.037 A 
ATOM     48  C   UNL A   1      40.895  30.352  34.836  1.00  0.00     0.049 A 
ATOM     49  C   UNL A   1      42.302  27.456  30.251  1.00  0.00     0.074 A 
ATOM     50  C   UNL A   1      41.612  30.081  35.989  1.00  0.00     0.029 A 
ATOM     51  N   UNL A   1      41.421  29.545  33.838  1.00  0.00    -0.354 N 
ATOM     52  N   UNL A   1      42.084  28.045  31.401  1.00  0.00    -0.248 NA
ATOM     53  C   UNL A   1      43.446  26.533  30.259  1.00  0.00     0.031 C 
ATOM     54  C   UNL A   1      42.601  29.141  35.677  1.00  0.00     0.029 A 
ATOM     55  C   UNL A   1      42.469  28.792  34.343  1.00  0.00     0.049 A 
ATOM     56  H   UNL A   1      41.098  29.511  32.909  1.00  0.00     0.167 HD
ATOM     57  C   UNL A   1      43.041  27.546  32.275  1.00  0.00     0.074 A 
ATOM     58  C   UNL A   1      43.836  26.596  31.525  1.00  0.00     0.031 C 
ATOM     59  C   UNL A   1      43.244  27.845  33.582  1.00  0.00     0.037 A 
BRANCH  46  60
ATOM     60  C   UNL A   1      39.388  32.123  35.816  1.00  0.00     0.064 A 
ATOM     61  C   UNL A   1      39.930  33.397  36.042  1.00  0.00     0.173 A 
ATOM     62  C   UNL A   1      38.404  31.659  36.701  1.00  0.00     0.173 A 
ATOM     63  F   UNL A   1      40.885  33.877  35.233  1.00  0.00    -0.203 F 
ATOM     64  C   UNL A   1      39.516  34.168  37.126  1.00  0.00     0.198 A 
ATOM     65  C   UNL A   1      37.974  32.443  37.769  1.00  0.00     0.198 A 
ATOM     66  F   UNL A   1      37.853  30.448  36.528  1.00  0.00    -0.203 F 
ATOM     67  F   UNL A   1      40.078  35.364  37.347  1.00  0.00    -0.200 F 
ATOM     68  C   UNL A   1      38.535  33.693  37.984  1.00  0.00     0.200 A 
ATOM     69  F   UNL A   1      37.019  31.988  38.590  1.00  0.00    -0.200 F 
ATOM     70  F   UNL A   1      38.134  34.439  39.023  1.00  0.00    -0.200 F 
ENDBRANCH  46  60
BRANCH  47  71
ATOM     71  C   UNL A   1      41.956  26.815  27.754  1.00  0.00     0.064 A 
ATOM     72  C   UNL A   1      41.443  25.534  27.513  1.00  0.00     0.173 A 
ATOM     73  C   UNL A   1      42.881  27.333  26.834  1.00  0.00     0.173 A 
ATOM     74  F   UNL A   1      40.576  24.986  28.378  1.00  0.00    -0.203 F 
ATOM     75  C   UNL A   1      41.852  24.791  26.407  1.00  0.00     0.198 A 
ATOM     76  C   UNL A   1      43.268  26.601  25.714  1.00  0.00     0.198 A 
ATOM     77  F   UNL A   1      43.403  28.554  27.021  1.00  0.00    -0.203 F 
ATOM     78  F   UNL A   1      41.380  23.551  26.223  1.00  0.00    -0.200 F 
ATOM     79  C   UNL A   1      42.760  25.328  25.505  1.00  0.00     0.200 A 
ATOM     80  F   UNL A   1      44.137  27.127  24.840  1.00  0.00    -0.200 F 
ATOM     81  F   UNL A   1      43.151  24.615  24.440  1.00  0.00    -0.200 F 
ENDBRANCH  47  71
BRANCH  59  82
ATOM     82  C   UNL A   1      44.345  27.116  34.294  1.00  0.00     0.064 A 
ATOM     83  C   UNL A   1      44.134  25.864  34.890  1.00  0.00     0.173 A 
ATOM     84  C   UNL A   1      45.639  27.657  34.343  1.00  0.00     0.173 A 
ATOM     85  F   UNL A   1      42.911  25.312  34.882  1.00  0.00    -0.203 F 
ATOM     86  C   UNL A   1      45.172  25.191  35.528  1.00  0.00     0.198 A 
ATOM     87  C   UNL A   1      46.681  26.969  34.957  1.00  0.00     0.198 A 
ATOM     88  F   UNL A   1      45.895  28.849  33.781  1.00  0.00    -0.203 F 
ATOM     89  F   UNL A   1      44.937  24.016  36.128  1.00  0.00    -0.200 F 
ATOM     90  C   UNL A   1      46.446  25.741  35.555  1.00  0.00     0.200 A 
ATOM     91  F   UNL A   1      47.914  27.494  34.970  1.00  0.00    -0.200 F 
ATOM     92  F   UNL A   1      47.446  25.088  36.164  1.00  0.00    -0.200 F 
ENDBRANCH  59  82
ENDBRANCH  33  34
ENDBRANCH  26  28
ENDBRANCH  25  26
ENDBRANCH  24  25
ENDBRANCH  23  24
ENDBRANCH   1  23
TORSDOF 16
ENDMDL
MODEL 2
REMARK VINA RESULT:     -12.0      1.456      2.068
REMARK SMILES C[C@@H]1[C@@H](C(=O)OCCOCCOC(=O)c2ccc(-c3c4nc(c(-c5c(F)c(F)c(F)c(F)c5F)c5ccc([nH]5)c(-c5c(F)c(F)c(F)c(F)c5F)c5nc(c(-c6c(F)c(F)c(F)c(F)c6F)c6ccc3[nH]6)C=C5)C=C4)cc2)CC[N@H+]1Cc1c(F)cccc1Cl
REMARK SMILES IDX 9 1 8 2 7 3 6 4 4 5 5 6 3 7 1 8 2 9 80 10 78 11 79 12 81 14
REMARK SMILES IDX 82 15 83 16 88 17 84 18 85 19 87 20 89 21 86 22 10 23 11 24
REMARK SMILES IDX 12 25 13 26 14 27 15 28 16 29 77 30 17 31 76 32 18 33 19 34
REMARK SMILES IDX 20 35 70 36 21 37 75 38 69 39 71 40 22 41 74 42 68 43 67 44
REMARK SMILES IDX 23 46 55 47 35 48 54 49 36 50 39 51 53 52 72 53 37 54 38 55
REMARK SMILES IDX 52 57 73 58 40 59 24 60 25 61 33 62 26 63 27 64 31 65 34 66
REMARK SMILES IDX 28 67 29 68 32 69 30 70 56 71 57 72 65 73 58 74 59 75 63 76
REMARK SMILES IDX 66 77 60 78 61 79 64 80 62 81 41 82 42 83 50 84 43 85 44 86
REMARK SMILES IDX 48 87 51 88 45 89 46 90 49 91 47 92
REMARK H PARENT 80 13 71 45 39 56
REMARK Flexibility Score: inf
ROOT
ATOM      1  O   UNL A   1      29.963  31.213  24.310  1.00  0.00    -0.374 OA
ENDROOT
BRANCH   1   2
ATOM      2  C   UNL A   1      29.266  30.278  23.490  1.00  0.00     0.202 C 
BRANCH   2   3
ATOM      3  C   UNL A   1      30.039  29.693  22.308  1.00  0.00     0.261 C 
BRANCH   3   4
ATOM      4  O   UNL A   1      30.019  28.260  22.328  1.00  0.00    -0.463 OA
BRANCH   4   5
ATOM      5  C   UNL A   1      31.069  27.670  22.973  1.00  0.00     0.315 C 
ATOM      6  O   UNL A   1      32.219  27.652  22.559  1.00  0.00    -0.252 OA
BRANCH   5   7
ATOM      7  C   UNL A   1      30.604  27.132  24.312  1.00  0.00     0.162 C 
ATOM      8  C   UNL A   1      31.715  27.299  26.566  1.00  0.00     0.076 C 
ATOM      9  C   UNL A   1      31.795  26.663  25.180  1.00  0.00     0.195 C 
ATOM     10  N   UNL A   1      31.639  25.216  25.151  1.00  0.00    -0.328 N 
ATOM     11  C   UNL A   1      29.767  25.869  24.106  1.00  0.00     0.083 C 
ATOM     12  C   UNL A   1      30.835  24.798  24.030  1.00  0.00     0.263 C 
ATOM     13  H   UNL A   1      31.503  24.969  26.131  1.00  0.00     0.348 HD
BRANCH  10  14
ATOM     14  C   UNL A   1      32.323  24.266  25.990  1.00  0.00     0.303 C 
BRANCH  14  15
ATOM     15  C   UNL A   1      33.522  23.655  25.297  1.00  0.00     0.061 A 
ATOM     16  C   UNL A   1      34.722  24.377  25.264  1.00  0.00     0.133 A 
ATOM     17  C   UNL A   1      33.538  22.368  24.732  1.00  0.00     0.052 A 
ATOM     18  F   UNL A   1      34.760  25.636  25.724  1.00  0.00    -0.206 F 
ATOM     19  C   UNL A   1      35.910  23.825  24.784  1.00  0.00     0.040 A 
ATOM     20  C   UNL A   1      34.732  21.801  24.266  1.00  0.00     0.021 A 
ATOM     21  Cl  UNL A   1      32.118  21.416  24.499  1.00  0.00    -0.084 Cl
ATOM     22  C   UNL A   1      35.921  22.523  24.306  1.00  0.00     0.005 A 
ENDBRANCH  14  15
ENDBRANCH  10  14
ENDBRANCH   5   7
ENDBRANCH   4   5
ENDBRANCH   3   4
ENDBRANCH   2   3
ENDBRANCH   1   2
BRANCH   1  23
ATOM     23  C   UNL A   1      30.984  30.712  25.172  1.00  0.00     0.202 C 
BRANCH  23  24
ATOM     24  C   UNL A   1      31.319  31.559  26.405  1.00  0.00     0.261 C 
BRANCH  24  25
ATOM     25  O   UNL A   1      32.554  31.145  27.020  1.00  0.00    -0.460 OA
BRANCH  25  26
ATOM     26  C   UNL A   1      33.341  32.154  27.448  1.00  0.00     0.338 C 
ATOM     27  O   UNL A   1      33.005  33.313  27.682  1.00  0.00    -0.246 OA
BRANCH  26  28
ATOM     28  C   UNL A   1      34.678  31.649  27.791  1.00  0.00     0.060 A 
ATOM     29  C   UNL A   1      34.815  30.270  27.997  1.00  0.00     0.016 A 
ATOM     30  C   UNL A   1      35.757  32.511  28.001  1.00  0.00     0.016 A 
ATOM     31  C   UNL A   1      36.015  29.752  28.473  1.00  0.00     0.010 A 
ATOM     32  C   UNL A   1      36.959  31.990  28.492  1.00  0.00     0.010 A 
ATOM     33  C   UNL A   1      37.077  30.615  28.769  1.00  0.00    -0.014 A 
BRANCH  33  34
ATOM     34  C   UNL A   1      38.239  30.097  29.529  1.00  0.00     0.031 A 
ATOM     35  C   UNL A   1      38.453  30.579  30.938  1.00  0.00     0.074 A 
ATOM     36  C   UNL A   1      39.061  29.180  28.993  1.00  0.00     0.049 A 
ATOM     37  N   UNL A   1      39.403  30.275  31.786  1.00  0.00    -0.248 NA
ATOM     38  C   UNL A   1      37.461  31.531  31.462  1.00  0.00     0.031 C 
ATOM     39  C   UNL A   1      38.927  28.607  27.655  1.00  0.00     0.029 A 
ATOM     40  N   UNL A   1      40.176  28.573  29.512  1.00  0.00    -0.354 N 
ATOM     41  C   UNL A   1      39.124  30.998  32.938  1.00  0.00     0.074 A 
ATOM     42  C   UNL A   1      37.936  31.779  32.673  1.00  0.00     0.031 C 
ATOM     43  C   UNL A   1      39.930  27.736  27.454  1.00  0.00     0.029 A 
ATOM     44  C   UNL A   1      40.789  27.712  28.637  1.00  0.00     0.049 A 
ATOM     45  H   UNL A   1      40.505  28.739  30.425  1.00  0.00     0.167 HD
ATOM     46  C   UNL A   1      39.796  31.003  34.113  1.00  0.00     0.037 A 
ATOM     47  C   UNL A   1      41.927  27.003  28.773  1.00  0.00     0.037 A 
ATOM     48  C   UNL A   1      40.977  30.225  34.374  1.00  0.00     0.049 A 
ATOM     49  C   UNL A   1      42.694  27.079  30.067  1.00  0.00     0.074 A 
ATOM     50  C   UNL A   1      41.723  30.150  35.538  1.00  0.00     0.029 A 
ATOM     51  N   UNL A   1      41.589  29.390  33.451  1.00  0.00    -0.354 N 
ATOM     52  N   UNL A   1      42.413  27.747  31.159  1.00  0.00    -0.248 NA
ATOM     53  C   UNL A   1      43.936  26.297  30.148  1.00  0.00     0.031 C 
ATOM     54  C   UNL A   1      42.813  29.303  35.303  1.00  0.00     0.029 A 
ATOM     55  C   UNL A   1      42.718  28.814  34.010  1.00  0.00     0.049 A 
ATOM     56  H   UNL A   1      41.269  29.231  32.533  1.00  0.00     0.167 HD
ATOM     57  C   UNL A   1      43.423  27.447  32.064  1.00  0.00     0.074 A 
ATOM     58  C   UNL A   1      44.319  26.526  31.396  1.00  0.00     0.031 C 
ATOM     59  C   UNL A   1      43.594  27.893  33.333  1.00  0.00     0.037 A 
BRANCH  46  60
ATOM     60  C   UNL A   1      39.279  31.899  35.201  1.00  0.00     0.064 A 
ATOM     61  C   UNL A   1      39.573  33.270  35.227  1.00  0.00     0.173 A 
ATOM     62  C   UNL A   1      38.456  31.383  36.212  1.00  0.00     0.173 A 
ATOM     63  F   UNL A   1      40.369  33.808  34.290  1.00  0.00    -0.203 F 
ATOM     64  C   UNL A   1      39.078  34.089  36.238  1.00  0.00     0.198 A 
ATOM     65  C   UNL A   1      37.942  32.209  37.208  1.00  0.00     0.198 A 
ATOM     66  F   UNL A   1      38.144  30.078  36.232  1.00  0.00    -0.203 F 
ATOM     67  F   UNL A   1      39.406  35.388  36.267  1.00  0.00    -0.200 F 
ATOM     68  C   UNL A   1      38.258  33.559  37.224  1.00  0.00     0.200 A 
ATOM     69  F   UNL A   1      37.141  31.698  38.153  1.00  0.00    -0.200 F 
ATOM     70  F   UNL A   1      37.778  34.350  38.194  1.00  0.00    -0.200 F 
ENDBRANCH  46  60
BRANCH  47  71
ATOM     71  C   UNL A   1      42.417  26.165  27.648  1.00  0.00     0.064 A 
ATOM     72  C   UNL A   1      41.972  24.847  27.480  1.00  0.00     0.173 A 
ATOM     73  C   UNL A   1      43.353  26.661  26.729  1.00  0.00     0.173 A 
ATOM     74  F   UNL A   1      41.097  24.319  28.348  1.00  0.00    -0.203 F 
ATOM     75  C   UNL A   1      42.459  24.050  26.445  1.00  0.00     0.198 A 
ATOM     76  C   UNL A   1      43.819  25.873  25.679  1.00  0.00     0.198 A 
ATOM     77  F   UNL A   1      43.812  27.916  26.849  1.00  0.00    -0.203 F 
ATOM     78  F   UNL A   1      42.052  22.779  26.333  1.00  0.00    -0.200 F 
ATOM     79  C   UNL A   1      43.378  24.566  25.543  1.00  0.00     0.200 A 
ATOM     80  F   UNL A   1      44.698  26.379  24.803  1.00  0.00    -0.200 F 
ATOM     81  F   UNL A   1      43.844  23.800  24.546  1.00  0.00    -0.200 F 
ENDBRANCH  47  71
BRANCH  59  82
ATOM     82  C   UNL A   1      44.774  27.366  34.096  1.00  0.00     0.064 A 
ATOM     83  C   UNL A   1      46.006  28.035  34.100  1.00  0.00     0.173 A 
ATOM     84  C   UNL A   1      44.656  26.198  34.866  1.00  0.00     0.173 A 
ATOM     85  F   UNL A   1      46.173  29.147  33.368  1.00  0.00    -0.203 F 
ATOM     86  C   UNL A   1      47.085  27.542  34.830  1.00  0.00     0.198 A 
ATOM     87  C   UNL A   1      45.728  25.724  35.616  1.00  0.00     0.198 A 
ATOM     88  F   UNL A   1      43.496  25.525  34.900  1.00  0.00    -0.203 F 
ATOM     89  F   UNL A   1      48.266  28.174  34.786  1.00  0.00    -0.200 F 
ATOM     90  C   UNL A   1      46.943  26.392  35.593  1.00  0.00     0.200 A 
ATOM     91  F   UNL A   1      45.585  24.621  36.364  1.00  0.00    -0.200 F 
ATOM     92  F   UNL A   1      47.980  25.923  36.301  1.00  0.00    -0.200 F 
ENDBRANCH  59  82
ENDBRANCH  33  34
ENDBRANCH  26  28
ENDBRANCH  25  26
ENDBRANCH  24  25
ENDBRANCH  23  24
ENDBRANCH   1  23
TORSDOF 16
ENDMDL
MODEL 3
REMARK VINA RESULT:     -12.0      1.336      2.327
REMARK SMILES C[C@@H]1[C@@H](C(=O)OCCOCCOC(=O)c2ccc(-c3c4nc(c(-c5c(F)c(F)c(F)c(F)c5F)c5ccc([nH]5)c(-c5c(F)c(F)c(F)c(F)c5F)c5nc(c(-c6c(F)c(F)c(F)c(F)c6F)c6ccc3[nH]6)C=C5)C=C4)cc2)CC[N@H+]1Cc1c(F)cccc1Cl
REMARK SMILES IDX 9 1 8 2 7 3 6 4 4 5 5 6 3 7 1 8 2 9 80 10 78 11 79 12 81 14
REMARK SMILES IDX 82 15 83 16 88 17 84 18 85 19 87 20 89 21 86 22 10 23 11 24
REMARK SMILES IDX 12 25 13 26 14 27 15 28 16 29 77 30 17 31 76 32 18 33 19 34
REMARK SMILES IDX 20 35 70 36 21 37 75 38 69 39 71 40 22 41 74 42 68 43 67 44
REMARK SMILES IDX 23 46 55 47 35 48 54 49 36 50 39 51 53 52 72 53 37 54 38 55
REMARK SMILES IDX 52 57 73 58 40 59 24 60 25 61 33 62 26 63 27 64 31 65 34 66
REMARK SMILES IDX 28 67 29 68 32 69 30 70 56 71 57 72 65 73 58 74 59 75 63 76
REMARK SMILES IDX 66 77 60 78 61 79 64 80 62 81 41 82 42 83 50 84 43 85 44 86
REMARK SMILES IDX 48 87 51 88 45 89 46 90 49 91 47 92
REMARK H PARENT 80 13 71 45 39 56
REMARK Flexibility Score: inf
ROOT
ATOM      1  O   UNL A   1      32.867  30.180  25.826  1.00  0.00    -0.374 OA
ENDROOT
BRANCH   1   2
ATOM      2  C   UNL A   1      32.872  29.340  24.674  1.00  0.00     0.202 C 
BRANCH   2   3
ATOM      3  C   UNL A   1      34.079  28.418  24.501  1.00  0.00     0.261 C 
BRANCH   3   4
ATOM      4  O   UNL A   1      33.730  27.230  23.781  1.00  0.00    -0.463 OA
BRANCH   4   5
ATOM      5  C   UNL A   1      33.431  27.412  22.461  1.00  0.00     0.315 C 
ATOM      6  O   UNL A   1      34.133  28.018  21.665  1.00  0.00    -0.252 OA
BRANCH   5   7
ATOM      7  C   UNL A   1      32.151  26.672  22.124  1.00  0.00     0.162 C 
ATOM      8  C   UNL A   1      30.107  26.300  23.548  1.00  0.00     0.076 C 
ATOM      9  C   UNL A   1      31.578  25.937  23.358  1.00  0.00     0.195 C 
ATOM     10  N   UNL A   1      31.836  24.543  23.026  1.00  0.00    -0.328 N 
ATOM     11  C   UNL A   1      32.440  25.556  21.120  1.00  0.00     0.083 C 
ATOM     12  C   UNL A   1      32.871  24.424  22.031  1.00  0.00     0.263 C 
ATOM     13  H   UNL A   1      30.905  24.127  22.998  1.00  0.00     0.348 HD
BRANCH  10  14
ATOM     14  C   UNL A   1      31.295  23.391  23.700  1.00  0.00     0.303 C 
BRANCH  14  15
ATOM     15  C   UNL A   1      32.278  22.795  24.686  1.00  0.00     0.061 A 
ATOM     16  C   UNL A   1      32.982  21.640  24.322  1.00  0.00     0.133 A 
ATOM     17  C   UNL A   1      32.589  23.364  25.932  1.00  0.00     0.052 A 
ATOM     18  F   UNL A   1      32.687  21.009  23.175  1.00  0.00    -0.206 F 
ATOM     19  C   UNL A   1      34.013  21.120  25.103  1.00  0.00     0.040 A 
ATOM     20  C   UNL A   1      33.636  22.857  26.714  1.00  0.00     0.021 A 
ATOM     21  Cl  UNL A   1      31.692  24.659  26.636  1.00  0.00    -0.084 Cl
ATOM     22  C   UNL A   1      34.358  21.744  26.293  1.00  0.00     0.005 A 
ENDBRANCH  14  15
ENDBRANCH  10  14
ENDBRANCH   5   7
ENDBRANCH   4   5
ENDBRANCH   3   4
ENDBRANCH   2   3
ENDBRANCH   1   2
BRANCH   1  23
ATOM     23  C   UNL A   1      31.666  30.887  26.132  1.00  0.00     0.202 C 
BRANCH  23  24
ATOM     24  C   UNL A   1      31.827  32.266  26.780  1.00  0.00     0.261 C 
BRANCH  24  25
ATOM     25  O   UNL A   1      32.743  32.231  27.891  1.00  0.00    -0.460 OA
BRANCH  25  26
ATOM     26  C   UNL A   1      33.752  33.125  27.822  1.00  0.00     0.338 C 
ATOM     27  O   UNL A   1      33.662  34.341  27.666  1.00  0.00    -0.246 OA
BRANCH  26  28
ATOM     28  C   UNL A   1      35.032  32.477  28.145  1.00  0.00     0.060 A 
ATOM     29  C   UNL A   1      35.013  31.098  28.394  1.00  0.00     0.016 A 
ATOM     30  C   UNL A   1      36.209  33.212  28.298  1.00  0.00     0.016 A 
ATOM     31  C   UNL A   1      36.158  30.457  28.854  1.00  0.00     0.010 A 
ATOM     32  C   UNL A   1      37.357  32.568  28.773  1.00  0.00     0.010 A 
ATOM     33  C   UNL A   1      37.322  31.198  29.092  1.00  0.00    -0.014 A 
BRANCH  33  34
ATOM     34  C   UNL A   1      38.438  30.569  29.838  1.00  0.00     0.031 A 
ATOM     35  C   UNL A   1      38.649  30.949  31.278  1.00  0.00     0.074 A 
ATOM     36  C   UNL A   1      39.221  29.644  29.258  1.00  0.00     0.049 A 
ATOM     37  N   UNL A   1      39.563  30.541  32.121  1.00  0.00    -0.248 NA
ATOM     38  C   UNL A   1      37.699  31.920  31.845  1.00  0.00     0.031 C 
ATOM     39  C   UNL A   1      39.084  29.165  27.885  1.00  0.00     0.029 A 
ATOM     40  N   UNL A   1      40.291  28.945  29.757  1.00  0.00    -0.354 N 
ATOM     41  C   UNL A   1      39.300  31.204  33.312  1.00  0.00     0.074 A 
ATOM     42  C   UNL A   1      38.161  32.064  33.077  1.00  0.00     0.031 C 
ATOM     43  C   UNL A   1      40.043  28.254  27.646  1.00  0.00     0.029 A 
ATOM     44  C   UNL A   1      40.875  28.109  28.839  1.00  0.00     0.049 A 
ATOM     45  H   UNL A   1      40.609  29.035  30.684  1.00  0.00     0.167 HD
ATOM     46  C   UNL A   1      39.946  31.099  34.497  1.00  0.00     0.037 A 
ATOM     47  C   UNL A   1      41.969  27.331  28.949  1.00  0.00     0.037 A 
ATOM     48  C   UNL A   1      41.078  30.242  34.728  1.00  0.00     0.049 A 
ATOM     49  C   UNL A   1      42.712  27.283  30.259  1.00  0.00     0.074 A 
ATOM     50  C   UNL A   1      41.795  30.053  35.897  1.00  0.00     0.029 A 
ATOM     51  N   UNL A   1      41.664  29.435  33.763  1.00  0.00    -0.354 N 
ATOM     52  N   UNL A   1      42.445  27.896  31.387  1.00  0.00    -0.248 NA
ATOM     53  C   UNL A   1      43.909  26.431  30.312  1.00  0.00     0.031 C 
ATOM     54  C   UNL A   1      42.842  29.164  35.628  1.00  0.00     0.029 A 
ATOM     55  C   UNL A   1      42.748  28.763  34.305  1.00  0.00     0.049 A 
ATOM     56  H   UNL A   1      41.355  29.351  32.833  1.00  0.00     0.167 HD
ATOM     57  C   UNL A   1      43.419  27.485  32.287  1.00  0.00     0.074 A 
ATOM     58  C   UNL A   1      44.278  26.559  31.578  1.00  0.00     0.031 C 
ATOM     59  C   UNL A   1      43.588  27.839  33.585  1.00  0.00     0.037 A 
BRANCH  46  60
ATOM     60  C   UNL A   1      39.457  31.951  35.631  1.00  0.00     0.064 A 
ATOM     61  C   UNL A   1      39.904  33.269  35.807  1.00  0.00     0.173 A 
ATOM     62  C   UNL A   1      38.505  31.453  36.532  1.00  0.00     0.173 A 
ATOM     63  F   UNL A   1      40.825  33.786  34.980  1.00  0.00    -0.203 F 
ATOM     64  C   UNL A   1      39.432  34.050  36.859  1.00  0.00     0.198 A 
ATOM     65  C   UNL A   1      38.016  32.244  37.568  1.00  0.00     0.198 A 
ATOM     66  F   UNL A   1      38.044  30.199  36.406  1.00  0.00    -0.203 F 
ATOM     67  F   UNL A   1      39.904  35.291  37.034  1.00  0.00    -0.200 F 
ATOM     68  C   UNL A   1      38.484  33.539  37.735  1.00  0.00     0.200 A 
ATOM     69  F   UNL A   1      37.094  31.753  38.406  1.00  0.00    -0.200 F 
ATOM     70  F   UNL A   1      38.027  34.294  38.743  1.00  0.00    -0.200 F 
ENDBRANCH  46  60
BRANCH  47  71
ATOM     71  C   UNL A   1      42.437  26.540  27.782  1.00  0.00     0.064 A 
ATOM     72  C   UNL A   1      43.384  27.058  26.888  1.00  0.00     0.173 A 
ATOM     73  C   UNL A   1      41.933  25.255  27.529  1.00  0.00     0.173 A 
ATOM     74  F   UNL A   1      43.875  28.292  27.074  1.00  0.00    -0.203 F 
ATOM     75  C   UNL A   1      43.795  26.328  25.774  1.00  0.00     0.198 A 
ATOM     76  C   UNL A   1      42.365  24.516  26.430  1.00  0.00     0.198 A 
ATOM     77  F   UNL A   1      41.023  24.716  28.354  1.00  0.00    -0.203 F 
ATOM     78  F   UNL A   1      44.667  26.864  24.910  1.00  0.00    -0.200 F 
ATOM     79  C   UNL A   1      43.290  25.056  25.550  1.00  0.00     0.200 A 
ATOM     80  F   UNL A   1      41.883  23.283  26.223  1.00  0.00    -0.200 F 
ATOM     81  F   UNL A   1      43.688  24.354  24.480  1.00  0.00    -0.200 F 
ENDBRANCH  47  71
BRANCH  59  82
ATOM     82  C   UNL A   1      44.721  27.201  34.333  1.00  0.00     0.064 A 
ATOM     83  C   UNL A   1      45.976  27.818  34.434  1.00  0.00     0.173 A 
ATOM     84  C   UNL A   1      44.535  25.976  34.992  1.00  0.00     0.173 A 
ATOM     85  F   UNL A   1      46.207  28.983  33.809  1.00  0.00    -0.203 F 
ATOM     86  C   UNL A   1      47.011  27.222  35.149  1.00  0.00     0.198 A 
ATOM     87  C   UNL A   1      45.563  25.397  35.729  1.00  0.00     0.198 A 
ATOM     88  F   UNL A   1      43.351  25.349  34.932  1.00  0.00    -0.203 F 
ATOM     89  F   UNL A   1      48.215  27.808  35.197  1.00  0.00    -0.200 F 
ATOM     90  C   UNL A   1      46.801  26.015  35.802  1.00  0.00     0.200 A 
ATOM     91  F   UNL A   1      45.355  24.238  36.371  1.00  0.00    -0.200 F 
ATOM     92  F   UNL A   1      47.797  25.446  36.496  1.00  0.00    -0.200 F 
ENDBRANCH  59  82
ENDBRANCH  33  34
ENDBRANCH  26  28
ENDBRANCH  25  26
ENDBRANCH  24  25
ENDBRANCH  23  24
ENDBRANCH   1  23
TORSDOF 16
ENDMDL
