MODEL 1
REMARK VINA RESULT:     -11.1      0.000      0.000
REMARK SMILES Cc1csc(NC(=O)[C@@H]2CC=CC[C@H]2C(=O)OCCOCCOC(=O)c2ccc(-c3c4nc(c(-c5c(F)c(F)c(F)c(F)c5F)c5ccc([nH]5)c(-c5c(F)c(F)c(F)c(F)c5F)c5nc(c(-c6c(F)c(F)c(F)c(F)c6F)c6ccc3[nH]6)C=C5)C=C4)cc2)n1
REMARK SMILES IDX 20 1 19 2 18 3 17 4 15 5 16 6 14 7 9 8 10 9 11 10 13 11
REMARK SMILES IDX 12 12 7 13 6 14 8 16 5 17 1 18 2 19 3 20 89 21 4 22 21 23
REMARK SMILES IDX 22 24 23 25 24 26 25 27 26 28 27 29 88 30 28 31 87 32 29 33
REMARK SMILES IDX 30 34 31 35 81 36 32 37 86 38 80 39 82 40 33 41 85 42 79 43
REMARK SMILES IDX 78 44 34 46 66 47 46 48 65 49 47 50 50 51 64 52 83 53 48 54
REMARK SMILES IDX 49 55 63 57 84 58 51 59 35 60 36 61 44 62 37 63 38 64 42 65
REMARK SMILES IDX 45 66 39 67 40 68 43 69 41 70 67 71 68 72 76 73 69 74 70 75
REMARK SMILES IDX 74 76 77 77 71 78 72 79 75 80 73 81 52 82 53 83 61 84 54 85
REMARK SMILES IDX 55 86 59 87 62 88 56 89 57 90 60 91 58 92
REMARK H PARENT 6 15 82 45 50 56
REMARK Flexibility Score: inf
ROOT
ATOM      1  O   UNL A   1      35.465  21.813  26.147  1.00  0.00    -0.374 OA
ENDROOT
BRANCH   1   2
ATOM      2  C   UNL A   1      34.395  21.463  27.021  1.00  0.00     0.202 C 
BRANCH   2   3
ATOM      3  C   UNL A   1      33.641  22.587  27.740  1.00  0.00     0.261 C 
BRANCH   3   4
ATOM      4  O   UNL A   1      33.572  23.823  27.001  1.00  0.00    -0.463 OA
BRANCH   4   5
ATOM      5  C   UNL A   1      32.330  24.148  26.535  1.00  0.00     0.310 C 
ATOM      6  O   UNL A   1      31.279  23.835  27.084  1.00  0.00    -0.252 OA
BRANCH   5   7
ATOM      7  C   UNL A   1      32.366  24.746  25.139  1.00  0.00     0.116 C 
ATOM      8  C   UNL A   1      32.646  26.276  25.021  1.00  0.00     0.097 C 
ATOM      9  C   UNL A   1      32.923  26.619  23.553  1.00  0.00     0.041 C 
ATOM     10  C   UNL A   1      33.602  25.611  22.687  1.00  0.00    -0.030 C 
ATOM     11  C   UNL A   1      33.360  23.840  24.384  1.00  0.00     0.043 C 
ATOM     12  C   UNL A   1      33.799  24.348  23.058  1.00  0.00    -0.030 C 
BRANCH   8  13
ATOM     13  C   UNL A   1      31.473  27.081  25.656  1.00  0.00     0.230 C 
ATOM     14  N   UNL A   1      31.508  27.912  26.733  1.00  0.00    -0.302 N 
ATOM     15  H   UNL A   1      30.712  27.880  27.311  1.00  0.00     0.172 HD
ATOM     16  O   UNL A   1      30.320  26.880  25.244  1.00  0.00    -0.274 OA
BRANCH  14  17
ATOM     17  C   UNL A   1      32.479  28.780  27.131  1.00  0.00     0.189 A 
ATOM     18  C   UNL A   1      35.941  29.492  27.560  1.00  0.00     0.068 C 
ATOM     19  C   UNL A   1      34.476  29.672  27.416  1.00  0.00     0.051 A 
ATOM     20  C   UNL A   1      33.769  30.822  27.124  1.00  0.00     0.092 A 
ATOM     21  N   UNL A   1      33.697  28.542  27.510  1.00  0.00    -0.225 NA
ATOM     22  S   UNL A   1      32.103  30.434  26.907  1.00  0.00    -0.105 S 
ENDBRANCH  14  17
ENDBRANCH   8  13
ENDBRANCH   5   7
ENDBRANCH   4   5
ENDBRANCH   3   4
ENDBRANCH   2   3
ENDBRANCH   1   2
BRANCH   1  23
ATOM     23  C   UNL A   1      35.834  20.852  25.164  1.00  0.00     0.202 C 
BRANCH  23  24
ATOM     24  C   UNL A   1      37.331  20.574  24.979  1.00  0.00     0.261 C 
BRANCH  24  25
ATOM     25  O   UNL A   1      38.157  21.713  25.271  1.00  0.00    -0.460 OA
BRANCH  25  26
ATOM     26  C   UNL A   1      39.191  21.445  26.106  1.00  0.00     0.338 C 
ATOM     27  O   UNL A   1      39.753  20.377  26.274  1.00  0.00    -0.246 OA
BRANCH  26  28
ATOM     28  C   UNL A   1      39.688  22.690  26.720  1.00  0.00     0.060 A 
ATOM     29  C   UNL A   1      39.165  23.895  26.234  1.00  0.00     0.016 A 
ATOM     30  C   UNL A   1      40.705  22.688  27.676  1.00  0.00     0.016 A 
ATOM     31  C   UNL A   1      39.701  25.107  26.657  1.00  0.00     0.010 A 
ATOM     32  C   UNL A   1      41.249  23.907  28.094  1.00  0.00     0.010 A 
ATOM     33  C   UNL A   1      40.777  25.117  27.553  1.00  0.00    -0.014 A 
BRANCH  33  34
ATOM     34  C   UNL A   1      41.507  26.385  27.789  1.00  0.00     0.031 A 
ATOM     35  C   UNL A   1      40.810  27.495  28.527  1.00  0.00     0.074 A 
ATOM     36  C   UNL A   1      42.783  26.524  27.394  1.00  0.00     0.049 A 
ATOM     37  N   UNL A   1      41.252  28.682  28.854  1.00  0.00    -0.248 NA
ATOM     38  C   UNL A   1      39.427  27.229  28.955  1.00  0.00     0.031 C 
ATOM     39  C   UNL A   1      43.569  25.502  26.705  1.00  0.00     0.029 A 
ATOM     40  N   UNL A   1      43.645  27.584  27.520  1.00  0.00    -0.354 N 
ATOM     41  C   UNL A   1      40.204  29.305  29.519  1.00  0.00     0.074 A 
ATOM     42  C   UNL A   1      39.093  28.378  29.522  1.00  0.00     0.031 C 
ATOM     43  C   UNL A   1      44.799  25.986  26.466  1.00  0.00     0.029 A 
ATOM     44  C   UNL A   1      44.878  27.359  26.960  1.00  0.00     0.049 A 
ATOM     45  H   UNL A   1      43.402  28.426  27.969  1.00  0.00     0.167 HD
ATOM     46  C   UNL A   1      40.176  30.535  30.084  1.00  0.00     0.037 A 
ATOM     47  C   UNL A   1      45.941  28.178  26.850  1.00  0.00     0.037 A 
ATOM     48  C   UNL A   1      41.287  31.449  30.081  1.00  0.00     0.049 A 
ATOM     49  C   UNL A   1      45.864  29.565  27.434  1.00  0.00     0.074 A 
ATOM     50  C   UNL A   1      41.372  32.708  30.647  1.00  0.00     0.029 A 
ATOM     51  N   UNL A   1      42.508  31.199  29.472  1.00  0.00    -0.354 N 
ATOM     52  N   UNL A   1      44.880  30.134  28.089  1.00  0.00    -0.248 NA
ATOM     53  C   UNL A   1      47.046  30.420  27.266  1.00  0.00     0.031 C 
ATOM     54  C   UNL A   1      42.627  33.243  30.336  1.00  0.00     0.029 A 
ATOM     55  C   UNL A   1      43.345  32.294  29.624  1.00  0.00     0.049 A 
ATOM     56  H   UNL A   1      42.746  30.369  29.002  1.00  0.00     0.167 HD
ATOM     57  C   UNL A   1      45.334  31.400  28.437  1.00  0.00     0.074 A 
ATOM     58  C   UNL A   1      46.686  31.511  27.930  1.00  0.00     0.031 C 
ATOM     59  C   UNL A   1      44.690  32.381  29.115  1.00  0.00     0.037 A 
BRANCH  46  60
ATOM     60  C   UNL A   1      38.892  30.974  30.725  1.00  0.00     0.064 A 
ATOM     61  C   UNL A   1      37.857  31.565  29.983  1.00  0.00     0.173 A 
ATOM     62  C   UNL A   1      38.681  30.775  32.099  1.00  0.00     0.173 A 
ATOM     63  F   UNL A   1      38.012  31.791  28.671  1.00  0.00    -0.203 F 
ATOM     64  C   UNL A   1      36.673  31.965  30.597  1.00  0.00     0.198 A 
ATOM     65  C   UNL A   1      37.485  31.150  32.704  1.00  0.00     0.198 A 
ATOM     66  F   UNL A   1      39.636  30.211  32.854  1.00  0.00    -0.203 F 
ATOM     67  F   UNL A   1      35.717  32.572  29.878  1.00  0.00    -0.200 F 
ATOM     68  C   UNL A   1      36.485  31.751  31.955  1.00  0.00     0.200 A 
ATOM     69  F   UNL A   1      37.300  30.932  34.014  1.00  0.00    -0.200 F 
ATOM     70  F   UNL A   1      35.342  32.132  32.544  1.00  0.00    -0.200 F 
ENDBRANCH  46  60
BRANCH  47  71
ATOM     71  C   UNL A   1      47.171  27.708  26.160  1.00  0.00     0.064 A 
ATOM     72  C   UNL A   1      47.294  27.785  24.766  1.00  0.00     0.173 A 
ATOM     73  C   UNL A   1      48.246  27.166  26.881  1.00  0.00     0.173 A 
ATOM     74  F   UNL A   1      46.284  28.272  24.031  1.00  0.00    -0.203 F 
ATOM     75  C   UNL A   1      48.439  27.324  24.118  1.00  0.00     0.198 A 
ATOM     76  C   UNL A   1      49.401  26.731  26.234  1.00  0.00     0.198 A 
ATOM     77  F   UNL A   1      48.178  27.069  28.217  1.00  0.00    -0.203 F 
ATOM     78  F   UNL A   1      48.513  27.369  22.781  1.00  0.00    -0.200 F 
ATOM     79  C   UNL A   1      49.494  26.804  24.853  1.00  0.00     0.200 A 
ATOM     80  F   UNL A   1      50.422  26.240  26.949  1.00  0.00    -0.200 F 
ATOM     81  F   UNL A   1      50.596  26.366  24.229  1.00  0.00    -0.200 F 
ENDBRANCH  47  71
BRANCH  59  82
ATOM     82  C   UNL A   1      45.452  33.648  29.378  1.00  0.00     0.064 A 
ATOM     83  C   UNL A   1      46.226  33.816  30.534  1.00  0.00     0.173 A 
ATOM     84  C   UNL A   1      45.441  34.689  28.436  1.00  0.00     0.173 A 
ATOM     85  F   UNL A   1      46.258  32.855  31.471  1.00  0.00    -0.203 F 
ATOM     86  C   UNL A   1      46.942  34.991  30.751  1.00  0.00     0.198 A 
ATOM     87  C   UNL A   1      46.181  35.849  28.643  1.00  0.00     0.198 A 
ATOM     88  F   UNL A   1      44.723  34.575  27.309  1.00  0.00    -0.203 F 
ATOM     89  F   UNL A   1      47.637  35.148  31.886  1.00  0.00    -0.200 F 
ATOM     90  C   UNL A   1      46.925  36.002  29.803  1.00  0.00     0.200 A 
ATOM     91  F   UNL A   1      46.175  36.820  27.719  1.00  0.00    -0.200 F 
ATOM     92  F   UNL A   1      47.620  37.129  30.011  1.00  0.00    -0.200 F 
ENDBRANCH  59  82
ENDBRANCH  33  34
ENDBRANCH  26  28
ENDBRANCH  25  26
ENDBRANCH  24  25
ENDBRANCH  23  24
ENDBRANCH   1  23
TORSDOF 16
ENDMDL
MODEL 2
REMARK VINA RESULT:     -11.1      1.422      7.717
REMARK SMILES Cc1csc(NC(=O)[C@@H]2CC=CC[C@H]2C(=O)OCCOCCOC(=O)c2ccc(-c3c4nc(c(-c5c(F)c(F)c(F)c(F)c5F)c5ccc([nH]5)c(-c5c(F)c(F)c(F)c(F)c5F)c5nc(c(-c6c(F)c(F)c(F)c(F)c6F)c6ccc3[nH]6)C=C5)C=C4)cc2)n1
REMARK SMILES IDX 20 1 19 2 18 3 17 4 15 5 16 6 14 7 9 8 10 9 11 10 13 11
REMARK SMILES IDX 12 12 7 13 6 14 8 16 5 17 1 18 2 19 3 20 89 21 4 22 21 23
REMARK SMILES IDX 22 24 23 25 24 26 25 27 26 28 27 29 88 30 28 31 87 32 29 33
REMARK SMILES IDX 30 34 31 35 81 36 32 37 86 38 80 39 82 40 33 41 85 42 79 43
REMARK SMILES IDX 78 44 34 46 66 47 46 48 65 49 47 50 50 51 64 52 83 53 48 54
REMARK SMILES IDX 49 55 63 57 84 58 51 59 35 60 36 61 44 62 37 63 38 64 42 65
REMARK SMILES IDX 45 66 39 67 40 68 43 69 41 70 67 71 68 72 76 73 69 74 70 75
REMARK SMILES IDX 74 76 77 77 71 78 72 79 75 80 73 81 52 82 53 83 61 84 54 85
REMARK SMILES IDX 55 86 59 87 62 88 56 89 57 90 60 91 58 92
REMARK H PARENT 6 15 82 45 50 56
REMARK Flexibility Score: inf
ROOT
ATOM      1  O   UNL A   1      35.497  21.441  26.322  1.00  0.00    -0.374 OA
ENDROOT
BRANCH   1   2
ATOM      2  C   UNL A   1      34.872  22.721  26.274  1.00  0.00     0.202 C 
BRANCH   2   3
ATOM      3  C   UNL A   1      35.312  23.710  25.189  1.00  0.00     0.261 C 
BRANCH   3   4
ATOM      4  O   UNL A   1      34.837  25.058  25.387  1.00  0.00    -0.463 OA
BRANCH   4   5
ATOM      5  C   UNL A   1      33.856  25.455  24.523  1.00  0.00     0.310 C 
ATOM      6  O   UNL A   1      33.814  25.155  23.335  1.00  0.00    -0.252 OA
BRANCH   5   7
ATOM      7  C   UNL A   1      32.930  26.497  25.127  1.00  0.00     0.116 C 
ATOM      8  C   UNL A   1      31.656  25.983  25.866  1.00  0.00     0.097 C 
ATOM      9  C   UNL A   1      31.023  27.148  26.636  1.00  0.00     0.041 C 
ATOM     10  C   UNL A   1      31.907  28.207  27.205  1.00  0.00    -0.030 C 
ATOM     11  C   UNL A   1      33.875  27.365  25.983  1.00  0.00     0.043 C 
ATOM     12  C   UNL A   1      33.201  28.312  26.909  1.00  0.00    -0.030 C 
BRANCH   8  13
ATOM     13  C   UNL A   1      30.697  25.291  24.851  1.00  0.00     0.230 C 
ATOM     14  N   UNL A   1      29.734  25.862  24.078  1.00  0.00    -0.302 N 
ATOM     15  H   UNL A   1      28.920  25.323  23.958  1.00  0.00     0.172 HD
ATOM     16  O   UNL A   1      30.684  24.051  24.795  1.00  0.00    -0.274 OA
BRANCH  14  17
ATOM     17  C   UNL A   1      29.730  27.068  23.444  1.00  0.00     0.189 A 
ATOM     18  C   UNL A   1      28.928  30.537  23.500  1.00  0.00     0.068 C 
ATOM     19  C   UNL A   1      29.544  29.242  23.121  1.00  0.00     0.051 A 
ATOM     20  C   UNL A   1      30.673  29.008  22.360  1.00  0.00     0.092 A 
ATOM     21  N   UNL A   1      28.973  28.104  23.643  1.00  0.00    -0.225 NA
ATOM     22  S   UNL A   1      31.038  27.324  22.372  1.00  0.00    -0.105 S 
ENDBRANCH  14  17
ENDBRANCH   8  13
ENDBRANCH   5   7
ENDBRANCH   4   5
ENDBRANCH   3   4
ENDBRANCH   2   3
ENDBRANCH   1   2
BRANCH   1  23
ATOM     23  C   UNL A   1      35.946  20.897  25.086  1.00  0.00     0.202 C 
BRANCH  23  24
ATOM     24  C   UNL A   1      37.417  20.476  24.996  1.00  0.00     0.261 C 
BRANCH  24  25
ATOM     25  O   UNL A   1      38.330  21.565  25.212  1.00  0.00    -0.460 OA
BRANCH  25  26
ATOM     26  C   UNL A   1      39.298  21.300  26.124  1.00  0.00     0.338 C 
ATOM     27  O   UNL A   1      39.862  20.238  26.322  1.00  0.00    -0.246 OA
BRANCH  26  28
ATOM     28  C   UNL A   1      39.724  22.543  26.793  1.00  0.00     0.060 A 
ATOM     29  C   UNL A   1      39.028  23.715  26.467  1.00  0.00     0.016 A 
ATOM     30  C   UNL A   1      40.832  22.585  27.640  1.00  0.00     0.016 A 
ATOM     31  C   UNL A   1      39.475  24.944  26.940  1.00  0.00     0.010 A 
ATOM     32  C   UNL A   1      41.287  23.822  28.108  1.00  0.00     0.010 A 
ATOM     33  C   UNL A   1      40.635  25.008  27.723  1.00  0.00    -0.014 A 
BRANCH  33  34
ATOM     34  C   UNL A   1      41.248  26.330  27.996  1.00  0.00     0.031 A 
ATOM     35  C   UNL A   1      42.644  26.596  27.504  1.00  0.00     0.074 A 
ATOM     36  C   UNL A   1      40.553  27.290  28.627  1.00  0.00     0.049 A 
ATOM     37  N   UNL A   1      43.374  27.675  27.617  1.00  0.00    -0.248 NA
ATOM     38  C   UNL A   1      43.305  25.494  26.786  1.00  0.00     0.031 C 
ATOM     39  C   UNL A   1      39.181  27.156  29.113  1.00  0.00     0.029 A 
ATOM     40  N   UNL A   1      40.906  28.571  28.965  1.00  0.00    -0.354 N 
ATOM     41  C   UNL A   1      44.580  27.382  26.992  1.00  0.00     0.074 A 
ATOM     42  C   UNL A   1      44.496  26.014  26.529  1.00  0.00     0.031 C 
ATOM     43  C   UNL A   1      38.808  28.310  29.691  1.00  0.00     0.029 A 
ATOM     44  C   UNL A   1      39.924  29.253  29.639  1.00  0.00     0.049 A 
ATOM     45  H   UNL A   1      41.782  28.964  28.746  1.00  0.00     0.167 HD
ATOM     46  C   UNL A   1      45.654  28.186  26.813  1.00  0.00     0.037 A 
ATOM     47  C   UNL A   1      39.935  30.493  30.163  1.00  0.00     0.037 A 
ATOM     48  C   UNL A   1      45.727  29.548  27.272  1.00  0.00     0.049 A 
ATOM     49  C   UNL A   1      41.166  31.348  30.003  1.00  0.00     0.074 A 
ATOM     50  C   UNL A   1      46.758  30.458  27.120  1.00  0.00     0.029 A 
ATOM     51  N   UNL A   1      44.725  30.193  27.983  1.00  0.00    -0.354 N 
ATOM     52  N   UNL A   1      42.289  31.075  29.382  1.00  0.00    -0.248 NA
ATOM     53  C   UNL A   1      41.128  32.683  30.613  1.00  0.00     0.031 C 
ATOM     54  C   UNL A   1      46.402  31.636  27.784  1.00  0.00     0.029 A 
ATOM     55  C   UNL A   1      45.125  31.480  28.302  1.00  0.00     0.049 A 
ATOM     56  H   UNL A   1      43.858  29.795  28.225  1.00  0.00     0.167 HD
ATOM     57  C   UNL A   1      43.078  32.211  29.502  1.00  0.00     0.074 A 
ATOM     58  C   UNL A   1      42.300  33.182  30.243  1.00  0.00     0.031 C 
ATOM     59  C   UNL A   1      44.332  32.432  29.037  1.00  0.00     0.037 A 
BRANCH  46  60
ATOM     60  C   UNL A   1      46.848  27.602  26.116  1.00  0.00     0.064 A 
ATOM     61  C   UNL A   1      46.990  27.656  24.721  1.00  0.00     0.173 A 
ATOM     62  C   UNL A   1      47.880  27.005  26.857  1.00  0.00     0.173 A 
ATOM     63  F   UNL A   1      46.027  28.203  23.965  1.00  0.00    -0.203 F 
ATOM     64  C   UNL A   1      48.107  27.109  24.092  1.00  0.00     0.198 A 
ATOM     65  C   UNL A   1      49.008  26.484  26.228  1.00  0.00     0.198 A 
ATOM     66  F   UNL A   1      47.796  26.930  28.194  1.00  0.00    -0.203 F 
ATOM     67  F   UNL A   1      48.199  27.129  22.755  1.00  0.00    -0.200 F 
ATOM     68  C   UNL A   1      49.117  26.530  24.847  1.00  0.00     0.200 A 
ATOM     69  F   UNL A   1      49.988  25.935  26.959  1.00  0.00    -0.200 F 
ATOM     70  F   UNL A   1      50.193  26.008  24.241  1.00  0.00    -0.200 F 
ENDBRANCH  46  60
BRANCH  47  71
ATOM     71  C   UNL A   1      38.741  31.003  30.887  1.00  0.00     0.064 A 
ATOM     72  C   UNL A   1      38.629  30.877  32.278  1.00  0.00     0.173 A 
ATOM     73  C   UNL A   1      37.684  31.621  30.201  1.00  0.00     0.173 A 
ATOM     74  F   UNL A   1      39.602  30.272  32.976  1.00  0.00    -0.203 F 
ATOM     75  C   UNL A   1      37.500  31.336  32.955  1.00  0.00     0.198 A 
ATOM     76  C   UNL A   1      36.568  32.103  30.882  1.00  0.00     0.198 A 
ATOM     77  F   UNL A   1      37.741  31.764  28.869  1.00  0.00    -0.203 F 
ATOM     78  F   UNL A   1      37.400  31.164  34.279  1.00  0.00    -0.200 F 
ATOM     79  C   UNL A   1      36.473  31.954  32.256  1.00  0.00     0.200 A 
ATOM     80  F   UNL A   1      35.584  32.711  30.204  1.00  0.00    -0.200 F 
ATOM     81  F   UNL A   1      35.390  32.400  32.908  1.00  0.00    -0.200 F 
ENDBRANCH  47  71
BRANCH  59  82
ATOM     82  C   UNL A   1      44.929  33.787  29.289  1.00  0.00     0.064 A 
ATOM     83  C   UNL A   1      44.733  34.855  28.403  1.00  0.00     0.173 A 
ATOM     84  C   UNL A   1      45.669  34.029  30.458  1.00  0.00     0.173 A 
ATOM     85  F   UNL A   1      44.045  34.670  27.266  1.00  0.00    -0.203 F 
ATOM     86  C   UNL A   1      45.279  36.110  28.663  1.00  0.00     0.198 A 
ATOM     87  C   UNL A   1      46.187  35.291  30.729  1.00  0.00     0.198 A 
ATOM     88  F   UNL A   1      45.878  33.043  31.342  1.00  0.00    -0.203 F 
ATOM     89  F   UNL A   1      45.119  37.103  27.778  1.00  0.00    -0.200 F 
ATOM     90  C   UNL A   1      45.997  36.328  29.828  1.00  0.00     0.200 A 
ATOM     91  F   UNL A   1      46.869  35.505  31.862  1.00  0.00    -0.200 F 
ATOM     92  F   UNL A   1      46.515  37.539  30.080  1.00  0.00    -0.200 F 
ENDBRANCH  59  82
ENDBRANCH  33  34
ENDBRANCH  26  28
ENDBRANCH  25  26
ENDBRANCH  24  25
ENDBRANCH  23  24
ENDBRANCH   1  23
TORSDOF 16
ENDMDL
MODEL 3
REMARK VINA RESULT:     -11.0      1.411      2.705
REMARK SMILES Cc1csc(NC(=O)[C@@H]2CC=CC[C@H]2C(=O)OCCOCCOC(=O)c2ccc(-c3c4nc(c(-c5c(F)c(F)c(F)c(F)c5F)c5ccc([nH]5)c(-c5c(F)c(F)c(F)c(F)c5F)c5nc(c(-c6c(F)c(F)c(F)c(F)c6F)c6ccc3[nH]6)C=C5)C=C4)cc2)n1
REMARK SMILES IDX 20 1 19 2 18 3 17 4 15 5 16 6 14 7 9 8 10 9 11 10 13 11
REMARK SMILES IDX 12 12 7 13 6 14 8 16 5 17 1 18 2 19 3 20 89 21 4 22 21 23
REMARK SMILES IDX 22 24 23 25 24 26 25 27 26 28 27 29 88 30 28 31 87 32 29 33
REMARK SMILES IDX 30 34 31 35 81 36 32 37 86 38 80 39 82 40 33 41 85 42 79 43
REMARK SMILES IDX 78 44 34 46 66 47 46 48 65 49 47 50 50 51 64 52 83 53 48 54
REMARK SMILES IDX 49 55 63 57 84 58 51 59 35 60 36 61 44 62 37 63 38 64 42 65
REMARK SMILES IDX 45 66 39 67 40 68 43 69 41 70 67 71 68 72 76 73 69 74 70 75
REMARK SMILES IDX 74 76 77 77 71 78 72 79 75 80 73 81 52 82 53 83 61 84 54 85
REMARK SMILES IDX 55 86 59 87 62 88 56 89 57 90 60 91 58 92
REMARK H PARENT 6 15 82 45 50 56
REMARK Flexibility Score: inf
ROOT
ATOM      1  O   UNL A   1      35.085  21.583  25.936  1.00  0.00    -0.374 OA
ENDROOT
BRANCH   1   2
ATOM      2  C   UNL A   1      34.501  22.746  25.355  1.00  0.00     0.202 C 
BRANCH   2   3
ATOM      3  C   UNL A   1      35.387  23.975  25.129  1.00  0.00     0.261 C 
BRANCH   3   4
ATOM      4  O   UNL A   1      34.776  25.226  25.508  1.00  0.00    -0.463 OA
BRANCH   4   5
ATOM      5  C   UNL A   1      33.918  25.752  24.584  1.00  0.00     0.310 C 
ATOM      6  O   UNL A   1      34.045  25.629  23.370  1.00  0.00    -0.252 OA
BRANCH   5   7
ATOM      7  C   UNL A   1      32.905  26.701  25.199  1.00  0.00     0.116 C 
ATOM      8  C   UNL A   1      31.631  26.073  25.844  1.00  0.00     0.097 C 
ATOM      9  C   UNL A   1      30.895  27.152  26.645  1.00  0.00     0.041 C 
ATOM     10  C   UNL A   1      31.687  28.225  27.316  1.00  0.00    -0.030 C 
ATOM     11  C   UNL A   1      33.756  27.571  26.147  1.00  0.00     0.043 C 
ATOM     12  C   UNL A   1      32.984  28.422  27.090  1.00  0.00    -0.030 C 
BRANCH   8  13
ATOM     13  C   UNL A   1      30.764  25.387  24.746  1.00  0.00     0.230 C 
ATOM     14  N   UNL A   1      29.847  25.959  23.919  1.00  0.00    -0.302 N 
ATOM     15  H   UNL A   1      29.055  25.406  23.728  1.00  0.00     0.172 HD
ATOM     16  O   UNL A   1      30.782  24.150  24.658  1.00  0.00    -0.274 OA
BRANCH  14  17
ATOM     17  C   UNL A   1      29.860  27.180  23.316  1.00  0.00     0.189 A 
ATOM     18  C   UNL A   1      29.045  30.644  23.431  1.00  0.00     0.068 C 
ATOM     19  C   UNL A   1      29.679  29.361  23.041  1.00  0.00     0.051 A 
ATOM     20  C   UNL A   1      30.835  29.150  22.316  1.00  0.00     0.092 A 
ATOM     21  N   UNL A   1      29.094  28.209  23.514  1.00  0.00    -0.225 NA
ATOM     22  S   UNL A   1      31.205  27.466  22.298  1.00  0.00    -0.105 S 
ENDBRANCH  14  17
ENDBRANCH   8  13
ENDBRANCH   5   7
ENDBRANCH   4   5
ENDBRANCH   3   4
ENDBRANCH   2   3
ENDBRANCH   1   2
BRANCH   1  23
ATOM     23  C   UNL A   1      35.579  20.594  25.039  1.00  0.00     0.202 C 
BRANCH  23  24
ATOM     24  C   UNL A   1      37.089  20.330  25.045  1.00  0.00     0.261 C 
BRANCH  24  25
ATOM     25  O   UNL A   1      37.866  21.504  25.336  1.00  0.00    -0.460 OA
BRANCH  25  26
ATOM     26  C   UNL A   1      39.025  21.249  25.991  1.00  0.00     0.338 C 
ATOM     27  O   UNL A   1      39.660  20.209  26.001  1.00  0.00    -0.246 OA
BRANCH  26  28
ATOM     28  C   UNL A   1      39.543  22.483  26.611  1.00  0.00     0.060 A 
ATOM     29  C   UNL A   1      39.001  23.697  26.168  1.00  0.00     0.016 A 
ATOM     30  C   UNL A   1      40.595  22.464  27.528  1.00  0.00     0.016 A 
ATOM     31  C   UNL A   1      39.551  24.901  26.596  1.00  0.00     0.010 A 
ATOM     32  C   UNL A   1      41.153  23.676  27.950  1.00  0.00     0.010 A 
ATOM     33  C   UNL A   1      40.660  24.895  27.451  1.00  0.00    -0.014 A 
BRANCH  33  34
ATOM     34  C   UNL A   1      41.396  26.160  27.685  1.00  0.00     0.031 A 
ATOM     35  C   UNL A   1      40.715  27.265  28.444  1.00  0.00     0.074 A 
ATOM     36  C   UNL A   1      42.666  26.300  27.270  1.00  0.00     0.049 A 
ATOM     37  N   UNL A   1      41.165  28.448  28.773  1.00  0.00    -0.248 NA
ATOM     38  C   UNL A   1      39.339  26.998  28.892  1.00  0.00     0.031 C 
ATOM     39  C   UNL A   1      43.437  25.281  26.559  1.00  0.00     0.029 A 
ATOM     40  N   UNL A   1      43.533  27.356  27.389  1.00  0.00    -0.354 N 
ATOM     41  C   UNL A   1      40.129  29.068  29.461  1.00  0.00     0.074 A 
ATOM     42  C   UNL A   1      39.016  28.144  29.474  1.00  0.00     0.031 C 
ATOM     43  C   UNL A   1      44.664  25.764  26.303  1.00  0.00     0.029 A 
ATOM     44  C   UNL A   1      44.755  27.133  26.807  1.00  0.00     0.049 A 
ATOM     45  H   UNL A   1      43.299  28.195  27.849  1.00  0.00     0.167 HD
ATOM     46  C   UNL A   1      40.114  30.294  30.035  1.00  0.00     0.037 A 
ATOM     47  C   UNL A   1      45.818  27.950  26.685  1.00  0.00     0.037 A 
ATOM     48  C   UNL A   1      41.227  31.205  30.021  1.00  0.00     0.049 A 
ATOM     49  C   UNL A   1      45.754  29.333  27.282  1.00  0.00     0.074 A 
ATOM     50  C   UNL A   1      41.324  32.460  30.597  1.00  0.00     0.029 A 
ATOM     51  N   UNL A   1      42.437  30.958  29.390  1.00  0.00    -0.354 N 
ATOM     52  N   UNL A   1      44.783  29.899  27.959  1.00  0.00    -0.248 NA
ATOM     53  C   UNL A   1      46.935  30.187  27.102  1.00  0.00     0.031 C 
ATOM     54  C   UNL A   1      42.575  32.994  30.268  1.00  0.00     0.029 A 
ATOM     55  C   UNL A   1      43.278  32.049  29.536  1.00  0.00     0.049 A 
ATOM     56  H   UNL A   1      42.665  30.131  28.909  1.00  0.00     0.167 HD
ATOM     57  C   UNL A   1      45.245  31.161  28.309  1.00  0.00     0.074 A 
ATOM     58  C   UNL A   1      46.589  31.273  27.780  1.00  0.00     0.031 C 
ATOM     59  C   UNL A   1      44.615  32.138  29.006  1.00  0.00     0.037 A 
BRANCH  46  60
ATOM     60  C   UNL A   1      38.841  30.730  30.702  1.00  0.00     0.064 A 
ATOM     61  C   UNL A   1      38.664  30.636  32.091  1.00  0.00     0.173 A 
ATOM     62  C   UNL A   1      37.794  31.276  29.943  1.00  0.00     0.173 A 
ATOM     63  F   UNL A   1      39.627  30.109  32.861  1.00  0.00    -0.203 F 
ATOM     64  C   UNL A   1      37.476  31.048  32.692  1.00  0.00     0.198 A 
ATOM     65  C   UNL A   1      36.619  31.712  30.550  1.00  0.00     0.198 A 
ATOM     66  F   UNL A   1      37.913  31.391  28.612  1.00  0.00    -0.203 F 
ATOM     67  F   UNL A   1      37.310  30.904  34.014  1.00  0.00    -0.200 F 
ATOM     68  C   UNL A   1      36.458  31.591  31.922  1.00  0.00     0.200 A 
ATOM     69  F   UNL A   1      35.641  32.247  29.806  1.00  0.00    -0.200 F 
ATOM     70  F   UNL A   1      35.317  31.990  32.501  1.00  0.00    -0.200 F 
ENDBRANCH  46  60
BRANCH  47  71
ATOM     71  C   UNL A   1      47.035  27.484  25.971  1.00  0.00     0.064 A 
ATOM     72  C   UNL A   1      47.190  27.690  24.594  1.00  0.00     0.173 A 
ATOM     73  C   UNL A   1      48.065  26.815  26.651  1.00  0.00     0.173 A 
ATOM     74  F   UNL A   1      46.223  28.302  23.896  1.00  0.00    -0.203 F 
ATOM     75  C   UNL A   1      48.323  27.233  23.920  1.00  0.00     0.198 A 
ATOM     76  C   UNL A   1      49.208  26.383  25.982  1.00  0.00     0.198 A 
ATOM     77  F   UNL A   1      47.964  26.591  27.970  1.00  0.00    -0.203 F 
ATOM     78  F   UNL A   1      48.426  27.405  22.596  1.00  0.00    -0.200 F 
ATOM     79  C   UNL A   1      49.333  26.586  24.616  1.00  0.00     0.200 A 
ATOM     80  F   UNL A   1      50.187  25.769  26.660  1.00  0.00    -0.200 F 
ATOM     81  F   UNL A   1      50.423  26.151  23.969  1.00  0.00    -0.200 F 
ENDBRANCH  47  71
BRANCH  59  82
ATOM     82  C   UNL A   1      45.384  33.401  29.266  1.00  0.00     0.064 A 
ATOM     83  C   UNL A   1      45.313  34.499  28.397  1.00  0.00     0.173 A 
ATOM     84  C   UNL A   1      46.166  33.529  30.425  1.00  0.00     0.173 A 
ATOM     85  F   UNL A   1      44.590  34.421  27.269  1.00  0.00    -0.203 F 
ATOM     86  C   UNL A   1      46.018  35.669  28.665  1.00  0.00     0.198 A 
ATOM     87  C   UNL A   1      46.845  34.711  30.704  1.00  0.00     0.198 A 
ATOM     88  F   UNL A   1      46.260  32.511  31.293  1.00  0.00    -0.203 F 
ATOM     89  F   UNL A   1      45.974  36.688  27.796  1.00  0.00    -0.200 F 
ATOM     90  C   UNL A   1      46.776  35.777  29.820  1.00  0.00     0.200 A 
ATOM     91  F   UNL A   1      47.566  34.819  31.829  1.00  0.00    -0.200 F 
ATOM     92  F   UNL A   1      47.449  36.907  30.079  1.00  0.00    -0.200 F 
ENDBRANCH  59  82
ENDBRANCH  33  34
ENDBRANCH  26  28
ENDBRANCH  25  26
ENDBRANCH  24  25
ENDBRANCH  23  24
ENDBRANCH   1  23
TORSDOF 16
ENDMDL
