MODEL 1
REMARK VINA RESULT:     -10.6      0.000      0.000
REMARK SMILES CC(C)[C@H](CO)Nc1ccc(C(=O)OCCOCCOC(=O)c2ccc(-c3c4nc(c(-c5c(F)c(F)c(F)c(F)c5F)c5ccc([nH]5)c(-c5c(F)c(F)c(F)c(F)c5F)c5nc(c(-c6c(F)c(F)c(F)c(F)c6F)c6ccc3[nH]6)C=C5)C=C4)cc2)cc1
REMARK SMILES IDX 16 1 15 2 14 3 12 4 13 5 11 6 8 7 9 8 87 9 10 10 86 11 7 12
REMARK SMILES IDX 4 14 2 15 1 16 3 17 5 18 6 19 17 21 18 22 19 23 20 24 21 25
REMARK SMILES IDX 22 26 23 27 24 28 85 29 25 30 84 31 26 32 27 33 28 34 78 35
REMARK SMILES IDX 29 36 83 37 77 38 79 39 30 40 82 41 76 42 75 43 31 45 63 46
REMARK SMILES IDX 43 47 62 48 44 49 47 50 61 51 80 52 45 53 46 54 60 56 81 57
REMARK SMILES IDX 48 58 32 59 33 60 41 61 34 62 35 63 39 64 42 65 36 66 37 67
REMARK SMILES IDX 40 68 38 69 64 70 65 71 73 72 66 73 67 74 71 75 74 76 68 77
REMARK SMILES IDX 69 78 72 79 70 80 49 81 50 82 58 83 51 84 52 85 56 86 59 87
REMARK SMILES IDX 53 88 54 89 57 90 55 91
REMARK H PARENT 7 13 6 20 79 44 47 55
REMARK Flexibility Score: inf
ROOT
ATOM      1  C   UNL A   1      36.550  22.949  24.294  1.00  0.00     0.202 C 
ENDROOT
BRANCH   1   2
ATOM      2  C   UNL A   1      35.254  22.970  23.480  1.00  0.00     0.261 C 
BRANCH   2   3
ATOM      3  O   UNL A   1      34.137  23.372  24.290  1.00  0.00    -0.460 OA
BRANCH   3   4
ATOM      4  C   UNL A   1      32.936  22.899  23.878  1.00  0.00     0.338 C 
ATOM      5  O   UNL A   1      32.096  23.503  23.227  1.00  0.00    -0.246 OA
BRANCH   4   6
ATOM      6  C   UNL A   1      32.813  21.461  24.200  1.00  0.00     0.060 A 
ATOM      7  C   UNL A   1      32.470  18.710  24.698  1.00  0.00     0.034 A 
ATOM      8  C   UNL A   1      32.231  19.243  23.427  1.00  0.00     0.026 A 
ATOM      9  C   UNL A   1      32.906  19.575  25.708  1.00  0.00     0.026 A 
ATOM     10  C   UNL A   1      32.387  20.607  23.179  1.00  0.00     0.018 A 
ATOM     11  C   UNL A   1      33.099  20.940  25.463  1.00  0.00     0.018 A 
BRANCH   7  12
ATOM     12  N   UNL A   1      32.212  17.370  24.919  1.00  0.00    -0.380 N 
ATOM     13  H   UNL A   1      31.319  17.018  24.697  1.00  0.00     0.160 HD
BRANCH  12  14
ATOM     14  C   UNL A   1      33.213  16.452  25.473  1.00  0.00     0.107 C 
BRANCH  14  15
ATOM     15  C   UNL A   1      34.580  16.657  24.766  1.00  0.00     0.007 C 
ATOM     16  C   UNL A   1      35.712  15.821  25.369  1.00  0.00     0.009 C 
ATOM     17  C   UNL A   1      34.472  16.381  23.263  1.00  0.00     0.009 C 
ENDBRANCH  14  15
BRANCH  14  18
ATOM     18  C   UNL A   1      32.672  15.003  25.351  1.00  0.00     0.181 C 
BRANCH  18  19
ATOM     19  O   UNL A   1      31.303  14.882  25.723  1.00  0.00    -0.394 OA
ATOM     20  H   UNL A   1      31.228  14.290  26.488  1.00  0.00     0.210 HD
ENDBRANCH  18  19
ENDBRANCH  14  18
ENDBRANCH  12  14
ENDBRANCH   7  12
ENDBRANCH   4   6
ENDBRANCH   3   4
ENDBRANCH   2   3
ENDBRANCH   1   2
BRANCH   1  21
ATOM     21  O   UNL A   1      37.415  21.840  24.053  1.00  0.00    -0.374 OA
BRANCH  21  22
ATOM     22  C   UNL A   1      37.262  20.707  24.914  1.00  0.00     0.202 C 
BRANCH  22  23
ATOM     23  C   UNL A   1      38.538  19.897  25.169  1.00  0.00     0.261 C 
BRANCH  23  24
ATOM     24  O   UNL A   1      39.095  20.184  26.466  1.00  0.00    -0.460 OA
BRANCH  24  25
ATOM     25  C   UNL A   1      40.427  20.414  26.480  1.00  0.00     0.338 C 
ATOM     26  O   UNL A   1      41.313  19.688  26.051  1.00  0.00    -0.246 OA
BRANCH  25  27
ATOM     27  C   UNL A   1      40.693  21.788  26.946  1.00  0.00     0.060 A 
ATOM     28  C   UNL A   1      40.142  22.840  26.202  1.00  0.00     0.016 A 
ATOM     29  C   UNL A   1      41.512  22.051  28.046  1.00  0.00     0.016 A 
ATOM     30  C   UNL A   1      40.452  24.160  26.523  1.00  0.00     0.010 A 
ATOM     31  C   UNL A   1      41.829  23.376  28.362  1.00  0.00     0.010 A 
ATOM     32  C   UNL A   1      41.328  24.434  27.580  1.00  0.00    -0.014 A 
BRANCH  32  33
ATOM     33  C   UNL A   1      41.831  25.815  27.774  1.00  0.00     0.031 A 
ATOM     34  C   UNL A   1      43.180  26.185  27.222  1.00  0.00     0.074 A 
ATOM     35  C   UNL A   1      41.088  26.735  28.414  1.00  0.00     0.049 A 
ATOM     36  N   UNL A   1      43.831  27.318  27.305  1.00  0.00    -0.248 NA
ATOM     37  C   UNL A   1      43.893  25.133  26.479  1.00  0.00     0.031 C 
ATOM     38  C   UNL A   1      39.754  26.507  28.965  1.00  0.00     0.029 A 
ATOM     39  N   UNL A   1      41.358  28.047  28.715  1.00  0.00    -0.354 N 
ATOM     40  C   UNL A   1      45.030  27.113  26.634  1.00  0.00     0.074 A 
ATOM     41  C   UNL A   1      45.029  25.741  26.173  1.00  0.00     0.031 C 
ATOM     42  C   UNL A   1      39.326  27.638  29.553  1.00  0.00     0.029 A 
ATOM     43  C   UNL A   1      40.369  28.658  29.444  1.00  0.00     0.049 A 
ATOM     44  H   UNL A   1      42.183  28.505  28.435  1.00  0.00     0.167 HD
ATOM     45  C   UNL A   1      46.036  27.993  26.417  1.00  0.00     0.037 A 
ATOM     46  C   UNL A   1      40.321  29.893  29.981  1.00  0.00     0.037 A 
ATOM     47  C   UNL A   1      46.030  29.360  26.869  1.00  0.00     0.049 A 
ATOM     48  C   UNL A   1      41.477  30.836  29.769  1.00  0.00     0.074 A 
ATOM     49  C   UNL A   1      46.988  30.338  26.669  1.00  0.00     0.029 A 
ATOM     50  N   UNL A   1      45.018  29.937  27.619  1.00  0.00    -0.354 N 
ATOM     51  N   UNL A   1      42.591  30.646  29.104  1.00  0.00    -0.248 NA
ATOM     52  C   UNL A   1      41.367  32.168  30.382  1.00  0.00     0.031 C 
ATOM     53  C   UNL A   1      46.577  31.495  27.340  1.00  0.00     0.029 A 
ATOM     54  C   UNL A   1      45.340  31.253  27.914  1.00  0.00     0.049 A 
ATOM     55  H   UNL A   1      44.191  29.482  27.901  1.00  0.00     0.167 HD
ATOM     56  C   UNL A   1      43.298  31.839  29.193  1.00  0.00     0.074 A 
ATOM     57  C   UNL A   1      42.482  32.751  29.966  1.00  0.00     0.031 C 
ATOM     58  C   UNL A   1      44.513  32.151  28.678  1.00  0.00     0.037 A 
BRANCH  45  59
ATOM     59  C   UNL A   1      47.244  27.499  25.677  1.00  0.00     0.064 A 
ATOM     60  C   UNL A   1      47.384  27.677  24.293  1.00  0.00     0.173 A 
ATOM     61  C   UNL A   1      48.295  26.880  26.370  1.00  0.00     0.173 A 
ATOM     62  F   UNL A   1      46.402  28.251  23.582  1.00  0.00    -0.203 F 
ATOM     63  C   UNL A   1      48.524  27.233  23.626  1.00  0.00     0.198 A 
ATOM     64  C   UNL A   1      49.444  26.462  25.705  1.00  0.00     0.198 A 
ATOM     65  F   UNL A   1      48.211  26.689  27.696  1.00  0.00    -0.203 F 
ATOM     66  F   UNL A   1      48.621  27.376  22.298  1.00  0.00    -0.200 F 
ATOM     67  C   UNL A   1      49.556  26.633  24.334  1.00  0.00     0.200 A 
ATOM     68  F   UNL A   1      50.444  25.893  26.393  1.00  0.00    -0.200 F 
ATOM     69  F   UNL A   1      50.656  26.215  23.693  1.00  0.00    -0.200 F 
ENDBRANCH  45  59
BRANCH  46  70
ATOM     70  C   UNL A   1      39.143  30.307  30.787  1.00  0.00     0.064 A 
ATOM     71  C   UNL A   1      39.072  30.038  32.160  1.00  0.00     0.173 A 
ATOM     72  C   UNL A   1      38.053  30.962  30.192  1.00  0.00     0.173 A 
ATOM     73  F   UNL A   1      40.077  29.390  32.767  1.00  0.00    -0.203 F 
ATOM     74  C   UNL A   1      37.948  30.390  32.905  1.00  0.00     0.198 A 
ATOM     75  C   UNL A   1      36.943  31.340  30.944  1.00  0.00     0.198 A 
ATOM     76  F   UNL A   1      38.071  31.240  28.880  1.00  0.00    -0.203 F 
ATOM     77  F   UNL A   1      37.885  30.078  34.206  1.00  0.00    -0.200 F 
ATOM     78  C   UNL A   1      36.888  31.046  32.297  1.00  0.00     0.200 A 
ATOM     79  F   UNL A   1      35.926  31.983  30.354  1.00  0.00    -0.200 F 
ATOM     80  F   UNL A   1      35.808  31.386  33.015  1.00  0.00    -0.200 F 
ENDBRANCH  46  70
BRANCH  58  81
ATOM     81  C   UNL A   1      45.021  33.546  28.902  1.00  0.00     0.064 A 
ATOM     82  C   UNL A   1      45.847  33.865  29.990  1.00  0.00     0.173 A 
ATOM     83  C   UNL A   1      44.715  34.567  27.988  1.00  0.00     0.173 A 
ATOM     84  F   UNL A   1      46.156  32.928  30.898  1.00  0.00    -0.203 F 
ATOM     85  C   UNL A   1      46.327  35.159  30.167  1.00  0.00     0.198 A 
ATOM     86  C   UNL A   1      45.222  35.852  28.153  1.00  0.00     0.198 A 
ATOM     87  F   UNL A   1      43.936  34.312  26.926  1.00  0.00    -0.203 F 
ATOM     88  F   UNL A   1      47.078  35.452  31.238  1.00  0.00    -0.200 F 
ATOM     89  C   UNL A   1      46.022  36.150  29.245  1.00  0.00     0.200 A 
ATOM     90  F   UNL A   1      44.936  36.805  27.254  1.00  0.00    -0.200 F 
ATOM     91  F   UNL A   1      46.493  37.392  29.414  1.00  0.00    -0.200 F 
ENDBRANCH  58  81
ENDBRANCH  32  33
ENDBRANCH  25  27
ENDBRANCH  24  25
ENDBRANCH  23  24
ENDBRANCH  22  23
ENDBRANCH  21  22
ENDBRANCH   1  21
TORSDOF 19
ENDMDL
MODEL 2
REMARK VINA RESULT:     -10.5      0.392      7.484
REMARK SMILES CC(C)[C@H](CO)Nc1ccc(C(=O)OCCOCCOC(=O)c2ccc(-c3c4nc(c(-c5c(F)c(F)c(F)c(F)c5F)c5ccc([nH]5)c(-c5c(F)c(F)c(F)c(F)c5F)c5nc(c(-c6c(F)c(F)c(F)c(F)c6F)c6ccc3[nH]6)C=C5)C=C4)cc2)cc1
REMARK SMILES IDX 16 1 15 2 14 3 12 4 13 5 11 6 8 7 9 8 87 9 10 10 86 11 7 12
REMARK SMILES IDX 4 14 2 15 1 16 3 17 5 18 6 19 17 21 18 22 19 23 20 24 21 25
REMARK SMILES IDX 22 26 23 27 24 28 85 29 25 30 84 31 26 32 27 33 28 34 78 35
REMARK SMILES IDX 29 36 83 37 77 38 79 39 30 40 82 41 76 42 75 43 31 45 63 46
REMARK SMILES IDX 43 47 62 48 44 49 47 50 61 51 80 52 45 53 46 54 60 56 81 57
REMARK SMILES IDX 48 58 32 59 33 60 41 61 34 62 35 63 39 64 42 65 36 66 37 67
REMARK SMILES IDX 40 68 38 69 64 70 65 71 73 72 66 73 67 74 71 75 74 76 68 77
REMARK SMILES IDX 69 78 72 79 70 80 49 81 50 82 58 83 51 84 52 85 56 86 59 87
REMARK SMILES IDX 53 88 54 89 57 90 55 91
REMARK H PARENT 7 13 6 20 79 44 47 55
REMARK Flexibility Score: inf
ROOT
ATOM      1  C   UNL A   1      36.514  22.938  24.263  1.00  0.00     0.202 C 
ENDROOT
BRANCH   1   2
ATOM      2  C   UNL A   1      35.207  22.983  23.466  1.00  0.00     0.261 C 
BRANCH   2   3
ATOM      3  O   UNL A   1      34.102  23.374  24.298  1.00  0.00    -0.460 OA
BRANCH   3   4
ATOM      4  C   UNL A   1      32.896  22.903  23.901  1.00  0.00     0.338 C 
ATOM      5  O   UNL A   1      32.044  23.513  23.270  1.00  0.00    -0.246 OA
BRANCH   4   6
ATOM      6  C   UNL A   1      32.781  21.462  24.208  1.00  0.00     0.060 A 
ATOM      7  C   UNL A   1      32.453  18.703  24.677  1.00  0.00     0.034 A 
ATOM      8  C   UNL A   1      32.221  19.247  23.409  1.00  0.00     0.026 A 
ATOM      9  C   UNL A   1      32.875  19.562  25.698  1.00  0.00     0.026 A 
ATOM     10  C   UNL A   1      32.369  20.615  23.175  1.00  0.00     0.018 A 
ATOM     11  C   UNL A   1      33.060  20.930  25.468  1.00  0.00     0.018 A 
BRANCH   7  12
ATOM     12  N   UNL A   1      32.204  17.360  24.883  1.00  0.00    -0.380 N 
ATOM     13  H   UNL A   1      31.321  16.999  24.634  1.00  0.00     0.160 HD
BRANCH  12  14
ATOM     14  C   UNL A   1      33.199  16.449  25.459  1.00  0.00     0.107 C 
BRANCH  14  15
ATOM     15  C   UNL A   1      34.572  16.642  24.762  1.00  0.00     0.007 C 
ATOM     16  C   UNL A   1      35.689  15.785  25.363  1.00  0.00     0.009 C 
ATOM     17  C   UNL A   1      34.468  16.381  23.255  1.00  0.00     0.009 C 
ENDBRANCH  14  15
BRANCH  14  18
ATOM     18  C   UNL A   1      32.657  14.998  25.354  1.00  0.00     0.181 C 
BRANCH  18  19
ATOM     19  O   UNL A   1      31.288  14.883  25.725  1.00  0.00    -0.394 OA
ATOM     20  H   UNL A   1      31.211  14.301  26.497  1.00  0.00     0.210 HD
ENDBRANCH  18  19
ENDBRANCH  14  18
ENDBRANCH  12  14
ENDBRANCH   7  12
ENDBRANCH   4   6
ENDBRANCH   3   4
ENDBRANCH   2   3
ENDBRANCH   1   2
BRANCH   1  21
ATOM     21  O   UNL A   1      37.357  21.816  24.006  1.00  0.00    -0.374 OA
BRANCH  21  22
ATOM     22  C   UNL A   1      37.169  20.669  24.840  1.00  0.00     0.202 C 
BRANCH  22  23
ATOM     23  C   UNL A   1      38.418  19.808  25.066  1.00  0.00     0.261 C 
BRANCH  23  24
ATOM     24  O   UNL A   1      39.007  20.061  26.356  1.00  0.00    -0.460 OA
BRANCH  24  25
ATOM     25  C   UNL A   1      40.352  20.192  26.356  1.00  0.00     0.338 C 
ATOM     26  O   UNL A   1      41.178  19.404  25.915  1.00  0.00    -0.246 OA
BRANCH  25  27
ATOM     27  C   UNL A   1      40.724  21.542  26.821  1.00  0.00     0.060 A 
ATOM     28  C   UNL A   1      40.219  22.634  26.102  1.00  0.00     0.016 A 
ATOM     29  C   UNL A   1      41.594  21.741  27.895  1.00  0.00     0.016 A 
ATOM     30  C   UNL A   1      40.626  23.928  26.421  1.00  0.00     0.010 A 
ATOM     31  C   UNL A   1      42.008  23.040  28.208  1.00  0.00     0.010 A 
ATOM     32  C   UNL A   1      41.553  24.135  27.451  1.00  0.00    -0.014 A 
BRANCH  32  33
ATOM     33  C   UNL A   1      42.152  25.478  27.636  1.00  0.00     0.031 A 
ATOM     34  C   UNL A   1      41.374  26.528  28.379  1.00  0.00     0.074 A 
ATOM     35  C   UNL A   1      43.383  25.754  27.169  1.00  0.00     0.049 A 
ATOM     36  N   UNL A   1      41.685  27.776  28.627  1.00  0.00    -0.248 NA
ATOM     37  C   UNL A   1      40.065  26.117  28.913  1.00  0.00     0.031 C 
ATOM     38  C   UNL A   1      44.247  24.812  26.462  1.00  0.00     0.029 A 
ATOM     39  N   UNL A   1      44.114  26.915  27.213  1.00  0.00    -0.354 N 
ATOM     40  C   UNL A   1      40.611  28.298  29.335  1.00  0.00     0.074 A 
ATOM     41  C   UNL A   1      39.628  27.243  29.456  1.00  0.00     0.031 C 
ATOM     42  C   UNL A   1      45.388  25.437  26.123  1.00  0.00     0.029 A 
ATOM     43  C   UNL A   1      45.320  26.830  26.564  1.00  0.00     0.049 A 
ATOM     44  H   UNL A   1      43.802  27.731  27.667  1.00  0.00     0.167 HD
ATOM     45  C   UNL A   1      40.463  29.544  29.845  1.00  0.00     0.037 A 
ATOM     46  C   UNL A   1      46.252  27.775  26.333  1.00  0.00     0.037 A 
ATOM     47  C   UNL A   1      41.446  30.590  29.732  1.00  0.00     0.049 A 
ATOM     48  C   UNL A   1      46.038  29.169  26.866  1.00  0.00     0.074 A 
ATOM     49  C   UNL A   1      41.402  31.874  30.244  1.00  0.00     0.029 A 
ATOM     50  N   UNL A   1      42.648  30.470  29.052  1.00  0.00    -0.354 N 
ATOM     51  N   UNL A   1      45.037  29.645  27.565  1.00  0.00    -0.248 NA
ATOM     52  C   UNL A   1      47.090  30.156  26.580  1.00  0.00     0.031 C 
ATOM     53  C   UNL A   1      42.556  32.548  29.832  1.00  0.00     0.029 A 
ATOM     54  C   UNL A   1      43.343  31.668  29.108  1.00  0.00     0.049 A 
ATOM     55  H   UNL A   1      42.963  29.655  28.597  1.00  0.00     0.167 HD
ATOM     56  C   UNL A   1      45.349  30.973  27.826  1.00  0.00     0.074 A 
ATOM     57  C   UNL A   1      46.639  31.225  27.221  1.00  0.00     0.031 C 
ATOM     58  C   UNL A   1      44.631  31.900  28.508  1.00  0.00     0.037 A 
BRANCH  45  59
ATOM     59  C   UNL A   1      39.178  29.857  30.552  1.00  0.00     0.064 A 
ATOM     60  C   UNL A   1      39.038  29.687  31.938  1.00  0.00     0.173 A 
ATOM     61  C   UNL A   1      38.086  30.377  29.841  1.00  0.00     0.173 A 
ATOM     62  F   UNL A   1      40.048  29.181  32.661  1.00  0.00    -0.203 F 
ATOM     63  C   UNL A   1      37.844  30.006  32.581  1.00  0.00     0.198 A 
ATOM     64  C   UNL A   1      36.904  30.719  30.491  1.00  0.00     0.198 A 
ATOM     65  F   UNL A   1      38.170  30.562  28.514  1.00  0.00    -0.203 F 
ATOM     66  F   UNL A   1      37.718  29.798  33.899  1.00  0.00    -0.200 F 
ATOM     67  C   UNL A   1      36.781  30.529  31.859  1.00  0.00     0.200 A 
ATOM     68  F   UNL A   1      35.882  31.236  29.793  1.00  0.00    -0.200 F 
ATOM     69  F   UNL A   1      35.637  30.845  32.481  1.00  0.00    -0.200 F 
ENDBRANCH  45  59
BRANCH  46  70
ATOM     70  C   UNL A   1      47.467  27.442  25.546  1.00  0.00     0.064 A 
ATOM     71  C   UNL A   1      48.635  26.986  26.171  1.00  0.00     0.173 A 
ATOM     72  C   UNL A   1      47.491  27.596  24.151  1.00  0.00     0.173 A 
ATOM     73  F   UNL A   1      48.669  26.849  27.506  1.00  0.00    -0.203 F 
ATOM     74  C   UNL A   1      49.786  26.714  25.435  1.00  0.00     0.198 A 
ATOM     75  C   UNL A   1      48.633  27.296  23.413  1.00  0.00     0.198 A 
ATOM     76  F   UNL A   1      46.400  28.033  23.505  1.00  0.00    -0.203 F 
ATOM     77  F   UNL A   1      50.904  26.325  26.064  1.00  0.00    -0.200 F 
ATOM     78  C   UNL A   1      49.783  26.864  24.057  1.00  0.00     0.200 A 
ATOM     79  F   UNL A   1      48.621  27.432  22.080  1.00  0.00    -0.200 F 
ATOM     80  F   UNL A   1      50.890  26.600  23.349  1.00  0.00    -0.200 F 
ENDBRANCH  46  70
BRANCH  58  81
ATOM     81  C   UNL A   1      45.239  33.264  28.668  1.00  0.00     0.064 A 
ATOM     82  C   UNL A   1      44.969  34.303  27.766  1.00  0.00     0.173 A 
ATOM     83  C   UNL A   1      46.067  33.545  29.767  1.00  0.00     0.173 A 
ATOM     84  F   UNL A   1      44.196  34.080  26.693  1.00  0.00    -0.203 F 
ATOM     85  C   UNL A   1      45.523  35.567  27.945  1.00  0.00     0.198 A 
ATOM     86  C   UNL A   1      46.595  34.819  29.958  1.00  0.00     0.198 A 
ATOM     87  F   UNL A   1      46.351  32.589  30.663  1.00  0.00    -0.203 F 
ATOM     88  F   UNL A   1      45.287  36.534  27.047  1.00  0.00    -0.200 F 
ATOM     89  C   UNL A   1      46.329  35.827  29.045  1.00  0.00     0.200 A 
ATOM     90  F   UNL A   1      47.363  35.071  31.028  1.00  0.00    -0.200 F 
ATOM     91  F   UNL A   1      46.854  37.047  29.219  1.00  0.00    -0.200 F 
ENDBRANCH  58  81
ENDBRANCH  32  33
ENDBRANCH  25  27
ENDBRANCH  24  25
ENDBRANCH  23  24
ENDBRANCH  22  23
ENDBRANCH  21  22
ENDBRANCH   1  21
TORSDOF 19
ENDMDL
MODEL 3
REMARK VINA RESULT:     -10.4      4.055      9.021
REMARK SMILES CC(C)[C@H](CO)Nc1ccc(C(=O)OCCOCCOC(=O)c2ccc(-c3c4nc(c(-c5c(F)c(F)c(F)c(F)c5F)c5ccc([nH]5)c(-c5c(F)c(F)c(F)c(F)c5F)c5nc(c(-c6c(F)c(F)c(F)c(F)c6F)c6ccc3[nH]6)C=C5)C=C4)cc2)cc1
REMARK SMILES IDX 16 1 15 2 14 3 12 4 13 5 11 6 8 7 9 8 87 9 10 10 86 11 7 12
REMARK SMILES IDX 4 14 2 15 1 16 3 17 5 18 6 19 17 21 18 22 19 23 20 24 21 25
REMARK SMILES IDX 22 26 23 27 24 28 85 29 25 30 84 31 26 32 27 33 28 34 78 35
REMARK SMILES IDX 29 36 83 37 77 38 79 39 30 40 82 41 76 42 75 43 31 45 63 46
REMARK SMILES IDX 43 47 62 48 44 49 47 50 61 51 80 52 45 53 46 54 60 56 81 57
REMARK SMILES IDX 48 58 32 59 33 60 41 61 34 62 35 63 39 64 42 65 36 66 37 67
REMARK SMILES IDX 40 68 38 69 64 70 65 71 73 72 66 73 67 74 71 75 74 76 68 77
REMARK SMILES IDX 69 78 72 79 70 80 49 81 50 82 58 83 51 84 52 85 56 86 59 87
REMARK SMILES IDX 53 88 54 89 57 90 55 91
REMARK H PARENT 7 13 6 20 79 44 47 55
REMARK Flexibility Score: inf
ROOT
ATOM      1  C   UNL A   1      34.862  32.964  27.963  1.00  0.00     0.202 C 
ENDROOT
BRANCH   1   2
ATOM      2  C   UNL A   1      33.667  32.044  28.225  1.00  0.00     0.261 C 
BRANCH   2   3
ATOM      3  O   UNL A   1      33.493  31.098  27.156  1.00  0.00    -0.460 OA
BRANCH   3   4
ATOM      4  C   UNL A   1      32.222  30.978  26.702  1.00  0.00     0.338 C 
ATOM      5  O   UNL A   1      31.472  31.887  26.379  1.00  0.00    -0.246 OA
BRANCH   4   6
ATOM      6  C   UNL A   1      31.883  29.553  26.500  1.00  0.00     0.060 A 
ATOM      7  C   UNL A   1      31.142  26.883  25.995  1.00  0.00     0.034 A 
ATOM      8  C   UNL A   1      31.142  27.833  24.968  1.00  0.00     0.026 A 
ATOM      9  C   UNL A   1      31.543  27.288  27.272  1.00  0.00     0.026 A 
ATOM     10  C   UNL A   1      31.495  29.160  25.216  1.00  0.00     0.018 A 
ATOM     11  C   UNL A   1      31.933  28.609  27.528  1.00  0.00     0.018 A 
BRANCH   7  12
ATOM     12  N   UNL A   1      30.695  25.604  25.721  1.00  0.00    -0.380 N 
ATOM     13  H   UNL A   1      29.794  25.490  25.339  1.00  0.00     0.160 HD
BRANCH  12  14
ATOM     14  C   UNL A   1      31.508  24.409  25.976  1.00  0.00     0.107 C 
BRANCH  14  15
ATOM     15  C   UNL A   1      32.304  24.018  24.702  1.00  0.00     0.007 C 
ATOM     16  C   UNL A   1      33.662  24.714  24.591  1.00  0.00     0.009 C 
ATOM     17  C   UNL A   1      32.487  22.499  24.610  1.00  0.00     0.009 C 
ENDBRANCH  14  15
BRANCH  14  18
ATOM     18  C   UNL A   1      30.574  23.280  26.487  1.00  0.00     0.181 C 
BRANCH  18  19
ATOM     19  O   UNL A   1      29.452  23.766  27.214  1.00  0.00    -0.394 OA
ATOM     20  H   UNL A   1      28.638  23.557  26.729  1.00  0.00     0.210 HD
ENDBRANCH  18  19
ENDBRANCH  14  18
ENDBRANCH  12  14
ENDBRANCH   7  12
ENDBRANCH   4   6
ENDBRANCH   3   4
ENDBRANCH   2   3
ENDBRANCH   1   2
BRANCH   1  21
ATOM     21  O   UNL A   1      34.906  34.159  28.741  1.00  0.00    -0.374 OA
BRANCH  21  22
ATOM     22  C   UNL A   1      34.007  34.235  29.852  1.00  0.00     0.202 C 
BRANCH  22  23
ATOM     23  C   UNL A   1      34.649  34.050  31.232  1.00  0.00     0.261 C 
BRANCH  23  24
ATOM     24  O   UNL A   1      34.589  32.676  31.663  1.00  0.00    -0.460 OA
BRANCH  24  25
ATOM     25  C   UNL A   1      35.538  32.314  32.554  1.00  0.00     0.338 C 
ATOM     26  O   UNL A   1      35.512  32.453  33.769  1.00  0.00    -0.246 OA
BRANCH  25  27
ATOM     27  C   UNL A   1      36.594  31.539  31.873  1.00  0.00     0.060 A 
ATOM     28  C   UNL A   1      37.666  31.085  32.653  1.00  0.00     0.016 A 
ATOM     29  C   UNL A   1      36.573  31.313  30.496  1.00  0.00     0.016 A 
ATOM     30  C   UNL A   1      38.749  30.449  32.050  1.00  0.00     0.010 A 
ATOM     31  C   UNL A   1      37.665  30.682  29.890  1.00  0.00     0.010 A 
ATOM     32  C   UNL A   1      38.772  30.279  30.659  1.00  0.00    -0.014 A 
BRANCH  32  33
ATOM     33  C   UNL A   1      40.016  29.812  30.001  1.00  0.00     0.031 A 
ATOM     34  C   UNL A   1      41.162  30.772  29.841  1.00  0.00     0.074 A 
ATOM     35  C   UNL A   1      40.131  28.543  29.570  1.00  0.00     0.049 A 
ATOM     36  N   UNL A   1      42.324  30.591  29.267  1.00  0.00    -0.248 NA
ATOM     37  C   UNL A   1      40.970  32.118  30.403  1.00  0.00     0.031 C 
ATOM     38  C   UNL A   1      39.104  27.513  29.695  1.00  0.00     0.029 A 
ATOM     39  N   UNL A   1      41.167  27.911  28.929  1.00  0.00    -0.354 N 
ATOM     40  C   UNL A   1      42.997  31.800  29.390  1.00  0.00     0.074 A 
ATOM     41  C   UNL A   1      42.105  32.715  30.069  1.00  0.00     0.031 C 
ATOM     42  C   UNL A   1      39.554  26.377  29.134  1.00  0.00     0.029 A 
ATOM     43  C   UNL A   1      40.889  26.612  28.584  1.00  0.00     0.049 A 
ATOM     44  H   UNL A   1      42.028  28.348  28.734  1.00  0.00     0.167 HD
ATOM     45  C   UNL A   1      44.248  32.115  28.979  1.00  0.00     0.037 A 
ATOM     46  C   UNL A   1      41.620  25.722  27.886  1.00  0.00     0.037 A 
ATOM     47  C   UNL A   1      45.138  31.200  28.312  1.00  0.00     0.049 A 
ATOM     48  C   UNL A   1      42.990  26.114  27.394  1.00  0.00     0.074 A 
ATOM     49  C   UNL A   1      46.437  31.416  27.888  1.00  0.00     0.029 A 
ATOM     50  N   UNL A   1      44.814  29.898  27.966  1.00  0.00    -0.354 N 
ATOM     51  N   UNL A   1      43.632  27.247  27.546  1.00  0.00    -0.248 NA
ATOM     52  C   UNL A   1      43.738  25.100  26.636  1.00  0.00     0.031 C 
ATOM     53  C   UNL A   1      46.882  30.258  27.240  1.00  0.00     0.029 A 
ATOM     54  C   UNL A   1      45.879  29.305  27.307  1.00  0.00     0.049 A 
ATOM     55  H   UNL A   1      43.953  29.458  28.159  1.00  0.00     0.167 HD
ATOM     56  C   UNL A   1      44.866  27.073  26.930  1.00  0.00     0.074 A 
ATOM     57  C   UNL A   1      44.888  25.722  26.413  1.00  0.00     0.031 C 
ATOM     58  C   UNL A   1      45.889  27.955  26.807  1.00  0.00     0.037 A 
BRANCH  45  59
ATOM     59  C   UNL A   1      44.726  33.516  29.217  1.00  0.00     0.064 A 
ATOM     60  C   UNL A   1      44.565  34.524  28.255  1.00  0.00     0.173 A 
ATOM     61  C   UNL A   1      45.313  33.866  30.443  1.00  0.00     0.173 A 
ATOM     62  F   UNL A   1      44.021  34.239  27.062  1.00  0.00    -0.203 F 
ATOM     63  C   UNL A   1      44.994  35.826  28.503  1.00  0.00     0.198 A 
ATOM     64  C   UNL A   1      45.716  35.174  30.697  1.00  0.00     0.198 A 
ATOM     65  F   UNL A   1      45.487  32.939  31.398  1.00  0.00    -0.203 F 
ATOM     66  F   UNL A   1      44.866  36.765  27.555  1.00  0.00    -0.200 F 
ATOM     67  C   UNL A   1      45.561  36.152  29.727  1.00  0.00     0.200 A 
ATOM     68  F   UNL A   1      46.254  35.488  31.884  1.00  0.00    -0.200 F 
ATOM     69  F   UNL A   1      45.964  37.407  29.968  1.00  0.00    -0.200 F 
ENDBRANCH  45  59
BRANCH  46  70
ATOM     70  C   UNL A   1      41.068  24.374  27.593  1.00  0.00     0.064 A 
ATOM     71  C   UNL A   1      41.596  23.226  28.197  1.00  0.00     0.173 A 
ATOM     72  C   UNL A   1      40.011  24.206  26.685  1.00  0.00     0.173 A 
ATOM     73  F   UNL A   1      42.625  23.333  29.052  1.00  0.00    -0.203 F 
ATOM     74  C   UNL A   1      41.103  21.959  27.890  1.00  0.00     0.198 A 
ATOM     75  C   UNL A   1      39.500  22.942  26.401  1.00  0.00     0.198 A 
ATOM     76  F   UNL A   1      39.472  25.273  26.077  1.00  0.00    -0.203 F 
ATOM     77  F   UNL A   1      41.659  20.874  28.445  1.00  0.00    -0.200 F 
ATOM     78  C   UNL A   1      40.052  21.819  26.996  1.00  0.00     0.200 A 
ATOM     79  F   UNL A   1      38.477  22.813  25.545  1.00  0.00    -0.200 F 
ATOM     80  F   UNL A   1      39.577  20.601  26.703  1.00  0.00    -0.200 F 
ENDBRANCH  46  70
BRANCH  58  81
ATOM     81  C   UNL A   1      47.134  27.476  26.116  1.00  0.00     0.064 A 
ATOM     82  C   UNL A   1      47.281  27.555  24.724  1.00  0.00     0.173 A 
ATOM     83  C   UNL A   1      48.210  26.975  26.865  1.00  0.00     0.173 A 
ATOM     84  F   UNL A   1      46.276  28.012  23.964  1.00  0.00    -0.203 F 
ATOM     85  C   UNL A   1      48.452  27.128  24.105  1.00  0.00     0.198 A 
ATOM     86  C   UNL A   1      49.391  26.577  26.244  1.00  0.00     0.198 A 
ATOM     87  F   UNL A   1      48.123  26.886  28.200  1.00  0.00    -0.203 F 
ATOM     88  F   UNL A   1      48.556  27.170  22.769  1.00  0.00    -0.200 F 
ATOM     89  C   UNL A   1      49.509  26.647  24.865  1.00  0.00     0.200 A 
ATOM     90  F   UNL A   1      50.415  26.125  26.982  1.00  0.00    -0.200 F 
ATOM     91  F   UNL A   1      50.638  26.245  24.266  1.00  0.00    -0.200 F 
ENDBRANCH  58  81
ENDBRANCH  32  33
ENDBRANCH  25  27
ENDBRANCH  24  25
ENDBRANCH  23  24
ENDBRANCH  22  23
ENDBRANCH  21  22
ENDBRANCH   1  21
TORSDOF 19
ENDMDL
