MODEL 1
REMARK VINA RESULT:     -12.0      0.000      0.000
REMARK SMILES O=C(OCCOCCOC(=O)C1(Cc2ccncc2)Cc2ccccc2C1)c1ccc(-c2c3nc(c(-c4c(F)c(F)c(F)c(F)c4F)c4ccc([nH]4)c(-c4c(F)c(F)c(F)c(F)c4F)c4nc(c(-c5c(F)c(F)c(F)c(F)c5F)c5ccc2[nH]5)C=C4)C=C3)cc1
REMARK SMILES IDX 6 1 5 2 4 3 3 4 2 5 1 6 28 7 29 8 90 9 30 10 89 11 31 12
REMARK SMILES IDX 32 13 33 14 83 15 34 16 88 17 82 18 84 19 35 20 87 21 81 22
REMARK SMILES IDX 80 23 36 25 68 26 48 27 67 28 49 29 52 30 66 31 85 32 50 33
REMARK SMILES IDX 51 34 65 36 86 37 53 38 37 39 38 40 46 41 39 42 40 43 44 44
REMARK SMILES IDX 47 45 41 46 42 47 45 48 43 49 69 50 70 51 78 52 71 53 72 54
REMARK SMILES IDX 76 55 79 56 73 57 74 58 77 59 75 60 54 61 55 62 63 63 56 64
REMARK SMILES IDX 57 65 61 66 64 67 58 68 59 69 62 70 60 71 7 72 8 73 9 74
REMARK SMILES IDX 10 75 11 76 12 77 20 78 27 79 21 80 26 81 22 82 25 83 23 84
REMARK SMILES IDX 24 85 13 86 14 87 15 88 19 89 16 90 18 91 17 92
REMARK H PARENT 84 24 52 35
REMARK Flexibility Score: inf
ROOT
ATOM      1  O   UNL A   1      30.414  27.959  24.211  1.00  0.00    -0.374 OA
ENDROOT
BRANCH   1   2
ATOM      2  C   UNL A   1      31.690  28.548  24.405  1.00  0.00     0.202 C 
BRANCH   2   3
ATOM      3  C   UNL A   1      31.776  29.747  25.358  1.00  0.00     0.261 C 
BRANCH   3   4
ATOM      4  O   UNL A   1      33.117  30.047  25.808  1.00  0.00    -0.460 OA
BRANCH   4   5
ATOM      5  C   UNL A   1      33.355  30.907  26.845  1.00  0.00     0.338 C 
ATOM      6  O   UNL A   1      32.546  31.753  27.193  1.00  0.00    -0.246 OA
BRANCH   5   7
ATOM      7  C   UNL A   1      34.669  30.792  27.519  1.00  0.00     0.060 A 
ATOM      8  C   UNL A   1      35.086  29.538  27.920  1.00  0.00     0.016 A 
ATOM      9  C   UNL A   1      35.480  31.887  27.793  1.00  0.00     0.016 A 
ATOM     10  C   UNL A   1      36.083  29.390  28.857  1.00  0.00     0.010 A 
ATOM     11  C   UNL A   1      36.669  31.691  28.516  1.00  0.00     0.010 A 
ATOM     12  C   UNL A   1      36.969  30.437  29.085  1.00  0.00    -0.014 A 
BRANCH  12  13
ATOM     13  C   UNL A   1      38.201  30.159  29.876  1.00  0.00     0.031 A 
ATOM     14  C   UNL A   1      39.320  29.362  29.274  1.00  0.00     0.074 A 
ATOM     15  C   UNL A   1      38.336  30.668  31.123  1.00  0.00     0.049 A 
ATOM     16  N   UNL A   1      40.342  28.800  29.865  1.00  0.00    -0.248 NA
ATOM     17  C   UNL A   1      39.275  29.144  27.819  1.00  0.00     0.031 C 
ATOM     18  C   UNL A   1      37.354  31.512  31.815  1.00  0.00     0.029 A 
ATOM     19  N   UNL A   1      39.366  30.585  32.027  1.00  0.00    -0.354 N 
ATOM     20  C   UNL A   1      41.009  28.091  28.874  1.00  0.00     0.074 A 
ATOM     21  C   UNL A   1      40.286  28.307  27.639  1.00  0.00     0.031 C 
ATOM     22  C   UNL A   1      37.868  31.956  32.967  1.00  0.00     0.029 A 
ATOM     23  C   UNL A   1      39.136  31.285  33.190  1.00  0.00     0.049 A 
ATOM     24  H   UNL A   1      40.192  30.074  31.861  1.00  0.00     0.167 HD
ATOM     25  C   UNL A   1      42.115  27.322  29.003  1.00  0.00     0.037 A 
ATOM     26  C   UNL A   1      39.821  31.324  34.346  1.00  0.00     0.037 A 
ATOM     27  C   UNL A   1      42.843  27.174  30.237  1.00  0.00     0.049 A 
ATOM     28  C   UNL A   1      41.034  30.451  34.466  1.00  0.00     0.074 A 
ATOM     29  C   UNL A   1      43.936  26.373  30.514  1.00  0.00     0.029 A 
ATOM     30  N   UNL A   1      42.561  27.881  31.400  1.00  0.00    -0.354 N 
ATOM     31  N   UNL A   1      41.575  29.664  33.568  1.00  0.00    -0.248 NA
ATOM     32  C   UNL A   1      41.710  30.437  35.769  1.00  0.00     0.031 C 
ATOM     33  C   UNL A   1      44.304  26.583  31.848  1.00  0.00     0.029 A 
ATOM     34  C   UNL A   1      43.466  27.543  32.392  1.00  0.00     0.049 A 
ATOM     35  H   UNL A   1      41.825  28.526  31.503  1.00  0.00     0.167 HD
ATOM     36  C   UNL A   1      42.648  29.054  34.195  1.00  0.00     0.074 A 
ATOM     37  C   UNL A   1      42.709  29.598  35.537  1.00  0.00     0.031 C 
ATOM     38  C   UNL A   1      43.496  28.111  33.715  1.00  0.00     0.037 A 
BRANCH  25  39
ATOM     39  C   UNL A   1      42.558  26.545  27.797  1.00  0.00     0.064 A 
ATOM     40  C   UNL A   1      43.522  27.038  26.906  1.00  0.00     0.173 A 
ATOM     41  C   UNL A   1      41.994  25.290  27.521  1.00  0.00     0.173 A 
ATOM     42  F   UNL A   1      44.077  28.242  27.111  1.00  0.00    -0.203 F 
ATOM     43  C   UNL A   1      43.881  26.319  25.767  1.00  0.00     0.198 A 
ATOM     44  C   UNL A   1      42.374  24.561  26.397  1.00  0.00     0.198 A 
ATOM     45  F   UNL A   1      41.065  24.771  28.339  1.00  0.00    -0.203 F 
ATOM     46  F   UNL A   1      44.761  26.836  24.899  1.00  0.00    -0.200 F 
ATOM     47  C   UNL A   1      43.310  25.080  25.516  1.00  0.00     0.200 A 
ATOM     48  F   UNL A   1      41.825  23.361  26.160  1.00  0.00    -0.200 F 
ATOM     49  F   UNL A   1      43.652  24.392  24.417  1.00  0.00    -0.200 F 
ENDBRANCH  25  39
BRANCH  26  50
ATOM     50  C   UNL A   1      39.322  32.129  35.498  1.00  0.00     0.064 A 
ATOM     51  C   UNL A   1      39.681  33.474  35.651  1.00  0.00     0.173 A 
ATOM     52  C   UNL A   1      38.478  31.570  36.472  1.00  0.00     0.173 A 
ATOM     53  F   UNL A   1      40.505  34.053  34.765  1.00  0.00    -0.203 F 
ATOM     54  C   UNL A   1      39.232  34.222  36.740  1.00  0.00     0.198 A 
ATOM     55  C   UNL A   1      37.995  32.329  37.536  1.00  0.00     0.198 A 
ATOM     56  F   UNL A   1      38.101  30.285  36.380  1.00  0.00    -0.203 F 
ATOM     57  F   UNL A   1      39.636  35.491  36.891  1.00  0.00    -0.200 F 
ATOM     58  C   UNL A   1      38.382  33.652  37.676  1.00  0.00     0.200 A 
ATOM     59  F   UNL A   1      37.156  31.777  38.423  1.00  0.00    -0.200 F 
ATOM     60  F   UNL A   1      37.943  34.373  38.716  1.00  0.00    -0.200 F 
ENDBRANCH  26  50
BRANCH  38  61
ATOM     61  C   UNL A   1      44.568  27.646  34.651  1.00  0.00     0.064 A 
ATOM     62  C   UNL A   1      45.804  28.306  34.732  1.00  0.00     0.173 A 
ATOM     63  C   UNL A   1      44.354  26.533  35.475  1.00  0.00     0.173 A 
ATOM     64  F   UNL A   1      46.060  29.360  33.944  1.00  0.00    -0.203 F 
ATOM     65  C   UNL A   1      46.800  27.844  35.586  1.00  0.00     0.198 A 
ATOM     66  C   UNL A   1      45.342  26.093  36.349  1.00  0.00     0.198 A 
ATOM     67  F   UNL A   1      43.187  25.873  35.430  1.00  0.00    -0.203 F 
ATOM     68  F   UNL A   1      47.994  28.451  35.608  1.00  0.00    -0.200 F 
ATOM     69  C   UNL A   1      46.567  26.742  36.397  1.00  0.00     0.200 A 
ATOM     70  F   UNL A   1      45.112  25.034  37.137  1.00  0.00    -0.200 F 
ATOM     71  F   UNL A   1      47.528  26.300  37.218  1.00  0.00    -0.200 F 
ENDBRANCH  38  61
ENDBRANCH  12  13
ENDBRANCH   5   7
ENDBRANCH   4   5
ENDBRANCH   3   4
ENDBRANCH   2   3
ENDBRANCH   1   2
BRANCH   1  72
ATOM     72  C   UNL A   1      30.034  27.767  22.852  1.00  0.00     0.202 C 
BRANCH  72  73
ATOM     73  C   UNL A   1      31.268  27.433  22.024  1.00  0.00     0.261 C 
BRANCH  73  74
ATOM     74  O   UNL A   1      31.340  26.014  21.806  1.00  0.00    -0.463 OA
BRANCH  74  75
ATOM     75  C   UNL A   1      32.577  25.483  21.558  1.00  0.00     0.313 C 
ATOM     76  O   UNL A   1      33.255  25.701  20.565  1.00  0.00    -0.252 OA
BRANCH  75  77
ATOM     77  C   UNL A   1      32.985  24.564  22.699  1.00  0.00     0.080 C 
ATOM     78  C   UNL A   1      34.151  23.680  22.141  1.00  0.00     0.055 C 
ATOM     79  C   UNL A   1      33.625  25.351  23.871  1.00  0.00     0.055 C 
ATOM     80  C   UNL A   1      35.009  23.484  23.345  1.00  0.00    -0.044 A 
ATOM     81  C   UNL A   1      34.693  24.415  24.335  1.00  0.00    -0.044 A 
ATOM     82  C   UNL A   1      36.021  22.561  23.521  1.00  0.00     0.004 A 
ATOM     83  C   UNL A   1      35.359  24.423  25.545  1.00  0.00     0.004 A 
ATOM     84  C   UNL A   1      36.702  22.562  24.737  1.00  0.00     0.000 A 
ATOM     85  C   UNL A   1      36.367  23.480  25.746  1.00  0.00     0.000 A 
BRANCH  77  86
ATOM     86  C   UNL A   1      31.811  23.647  23.152  1.00  0.00     0.055 C 
BRANCH  86  87
ATOM     87  C   UNL A   1      31.332  23.593  24.593  1.00  0.00    -0.044 A 
ATOM     88  C   UNL A   1      31.677  22.605  25.517  1.00  0.00     0.024 A 
ATOM     89  C   UNL A   1      30.524  24.645  25.052  1.00  0.00     0.024 A 
ATOM     90  C   UNL A   1      31.222  22.714  26.829  1.00  0.00     0.111 A 
ATOM     91  C   UNL A   1      30.110  24.664  26.376  1.00  0.00     0.111 A 
ATOM     92  N   UNL A   1      30.454  23.726  27.279  1.00  0.00    -0.265 NA
ENDBRANCH  86  87
ENDBRANCH  77  86
ENDBRANCH  75  77
ENDBRANCH  74  75
ENDBRANCH  73  74
ENDBRANCH  72  73
ENDBRANCH   1  72
TORSDOF 16
ENDMDL
MODEL 2
REMARK VINA RESULT:     -12.0      1.088      2.062
REMARK SMILES O=C(OCCOCCOC(=O)C1(Cc2ccncc2)Cc2ccccc2C1)c1ccc(-c2c3nc(c(-c4c(F)c(F)c(F)c(F)c4F)c4ccc([nH]4)c(-c4c(F)c(F)c(F)c(F)c4F)c4nc(c(-c5c(F)c(F)c(F)c(F)c5F)c5ccc2[nH]5)C=C4)C=C3)cc1
REMARK SMILES IDX 6 1 5 2 4 3 3 4 2 5 1 6 28 7 29 8 90 9 30 10 89 11 31 12
REMARK SMILES IDX 32 13 33 14 83 15 34 16 88 17 82 18 84 19 35 20 87 21 81 22
REMARK SMILES IDX 80 23 36 25 68 26 48 27 67 28 49 29 52 30 66 31 85 32 50 33
REMARK SMILES IDX 51 34 65 36 86 37 53 38 37 39 38 40 46 41 39 42 40 43 44 44
REMARK SMILES IDX 47 45 41 46 42 47 45 48 43 49 69 50 70 51 78 52 71 53 72 54
REMARK SMILES IDX 76 55 79 56 73 57 74 58 77 59 75 60 54 61 55 62 63 63 56 64
REMARK SMILES IDX 57 65 61 66 64 67 58 68 59 69 62 70 60 71 7 72 8 73 9 74
REMARK SMILES IDX 10 75 11 76 12 77 20 78 27 79 21 80 26 81 22 82 25 83 23 84
REMARK SMILES IDX 24 85 13 86 14 87 15 88 19 89 16 90 18 91 17 92
REMARK H PARENT 84 24 52 35
REMARK Flexibility Score: inf
ROOT
ATOM      1  O   UNL A   1      31.611  27.506  24.998  1.00  0.00    -0.374 OA
ENDROOT
BRANCH   1   2
ATOM      2  C   UNL A   1      31.419  28.796  24.441  1.00  0.00     0.202 C 
BRANCH   2   3
ATOM      3  C   UNL A   1      31.631  30.002  25.364  1.00  0.00     0.261 C 
BRANCH   3   4
ATOM      4  O   UNL A   1      32.859  29.953  26.126  1.00  0.00    -0.460 OA
BRANCH   4   5
ATOM      5  C   UNL A   1      33.252  30.987  26.931  1.00  0.00     0.338 C 
ATOM      6  O   UNL A   1      32.566  31.983  27.099  1.00  0.00    -0.246 OA
BRANCH   5   7
ATOM      7  C   UNL A   1      34.579  30.863  27.576  1.00  0.00     0.060 A 
ATOM      8  C   UNL A   1      35.014  29.601  27.931  1.00  0.00     0.016 A 
ATOM      9  C   UNL A   1      35.387  31.956  27.868  1.00  0.00     0.016 A 
ATOM     10  C   UNL A   1      36.030  29.434  28.844  1.00  0.00     0.010 A 
ATOM     11  C   UNL A   1      36.591  31.749  28.561  1.00  0.00     0.010 A 
ATOM     12  C   UNL A   1      36.912  30.482  29.087  1.00  0.00    -0.014 A 
BRANCH  12  13
ATOM     13  C   UNL A   1      38.162  30.191  29.845  1.00  0.00     0.031 A 
ATOM     14  C   UNL A   1      39.250  29.371  29.219  1.00  0.00     0.074 A 
ATOM     15  C   UNL A   1      38.339  30.708  31.083  1.00  0.00     0.049 A 
ATOM     16  N   UNL A   1      40.280  28.797  29.787  1.00  0.00    -0.248 NA
ATOM     17  C   UNL A   1      39.161  29.141  27.768  1.00  0.00     0.031 C 
ATOM     18  C   UNL A   1      37.390  31.574  31.795  1.00  0.00     0.029 A 
ATOM     19  N   UNL A   1      39.393  30.617  31.959  1.00  0.00    -0.354 N 
ATOM     20  C   UNL A   1      40.907  28.070  28.784  1.00  0.00     0.074 A 
ATOM     21  C   UNL A   1      40.153  28.286  27.568  1.00  0.00     0.031 C 
ATOM     22  C   UNL A   1      37.944  32.019  32.928  1.00  0.00     0.029 A 
ATOM     23  C   UNL A   1      39.206  31.330  33.121  1.00  0.00     0.049 A 
ATOM     24  H   UNL A   1      40.205  30.091  31.774  1.00  0.00     0.167 HD
ATOM     25  C   UNL A   1      42.004  27.284  28.889  1.00  0.00     0.037 A 
ATOM     26  C   UNL A   1      39.925  31.368  34.258  1.00  0.00     0.037 A 
ATOM     27  C   UNL A   1      42.764  27.135  30.103  1.00  0.00     0.049 A 
ATOM     28  C   UNL A   1      41.127  30.478  34.352  1.00  0.00     0.074 A 
ATOM     29  C   UNL A   1      43.852  26.319  30.356  1.00  0.00     0.029 A 
ATOM     30  N   UNL A   1      42.526  27.857  31.267  1.00  0.00    -0.354 N 
ATOM     31  N   UNL A   1      41.630  29.674  33.445  1.00  0.00    -0.248 NA
ATOM     32  C   UNL A   1      41.838  30.464  35.635  1.00  0.00     0.031 C 
ATOM     33  C   UNL A   1      44.260  26.535  31.678  1.00  0.00     0.029 A 
ATOM     34  C   UNL A   1      43.453  27.513  32.237  1.00  0.00     0.049 A 
ATOM     35  H   UNL A   1      41.804  28.515  31.385  1.00  0.00     0.167 HD
ATOM     36  C   UNL A   1      42.711  29.053  34.047  1.00  0.00     0.074 A 
ATOM     37  C   UNL A   1      42.818  29.607  35.383  1.00  0.00     0.031 C 
ATOM     38  C   UNL A   1      43.529  28.092  33.553  1.00  0.00     0.037 A 
BRANCH  25  39
ATOM     39  C   UNL A   1      42.401  26.490  27.678  1.00  0.00     0.064 A 
ATOM     40  C   UNL A   1      41.810  25.257  27.370  1.00  0.00     0.173 A 
ATOM     41  C   UNL A   1      43.405  26.967  26.821  1.00  0.00     0.173 A 
ATOM     42  F   UNL A   1      40.862  24.744  28.169  1.00  0.00    -0.203 F 
ATOM     43  C   UNL A   1      42.231  24.516  26.266  1.00  0.00     0.198 A 
ATOM     44  C   UNL A   1      43.804  26.237  25.703  1.00  0.00     0.198 A 
ATOM     45  F   UNL A   1      44.006  28.140  27.069  1.00  0.00    -0.203 F 
ATOM     46  F   UNL A   1      41.691  23.312  26.024  1.00  0.00    -0.200 F 
ATOM     47  C   UNL A   1      43.223  25.008  25.432  1.00  0.00     0.200 A 
ATOM     48  F   UNL A   1      44.759  26.719  24.895  1.00  0.00    -0.200 F 
ATOM     49  F   UNL A   1      43.630  24.291  24.375  1.00  0.00    -0.200 F 
ENDBRANCH  25  39
BRANCH  26  50
ATOM     50  C   UNL A   1      39.471  32.191  35.415  1.00  0.00     0.064 A 
ATOM     51  C   UNL A   1      38.563  31.683  36.354  1.00  0.00     0.173 A 
ATOM     52  C   UNL A   1      39.933  33.504  35.607  1.00  0.00     0.173 A 
ATOM     53  F   UNL A   1      38.069  30.445  36.207  1.00  0.00    -0.203 F 
ATOM     54  C   UNL A   1      38.122  32.460  37.425  1.00  0.00     0.198 A 
ATOM     55  C   UNL A   1      39.526  34.264  36.701  1.00  0.00     0.198 A 
ATOM     56  F   UNL A   1      40.803  34.045  34.741  1.00  0.00    -0.203 F 
ATOM     57  F   UNL A   1      37.211  31.969  38.276  1.00  0.00    -0.200 F 
ATOM     58  C   UNL A   1      38.611  33.746  37.604  1.00  0.00     0.200 A 
ATOM     59  F   UNL A   1      40.020  35.496  36.879  1.00  0.00    -0.200 F 
ATOM     60  F   UNL A   1      38.194  34.488  38.638  1.00  0.00    -0.200 F 
ENDBRANCH  26  50
BRANCH  38  61
ATOM     61  C   UNL A   1      44.620  27.619  34.463  1.00  0.00     0.064 A 
ATOM     62  C   UNL A   1      45.871  28.252  34.496  1.00  0.00     0.173 A 
ATOM     63  C   UNL A   1      44.408  26.522  35.310  1.00  0.00     0.173 A 
ATOM     64  F   UNL A   1      46.125  29.289  33.684  1.00  0.00    -0.203 F 
ATOM     65  C   UNL A   1      46.884  27.782  35.326  1.00  0.00     0.198 A 
ATOM     66  C   UNL A   1      45.413  26.075  36.160  1.00  0.00     0.198 A 
ATOM     67  F   UNL A   1      43.227  25.887  35.311  1.00  0.00    -0.203 F 
ATOM     68  F   UNL A   1      48.090  28.364  35.302  1.00  0.00    -0.200 F 
ATOM     69  C   UNL A   1      46.652  26.698  36.160  1.00  0.00     0.200 A 
ATOM     70  F   UNL A   1      45.186  25.032  36.971  1.00  0.00    -0.200 F 
ATOM     71  F   UNL A   1      47.629  26.248  36.959  1.00  0.00    -0.200 F 
ENDBRANCH  38  61
ENDBRANCH  12  13
ENDBRANCH   5   7
ENDBRANCH   4   5
ENDBRANCH   3   4
ENDBRANCH   2   3
ENDBRANCH   1   2
BRANCH   1  72
ATOM     72  C   UNL A   1      30.812  26.473  24.429  1.00  0.00     0.202 C 
BRANCH  72  73
ATOM     73  C   UNL A   1      31.063  26.409  22.928  1.00  0.00     0.261 C 
BRANCH  73  74
ATOM     74  O   UNL A   1      31.650  25.142  22.585  1.00  0.00    -0.463 OA
BRANCH  74  75
ATOM     75  C   UNL A   1      33.010  25.101  22.448  1.00  0.00     0.313 C 
ATOM     76  O   UNL A   1      33.656  25.711  21.608  1.00  0.00    -0.252 OA
BRANCH  75  77
ATOM     77  C   UNL A   1      33.610  24.170  23.490  1.00  0.00     0.080 C 
ATOM     78  C   UNL A   1      34.684  23.316  22.737  1.00  0.00     0.055 C 
ATOM     79  C   UNL A   1      34.418  24.949  24.560  1.00  0.00     0.055 C 
ATOM     80  C   UNL A   1      35.726  23.115  23.784  1.00  0.00    -0.044 A 
ATOM     81  C   UNL A   1      35.560  24.023  24.829  1.00  0.00    -0.044 A 
ATOM     82  C   UNL A   1      36.767  22.207  23.777  1.00  0.00     0.004 A 
ATOM     83  C   UNL A   1      36.411  24.022  25.917  1.00  0.00     0.004 A 
ATOM     84  C   UNL A   1      37.634  22.199  24.868  1.00  0.00     0.000 A 
ATOM     85  C   UNL A   1      37.452  23.094  25.935  1.00  0.00     0.000 A 
BRANCH  77  86
ATOM     86  C   UNL A   1      32.537  23.226  24.107  1.00  0.00     0.055 C 
BRANCH  86  87
ATOM     87  C   UNL A   1      32.658  21.712  24.051  1.00  0.00    -0.044 A 
ATOM     88  C   UNL A   1      33.165  20.908  25.074  1.00  0.00     0.024 A 
ATOM     89  C   UNL A   1      32.175  21.060  22.906  1.00  0.00     0.024 A 
ATOM     90  C   UNL A   1      33.155  19.525  24.919  1.00  0.00     0.111 A 
ATOM     91  C   UNL A   1      32.216  19.676  22.836  1.00  0.00     0.111 A 
ATOM     92  N   UNL A   1      32.684  18.892  23.825  1.00  0.00    -0.265 NA
ENDBRANCH  86  87
ENDBRANCH  77  86
ENDBRANCH  75  77
ENDBRANCH  74  75
ENDBRANCH  73  74
ENDBRANCH  72  73
ENDBRANCH   1  72
TORSDOF 16
ENDMDL
MODEL 3
REMARK VINA RESULT:     -11.9      1.783      2.763
REMARK SMILES O=C(OCCOCCOC(=O)C1(Cc2ccncc2)Cc2ccccc2C1)c1ccc(-c2c3nc(c(-c4c(F)c(F)c(F)c(F)c4F)c4ccc([nH]4)c(-c4c(F)c(F)c(F)c(F)c4F)c4nc(c(-c5c(F)c(F)c(F)c(F)c5F)c5ccc2[nH]5)C=C4)C=C3)cc1
REMARK SMILES IDX 6 1 5 2 4 3 3 4 2 5 1 6 28 7 29 8 90 9 30 10 89 11 31 12
REMARK SMILES IDX 32 13 33 14 83 15 34 16 88 17 82 18 84 19 35 20 87 21 81 22
REMARK SMILES IDX 80 23 36 25 68 26 48 27 67 28 49 29 52 30 66 31 85 32 50 33
REMARK SMILES IDX 51 34 65 36 86 37 53 38 37 39 38 40 46 41 39 42 40 43 44 44
REMARK SMILES IDX 47 45 41 46 42 47 45 48 43 49 69 50 70 51 78 52 71 53 72 54
REMARK SMILES IDX 76 55 79 56 73 57 74 58 77 59 75 60 54 61 55 62 63 63 56 64
REMARK SMILES IDX 57 65 61 66 64 67 58 68 59 69 62 70 60 71 7 72 8 73 9 74
REMARK SMILES IDX 10 75 11 76 12 77 20 78 27 79 21 80 26 81 22 82 25 83 23 84
REMARK SMILES IDX 24 85 13 86 14 87 15 88 19 89 16 90 18 91 17 92
REMARK H PARENT 84 24 52 35
REMARK Flexibility Score: inf
ROOT
ATOM      1  O   UNL A   1      32.576  27.346  24.941  1.00  0.00    -0.374 OA
ENDROOT
BRANCH   1   2
ATOM      2  C   UNL A   1      31.541  28.296  24.743  1.00  0.00     0.202 C 
BRANCH   2   3
ATOM      3  C   UNL A   1      31.733  29.687  25.362  1.00  0.00     0.261 C 
BRANCH   3   4
ATOM      4  O   UNL A   1      33.079  29.946  25.823  1.00  0.00    -0.460 OA
BRANCH   4   5
ATOM      5  C   UNL A   1      33.345  30.877  26.789  1.00  0.00     0.338 C 
ATOM      6  O   UNL A   1      32.563  31.774  27.067  1.00  0.00    -0.246 OA
BRANCH   5   7
ATOM      7  C   UNL A   1      34.655  30.775  27.472  1.00  0.00     0.060 A 
ATOM      8  C   UNL A   1      35.119  29.515  27.801  1.00  0.00     0.016 A 
ATOM      9  C   UNL A   1      35.416  31.882  27.825  1.00  0.00     0.016 A 
ATOM     10  C   UNL A   1      36.111  29.351  28.740  1.00  0.00     0.010 A 
ATOM     11  C   UNL A   1      36.605  31.690  28.551  1.00  0.00     0.010 A 
ATOM     12  C   UNL A   1      36.950  30.417  29.045  1.00  0.00    -0.014 A 
BRANCH  12  13
ATOM     13  C   UNL A   1      38.184  30.141  29.834  1.00  0.00     0.031 A 
ATOM     14  C   UNL A   1      39.301  29.341  29.232  1.00  0.00     0.074 A 
ATOM     15  C   UNL A   1      38.322  30.654  31.079  1.00  0.00     0.049 A 
ATOM     16  N   UNL A   1      40.324  28.780  29.823  1.00  0.00    -0.248 NA
ATOM     17  C   UNL A   1      39.253  29.118  27.778  1.00  0.00     0.031 C 
ATOM     18  C   UNL A   1      37.342  31.501  31.770  1.00  0.00     0.029 A 
ATOM     19  N   UNL A   1      39.354  30.574  31.981  1.00  0.00    -0.354 N 
ATOM     20  C   UNL A   1      40.988  28.068  28.833  1.00  0.00     0.074 A 
ATOM     21  C   UNL A   1      40.263  28.279  27.599  1.00  0.00     0.031 C 
ATOM     22  C   UNL A   1      37.859  31.948  32.919  1.00  0.00     0.029 A 
ATOM     23  C   UNL A   1      39.127  31.278  33.142  1.00  0.00     0.049 A 
ATOM     24  H   UNL A   1      40.179  30.061  31.815  1.00  0.00     0.167 HD
ATOM     25  C   UNL A   1      42.094  27.298  28.962  1.00  0.00     0.037 A 
ATOM     26  C   UNL A   1      39.815  31.320  34.297  1.00  0.00     0.037 A 
ATOM     27  C   UNL A   1      42.825  27.154  30.195  1.00  0.00     0.049 A 
ATOM     28  C   UNL A   1      41.028  30.447  34.417  1.00  0.00     0.074 A 
ATOM     29  C   UNL A   1      43.918  26.353  30.472  1.00  0.00     0.029 A 
ATOM     30  N   UNL A   1      42.545  27.865  31.356  1.00  0.00    -0.354 N 
ATOM     31  N   UNL A   1      41.566  29.656  33.520  1.00  0.00    -0.248 NA
ATOM     32  C   UNL A   1      41.706  30.437  35.718  1.00  0.00     0.031 C 
ATOM     33  C   UNL A   1      44.289  26.567  31.804  1.00  0.00     0.029 A 
ATOM     34  C   UNL A   1      43.453  27.530  32.347  1.00  0.00     0.049 A 
ATOM     35  H   UNL A   1      41.811  28.511  31.459  1.00  0.00     0.167 HD
ATOM     36  C   UNL A   1      42.641  29.048  34.146  1.00  0.00     0.074 A 
ATOM     37  C   UNL A   1      42.705  29.597  35.487  1.00  0.00     0.031 C 
ATOM     38  C   UNL A   1      43.486  28.103  33.668  1.00  0.00     0.037 A 
BRANCH  25  39
ATOM     39  C   UNL A   1      42.534  26.517  27.758  1.00  0.00     0.064 A 
ATOM     40  C   UNL A   1      43.504  27.001  26.869  1.00  0.00     0.173 A 
ATOM     41  C   UNL A   1      41.960  25.266  27.481  1.00  0.00     0.173 A 
ATOM     42  F   UNL A   1      44.068  28.201  27.074  1.00  0.00    -0.203 F 
ATOM     43  C   UNL A   1      43.859  26.278  25.731  1.00  0.00     0.198 A 
ATOM     44  C   UNL A   1      42.337  24.533  26.359  1.00  0.00     0.198 A 
ATOM     45  F   UNL A   1      41.025  24.755  28.297  1.00  0.00    -0.203 F 
ATOM     46  F   UNL A   1      44.746  26.788  24.865  1.00  0.00    -0.200 F 
ATOM     47  C   UNL A   1      43.280  25.043  25.480  1.00  0.00     0.200 A 
ATOM     48  F   UNL A   1      41.779  23.337  26.122  1.00  0.00    -0.200 F 
ATOM     49  F   UNL A   1      43.619  24.352  24.383  1.00  0.00    -0.200 F 
ENDBRANCH  25  39
BRANCH  26  50
ATOM     50  C   UNL A   1      39.319  32.129  35.447  1.00  0.00     0.064 A 
ATOM     51  C   UNL A   1      39.695  33.470  35.605  1.00  0.00     0.173 A 
ATOM     52  C   UNL A   1      38.462  31.580  36.414  1.00  0.00     0.173 A 
ATOM     53  F   UNL A   1      40.532  34.040  34.725  1.00  0.00    -0.203 F 
ATOM     54  C   UNL A   1      39.248  34.222  36.692  1.00  0.00     0.198 A 
ATOM     55  C   UNL A   1      37.982  32.343  37.476  1.00  0.00     0.198 A 
ATOM     56  F   UNL A   1      38.069  30.301  36.317  1.00  0.00    -0.203 F 
ATOM     57  F   UNL A   1      39.668  35.484  36.848  1.00  0.00    -0.200 F 
ATOM     58  C   UNL A   1      38.385  33.661  37.621  1.00  0.00     0.200 A 
ATOM     59  F   UNL A   1      37.130  31.801  38.357  1.00  0.00    -0.200 F 
ATOM     60  F   UNL A   1      37.949  34.386  38.660  1.00  0.00    -0.200 F 
ENDBRANCH  26  50
BRANCH  38  61
ATOM     61  C   UNL A   1      44.560  27.641  34.603  1.00  0.00     0.064 A 
ATOM     62  C   UNL A   1      45.809  28.277  34.653  1.00  0.00     0.173 A 
ATOM     63  C   UNL A   1      44.334  26.553  35.457  1.00  0.00     0.173 A 
ATOM     64  F   UNL A   1      46.077  29.306  33.835  1.00  0.00    -0.203 F 
ATOM     65  C   UNL A   1      46.807  27.817  35.507  1.00  0.00     0.198 A 
ATOM     66  C   UNL A   1      45.324  26.116  36.331  1.00  0.00     0.198 A 
ATOM     67  F   UNL A   1      43.154  25.916  35.443  1.00  0.00    -0.203 F 
ATOM     68  F   UNL A   1      48.012  28.401  35.500  1.00  0.00    -0.200 F 
ATOM     69  C   UNL A   1      46.562  26.742  36.348  1.00  0.00     0.200 A 
ATOM     70  F   UNL A   1      45.083  25.082  37.149  1.00  0.00    -0.200 F 
ATOM     71  F   UNL A   1      47.524  26.301  37.170  1.00  0.00    -0.200 F 
ENDBRANCH  38  61
ENDBRANCH  12  13
ENDBRANCH   5   7
ENDBRANCH   4   5
ENDBRANCH   3   4
ENDBRANCH   2   3
ENDBRANCH   1   2
BRANCH   1  72
ATOM     72  C   UNL A   1      32.457  26.555  26.119  1.00  0.00     0.202 C 
BRANCH  72  73
ATOM     73  C   UNL A   1      31.948  25.168  25.748  1.00  0.00     0.261 C 
BRANCH  73  74
ATOM     74  O   UNL A   1      33.058  24.304  25.450  1.00  0.00    -0.463 OA
BRANCH  74  75
ATOM     75  C   UNL A   1      32.986  23.017  25.909  1.00  0.00     0.313 C 
ATOM     76  O   UNL A   1      32.610  22.681  27.023  1.00  0.00    -0.252 OA
BRANCH  75  77
ATOM     77  C   UNL A   1      33.459  22.055  24.830  1.00  0.00     0.080 C 
ATOM     78  C   UNL A   1      33.818  20.722  25.570  1.00  0.00     0.055 C 
ATOM     79  C   UNL A   1      32.310  21.662  23.866  1.00  0.00     0.055 C 
ATOM     80  C   UNL A   1      33.442  19.686  24.565  1.00  0.00    -0.044 A 
ATOM     81  C   UNL A   1      32.609  20.226  23.585  1.00  0.00    -0.044 A 
ATOM     82  C   UNL A   1      33.796  18.351  24.555  1.00  0.00     0.004 A 
ATOM     83  C   UNL A   1      32.135  19.449  22.546  1.00  0.00     0.004 A 
ATOM     84  C   UNL A   1      33.321  17.557  23.512  1.00  0.00     0.000 A 
ATOM     85  C   UNL A   1      32.505  18.104  22.509  1.00  0.00     0.000 A 
BRANCH  77  86
ATOM     86  C   UNL A   1      34.719  22.591  24.088  1.00  0.00     0.055 C 
BRANCH  86  87
ATOM     87  C   UNL A   1      36.085  22.652  24.749  1.00  0.00    -0.044 A 
ATOM     88  C   UNL A   1      36.578  23.736  25.478  1.00  0.00     0.024 A 
ATOM     89  C   UNL A   1      36.900  21.512  24.671  1.00  0.00     0.024 A 
ATOM     90  C   UNL A   1      37.823  23.634  26.091  1.00  0.00     0.111 A 
ATOM     91  C   UNL A   1      38.133  21.505  25.306  1.00  0.00     0.111 A 
ATOM     92  N   UNL A   1      38.606  22.538  26.028  1.00  0.00    -0.265 NA
ENDBRANCH  86  87
ENDBRANCH  77  86
ENDBRANCH  75  77
ENDBRANCH  74  75
ENDBRANCH  73  74
ENDBRANCH  72  73
ENDBRANCH   1  72
TORSDOF 16
ENDMDL
