MODEL 1
REMARK VINA RESULT:     -11.1      0.000      0.000
REMARK SMILES CCOc1cccc(-c2ccc([C@@H](C)C(=O)OCCOCCOC(=O)c3ccc(-c4c5nc(c(-c6c(F)c(F)c(F)c(F)c6F)c6ccc([nH]6)c(-c6c(F)c(F)c(F)c(F)c6F)c6nc(c(-c7c(F)c(F)c(F)c(F)c7F)c7ccc4[nH]7)C=C6)C=C5)cc3)cc2F)c1
REMARK SMILES IDX 19 1 18 2 17 3 15 4 16 5 13 6 14 7 12 8 9 9 10 10 90 11
REMARK SMILES IDX 11 12 89 13 91 14 8 15 4 16 5 17 92 18 6 19 7 20 3 21 2 22
REMARK SMILES IDX 1 23 20 24 21 25 22 26 23 27 24 28 25 29 26 30 27 31 88 32
REMARK SMILES IDX 28 33 87 34 29 35 30 36 31 37 81 38 32 39 86 40 80 41 82 42
REMARK SMILES IDX 33 43 85 44 79 45 78 46 34 48 66 49 46 50 65 51 47 52 50 53
REMARK SMILES IDX 64 54 83 55 48 56 49 57 63 59 84 60 51 61 35 62 36 63 44 64
REMARK SMILES IDX 37 65 38 66 42 67 45 68 39 69 40 70 43 71 41 72 67 73 68 74
REMARK SMILES IDX 76 75 69 76 70 77 74 78 77 79 71 80 72 81 75 82 73 83 52 84
REMARK SMILES IDX 53 85 61 86 54 87 55 88 59 89 62 90 56 91 57 92 60 93 58 94
REMARK H PARENT 82 47 50 58
REMARK Flexibility Score: inf
ROOT
ATOM      1  C   UNL A   1      34.042  20.616  25.191  1.00  0.00     0.202 C 
ENDROOT
BRANCH   1   2
ATOM      2  C   UNL A   1      32.791  21.494  25.277  1.00  0.00     0.261 C 
BRANCH   2   3
ATOM      3  O   UNL A   1      33.121  22.883  25.094  1.00  0.00    -0.463 OA
BRANCH   3   4
ATOM      4  C   UNL A   1      32.477  23.515  24.079  1.00  0.00     0.313 C 
ATOM      5  O   UNL A   1      32.717  23.334  22.888  1.00  0.00    -0.252 OA
BRANCH   4   6
ATOM      6  C   UNL A   1      31.439  24.526  24.536  1.00  0.00     0.126 C 
ATOM      7  C   UNL A   1      30.440  24.768  23.408  1.00  0.00     0.025 C 
BRANCH   6   8
ATOM      8  C   UNL A   1      31.925  25.837  25.146  1.00  0.00    -0.031 A 
ATOM      9  C   UNL A   1      33.114  28.166  26.310  1.00  0.00     0.018 A 
ATOM     10  C   UNL A   1      32.163  27.400  27.008  1.00  0.00     0.012 A 
ATOM     11  C   UNL A   1      33.413  27.759  25.002  1.00  0.00     0.131 A 
ATOM     12  C   UNL A   1      31.580  26.255  26.439  1.00  0.00     0.005 A 
ATOM     13  C   UNL A   1      32.834  26.626  24.426  1.00  0.00     0.044 A 
ATOM     14  F   UNL A   1      34.311  28.434  24.267  1.00  0.00    -0.206 F 
BRANCH   9  15
ATOM     15  C   UNL A   1      33.791  29.321  26.935  1.00  0.00    -0.012 A 
ATOM     16  C   UNL A   1      33.785  31.659  27.636  1.00  0.00     0.119 A 
ATOM     17  C   UNL A   1      35.123  31.577  28.004  1.00  0.00     0.046 A 
ATOM     18  C   UNL A   1      33.133  30.552  27.091  1.00  0.00     0.055 A 
ATOM     19  C   UNL A   1      35.799  30.366  27.864  1.00  0.00     0.004 A 
ATOM     20  C   UNL A   1      35.137  29.250  27.339  1.00  0.00     0.009 A 
BRANCH  16  21
ATOM     21  O   UNL A   1      33.170  32.878  27.691  1.00  0.00    -0.494 OA
BRANCH  21  22
ATOM     22  C   UNL A   1      34.044  33.927  28.122  1.00  0.00     0.226 C 
ATOM     23  C   UNL A   1      33.310  34.942  28.984  1.00  0.00     0.049 C 
ENDBRANCH  21  22
ENDBRANCH  16  21
ENDBRANCH   9  15
ENDBRANCH   6   8
ENDBRANCH   4   6
ENDBRANCH   3   4
ENDBRANCH   2   3
ENDBRANCH   1   2
BRANCH   1  24
ATOM     24  O   UNL A   1      35.254  21.214  25.647  1.00  0.00    -0.374 OA
BRANCH  24  25
ATOM     25  C   UNL A   1      36.361  21.221  24.745  1.00  0.00     0.202 C 
BRANCH  25  26
ATOM     26  C   UNL A   1      37.650  20.569  25.257  1.00  0.00     0.261 C 
BRANCH  26  27
ATOM     27  O   UNL A   1      38.735  21.511  25.348  1.00  0.00    -0.460 OA
BRANCH  27  28
ATOM     28  C   UNL A   1      39.599  21.289  26.365  1.00  0.00     0.338 C 
ATOM     29  O   UNL A   1      40.110  20.225  26.689  1.00  0.00    -0.246 OA
BRANCH  28  30
ATOM     30  C   UNL A   1      40.007  22.568  26.975  1.00  0.00     0.060 A 
ATOM     31  C   UNL A   1      39.371  23.730  26.518  1.00  0.00     0.016 A 
ATOM     32  C   UNL A   1      41.043  22.646  27.907  1.00  0.00     0.016 A 
ATOM     33  C   UNL A   1      39.806  24.981  26.951  1.00  0.00     0.010 A 
ATOM     34  C   UNL A   1      41.484  23.905  28.334  1.00  0.00     0.010 A 
ATOM     35  C   UNL A   1      40.893  25.077  27.829  1.00  0.00    -0.014 A 
BRANCH  35  36
ATOM     36  C   UNL A   1      41.499  26.406  28.091  1.00  0.00     0.031 A 
ATOM     37  C   UNL A   1      42.889  26.685  27.587  1.00  0.00     0.074 A 
ATOM     38  C   UNL A   1      40.809  27.366  28.730  1.00  0.00     0.049 A 
ATOM     39  N   UNL A   1      43.619  27.764  27.714  1.00  0.00    -0.248 NA
ATOM     40  C   UNL A   1      43.543  25.601  26.836  1.00  0.00     0.031 C 
ATOM     41  C   UNL A   1      39.441  27.235  29.225  1.00  0.00     0.029 A 
ATOM     42  N   UNL A   1      41.171  28.645  29.072  1.00  0.00    -0.354 N 
ATOM     43  C   UNL A   1      44.814  27.489  27.063  1.00  0.00     0.074 A 
ATOM     44  C   UNL A   1      44.726  26.133  26.567  1.00  0.00     0.031 C 
ATOM     45  C   UNL A   1      39.080  28.386  29.817  1.00  0.00     0.029 A 
ATOM     46  C   UNL A   1      40.201  29.323  29.767  1.00  0.00     0.049 A 
ATOM     47  H   UNL A   1      42.044  29.039  28.841  1.00  0.00     0.167 HD
ATOM     48  C   UNL A   1      45.885  28.299  26.886  1.00  0.00     0.037 A 
ATOM     49  C   UNL A   1      40.226  30.554  30.317  1.00  0.00     0.037 A 
ATOM     50  C   UNL A   1      45.974  29.650  27.376  1.00  0.00     0.049 A 
ATOM     51  C   UNL A   1      41.459  31.408  30.170  1.00  0.00     0.074 A 
ATOM     52  C   UNL A   1      47.013  30.553  27.234  1.00  0.00     0.029 A 
ATOM     53  N   UNL A   1      44.986  30.288  28.110  1.00  0.00    -0.354 N 
ATOM     54  N   UNL A   1      42.576  31.148  29.536  1.00  0.00    -0.248 NA
ATOM     55  C   UNL A   1      41.431  32.729  30.815  1.00  0.00     0.031 C 
ATOM     56  C   UNL A   1      46.671  31.723  27.921  1.00  0.00     0.029 A 
ATOM     57  C   UNL A   1      45.401  31.565  28.449  1.00  0.00     0.049 A 
ATOM     58  H   UNL A   1      44.118  29.891  28.353  1.00  0.00     0.167 HD
ATOM     59  C   UNL A   1      43.370  32.278  29.680  1.00  0.00     0.074 A 
ATOM     60  C   UNL A   1      42.603  33.231  30.453  1.00  0.00     0.031 C 
ATOM     61  C   UNL A   1      44.622  32.506  29.212  1.00  0.00     0.037 A 
BRANCH  48  62
ATOM     62  C   UNL A   1      47.063  27.736  26.146  1.00  0.00     0.064 A 
ATOM     63  C   UNL A   1      47.149  27.795  24.747  1.00  0.00     0.173 A 
ATOM     64  C   UNL A   1      48.136  27.167  26.847  1.00  0.00     0.173 A 
ATOM     65  F   UNL A   1      46.143  28.319  24.030  1.00  0.00    -0.203 F 
ATOM     66  C   UNL A   1      48.257  27.285  24.076  1.00  0.00     0.198 A 
ATOM     67  C   UNL A   1      49.253  26.680  26.175  1.00  0.00     0.198 A 
ATOM     68  F   UNL A   1      48.104  27.090  28.186  1.00  0.00    -0.203 F 
ATOM     69  F   UNL A   1      48.300  27.314  22.737  1.00  0.00    -0.200 F 
ATOM     70  C   UNL A   1      49.311  26.734  24.791  1.00  0.00     0.200 A 
ATOM     71  F   UNL A   1      50.275  26.158  26.867  1.00  0.00    -0.200 F 
ATOM     72  F   UNL A   1      50.380  26.249  24.143  1.00  0.00    -0.200 F 
ENDBRANCH  48  62
BRANCH  49  73
ATOM     73  C   UNL A   1      39.047  31.053  31.072  1.00  0.00     0.064 A 
ATOM     74  C   UNL A   1      38.092  31.877  30.462  1.00  0.00     0.173 A 
ATOM     75  C   UNL A   1      38.866  30.735  32.426  1.00  0.00     0.173 A 
ATOM     76  F   UNL A   1      38.236  32.230  29.176  1.00  0.00    -0.203 F 
ATOM     77  C   UNL A   1      37.009  32.378  31.182  1.00  0.00     0.198 A 
ATOM     78  C   UNL A   1      37.769  31.214  33.137  1.00  0.00     0.198 A 
ATOM     79  F   UNL A   1      39.754  29.952  33.057  1.00  0.00    -0.203 F 
ATOM     80  F   UNL A   1      36.135  33.201  30.587  1.00  0.00    -0.200 F 
ATOM     81  C   UNL A   1      36.845  32.041  32.517  1.00  0.00     0.200 A 
ATOM     82  F   UNL A   1      37.610  30.878  34.425  1.00  0.00    -0.200 F 
ATOM     83  F   UNL A   1      35.803  32.522  33.209  1.00  0.00    -0.200 F 
ENDBRANCH  49  73
BRANCH  61  84
ATOM     84  C   UNL A   1      45.230  33.850  29.491  1.00  0.00     0.064 A 
ATOM     85  C   UNL A   1      45.981  34.092  30.650  1.00  0.00     0.173 A 
ATOM     86  C   UNL A   1      45.097  34.895  28.564  1.00  0.00     0.173 A 
ATOM     87  F   UNL A   1      46.125  33.129  31.574  1.00  0.00    -0.203 F 
ATOM     88  C   UNL A   1      46.559  35.337  30.882  1.00  0.00     0.198 A 
ATOM     89  C   UNL A   1      45.699  36.130  28.786  1.00  0.00     0.198 A 
ATOM     90  F   UNL A   1      44.395  34.713  27.436  1.00  0.00    -0.203 F 
ATOM     91  F   UNL A   1      47.237  35.559  32.017  1.00  0.00    -0.200 F 
ATOM     92  C   UNL A   1      46.424  36.353  29.947  1.00  0.00     0.200 A 
ATOM     93  F   UNL A   1      45.579  37.107  27.875  1.00  0.00    -0.200 F 
ATOM     94  F   UNL A   1      46.987  37.548  30.169  1.00  0.00    -0.200 F 
ENDBRANCH  61  84
ENDBRANCH  35  36
ENDBRANCH  28  30
ENDBRANCH  27  28
ENDBRANCH  26  27
ENDBRANCH  25  26
ENDBRANCH  24  25
ENDBRANCH   1  24
TORSDOF 18
ENDMDL
MODEL 2
REMARK VINA RESULT:     -10.9      4.289     10.558
REMARK SMILES CCOc1cccc(-c2ccc([C@@H](C)C(=O)OCCOCCOC(=O)c3ccc(-c4c5nc(c(-c6c(F)c(F)c(F)c(F)c6F)c6ccc([nH]6)c(-c6c(F)c(F)c(F)c(F)c6F)c6nc(c(-c7c(F)c(F)c(F)c(F)c7F)c7ccc4[nH]7)C=C6)C=C5)cc3)cc2F)c1
REMARK SMILES IDX 19 1 18 2 17 3 15 4 16 5 13 6 14 7 12 8 9 9 10 10 90 11
REMARK SMILES IDX 11 12 89 13 91 14 8 15 4 16 5 17 92 18 6 19 7 20 3 21 2 22
REMARK SMILES IDX 1 23 20 24 21 25 22 26 23 27 24 28 25 29 26 30 27 31 88 32
REMARK SMILES IDX 28 33 87 34 29 35 30 36 31 37 81 38 32 39 86 40 80 41 82 42
REMARK SMILES IDX 33 43 85 44 79 45 78 46 34 48 66 49 46 50 65 51 47 52 50 53
REMARK SMILES IDX 64 54 83 55 48 56 49 57 63 59 84 60 51 61 35 62 36 63 44 64
REMARK SMILES IDX 37 65 38 66 42 67 45 68 39 69 40 70 43 71 41 72 67 73 68 74
REMARK SMILES IDX 76 75 69 76 70 77 74 78 77 79 71 80 72 81 75 82 73 83 52 84
REMARK SMILES IDX 53 85 61 86 54 87 55 88 59 89 62 90 56 91 57 92 60 93 58 94
REMARK H PARENT 82 47 50 58
REMARK Flexibility Score: inf
ROOT
ATOM      1  C   UNL A   1      33.219  30.400  26.688  1.00  0.00     0.202 C 
ENDROOT
BRANCH   1   2
ATOM      2  C   UNL A   1      33.446  28.908  26.942  1.00  0.00     0.261 C 
BRANCH   2   3
ATOM      3  O   UNL A   1      32.229  28.264  27.362  1.00  0.00    -0.463 OA
BRANCH   3   4
ATOM      4  C   UNL A   1      31.751  27.303  26.530  1.00  0.00     0.313 C 
ATOM      5  O   UNL A   1      30.701  26.692  26.711  1.00  0.00    -0.252 OA
BRANCH   4   6
ATOM      6  C   UNL A   1      32.657  26.995  25.350  1.00  0.00     0.126 C 
ATOM      7  C   UNL A   1      32.026  27.546  24.074  1.00  0.00     0.025 C 
BRANCH   6   8
ATOM      8  C   UNL A   1      33.141  25.562  25.164  1.00  0.00    -0.031 A 
ATOM      9  C   UNL A   1      34.308  22.956  24.956  1.00  0.00     0.018 A 
ATOM     10  C   UNL A   1      34.088  23.755  23.820  1.00  0.00     0.012 A 
ATOM     11  C   UNL A   1      33.885  23.480  26.186  1.00  0.00     0.131 A 
ATOM     12  C   UNL A   1      33.517  25.035  23.920  1.00  0.00     0.005 A 
ATOM     13  C   UNL A   1      33.312  24.749  26.294  1.00  0.00     0.044 A 
ATOM     14  F   UNL A   1      34.060  22.783  27.320  1.00  0.00    -0.206 F 
BRANCH   9  15
ATOM     15  C   UNL A   1      34.985  21.645  24.865  1.00  0.00    -0.012 A 
ATOM     16  C   UNL A   1      34.886  19.207  24.810  1.00  0.00     0.119 A 
ATOM     17  C   UNL A   1      36.274  19.127  24.829  1.00  0.00     0.046 A 
ATOM     18  C   UNL A   1      34.249  20.449  24.847  1.00  0.00     0.055 A 
ATOM     19  C   UNL A   1      37.027  20.299  24.843  1.00  0.00     0.004 A 
ATOM     20  C   UNL A   1      36.388  21.544  24.856  1.00  0.00     0.009 A 
BRANCH  16  21
ATOM     21  O   UNL A   1      34.167  18.048  24.895  1.00  0.00    -0.494 OA
BRANCH  21  22
ATOM     22  C   UNL A   1      33.392  17.783  23.720  1.00  0.00     0.226 C 
ATOM     23  C   UNL A   1      34.106  16.814  22.791  1.00  0.00     0.049 C 
ENDBRANCH  21  22
ENDBRANCH  16  21
ENDBRANCH   9  15
ENDBRANCH   6   8
ENDBRANCH   4   6
ENDBRANCH   3   4
ENDBRANCH   2   3
ENDBRANCH   1   2
BRANCH   1  24
ATOM     24  O   UNL A   1      31.923  30.760  26.212  1.00  0.00    -0.374 OA
BRANCH  24  25
ATOM     25  C   UNL A   1      31.334  31.946  26.747  1.00  0.00     0.202 C 
BRANCH  25  26
ATOM     26  C   UNL A   1      32.254  33.167  26.850  1.00  0.00     0.261 C 
BRANCH  26  27
ATOM     27  O   UNL A   1      32.458  33.579  28.214  1.00  0.00    -0.460 OA
BRANCH  27  28
ATOM     28  C   UNL A   1      33.555  34.342  28.421  1.00  0.00     0.338 C 
ATOM     29  O   UNL A   1      33.609  35.561  28.507  1.00  0.00    -0.246 OA
BRANCH  28  30
ATOM     30  C   UNL A   1      34.722  33.487  28.710  1.00  0.00     0.060 A 
ATOM     31  C   UNL A   1      34.486  32.287  29.394  1.00  0.00     0.016 A 
ATOM     32  C   UNL A   1      36.024  33.883  28.400  1.00  0.00     0.016 A 
ATOM     33  C   UNL A   1      35.556  31.504  29.819  1.00  0.00     0.010 A 
ATOM     34  C   UNL A   1      37.098  33.099  28.836  1.00  0.00     0.010 A 
ATOM     35  C   UNL A   1      36.870  31.926  29.579  1.00  0.00    -0.014 A 
BRANCH  35  36
ATOM     36  C   UNL A   1      37.993  31.217  30.242  1.00  0.00     0.031 A 
ATOM     37  C   UNL A   1      38.305  31.531  31.680  1.00  0.00     0.074 A 
ATOM     38  C   UNL A   1      38.698  30.277  29.589  1.00  0.00     0.049 A 
ATOM     39  N   UNL A   1      39.247  31.048  32.451  1.00  0.00    -0.248 NA
ATOM     40  C   UNL A   1      37.438  32.521  32.337  1.00  0.00     0.031 C 
ATOM     41  C   UNL A   1      38.463  29.851  28.212  1.00  0.00     0.029 A 
ATOM     42  N   UNL A   1      39.759  29.512  30.004  1.00  0.00    -0.354 N 
ATOM     43  C   UNL A   1      39.086  31.675  33.679  1.00  0.00     0.074 A 
ATOM     44  C   UNL A   1      37.977  32.594  33.546  1.00  0.00     0.031 C 
ATOM     45  C   UNL A   1      39.362  28.905  27.890  1.00  0.00     0.029 A 
ATOM     46  C   UNL A   1      40.251  28.681  29.028  1.00  0.00     0.049 A 
ATOM     47  H   UNL A   1      40.133  29.555  30.914  1.00  0.00     0.167 HD
ATOM     48  C   UNL A   1      39.793  31.493  34.820  1.00  0.00     0.037 A 
ATOM     49  C   UNL A   1      41.311  27.849  29.049  1.00  0.00     0.037 A 
ATOM     50  C   UNL A   1      40.895  30.577  34.957  1.00  0.00     0.049 A 
ATOM     51  C   UNL A   1      42.128  27.719  30.309  1.00  0.00     0.074 A 
ATOM     52  C   UNL A   1      41.664  30.312  36.076  1.00  0.00     0.029 A 
ATOM     53  N   UNL A   1      41.388  29.780  33.935  1.00  0.00    -0.354 N 
ATOM     54  N   UNL A   1      41.956  28.300  31.472  1.00  0.00    -0.248 NA
ATOM     55  C   UNL A   1      43.287  26.815  30.258  1.00  0.00     0.031 C 
ATOM     56  C   UNL A   1      42.651  29.388  35.719  1.00  0.00     0.029 A 
ATOM     57  C   UNL A   1      42.467  29.041  34.391  1.00  0.00     0.049 A 
ATOM     58  H   UNL A   1      41.024  29.745  33.020  1.00  0.00     0.167 HD
ATOM     59  C   UNL A   1      42.962  27.812  32.296  1.00  0.00     0.074 A 
ATOM     60  C   UNL A   1      43.736  26.880  31.504  1.00  0.00     0.031 C 
ATOM     61  C   UNL A   1      43.222  28.110  33.593  1.00  0.00     0.037 A 
BRANCH  48  62
ATOM     62  C   UNL A   1      39.409  32.320  36.011  1.00  0.00     0.064 A 
ATOM     63  C   UNL A   1      40.002  33.565  36.265  1.00  0.00     0.173 A 
ATOM     64  C   UNL A   1      38.407  31.879  36.889  1.00  0.00     0.173 A 
ATOM     65  F   UNL A   1      40.975  34.025  35.462  1.00  0.00    -0.203 F 
ATOM     66  C   UNL A   1      39.622  34.329  37.365  1.00  0.00     0.198 A 
ATOM     67  C   UNL A   1      38.011  32.656  37.973  1.00  0.00     0.198 A 
ATOM     68  F   UNL A   1      37.806  30.696  36.689  1.00  0.00    -0.203 F 
ATOM     69  F   UNL A   1      40.231  35.497  37.611  1.00  0.00    -0.200 F 
ATOM     70  C   UNL A   1      38.622  33.877  38.214  1.00  0.00     0.200 A 
ATOM     71  F   UNL A   1      37.038  32.223  38.786  1.00  0.00    -0.200 F 
ATOM     72  F   UNL A   1      38.252  34.617  39.269  1.00  0.00    -0.200 F 
ENDBRANCH  48  62
BRANCH  49  73
ATOM     73  C   UNL A   1      41.673  27.077  27.832  1.00  0.00     0.064 A 
ATOM     74  C   UNL A   1      41.180  25.783  27.622  1.00  0.00     0.173 A 
ATOM     75  C   UNL A   1      42.540  27.612  26.866  1.00  0.00     0.173 A 
ATOM     76  F   UNL A   1      40.371  25.219  28.529  1.00  0.00    -0.203 F 
ATOM     77  C   UNL A   1      41.554  25.045  26.499  1.00  0.00     0.198 A 
ATOM     78  C   UNL A   1      42.890  26.883  25.732  1.00  0.00     0.198 A 
ATOM     79  F   UNL A   1      43.041  28.845  27.023  1.00  0.00    -0.203 F 
ATOM     80  F   UNL A   1      41.104  23.792  26.345  1.00  0.00    -0.200 F 
ATOM     81  C   UNL A   1      42.403  25.598  25.553  1.00  0.00     0.200 A 
ATOM     82  F   UNL A   1      43.703  27.426  24.816  1.00  0.00    -0.200 F 
ATOM     83  F   UNL A   1      42.760  24.888  24.474  1.00  0.00    -0.200 F 
ENDBRANCH  49  73
BRANCH  61  84
ATOM     84  C   UNL A   1      44.366  27.395  34.250  1.00  0.00     0.064 A 
ATOM     85  C   UNL A   1      44.201  26.139  34.854  1.00  0.00     0.173 A 
ATOM     86  C   UNL A   1      45.653  27.951  34.234  1.00  0.00     0.173 A 
ATOM     87  F   UNL A   1      42.986  25.571  34.908  1.00  0.00    -0.203 F 
ATOM     88  C   UNL A   1      45.279  25.479  35.437  1.00  0.00     0.198 A 
ATOM     89  C   UNL A   1      46.734  27.275  34.793  1.00  0.00     0.198 A 
ATOM     90  F   UNL A   1      45.866  29.146  33.663  1.00  0.00    -0.203 F 
ATOM     91  F   UNL A   1      45.089  24.299  36.046  1.00  0.00    -0.200 F 
ATOM     92  C   UNL A   1      46.545  26.043  35.400  1.00  0.00     0.200 A 
ATOM     93  F   UNL A   1      47.960  27.816  34.745  1.00  0.00    -0.200 F 
ATOM     94  F   UNL A   1      47.582  25.401  35.955  1.00  0.00    -0.200 F 
ENDBRANCH  61  84
ENDBRANCH  35  36
ENDBRANCH  28  30
ENDBRANCH  27  28
ENDBRANCH  26  27
ENDBRANCH  25  26
ENDBRANCH  24  25
ENDBRANCH   1  24
TORSDOF 18
ENDMDL
MODEL 3
REMARK VINA RESULT:     -10.9      4.686     10.730
REMARK SMILES CCOc1cccc(-c2ccc([C@@H](C)C(=O)OCCOCCOC(=O)c3ccc(-c4c5nc(c(-c6c(F)c(F)c(F)c(F)c6F)c6ccc([nH]6)c(-c6c(F)c(F)c(F)c(F)c6F)c6nc(c(-c7c(F)c(F)c(F)c(F)c7F)c7ccc4[nH]7)C=C6)C=C5)cc3)cc2F)c1
REMARK SMILES IDX 19 1 18 2 17 3 15 4 16 5 13 6 14 7 12 8 9 9 10 10 90 11
REMARK SMILES IDX 11 12 89 13 91 14 8 15 4 16 5 17 92 18 6 19 7 20 3 21 2 22
REMARK SMILES IDX 1 23 20 24 21 25 22 26 23 27 24 28 25 29 26 30 27 31 88 32
REMARK SMILES IDX 28 33 87 34 29 35 30 36 31 37 81 38 32 39 86 40 80 41 82 42
REMARK SMILES IDX 33 43 85 44 79 45 78 46 34 48 66 49 46 50 65 51 47 52 50 53
REMARK SMILES IDX 64 54 83 55 48 56 49 57 63 59 84 60 51 61 35 62 36 63 44 64
REMARK SMILES IDX 37 65 38 66 42 67 45 68 39 69 40 70 43 71 41 72 67 73 68 74
REMARK SMILES IDX 76 75 69 76 70 77 74 78 77 79 71 80 72 81 75 82 73 83 52 84
REMARK SMILES IDX 53 85 61 86 54 87 55 88 59 89 62 90 56 91 57 92 60 93 58 94
REMARK H PARENT 82 47 50 58
REMARK Flexibility Score: inf
ROOT
ATOM      1  C   UNL A   1      32.848  30.523  27.110  1.00  0.00     0.202 C 
ENDROOT
BRANCH   1   2
ATOM      2  C   UNL A   1      33.038  29.044  26.769  1.00  0.00     0.261 C 
BRANCH   2   3
ATOM      3  O   UNL A   1      31.781  28.421  26.448  1.00  0.00    -0.463 OA
BRANCH   3   4
ATOM      4  C   UNL A   1      31.718  27.804  25.240  1.00  0.00     0.313 C 
ATOM      5  O   UNL A   1      30.674  27.466  24.690  1.00  0.00    -0.252 OA
BRANCH   4   6
ATOM      6  C   UNL A   1      33.075  27.511  24.621  1.00  0.00     0.126 C 
ATOM      7  C   UNL A   1      33.108  28.061  23.197  1.00  0.00     0.025 C 
BRANCH   6   8
ATOM      8  C   UNL A   1      33.605  26.082  24.683  1.00  0.00    -0.031 A 
ATOM      9  C   UNL A   1      34.327  23.313  24.691  1.00  0.00     0.018 A 
ATOM     10  C   UNL A   1      34.157  24.030  25.888  1.00  0.00     0.012 A 
ATOM     11  C   UNL A   1      34.171  24.032  23.498  1.00  0.00     0.131 A 
ATOM     12  C   UNL A   1      33.800  25.389  25.886  1.00  0.00     0.005 A 
ATOM     13  C   UNL A   1      33.823  25.384  23.487  1.00  0.00     0.044 A 
ATOM     14  F   UNL A   1      34.315  23.423  22.310  1.00  0.00    -0.206 F 
BRANCH   9  15
ATOM     15  C   UNL A   1      34.619  21.864  24.688  1.00  0.00    -0.012 A 
ATOM     16  C   UNL A   1      33.855  19.546  24.634  1.00  0.00     0.119 A 
ATOM     17  C   UNL A   1      35.154  19.088  24.819  1.00  0.00     0.046 A 
ATOM     18  C   UNL A   1      33.588  20.915  24.588  1.00  0.00     0.055 A 
ATOM     19  C   UNL A   1      36.197  20.008  24.917  1.00  0.00     0.004 A 
ATOM     20  C   UNL A   1      35.931  21.381  24.847  1.00  0.00     0.009 A 
BRANCH  16  21
ATOM     21  O   UNL A   1      32.838  18.633  24.637  1.00  0.00    -0.494 OA
BRANCH  21  22
ATOM     22  C   UNL A   1      32.981  17.632  23.623  1.00  0.00     0.226 C 
ATOM     23  C   UNL A   1      32.325  18.063  22.321  1.00  0.00     0.049 C 
ENDBRANCH  21  22
ENDBRANCH  16  21
ENDBRANCH   9  15
ENDBRANCH   6   8
ENDBRANCH   4   6
ENDBRANCH   3   4
ENDBRANCH   2   3
ENDBRANCH   1   2
BRANCH   1  24
ATOM     24  O   UNL A   1      31.683  31.142  26.567  1.00  0.00    -0.374 OA
BRANCH  24  25
ATOM     25  C   UNL A   1      31.587  32.563  26.667  1.00  0.00     0.202 C 
BRANCH  25  26
ATOM     26  C   UNL A   1      32.737  33.265  27.398  1.00  0.00     0.261 C 
BRANCH  26  27
ATOM     27  O   UNL A   1      32.272  34.046  28.514  1.00  0.00    -0.460 OA
BRANCH  27  28
ATOM     28  C   UNL A   1      33.068  35.086  28.853  1.00  0.00     0.338 C 
ATOM     29  O   UNL A   1      32.851  36.278  28.679  1.00  0.00    -0.246 OA
BRANCH  28  30
ATOM     30  C   UNL A   1      34.218  34.609  29.645  1.00  0.00     0.060 A 
ATOM     31  C   UNL A   1      35.483  34.673  29.046  1.00  0.00     0.016 A 
ATOM     32  C   UNL A   1      34.059  34.035  30.907  1.00  0.00     0.016 A 
ATOM     33  C   UNL A   1      36.587  34.113  29.684  1.00  0.00     0.010 A 
ATOM     34  C   UNL A   1      35.169  33.464  31.543  1.00  0.00     0.010 A 
ATOM     35  C   UNL A   1      36.429  33.468  30.917  1.00  0.00    -0.014 A 
BRANCH  35  36
ATOM     36  C   UNL A   1      37.551  32.669  31.468  1.00  0.00     0.031 A 
ATOM     37  C   UNL A   1      38.085  33.006  32.833  1.00  0.00     0.074 A 
ATOM     38  C   UNL A   1      38.062  31.632  30.782  1.00  0.00     0.049 A 
ATOM     39  N   UNL A   1      39.067  32.455  33.502  1.00  0.00    -0.248 NA
ATOM     40  C   UNL A   1      37.420  34.111  33.542  1.00  0.00     0.031 C 
ATOM     41  C   UNL A   1      37.602  31.177  29.473  1.00  0.00     0.029 A 
ATOM     42  N   UNL A   1      39.084  30.773  31.098  1.00  0.00    -0.354 N 
ATOM     43  C   UNL A   1      39.138  33.146  34.704  1.00  0.00     0.074 A 
ATOM     44  C   UNL A   1      38.121  34.175  34.664  1.00  0.00     0.031 C 
ATOM     45  C   UNL A   1      38.347  30.126  29.090  1.00  0.00     0.029 A 
ATOM     46  C   UNL A   1      39.353  29.853  30.115  1.00  0.00     0.049 A 
ATOM     47  H   UNL A   1      39.580  30.812  31.949  1.00  0.00     0.167 HD
ATOM     48  C   UNL A   1      39.969  32.935  35.753  1.00  0.00     0.037 A 
ATOM     49  C   UNL A   1      40.315  28.911  30.045  1.00  0.00     0.037 A 
ATOM     50  C   UNL A   1      40.979  31.910  35.796  1.00  0.00     0.049 A 
ATOM     51  C   UNL A   1      41.276  28.745  31.194  1.00  0.00     0.074 A 
ATOM     52  C   UNL A   1      41.860  31.609  36.820  1.00  0.00     0.029 A 
ATOM     53  N   UNL A   1      41.246  31.023  34.765  1.00  0.00    -0.354 N 
ATOM     54  N   UNL A   1      41.322  29.389  32.335  1.00  0.00    -0.248 NA
ATOM     55  C   UNL A   1      42.318  27.719  31.043  1.00  0.00     0.031 C 
ATOM     56  C   UNL A   1      42.690  30.568  36.390  1.00  0.00     0.029 A 
ATOM     57  C   UNL A   1      42.294  30.190  35.118  1.00  0.00     0.049 A 
ATOM     58  H   UNL A   1      40.761  30.990  33.908  1.00  0.00     0.167 HD
ATOM     59  C   UNL A   1      42.375  28.828  33.048  1.00  0.00     0.074 A 
ATOM     60  C   UNL A   1      42.934  27.785  32.215  1.00  0.00     0.031 C 
ATOM     61  C   UNL A   1      42.835  29.149  34.282  1.00  0.00     0.037 A 
BRANCH  48  62
ATOM     62  C   UNL A   1      39.836  33.847  36.936  1.00  0.00     0.064 A 
ATOM     63  C   UNL A   1      40.490  35.087  36.987  1.00  0.00     0.173 A 
ATOM     64  C   UNL A   1      39.011  33.495  38.015  1.00  0.00     0.173 A 
ATOM     65  F   UNL A   1      41.301  35.463  35.985  1.00  0.00    -0.203 F 
ATOM     66  C   UNL A   1      40.342  35.930  38.084  1.00  0.00     0.198 A 
ATOM     67  C   UNL A   1      38.845  34.351  39.099  1.00  0.00     0.198 A 
ATOM     68  F   UNL A   1      38.360  32.322  38.013  1.00  0.00    -0.203 F 
ATOM     69  F   UNL A   1      41.010  37.091  38.131  1.00  0.00    -0.200 F 
ATOM     70  C   UNL A   1      39.514  35.565  39.136  1.00  0.00     0.200 A 
ATOM     71  F   UNL A   1      38.037  34.002  40.109  1.00  0.00    -0.200 F 
ATOM     72  F   UNL A   1      39.367  36.382  40.189  1.00  0.00    -0.200 F 
ENDBRANCH  48  62
BRANCH  49  73
ATOM     73  C   UNL A   1      40.428  28.055  28.835  1.00  0.00     0.064 A 
ATOM     74  C   UNL A   1      41.168  28.471  27.720  1.00  0.00     0.173 A 
ATOM     75  C   UNL A   1      39.778  26.814  28.763  1.00  0.00     0.173 A 
ATOM     76  F   UNL A   1      41.784  29.661  27.732  1.00  0.00    -0.203 F 
ATOM     77  C   UNL A   1      41.239  27.684  26.572  1.00  0.00     0.198 A 
ATOM     78  C   UNL A   1      39.873  26.017  27.625  1.00  0.00     0.198 A 
ATOM     79  F   UNL A   1      39.056  26.372  29.803  1.00  0.00    -0.203 F 
ATOM     80  F   UNL A   1      41.915  28.126  25.502  1.00  0.00    -0.200 F 
ATOM     81  C   UNL A   1      40.597  26.456  26.527  1.00  0.00     0.200 A 
ATOM     82  F   UNL A   1      39.259  24.827  27.590  1.00  0.00    -0.200 F 
ATOM     83  F   UNL A   1      40.667  25.701  25.423  1.00  0.00    -0.200 F 
ENDBRANCH  49  73
BRANCH  61  84
ATOM     84  C   UNL A   1      43.977  28.341  34.825  1.00  0.00     0.064 A 
ATOM     85  C   UNL A   1      43.770  27.113  35.470  1.00  0.00     0.173 A 
ATOM     86  C   UNL A   1      45.299  28.778  34.654  1.00  0.00     0.173 A 
ATOM     87  F   UNL A   1      42.523  26.659  35.671  1.00  0.00    -0.203 F 
ATOM     88  C   UNL A   1      44.843  26.364  35.945  1.00  0.00     0.198 A 
ATOM     89  C   UNL A   1      46.371  28.013  35.105  1.00  0.00     0.198 A 
ATOM     90  F   UNL A   1      45.552  29.942  34.036  1.00  0.00    -0.203 F 
ATOM     91  F   UNL A   1      44.619  25.215  36.598  1.00  0.00    -0.200 F 
ATOM     92  C   UNL A   1      46.143  26.810  35.756  1.00  0.00     0.200 A 
ATOM     93  F   UNL A   1      47.627  28.440  34.909  1.00  0.00    -0.200 F 
ATOM     94  F   UNL A   1      47.174  26.084  36.207  1.00  0.00    -0.200 F 
ENDBRANCH  61  84
ENDBRANCH  35  36
ENDBRANCH  28  30
ENDBRANCH  27  28
ENDBRANCH  26  27
ENDBRANCH  25  26
ENDBRANCH  24  25
ENDBRANCH   1  24
TORSDOF 18
ENDMDL
