MODEL 1
REMARK VINA RESULT:     -11.2      0.000      0.000
REMARK SMILES Cc1nn(-c2ccccc2)c(C)c1CNC(=O)CCCC(=O)OCCOCCOC(=O)c1ccc(-c2c3nc(c(-c4c(F)c(F)c(F)c(F)c4F)c4ccc([nH]4)c(-c4c(F)c(F)c(F)c(F)c4F)c4nc(c(-c5c(F)c(F)c(F)c(F)c5F)c5ccc2[nH]5)C=C4)C=C3)cc1
REMARK SMILES IDX 24 1 23 2 21 3 22 4 20 5 19 6 18 7 16 8 15 9 17 11 14 12
REMARK SMILES IDX 13 13 1 14 2 15 3 16 4 17 11 18 12 19 5 20 6 21 10 22 7 23
REMARK SMILES IDX 9 24 8 25 25 26 26 27 27 28 28 29 29 30 30 31 31 32 32 33
REMARK SMILES IDX 33 34 94 35 34 36 93 37 35 38 36 39 37 40 87 41 38 42 92 43
REMARK SMILES IDX 86 44 88 45 39 46 91 47 85 48 84 49 40 51 72 52 52 53 71 54
REMARK SMILES IDX 53 55 56 56 70 57 89 58 54 59 55 60 69 62 90 63 57 64 41 65
REMARK SMILES IDX 42 66 50 67 43 68 44 69 48 70 51 71 45 72 46 73 49 74 47 75
REMARK SMILES IDX 73 76 74 77 82 78 75 79 76 80 80 81 83 82 77 83 78 84 81 85
REMARK SMILES IDX 79 86 58 87 59 88 67 89 60 90 61 91 65 92 68 93 62 94 63 95
REMARK SMILES IDX 66 96 64 97
REMARK H PARENT 15 10 88 50 56 61
REMARK Flexibility Score: inf
ROOT
ATOM      1  C   UNL A   1      38.900  21.793  26.402  1.00  0.00     0.261 C 
ENDROOT
BRANCH   1   2
ATOM      2  O   UNL A   1      38.279  22.866  25.680  1.00  0.00    -0.463 OA
BRANCH   2   3
ATOM      3  C   UNL A   1      36.927  22.861  25.650  1.00  0.00     0.305 C 
ATOM      4  O   UNL A   1      36.215  23.545  26.374  1.00  0.00    -0.252 OA
BRANCH   3   5
ATOM      5  C   UNL A   1      36.377  22.031  24.516  1.00  0.00     0.123 C 
BRANCH   5   6
ATOM      6  C   UNL A   1      36.163  22.645  23.131  1.00  0.00     0.022 C 
BRANCH   6   7
ATOM      7  C   UNL A   1      35.073  23.694  22.881  1.00  0.00     0.100 C 
BRANCH   7   8
ATOM      8  C   UNL A   1      33.691  23.224  22.473  1.00  0.00     0.220 C 
ATOM      9  N   UNL A   1      32.734  22.923  23.387  1.00  0.00    -0.352 N 
ATOM     10  H   UNL A   1      31.890  22.594  23.001  1.00  0.00     0.163 HD
ATOM     11  O   UNL A   1      33.408  23.088  21.280  1.00  0.00    -0.275 OA
BRANCH   9  12
ATOM     12  C   UNL A   1      32.741  23.004  24.825  1.00  0.00     0.155 C 
BRANCH  12  13
ATOM     13  C   UNL A   1      32.122  24.277  25.322  1.00  0.00     0.016 A 
ATOM     14  C   UNL A   1      30.259  23.199  26.833  1.00  0.00     0.069 C 
ATOM     15  C   UNL A   1      31.029  24.331  26.243  1.00  0.00     0.065 A 
ATOM     16  N   UNL A   1      30.768  25.576  26.649  1.00  0.00    -0.173 NA
ATOM     17  N   UNL A   1      31.599  26.363  25.935  1.00  0.00    -0.237 N 
ATOM     18  C   UNL A   1      32.494  25.614  25.173  1.00  0.00     0.046 A 
ATOM     19  C   UNL A   1      33.708  26.251  24.574  1.00  0.00     0.067 C 
BRANCH  17  20
ATOM     20  C   UNL A   1      31.606  27.774  26.117  1.00  0.00     0.065 A 
ATOM     21  C   UNL A   1      32.149  28.324  27.284  1.00  0.00     0.028 A 
ATOM     22  C   UNL A   1      31.153  28.617  25.095  1.00  0.00     0.028 A 
ATOM     23  C   UNL A   1      32.329  29.707  27.371  1.00  0.00     0.002 A 
ATOM     24  C   UNL A   1      31.332  29.995  25.189  1.00  0.00     0.002 A 
ATOM     25  C   UNL A   1      31.938  30.538  26.318  1.00  0.00     0.000 A 
ENDBRANCH  17  20
ENDBRANCH  12  13
ENDBRANCH   9  12
ENDBRANCH   7   8
ENDBRANCH   6   7
ENDBRANCH   5   6
ENDBRANCH   3   5
ENDBRANCH   2   3
ENDBRANCH   1   2
BRANCH   1  26
ATOM     26  C   UNL A   1      40.411  21.842  26.193  1.00  0.00     0.202 C 
BRANCH  26  27
ATOM     27  O   UNL A   1      41.080  20.622  25.873  1.00  0.00    -0.374 OA
BRANCH  27  28
ATOM     28  C   UNL A   1      42.268  20.234  26.554  1.00  0.00     0.202 C 
BRANCH  28  29
ATOM     29  C   UNL A   1      43.218  19.261  25.872  1.00  0.00     0.261 C 
BRANCH  29  30
ATOM     30  O   UNL A   1      44.519  19.803  25.701  1.00  0.00    -0.460 OA
BRANCH  30  31
ATOM     31  C   UNL A   1      44.672  20.431  24.513  1.00  0.00     0.338 C 
ATOM     32  O   UNL A   1      44.722  19.923  23.411  1.00  0.00    -0.246 OA
BRANCH  31  33
ATOM     33  C   UNL A   1      44.946  21.850  24.751  1.00  0.00     0.060 A 
ATOM     34  C   UNL A   1      45.718  22.117  25.882  1.00  0.00     0.016 A 
ATOM     35  C   UNL A   1      44.178  22.836  24.117  1.00  0.00     0.016 A 
ATOM     36  C   UNL A   1      45.499  23.300  26.539  1.00  0.00     0.010 A 
ATOM     37  C   UNL A   1      43.969  24.026  24.769  1.00  0.00     0.010 A 
ATOM     38  C   UNL A   1      44.550  24.190  26.021  1.00  0.00    -0.014 A 
BRANCH  38  39
ATOM     39  C   UNL A   1      44.274  25.376  26.796  1.00  0.00     0.031 A 
ATOM     40  C   UNL A   1      45.306  26.404  26.567  1.00  0.00     0.074 A 
ATOM     41  C   UNL A   1      43.187  25.497  27.580  1.00  0.00     0.049 A 
ATOM     42  N   UNL A   1      46.243  26.757  27.381  1.00  0.00    -0.248 NA
ATOM     43  C   UNL A   1      45.467  26.922  25.199  1.00  0.00     0.031 C 
ATOM     44  C   UNL A   1      42.019  24.614  27.642  1.00  0.00     0.029 A 
ATOM     45  N   UNL A   1      42.860  26.502  28.439  1.00  0.00    -0.354 N 
ATOM     46  C   UNL A   1      46.969  27.726  26.699  1.00  0.00     0.074 A 
ATOM     47  C   UNL A   1      46.600  27.617  25.316  1.00  0.00     0.031 C 
ATOM     48  C   UNL A   1      41.020  25.241  28.307  1.00  0.00     0.029 A 
ATOM     49  C   UNL A   1      41.527  26.494  28.836  1.00  0.00     0.049 A 
ATOM     50  H   UNL A   1      43.509  27.174  28.752  1.00  0.00     0.167 HD
ATOM     51  C   UNL A   1      47.528  28.753  27.392  1.00  0.00     0.037 A 
ATOM     52  C   UNL A   1      40.896  27.500  29.492  1.00  0.00     0.037 A 
ATOM     53  C   UNL A   1      47.609  28.428  28.795  1.00  0.00     0.049 A 
ATOM     54  C   UNL A   1      41.945  28.319  30.148  1.00  0.00     0.074 A 
ATOM     55  C   UNL A   1      48.370  27.596  29.586  1.00  0.00     0.029 A 
ATOM     56  N   UNL A   1      46.471  28.731  29.495  1.00  0.00    -0.354 N 
ATOM     57  N   UNL A   1      42.680  27.886  31.136  1.00  0.00    -0.248 NA
ATOM     58  C   UNL A   1      42.457  29.499  29.461  1.00  0.00     0.031 C 
ATOM     59  C   UNL A   1      47.554  27.263  30.709  1.00  0.00     0.029 A 
ATOM     60  C   UNL A   1      46.337  27.937  30.598  1.00  0.00     0.049 A 
ATOM     61  H   UNL A   1      45.832  29.433  29.235  1.00  0.00     0.167 HD
ATOM     62  C   UNL A   1      43.921  28.454  30.918  1.00  0.00     0.074 A 
ATOM     63  C   UNL A   1      43.681  29.556  29.993  1.00  0.00     0.031 C 
ATOM     64  C   UNL A   1      45.057  27.776  31.253  1.00  0.00     0.037 A 
BRANCH  51  65
ATOM     65  C   UNL A   1      47.463  30.198  26.934  1.00  0.00     0.064 A 
ATOM     66  C   UNL A   1      48.617  30.996  27.067  1.00  0.00     0.173 A 
ATOM     67  C   UNL A   1      46.264  30.909  26.694  1.00  0.00     0.173 A 
ATOM     68  F   UNL A   1      49.809  30.436  27.322  1.00  0.00    -0.203 F 
ATOM     69  C   UNL A   1      48.559  32.394  27.038  1.00  0.00     0.198 A 
ATOM     70  C   UNL A   1      46.217  32.299  26.615  1.00  0.00     0.198 A 
ATOM     71  F   UNL A   1      45.068  30.314  26.643  1.00  0.00    -0.203 F 
ATOM     72  F   UNL A   1      49.659  33.111  27.293  1.00  0.00    -0.200 F 
ATOM     73  C   UNL A   1      47.358  33.043  26.818  1.00  0.00     0.200 A 
ATOM     74  F   UNL A   1      45.037  32.906  26.428  1.00  0.00    -0.200 F 
ATOM     75  F   UNL A   1      47.286  34.379  26.850  1.00  0.00    -0.200 F 
ENDBRANCH  51  65
BRANCH  52  76
ATOM     76  C   UNL A   1      39.507  27.988  29.327  1.00  0.00     0.064 A 
ATOM     77  C   UNL A   1      38.651  28.130  30.432  1.00  0.00     0.173 A 
ATOM     78  C   UNL A   1      39.094  28.610  28.133  1.00  0.00     0.173 A 
ATOM     79  F   UNL A   1      38.989  27.604  31.619  1.00  0.00    -0.203 F 
ATOM     80  C   UNL A   1      37.471  28.879  30.358  1.00  0.00     0.198 A 
ATOM     81  C   UNL A   1      37.916  29.355  28.058  1.00  0.00     0.198 A 
ATOM     82  F   UNL A   1      39.877  28.593  27.044  1.00  0.00    -0.203 F 
ATOM     83  F   UNL A   1      36.715  29.050  31.451  1.00  0.00    -0.200 F 
ATOM     84  C   UNL A   1      37.113  29.503  29.174  1.00  0.00     0.200 A 
ATOM     85  F   UNL A   1      37.602  29.986  26.919  1.00  0.00    -0.200 F 
ATOM     86  F   UNL A   1      36.022  30.280  29.119  1.00  0.00    -0.200 F 
ENDBRANCH  52  76
BRANCH  64  87
ATOM     87  C   UNL A   1      44.926  26.684  32.269  1.00  0.00     0.064 A 
ATOM     88  C   UNL A   1      44.895  26.883  33.658  1.00  0.00     0.173 A 
ATOM     89  C   UNL A   1      44.741  25.378  31.794  1.00  0.00     0.173 A 
ATOM     90  F   UNL A   1      44.986  28.114  34.180  1.00  0.00    -0.203 F 
ATOM     91  C   UNL A   1      44.727  25.809  34.532  1.00  0.00     0.198 A 
ATOM     92  C   UNL A   1      44.534  24.316  32.666  1.00  0.00     0.198 A 
ATOM     93  F   UNL A   1      44.721  25.140  30.473  1.00  0.00    -0.203 F 
ATOM     94  F   UNL A   1      44.721  26.015  35.857  1.00  0.00    -0.200 F 
ATOM     95  C   UNL A   1      44.539  24.529  34.035  1.00  0.00     0.200 A 
ATOM     96  F   UNL A   1      44.309  23.089  32.177  1.00  0.00    -0.200 F 
ATOM     97  F   UNL A   1      44.341  23.502  34.872  1.00  0.00    -0.200 F 
ENDBRANCH  64  87
ENDBRANCH  38  39
ENDBRANCH  31  33
ENDBRANCH  30  31
ENDBRANCH  29  30
ENDBRANCH  28  29
ENDBRANCH  27  28
ENDBRANCH  26  27
ENDBRANCH   1  26
TORSDOF 20
ENDMDL
MODEL 2
REMARK VINA RESULT:     -11.2      3.628      8.781
REMARK SMILES Cc1nn(-c2ccccc2)c(C)c1CNC(=O)CCCC(=O)OCCOCCOC(=O)c1ccc(-c2c3nc(c(-c4c(F)c(F)c(F)c(F)c4F)c4ccc([nH]4)c(-c4c(F)c(F)c(F)c(F)c4F)c4nc(c(-c5c(F)c(F)c(F)c(F)c5F)c5ccc2[nH]5)C=C4)C=C3)cc1
REMARK SMILES IDX 24 1 23 2 21 3 22 4 20 5 19 6 18 7 16 8 15 9 17 11 14 12
REMARK SMILES IDX 13 13 1 14 2 15 3 16 4 17 11 18 12 19 5 20 6 21 10 22 7 23
REMARK SMILES IDX 9 24 8 25 25 26 26 27 27 28 28 29 29 30 30 31 31 32 32 33
REMARK SMILES IDX 33 34 94 35 34 36 93 37 35 38 36 39 37 40 87 41 38 42 92 43
REMARK SMILES IDX 86 44 88 45 39 46 91 47 85 48 84 49 40 51 72 52 52 53 71 54
REMARK SMILES IDX 53 55 56 56 70 57 89 58 54 59 55 60 69 62 90 63 57 64 41 65
REMARK SMILES IDX 42 66 50 67 43 68 44 69 48 70 51 71 45 72 46 73 49 74 47 75
REMARK SMILES IDX 73 76 74 77 82 78 75 79 76 80 80 81 83 82 77 83 78 84 81 85
REMARK SMILES IDX 79 86 58 87 59 88 67 89 60 90 61 91 65 92 68 93 62 94 63 95
REMARK SMILES IDX 66 96 64 97
REMARK H PARENT 15 10 88 50 56 61
REMARK Flexibility Score: inf
ROOT
ATOM      1  C   UNL A   1      34.273  29.821  27.624  1.00  0.00     0.261 C 
ENDROOT
BRANCH   1   2
ATOM      2  O   UNL A   1      32.856  29.622  27.513  1.00  0.00    -0.463 OA
BRANCH   2   3
ATOM      3  C   UNL A   1      32.434  28.337  27.494  1.00  0.00     0.305 C 
ATOM      4  O   UNL A   1      31.380  27.947  27.979  1.00  0.00    -0.252 OA
BRANCH   3   5
ATOM      5  C   UNL A   1      33.330  27.447  26.669  1.00  0.00     0.123 C 
BRANCH   5   6
ATOM      6  C   UNL A   1      32.740  26.489  25.632  1.00  0.00     0.022 C 
BRANCH   6   7
ATOM      7  C   UNL A   1      32.851  24.968  25.791  1.00  0.00     0.100 C 
BRANCH   7   8
ATOM      8  C   UNL A   1      31.590  24.169  26.050  1.00  0.00     0.220 C 
ATOM      9  N   UNL A   1      30.734  23.832  25.052  1.00  0.00    -0.352 N 
ATOM     10  H   UNL A   1      29.931  23.345  25.350  1.00  0.00     0.163 HD
ATOM     11  O   UNL A   1      31.302  23.816  27.196  1.00  0.00    -0.275 OA
BRANCH   9  12
ATOM     12  C   UNL A   1      30.799  24.065  23.632  1.00  0.00     0.155 C 
BRANCH  12  13
ATOM     13  C   UNL A   1      30.619  25.514  23.288  1.00  0.00     0.016 A 
ATOM     14  C   UNL A   1      32.464  25.667  21.420  1.00  0.00     0.069 C 
ATOM     15  C   UNL A   1      31.363  26.196  22.273  1.00  0.00     0.065 A 
ATOM     16  N   UNL A   1      30.907  27.431  22.054  1.00  0.00    -0.173 NA
ATOM     17  N   UNL A   1      29.942  27.623  22.977  1.00  0.00    -0.237 N 
ATOM     18  C   UNL A   1      29.679  26.460  23.698  1.00  0.00     0.046 A 
ATOM     19  C   UNL A   1      28.438  26.338  24.527  1.00  0.00     0.067 C 
BRANCH  17  20
ATOM     20  C   UNL A   1      29.218  28.845  23.035  1.00  0.00     0.065 A 
ATOM     21  C   UNL A   1      27.836  28.849  22.811  1.00  0.00     0.028 A 
ATOM     22  C   UNL A   1      29.867  30.031  23.402  1.00  0.00     0.028 A 
ATOM     23  C   UNL A   1      27.104  30.013  23.059  1.00  0.00     0.002 A 
ATOM     24  C   UNL A   1      29.133  31.189  23.644  1.00  0.00     0.002 A 
ATOM     25  C   UNL A   1      27.749  31.175  23.492  1.00  0.00     0.000 A 
ENDBRANCH  17  20
ENDBRANCH  12  13
ENDBRANCH   9  12
ENDBRANCH   7   8
ENDBRANCH   6   7
ENDBRANCH   5   6
ENDBRANCH   3   5
ENDBRANCH   2   3
ENDBRANCH   1   2
BRANCH   1  26
ATOM     26  C   UNL A   1      34.589  31.311  27.541  1.00  0.00     0.202 C 
BRANCH  26  27
ATOM     27  O   UNL A   1      33.690  32.221  28.177  1.00  0.00    -0.374 OA
BRANCH  27  28
ATOM     28  C   UNL A   1      34.148  33.466  28.693  1.00  0.00     0.202 C 
BRANCH  28  29
ATOM     29  C   UNL A   1      34.440  33.577  30.182  1.00  0.00     0.261 C 
BRANCH  29  30
ATOM     30  O   UNL A   1      34.451  32.313  30.829  1.00  0.00    -0.460 OA
BRANCH  30  31
ATOM     31  C   UNL A   1      35.571  32.110  31.560  1.00  0.00     0.338 C 
ATOM     32  O   UNL A   1      35.794  32.495  32.689  1.00  0.00    -0.246 OA
BRANCH  31  33
ATOM     33  C   UNL A   1      36.587  31.478  30.715  1.00  0.00     0.060 A 
ATOM     34  C   UNL A   1      36.509  30.087  30.642  1.00  0.00     0.016 A 
ATOM     35  C   UNL A   1      37.739  32.186  30.345  1.00  0.00     0.016 A 
ATOM     36  C   UNL A   1      37.677  29.392  30.465  1.00  0.00     0.010 A 
ATOM     37  C   UNL A   1      38.905  31.487  30.155  1.00  0.00     0.010 A 
ATOM     38  C   UNL A   1      38.872  30.108  30.327  1.00  0.00    -0.014 A 
BRANCH  38  39
ATOM     39  C   UNL A   1      40.090  29.339  30.246  1.00  0.00     0.031 A 
ATOM     40  C   UNL A   1      40.716  29.205  31.574  1.00  0.00     0.074 A 
ATOM     41  C   UNL A   1      40.538  28.805  29.095  1.00  0.00     0.049 A 
ATOM     42  N   UNL A   1      41.774  29.809  31.998  1.00  0.00    -0.248 NA
ATOM     43  C   UNL A   1      39.950  28.517  32.626  1.00  0.00     0.031 C 
ATOM     44  C   UNL A   1      39.830  28.698  27.816  1.00  0.00     0.029 A 
ATOM     45  N   UNL A   1      41.712  28.156  28.853  1.00  0.00    -0.354 N 
ATOM     46  C   UNL A   1      41.936  29.379  33.310  1.00  0.00     0.074 A 
ATOM     47  C   UNL A   1      40.687  28.789  33.705  1.00  0.00     0.031 C 
ATOM     48  C   UNL A   1      40.485  27.826  27.014  1.00  0.00     0.029 A 
ATOM     49  C   UNL A   1      41.722  27.433  27.664  1.00  0.00     0.049 A 
ATOM     50  H   UNL A   1      42.482  28.196  29.464  1.00  0.00     0.167 HD
ATOM     51  C   UNL A   1      43.189  29.230  33.815  1.00  0.00     0.037 A 
ATOM     52  C   UNL A   1      42.665  26.528  27.304  1.00  0.00     0.037 A 
ATOM     53  C   UNL A   1      44.145  29.948  33.007  1.00  0.00     0.049 A 
ATOM     54  C   UNL A   1      43.883  26.827  28.097  1.00  0.00     0.074 A 
ATOM     55  C   UNL A   1      44.483  31.265  32.793  1.00  0.00     0.029 A 
ATOM     56  N   UNL A   1      44.616  29.225  31.943  1.00  0.00    -0.354 N 
ATOM     57  N   UNL A   1      44.596  27.908  27.936  1.00  0.00    -0.248 NA
ATOM     58  C   UNL A   1      44.110  26.109  29.346  1.00  0.00     0.031 C 
ATOM     59  C   UNL A   1      45.009  31.328  31.467  1.00  0.00     0.029 A 
ATOM     60  C   UNL A   1      45.021  30.042  30.926  1.00  0.00     0.049 A 
ATOM     61  H   UNL A   1      44.656  28.242  31.915  1.00  0.00     0.167 HD
ATOM     62  C   UNL A   1      45.020  28.234  29.211  1.00  0.00     0.074 A 
ATOM     63  C   UNL A   1      44.844  27.017  29.997  1.00  0.00     0.031 C 
ATOM     64  C   UNL A   1      45.165  29.541  29.576  1.00  0.00     0.037 A 
BRANCH  51  65
ATOM     65  C   UNL A   1      43.616  28.029  34.638  1.00  0.00     0.064 A 
ATOM     66  C   UNL A   1      43.484  26.745  34.070  1.00  0.00     0.173 A 
ATOM     67  C   UNL A   1      43.825  28.051  36.036  1.00  0.00     0.173 A 
ATOM     68  F   UNL A   1      43.258  26.600  32.757  1.00  0.00    -0.203 F 
ATOM     69  C   UNL A   1      43.484  25.587  34.854  1.00  0.00     0.198 A 
ATOM     70  C   UNL A   1      43.875  26.891  36.806  1.00  0.00     0.198 A 
ATOM     71  F   UNL A   1      43.871  29.184  36.743  1.00  0.00    -0.203 F 
ATOM     72  F   UNL A   1      43.230  24.401  34.287  1.00  0.00    -0.200 F 
ATOM     73  C   UNL A   1      43.674  25.661  36.221  1.00  0.00     0.200 A 
ATOM     74  F   UNL A   1      44.033  26.991  38.134  1.00  0.00    -0.200 F 
ATOM     75  F   UNL A   1      43.614  24.562  36.982  1.00  0.00    -0.200 F 
ENDBRANCH  51  65
BRANCH  52  76
ATOM     76  C   UNL A   1      42.492  25.245  26.582  1.00  0.00     0.064 A 
ATOM     77  C   UNL A   1      43.294  24.922  25.474  1.00  0.00     0.173 A 
ATOM     78  C   UNL A   1      41.752  24.189  27.147  1.00  0.00     0.173 A 
ATOM     79  F   UNL A   1      44.063  25.860  24.902  1.00  0.00    -0.203 F 
ATOM     80  C   UNL A   1      43.378  23.613  24.984  1.00  0.00     0.198 A 
ATOM     81  C   UNL A   1      41.834  22.885  26.657  1.00  0.00     0.198 A 
ATOM     82  F   UNL A   1      41.014  24.382  28.251  1.00  0.00    -0.203 F 
ATOM     83  F   UNL A   1      44.206  23.330  23.969  1.00  0.00    -0.200 F 
ATOM     84  C   UNL A   1      42.659  22.594  25.586  1.00  0.00     0.200 A 
ATOM     85  F   UNL A   1      41.165  21.901  27.273  1.00  0.00    -0.200 F 
ATOM     86  F   UNL A   1      42.793  21.329  25.165  1.00  0.00    -0.200 F 
ENDBRANCH  52  76
BRANCH  64  87
ATOM     87  C   UNL A   1      45.335  30.543  28.476  1.00  0.00     0.064 A 
ATOM     88  C   UNL A   1      44.287  31.259  27.877  1.00  0.00     0.173 A 
ATOM     89  C   UNL A   1      46.643  30.843  28.071  1.00  0.00     0.173 A 
ATOM     90  F   UNL A   1      43.018  31.082  28.270  1.00  0.00    -0.203 F 
ATOM     91  C   UNL A   1      44.541  32.206  26.885  1.00  0.00     0.198 A 
ATOM     92  C   UNL A   1      46.896  31.815  27.111  1.00  0.00     0.198 A 
ATOM     93  F   UNL A   1      47.683  30.216  28.642  1.00  0.00    -0.203 F 
ATOM     94  F   UNL A   1      43.526  32.867  26.309  1.00  0.00    -0.200 F 
ATOM     95  C   UNL A   1      45.845  32.488  26.509  1.00  0.00     0.200 A 
ATOM     96  F   UNL A   1      48.161  32.114  26.786  1.00  0.00    -0.200 F 
ATOM     97  F   UNL A   1      46.093  33.424  25.583  1.00  0.00    -0.200 F 
ENDBRANCH  64  87
ENDBRANCH  38  39
ENDBRANCH  31  33
ENDBRANCH  30  31
ENDBRANCH  29  30
ENDBRANCH  28  29
ENDBRANCH  27  28
ENDBRANCH  26  27
ENDBRANCH   1  26
TORSDOF 20
ENDMDL
MODEL 3
REMARK VINA RESULT:     -11.2      2.921      5.218
REMARK SMILES Cc1nn(-c2ccccc2)c(C)c1CNC(=O)CCCC(=O)OCCOCCOC(=O)c1ccc(-c2c3nc(c(-c4c(F)c(F)c(F)c(F)c4F)c4ccc([nH]4)c(-c4c(F)c(F)c(F)c(F)c4F)c4nc(c(-c5c(F)c(F)c(F)c(F)c5F)c5ccc2[nH]5)C=C4)C=C3)cc1
REMARK SMILES IDX 24 1 23 2 21 3 22 4 20 5 19 6 18 7 16 8 15 9 17 11 14 12
REMARK SMILES IDX 13 13 1 14 2 15 3 16 4 17 11 18 12 19 5 20 6 21 10 22 7 23
REMARK SMILES IDX 9 24 8 25 25 26 26 27 27 28 28 29 29 30 30 31 31 32 32 33
REMARK SMILES IDX 33 34 94 35 34 36 93 37 35 38 36 39 37 40 87 41 38 42 92 43
REMARK SMILES IDX 86 44 88 45 39 46 91 47 85 48 84 49 40 51 72 52 52 53 71 54
REMARK SMILES IDX 53 55 56 56 70 57 89 58 54 59 55 60 69 62 90 63 57 64 41 65
REMARK SMILES IDX 42 66 50 67 43 68 44 69 48 70 51 71 45 72 46 73 49 74 47 75
REMARK SMILES IDX 73 76 74 77 82 78 75 79 76 80 80 81 83 82 77 83 78 84 81 85
REMARK SMILES IDX 79 86 58 87 59 88 67 89 60 90 61 91 65 92 68 93 62 94 63 95
REMARK SMILES IDX 66 96 64 97
REMARK H PARENT 15 10 88 50 56 61
REMARK Flexibility Score: inf
ROOT
ATOM      1  C   UNL A   1      35.007  23.343  24.175  1.00  0.00     0.261 C 
ENDROOT
BRANCH   1   2
ATOM      2  O   UNL A   1      34.743  24.736  24.395  1.00  0.00    -0.463 OA
BRANCH   2   3
ATOM      3  C   UNL A   1      34.142  25.053  25.564  1.00  0.00     0.305 C 
ATOM      4  O   UNL A   1      33.852  24.244  26.436  1.00  0.00    -0.252 OA
BRANCH   3   5
ATOM      5  C   UNL A   1      34.001  26.544  25.756  1.00  0.00     0.123 C 
BRANCH   5   6
ATOM      6  C   UNL A   1      32.798  27.294  25.182  1.00  0.00     0.022 C 
BRANCH   6   7
ATOM      7  C   UNL A   1      31.672  26.559  24.445  1.00  0.00     0.100 C 
BRANCH   7   8
ATOM      8  C   UNL A   1      31.959  25.976  23.075  1.00  0.00     0.220 C 
ATOM      9  N   UNL A   1      31.447  24.784  22.679  1.00  0.00    -0.352 N 
ATOM     10  H   UNL A   1      31.734  24.494  21.782  1.00  0.00     0.163 HD
ATOM     11  O   UNL A   1      32.691  26.579  22.285  1.00  0.00    -0.275 OA
BRANCH   9  12
ATOM     12  C   UNL A   1      30.554  23.870  23.344  1.00  0.00     0.155 C 
BRANCH  12  13
ATOM     13  C   UNL A   1      31.273  22.664  23.874  1.00  0.00     0.016 A 
ATOM     14  C   UNL A   1      30.593  22.929  26.401  1.00  0.00     0.069 C 
ATOM     15  C   UNL A   1      31.248  22.255  25.245  1.00  0.00     0.065 A 
ATOM     16  N   UNL A   1      31.831  21.068  25.430  1.00  0.00    -0.173 NA
ATOM     17  N   UNL A   1      32.338  20.730  24.226  1.00  0.00    -0.237 N 
ATOM     18  C   UNL A   1      31.957  21.630  23.234  1.00  0.00     0.046 A 
ATOM     19  C   UNL A   1      32.111  21.284  21.786  1.00  0.00     0.067 C 
BRANCH  17  20
ATOM     20  C   UNL A   1      33.030  19.501  24.043  1.00  0.00     0.065 A 
ATOM     21  C   UNL A   1      34.339  19.359  24.518  1.00  0.00     0.028 A 
ATOM     22  C   UNL A   1      32.375  18.404  23.469  1.00  0.00     0.028 A 
ATOM     23  C   UNL A   1      34.939  18.097  24.509  1.00  0.00     0.002 A 
ATOM     24  C   UNL A   1      32.979  17.149  23.460  1.00  0.00     0.002 A 
ATOM     25  C   UNL A   1      34.253  16.992  23.998  1.00  0.00     0.000 A 
ENDBRANCH  17  20
ENDBRANCH  12  13
ENDBRANCH   9  12
ENDBRANCH   7   8
ENDBRANCH   6   7
ENDBRANCH   5   6
ENDBRANCH   3   5
ENDBRANCH   2   3
ENDBRANCH   1   2
BRANCH   1  26
ATOM     26  C   UNL A   1      36.452  23.161  23.723  1.00  0.00     0.202 C 
BRANCH  26  27
ATOM     27  O   UNL A   1      37.062  21.887  23.933  1.00  0.00    -0.374 OA
BRANCH  27  28
ATOM     28  C   UNL A   1      37.354  21.419  25.245  1.00  0.00     0.202 C 
BRANCH  28  29
ATOM     29  C   UNL A   1      38.784  21.514  25.754  1.00  0.00     0.261 C 
BRANCH  29  30
ATOM     30  O   UNL A   1      39.030  22.722  26.458  1.00  0.00    -0.460 OA
BRANCH  30  31
ATOM     31  C   UNL A   1      40.205  22.706  27.129  1.00  0.00     0.338 C 
ATOM     32  O   UNL A   1      40.687  21.781  27.750  1.00  0.00    -0.246 OA
BRANCH  31  33
ATOM     33  C   UNL A   1      40.766  24.059  27.148  1.00  0.00     0.060 A 
ATOM     34  C   UNL A   1      41.799  24.255  28.064  1.00  0.00     0.016 A 
ATOM     35  C   UNL A   1      40.060  25.126  26.574  1.00  0.00     0.016 A 
ATOM     36  C   UNL A   1      41.936  25.503  28.614  1.00  0.00     0.010 A 
ATOM     37  C   UNL A   1      40.207  26.378  27.117  1.00  0.00     0.010 A 
ATOM     38  C   UNL A   1      41.065  26.519  28.201  1.00  0.00    -0.014 A 
BRANCH  38  39
ATOM     39  C   UNL A   1      41.174  27.789  28.877  1.00  0.00     0.031 A 
ATOM     40  C   UNL A   1      42.370  28.524  28.426  1.00  0.00     0.074 A 
ATOM     41  C   UNL A   1      40.261  28.220  29.768  1.00  0.00     0.049 A 
ATOM     42  N   UNL A   1      43.465  28.702  29.083  1.00  0.00    -0.248 NA
ATOM     43  C   UNL A   1      42.453  28.889  27.002  1.00  0.00     0.031 C 
ATOM     44  C   UNL A   1      38.944  27.646  30.055  1.00  0.00     0.029 A 
ATOM     45  N   UNL A   1      40.291  29.334  30.552  1.00  0.00    -0.354 N 
ATOM     46  C   UNL A   1      44.290  29.420  28.225  1.00  0.00     0.074 A 
ATOM     47  C   UNL A   1      43.719  29.302  26.913  1.00  0.00     0.031 C 
ATOM     48  C   UNL A   1      38.213  28.538  30.766  1.00  0.00     0.029 A 
ATOM     49  C   UNL A   1      39.058  29.670  31.101  1.00  0.00     0.049 A 
ATOM     50  H   UNL A   1      41.111  29.853  30.715  1.00  0.00     0.167 HD
ATOM     51  C   UNL A   1      45.156  30.333  28.739  1.00  0.00     0.037 A 
ATOM     52  C   UNL A   1      38.767  30.841  31.721  1.00  0.00     0.037 A 
ATOM     53  C   UNL A   1      45.355  30.100  30.148  1.00  0.00     0.049 A 
ATOM     54  C   UNL A   1      40.054  31.433  32.161  1.00  0.00     0.074 A 
ATOM     55  C   UNL A   1      46.010  29.171  30.925  1.00  0.00     0.029 A 
ATOM     56  N   UNL A   1      44.422  30.714  30.943  1.00  0.00    -0.354 N 
ATOM     57  N   UNL A   1      40.801  30.911  33.096  1.00  0.00    -0.248 NA
ATOM     58  C   UNL A   1      40.719  32.406  31.302  1.00  0.00     0.031 C 
ATOM     59  C   UNL A   1      45.302  29.123  32.165  1.00  0.00     0.029 A 
ATOM     60  C   UNL A   1      44.266  30.056  32.129  1.00  0.00     0.049 A 
ATOM     61  H   UNL A   1      43.928  31.526  30.689  1.00  0.00     0.167 HD
ATOM     62  C   UNL A   1      42.096  31.152  32.676  1.00  0.00     0.074 A 
ATOM     63  C   UNL A   1      41.986  32.210  31.678  1.00  0.00     0.031 C 
ATOM     64  C   UNL A   1      43.086  30.250  32.942  1.00  0.00     0.037 A 
BRANCH  51  65
ATOM     65  C   UNL A   1      45.356  31.716  28.147  1.00  0.00     0.064 A 
ATOM     66  C   UNL A   1      44.229  32.549  27.993  1.00  0.00     0.173 A 
ATOM     67  C   UNL A   1      46.507  32.122  27.433  1.00  0.00     0.173 A 
ATOM     68  F   UNL A   1      43.072  32.250  28.601  1.00  0.00    -0.203 F 
ATOM     69  C   UNL A   1      44.236  33.652  27.133  1.00  0.00     0.198 A 
ATOM     70  C   UNL A   1      46.526  33.251  26.617  1.00  0.00     0.198 A 
ATOM     71  F   UNL A   1      47.627  31.393  27.390  1.00  0.00    -0.203 F 
ATOM     72  F   UNL A   1      43.107  34.339  26.923  1.00  0.00    -0.200 F 
ATOM     73  C   UNL A   1      45.383  33.999  26.442  1.00  0.00     0.200 A 
ATOM     74  F   UNL A   1      47.641  33.551  25.937  1.00  0.00    -0.200 F 
ATOM     75  F   UNL A   1      45.377  35.017  25.573  1.00  0.00    -0.200 F 
ENDBRANCH  51  65
BRANCH  52  76
ATOM     76  C   UNL A   1      37.515  31.631  31.670  1.00  0.00     0.064 A 
ATOM     77  C   UNL A   1      36.834  31.987  32.846  1.00  0.00     0.173 A 
ATOM     78  C   UNL A   1      37.130  32.307  30.497  1.00  0.00     0.173 A 
ATOM     79  F   UNL A   1      37.167  31.422  34.016  1.00  0.00    -0.203 F 
ATOM     80  C   UNL A   1      35.853  32.986  32.855  1.00  0.00     0.198 A 
ATOM     81  C   UNL A   1      36.150  33.300  30.505  1.00  0.00     0.198 A 
ATOM     82  F   UNL A   1      37.770  32.090  29.338  1.00  0.00    -0.203 F 
ATOM     83  F   UNL A   1      35.274  33.347  34.009  1.00  0.00    -0.200 F 
ATOM     84  C   UNL A   1      35.522  33.651  31.686  1.00  0.00     0.200 A 
ATOM     85  F   UNL A   1      35.868  33.964  29.375  1.00  0.00    -0.200 F 
ATOM     86  F   UNL A   1      34.636  34.656  31.704  1.00  0.00    -0.200 F 
ENDBRANCH  52  76
BRANCH  64  87
ATOM     87  C   UNL A   1      42.853  29.296  34.073  1.00  0.00     0.064 A 
ATOM     88  C   UNL A   1      42.159  28.081  33.964  1.00  0.00     0.173 A 
ATOM     89  C   UNL A   1      43.440  29.602  35.308  1.00  0.00     0.173 A 
ATOM     90  F   UNL A   1      41.641  27.685  32.794  1.00  0.00    -0.203 F 
ATOM     91  C   UNL A   1      42.027  27.230  35.062  1.00  0.00     0.198 A 
ATOM     92  C   UNL A   1      43.340  28.734  36.390  1.00  0.00     0.198 A 
ATOM     93  F   UNL A   1      44.150  30.732  35.454  1.00  0.00    -0.203 F 
ATOM     94  F   UNL A   1      41.342  26.083  34.945  1.00  0.00    -0.200 F 
ATOM     95  C   UNL A   1      42.623  27.555  36.270  1.00  0.00     0.200 A 
ATOM     96  F   UNL A   1      43.957  29.033  37.540  1.00  0.00    -0.200 F 
ATOM     97  F   UNL A   1      42.528  26.721  37.315  1.00  0.00    -0.200 F 
ENDBRANCH  64  87
ENDBRANCH  38  39
ENDBRANCH  31  33
ENDBRANCH  30  31
ENDBRANCH  29  30
ENDBRANCH  28  29
ENDBRANCH  27  28
ENDBRANCH  26  27
ENDBRANCH   1  26
TORSDOF 20
ENDMDL
