MODEL 1
REMARK VINA RESULT:     -11.4      0.000      0.000
REMARK SMILES C[C@H]1CCC[C@@H]([NH2+]Cc2ccc(C(=O)OCCOCCOC(=O)c3ccc(-c4c5nc(c(-c6c(F)c(F)c(F)c(F)c6F)c6ccc([nH]6)c(-c6c(F)c(F)c(F)c(F)c6F)c6nc(c(-c7c(F)c(F)c(F)c(F)c7F)c7ccc4[nH]7)C=C6)C=C5)cc3)cn2)C1
REMARK SMILES IDX 17 1 16 2 15 3 13 4 14 5 12 6 9 7 10 8 88 9 11 10 87 11 8 12
REMARK SMILES IDX 7 13 6 16 1 17 2 18 3 19 89 20 4 21 5 22 18 23 19 24 20 25
REMARK SMILES IDX 21 26 22 27 23 28 24 29 25 30 86 31 26 32 85 33 27 34 28 35
REMARK SMILES IDX 29 36 79 37 30 38 84 39 78 40 80 41 31 42 83 43 77 44 76 45
REMARK SMILES IDX 32 47 64 48 44 49 63 50 45 51 48 52 62 53 81 54 46 55 47 56
REMARK SMILES IDX 61 58 82 59 49 60 33 61 34 62 42 63 35 64 36 65 40 66 43 67
REMARK SMILES IDX 37 68 38 69 41 70 39 71 65 72 66 73 74 74 67 75 68 76 72 77
REMARK SMILES IDX 75 78 69 79 70 80 73 81 71 82 50 83 51 84 59 85 52 86 53 87
REMARK SMILES IDX 57 88 60 89 54 90 55 91 58 92 56 93
REMARK H PARENT 7 14 7 15 80 46 48 57
REMARK Flexibility Score: inf
ROOT
ATOM      1  C   UNL A   1      32.595  28.731  23.941  1.00  0.00     0.202 C 
ENDROOT
BRANCH   1   2
ATOM      2  C   UNL A   1      32.571  27.251  24.334  1.00  0.00     0.261 C 
BRANCH   2   3
ATOM      3  O   UNL A   1      33.702  26.552  23.791  1.00  0.00    -0.460 OA
BRANCH   3   4
ATOM      4  C   UNL A   1      33.449  25.851  22.659  1.00  0.00     0.339 C 
ATOM      5  O   UNL A   1      33.650  26.222  21.511  1.00  0.00    -0.246 OA
BRANCH   4   6
ATOM      6  C   UNL A   1      33.026  24.482  22.990  1.00  0.00     0.078 A 
ATOM      7  C   UNL A   1      32.486  21.856  23.614  1.00  0.00     0.094 A 
ATOM      8  C   UNL A   1      31.453  22.673  23.142  1.00  0.00     0.031 A 
ATOM      9  N   UNL A   1      33.732  22.337  23.856  1.00  0.00    -0.254 NA
ATOM     10  C   UNL A   1      31.728  24.002  22.821  1.00  0.00     0.019 A 
ATOM     11  C   UNL A   1      33.975  23.627  23.530  1.00  0.00     0.127 A 
BRANCH   7  12
ATOM     12  C   UNL A   1      32.278  20.361  23.806  1.00  0.00     0.318 C 
BRANCH  12  13
ATOM     13  N   UNL A   1      32.408  19.987  25.219  1.00  0.00    -0.339 N 
ATOM     14  H   UNL A   1      32.746  20.801  25.732  1.00  0.00     0.346 HD
ATOM     15  H   UNL A   1      31.485  19.674  25.516  1.00  0.00     0.346 HD
BRANCH  13  16
ATOM     16  C   UNL A   1      33.321  18.873  25.487  1.00  0.00     0.182 C 
ATOM     17  C   UNL A   1      32.364  15.104  25.739  1.00  0.00     0.008 C 
ATOM     18  C   UNL A   1      33.276  16.331  25.748  1.00  0.00    -0.008 C 
ATOM     19  C   UNL A   1      34.360  16.210  24.673  1.00  0.00     0.004 C 
ATOM     20  C   UNL A   1      32.449  17.605  25.544  1.00  0.00     0.068 C 
ATOM     21  C   UNL A   1      35.234  17.457  24.617  1.00  0.00     0.006 C 
ATOM     22  C   UNL A   1      34.405  18.723  24.408  1.00  0.00     0.065 C 
ENDBRANCH  13  16
ENDBRANCH  12  13
ENDBRANCH   7  12
ENDBRANCH   4   6
ENDBRANCH   3   4
ENDBRANCH   2   3
ENDBRANCH   1   2
BRANCH   1  23
ATOM     23  O   UNL A   1      32.735  29.674  25.001  1.00  0.00    -0.374 OA
BRANCH  23  24
ATOM     24  C   UNL A   1      31.553  30.324  25.469  1.00  0.00     0.202 C 
BRANCH  24  25
ATOM     25  C   UNL A   1      31.740  31.471  26.469  1.00  0.00     0.261 C 
BRANCH  25  26
ATOM     26  O   UNL A   1      32.771  31.192  27.433  1.00  0.00    -0.460 OA
BRANCH  26  27
ATOM     27  C   UNL A   1      33.655  32.199  27.624  1.00  0.00     0.338 C 
ATOM     28  O   UNL A   1      33.426  33.400  27.622  1.00  0.00    -0.246 OA
BRANCH  27  29
ATOM     29  C   UNL A   1      34.961  31.651  28.027  1.00  0.00     0.060 A 
ATOM     30  C   UNL A   1      35.039  30.274  28.272  1.00  0.00     0.016 A 
ATOM     31  C   UNL A   1      36.068  32.475  28.240  1.00  0.00     0.016 A 
ATOM     32  C   UNL A   1      36.212  29.720  28.780  1.00  0.00     0.010 A 
ATOM     33  C   UNL A   1      37.242  31.919  28.758  1.00  0.00     0.010 A 
ATOM     34  C   UNL A   1      37.307  30.547  29.064  1.00  0.00    -0.014 A 
BRANCH  34  35
ATOM     35  C   UNL A   1      38.460  30.002  29.821  1.00  0.00     0.031 A 
ATOM     36  C   UNL A   1      38.692  30.468  31.230  1.00  0.00     0.074 A 
ATOM     37  C   UNL A   1      39.275  29.087  29.267  1.00  0.00     0.049 A 
ATOM     38  N   UNL A   1      39.661  30.169  32.057  1.00  0.00    -0.248 NA
ATOM     39  C   UNL A   1      37.698  31.404  31.781  1.00  0.00     0.031 C 
ATOM     40  C   UNL A   1      39.127  28.526  27.926  1.00  0.00     0.029 A 
ATOM     41  N   UNL A   1      40.396  28.474  29.769  1.00  0.00    -0.354 N 
ATOM     42  C   UNL A   1      39.400  30.884  33.220  1.00  0.00     0.074 A 
ATOM     43  C   UNL A   1      38.200  31.657  32.981  1.00  0.00     0.031 C 
ATOM     44  C   UNL A   1      40.129  27.658  27.705  1.00  0.00     0.029 A 
ATOM     45  C   UNL A   1      41.006  27.630  28.875  1.00  0.00     0.049 A 
ATOM     46  H   UNL A   1      40.731  28.626  30.682  1.00  0.00     0.167 HD
ATOM     47  C   UNL A   1      40.092  30.886  34.384  1.00  0.00     0.037 A 
ATOM     48  C   UNL A   1      42.155  26.935  28.982  1.00  0.00     0.037 A 
ATOM     49  C   UNL A   1      41.283  30.111  34.618  1.00  0.00     0.049 A 
ATOM     50  C   UNL A   1      42.947  27.012  30.262  1.00  0.00     0.074 A 
ATOM     51  C   UNL A   1      42.046  30.028  35.770  1.00  0.00     0.029 A 
ATOM     52  N   UNL A   1      41.887  29.290  33.678  1.00  0.00    -0.354 N 
ATOM     53  N   UNL A   1      42.682  27.670  31.364  1.00  0.00    -0.248 NA
ATOM     54  C   UNL A   1      44.200  26.244  30.312  1.00  0.00     0.031 C 
ATOM     55  C   UNL A   1      43.143  29.202  35.509  1.00  0.00     0.029 A 
ATOM     56  C   UNL A   1      43.032  28.721  34.214  1.00  0.00     0.049 A 
ATOM     57  H   UNL A   1      41.555  29.136  32.764  1.00  0.00     0.167 HD
ATOM     58  C   UNL A   1      43.713  27.372  32.247  1.00  0.00     0.074 A 
ATOM     59  C   UNL A   1      44.603  26.464  31.556  1.00  0.00     0.031 C 
ATOM     60  C   UNL A   1      43.904  27.811  33.516  1.00  0.00     0.037 A 
BRANCH  47  61
ATOM     61  C   UNL A   1      39.595  31.778  35.485  1.00  0.00     0.064 A 
ATOM     62  C   UNL A   1      40.050  33.098  35.630  1.00  0.00     0.173 A 
ATOM     63  C   UNL A   1      38.626  31.316  36.388  1.00  0.00     0.173 A 
ATOM     64  F   UNL A   1      40.987  33.584  34.802  1.00  0.00    -0.203 F 
ATOM     65  C   UNL A   1      39.573  33.912  36.654  1.00  0.00     0.198 A 
ATOM     66  C   UNL A   1      38.128  32.143  37.391  1.00  0.00     0.198 A 
ATOM     67  F   UNL A   1      38.154  30.064  36.292  1.00  0.00    -0.203 F 
ATOM     68  F   UNL A   1      40.057  35.152  36.804  1.00  0.00    -0.200 F 
ATOM     69  C   UNL A   1      38.607  33.436  37.529  1.00  0.00     0.200 A 
ATOM     70  F   UNL A   1      37.186  31.685  38.227  1.00  0.00    -0.200 F 
ATOM     71  F   UNL A   1      38.143  34.223  38.509  1.00  0.00    -0.200 F 
ENDBRANCH  47  61
BRANCH  48  72
ATOM     72  C   UNL A   1      42.635  26.114  27.841  1.00  0.00     0.064 A 
ATOM     73  C   UNL A   1      42.192  24.797  27.658  1.00  0.00     0.173 A 
ATOM     74  C   UNL A   1      43.565  26.622  26.920  1.00  0.00     0.173 A 
ATOM     75  F   UNL A   1      41.324  24.257  28.526  1.00  0.00    -0.203 F 
ATOM     76  C   UNL A   1      42.672  24.014  26.610  1.00  0.00     0.198 A 
ATOM     77  C   UNL A   1      44.021  25.849  25.855  1.00  0.00     0.198 A 
ATOM     78  F   UNL A   1      44.023  27.876  27.050  1.00  0.00    -0.203 F 
ATOM     79  F   UNL A   1      42.268  22.742  26.488  1.00  0.00    -0.200 F 
ATOM     80  C   UNL A   1      43.582  24.542  25.706  1.00  0.00     0.200 A 
ATOM     81  F   UNL A   1      44.890  26.368  24.977  1.00  0.00    -0.200 F 
ATOM     82  F   UNL A   1      44.041  23.789  24.698  1.00  0.00    -0.200 F 
ENDBRANCH  48  72
BRANCH  60  83
ATOM     83  C   UNL A   1      45.100  27.282  34.258  1.00  0.00     0.064 A 
ATOM     84  C   UNL A   1      46.334  27.949  34.240  1.00  0.00     0.173 A 
ATOM     85  C   UNL A   1      44.995  26.116  35.031  1.00  0.00     0.173 A 
ATOM     86  F   UNL A   1      46.490  29.061  33.506  1.00  0.00    -0.203 F 
ATOM     87  C   UNL A   1      47.426  27.452  34.948  1.00  0.00     0.198 A 
ATOM     88  C   UNL A   1      46.080  25.640  35.763  1.00  0.00     0.198 A 
ATOM     89  F   UNL A   1      43.835  25.445  35.089  1.00  0.00    -0.203 F 
ATOM     90  F   UNL A   1      48.609  28.077  34.876  1.00  0.00    -0.200 F 
ATOM     91  C   UNL A   1      47.296  26.303  35.714  1.00  0.00     0.200 A 
ATOM     92  F   UNL A   1      45.947  24.538  36.515  1.00  0.00    -0.200 F 
ATOM     93  F   UNL A   1      48.346  25.831  36.401  1.00  0.00    -0.200 F 
ENDBRANCH  60  83
ENDBRANCH  34  35
ENDBRANCH  27  29
ENDBRANCH  26  27
ENDBRANCH  25  26
ENDBRANCH  24  25
ENDBRANCH  23  24
ENDBRANCH   1  23
TORSDOF 17
ENDMDL
MODEL 2
REMARK VINA RESULT:     -11.4      4.999      8.341
REMARK SMILES C[C@H]1CCC[C@@H]([NH2+]Cc2ccc(C(=O)OCCOCCOC(=O)c3ccc(-c4c5nc(c(-c6c(F)c(F)c(F)c(F)c6F)c6ccc([nH]6)c(-c6c(F)c(F)c(F)c(F)c6F)c6nc(c(-c7c(F)c(F)c(F)c(F)c7F)c7ccc4[nH]7)C=C6)C=C5)cc3)cn2)C1
REMARK SMILES IDX 17 1 16 2 15 3 13 4 14 5 12 6 9 7 10 8 88 9 11 10 87 11 8 12
REMARK SMILES IDX 7 13 6 16 1 17 2 18 3 19 89 20 4 21 5 22 18 23 19 24 20 25
REMARK SMILES IDX 21 26 22 27 23 28 24 29 25 30 86 31 26 32 85 33 27 34 28 35
REMARK SMILES IDX 29 36 79 37 30 38 84 39 78 40 80 41 31 42 83 43 77 44 76 45
REMARK SMILES IDX 32 47 64 48 44 49 63 50 45 51 48 52 62 53 81 54 46 55 47 56
REMARK SMILES IDX 61 58 82 59 49 60 33 61 34 62 42 63 35 64 36 65 40 66 43 67
REMARK SMILES IDX 37 68 38 69 41 70 39 71 65 72 66 73 74 74 67 75 68 76 72 77
REMARK SMILES IDX 75 78 69 79 70 80 73 81 71 82 50 83 51 84 59 85 52 86 53 87
REMARK SMILES IDX 57 88 60 89 54 90 55 91 58 92 56 93
REMARK H PARENT 7 14 7 15 80 46 48 57
REMARK Flexibility Score: inf
ROOT
ATOM      1  C   UNL A   1      34.415  33.619  32.974  1.00  0.00     0.202 C 
ENDROOT
BRANCH   1   2
ATOM      2  C   UNL A   1      35.601  32.665  33.147  1.00  0.00     0.261 C 
BRANCH   2   3
ATOM      3  O   UNL A   1      36.131  32.732  34.479  1.00  0.00    -0.460 OA
BRANCH   3   4
ATOM      4  C   UNL A   1      37.339  33.337  34.582  1.00  0.00     0.339 C 
ATOM      5  O   UNL A   1      37.552  34.542  34.607  1.00  0.00    -0.246 OA
BRANCH   4   6
ATOM      6  C   UNL A   1      38.393  32.338  34.818  1.00  0.00     0.078 A 
ATOM      7  C   UNL A   1      40.222  30.385  35.460  1.00  0.00     0.094 A 
ATOM      8  C   UNL A   1      40.595  31.411  34.585  1.00  0.00     0.031 A 
ATOM      9  N   UNL A   1      38.958  30.272  35.940  1.00  0.00    -0.254 NA
ATOM     10  C   UNL A   1      39.670  32.404  34.264  1.00  0.00     0.019 A 
ATOM     11  C   UNL A   1      38.081  31.250  35.619  1.00  0.00     0.127 A 
BRANCH   7  12
ATOM     12  C   UNL A   1      41.245  29.386  35.980  1.00  0.00     0.318 C 
BRANCH  12  13
ATOM     13  N   UNL A   1      41.152  28.112  35.258  1.00  0.00    -0.339 N 
ATOM     14  H   UNL A   1      40.502  27.509  35.763  1.00  0.00     0.346 HD
ATOM     15  H   UNL A   1      40.845  28.342  34.314  1.00  0.00     0.346 HD
BRANCH  13  16
ATOM     16  C   UNL A   1      42.416  27.387  35.109  1.00  0.00     0.182 C 
ATOM     17  C   UNL A   1      42.857  23.522  34.888  1.00  0.00     0.008 C 
ATOM     18  C   UNL A   1      43.281  24.990  34.912  1.00  0.00    -0.008 C 
ATOM     19  C   UNL A   1      44.006  25.367  33.617  1.00  0.00     0.004 C 
ATOM     20  C   UNL A   1      42.060  25.889  35.132  1.00  0.00     0.068 C 
ATOM     21  C   UNL A   1      44.372  26.847  33.590  1.00  0.00     0.006 C 
ATOM     22  C   UNL A   1      43.150  27.737  33.804  1.00  0.00     0.065 C 
ENDBRANCH  13  16
ENDBRANCH  12  13
ENDBRANCH   7  12
ENDBRANCH   4   6
ENDBRANCH   3   4
ENDBRANCH   2   3
ENDBRANCH   1   2
BRANCH   1  23
ATOM     23  O   UNL A   1      33.844  33.704  31.670  1.00  0.00    -0.374 OA
BRANCH  23  24
ATOM     24  C   UNL A   1      34.676  34.183  30.613  1.00  0.00     0.202 C 
BRANCH  24  25
ATOM     25  C   UNL A   1      34.813  33.287  29.376  1.00  0.00     0.261 C 
BRANCH  25  26
ATOM     26  O   UNL A   1      34.806  31.888  29.713  1.00  0.00    -0.460 OA
BRANCH  26  27
ATOM     27  C   UNL A   1      34.913  31.051  28.655  1.00  0.00     0.338 C 
ATOM     28  O   UNL A   1      34.167  30.972  27.690  1.00  0.00    -0.246 OA
BRANCH  27  29
ATOM     29  C   UNL A   1      36.192  30.323  28.718  1.00  0.00     0.060 A 
ATOM     30  C   UNL A   1      36.520  29.693  29.925  1.00  0.00     0.016 A 
ATOM     31  C   UNL A   1      37.089  30.322  27.648  1.00  0.00     0.016 A 
ATOM     32  C   UNL A   1      37.771  29.101  30.087  1.00  0.00     0.010 A 
ATOM     33  C   UNL A   1      38.347  29.735  27.814  1.00  0.00     0.010 A 
ATOM     34  C   UNL A   1      38.707  29.155  29.045  1.00  0.00    -0.014 A 
BRANCH  34  35
ATOM     35  C   UNL A   1      40.108  28.740  29.297  1.00  0.00     0.031 A 
ATOM     36  C   UNL A   1      41.015  29.663  30.062  1.00  0.00     0.074 A 
ATOM     37  C   UNL A   1      40.560  27.548  28.869  1.00  0.00     0.049 A 
ATOM     38  N   UNL A   1      42.284  29.532  30.352  1.00  0.00    -0.248 NA
ATOM     39  C   UNL A   1      40.408  30.906  30.565  1.00  0.00     0.031 C 
ATOM     40  C   UNL A   1      39.766  26.551  28.156  1.00  0.00     0.029 A 
ATOM     41  N   UNL A   1      41.806  26.980  28.970  1.00  0.00    -0.354 N 
ATOM     42  C   UNL A   1      42.630  30.675  31.062  1.00  0.00     0.074 A 
ATOM     43  C   UNL A   1      41.445  31.504  31.131  1.00  0.00     0.031 C 
ATOM     44  C   UNL A   1      40.547  25.495  27.871  1.00  0.00     0.029 A 
ATOM     45  C   UNL A   1      41.903  25.759  28.352  1.00  0.00     0.049 A 
ATOM     46  H   UNL A   1      42.557  27.408  29.441  1.00  0.00     0.167 HD
ATOM     47  C   UNL A   1      43.823  30.998  31.614  1.00  0.00     0.037 A 
ATOM     48  C   UNL A   1      42.971  24.958  28.173  1.00  0.00     0.037 A 
ATOM     49  C   UNL A   1      44.997  30.167  31.547  1.00  0.00     0.049 A 
ATOM     50  C   UNL A   1      44.307  25.375  28.734  1.00  0.00     0.074 A 
ATOM     51  C   UNL A   1      46.249  30.395  32.092  1.00  0.00     0.029 A 
ATOM     52  N   UNL A   1      45.065  28.950  30.885  1.00  0.00    -0.354 N 
ATOM     53  N   UNL A   1      44.620  26.445  29.424  1.00  0.00    -0.248 NA
ATOM     54  C   UNL A   1      45.438  24.467  28.493  1.00  0.00     0.031 C 
ATOM     55  C   UNL A   1      47.089  29.344  31.713  1.00  0.00     0.029 A 
ATOM     56  C   UNL A   1      46.346  28.430  30.983  1.00  0.00     0.049 A 
ATOM     57  H   UNL A   1      44.315  28.519  30.415  1.00  0.00     0.167 HD
ATOM     58  C   UNL A   1      45.971  26.325  29.726  1.00  0.00     0.074 A 
ATOM     59  C   UNL A   1      46.416  25.071  29.154  1.00  0.00     0.031 C 
ATOM     60  C   UNL A   1      46.772  27.176  30.416  1.00  0.00     0.037 A 
BRANCH  47  61
ATOM     61  C   UNL A   1      43.928  32.321  32.316  1.00  0.00     0.064 A 
ATOM     62  C   UNL A   1      44.045  33.527  31.607  1.00  0.00     0.173 A 
ATOM     63  C   UNL A   1      43.876  32.387  33.716  1.00  0.00     0.173 A 
ATOM     64  F   UNL A   1      44.113  33.519  30.267  1.00  0.00    -0.203 F 
ATOM     65  C   UNL A   1      44.135  34.746  32.275  1.00  0.00     0.198 A 
ATOM     66  C   UNL A   1      43.934  33.609  34.380  1.00  0.00     0.198 A 
ATOM     67  F   UNL A   1      43.760  31.266  34.442  1.00  0.00    -0.203 F 
ATOM     68  F   UNL A   1      44.296  35.880  31.580  1.00  0.00    -0.200 F 
ATOM     69  C   UNL A   1      44.072  34.786  33.661  1.00  0.00     0.200 A 
ATOM     70  F   UNL A   1      43.860  33.647  35.717  1.00  0.00    -0.200 F 
ATOM     71  F   UNL A   1      44.150  35.960  34.302  1.00  0.00    -0.200 F 
ENDBRANCH  47  61
BRANCH  48  72
ATOM     72  C   UNL A   1      42.829  23.686  27.419  1.00  0.00     0.064 A 
ATOM     73  C   UNL A   1      42.336  22.529  28.036  1.00  0.00     0.173 A 
ATOM     74  C   UNL A   1      43.203  23.596  26.070  1.00  0.00     0.173 A 
ATOM     75  F   UNL A   1      41.989  22.558  29.332  1.00  0.00    -0.203 F 
ATOM     76  C   UNL A   1      42.238  21.326  27.339  1.00  0.00     0.198 A 
ATOM     77  C   UNL A   1      43.077  22.400  25.365  1.00  0.00     0.198 A 
ATOM     78  F   UNL A   1      43.683  24.673  25.431  1.00  0.00    -0.203 F 
ATOM     79  F   UNL A   1      41.810  20.223  27.968  1.00  0.00    -0.200 F 
ATOM     80  C   UNL A   1      42.604  21.263  26.003  1.00  0.00     0.200 A 
ATOM     81  F   UNL A   1      43.419  22.349  24.070  1.00  0.00    -0.200 F 
ATOM     82  F   UNL A   1      42.508  20.108  25.333  1.00  0.00    -0.200 F 
ENDBRANCH  48  72
BRANCH  60  83
ATOM     83  C   UNL A   1      48.201  26.762  30.628  1.00  0.00     0.064 A 
ATOM     84  C   UNL A   1      48.577  25.921  31.686  1.00  0.00     0.173 A 
ATOM     85  C   UNL A   1      49.199  27.178  29.734  1.00  0.00     0.173 A 
ATOM     86  F   UNL A   1      47.663  25.506  32.576  1.00  0.00    -0.203 F 
ATOM     87  C   UNL A   1      49.904  25.535  31.856  1.00  0.00     0.198 A 
ATOM     88  C   UNL A   1      50.519  26.763  29.888  1.00  0.00     0.198 A 
ATOM     89  F   UNL A   1      48.892  27.976  28.700  1.00  0.00    -0.203 F 
ATOM     90  F   UNL A   1      50.249  24.773  32.903  1.00  0.00    -0.200 F 
ATOM     91  C   UNL A   1      50.873  25.950  30.954  1.00  0.00     0.200 A 
ATOM     92  F   UNL A   1      51.450  27.153  29.006  1.00  0.00    -0.200 F 
ATOM     93  F   UNL A   1      52.148  25.571  31.115  1.00  0.00    -0.200 F 
ENDBRANCH  60  83
ENDBRANCH  34  35
ENDBRANCH  27  29
ENDBRANCH  26  27
ENDBRANCH  25  26
ENDBRANCH  24  25
ENDBRANCH  23  24
ENDBRANCH   1  23
TORSDOF 17
ENDMDL
MODEL 3
REMARK VINA RESULT:     -11.3      4.388      6.679
REMARK SMILES C[C@H]1CCC[C@@H]([NH2+]Cc2ccc(C(=O)OCCOCCOC(=O)c3ccc(-c4c5nc(c(-c6c(F)c(F)c(F)c(F)c6F)c6ccc([nH]6)c(-c6c(F)c(F)c(F)c(F)c6F)c6nc(c(-c7c(F)c(F)c(F)c(F)c7F)c7ccc4[nH]7)C=C6)C=C5)cc3)cn2)C1
REMARK SMILES IDX 17 1 16 2 15 3 13 4 14 5 12 6 9 7 10 8 88 9 11 10 87 11 8 12
REMARK SMILES IDX 7 13 6 16 1 17 2 18 3 19 89 20 4 21 5 22 18 23 19 24 20 25
REMARK SMILES IDX 21 26 22 27 23 28 24 29 25 30 86 31 26 32 85 33 27 34 28 35
REMARK SMILES IDX 29 36 79 37 30 38 84 39 78 40 80 41 31 42 83 43 77 44 76 45
REMARK SMILES IDX 32 47 64 48 44 49 63 50 45 51 48 52 62 53 81 54 46 55 47 56
REMARK SMILES IDX 61 58 82 59 49 60 33 61 34 62 42 63 35 64 36 65 40 66 43 67
REMARK SMILES IDX 37 68 38 69 41 70 39 71 65 72 66 73 74 74 67 75 68 76 72 77
REMARK SMILES IDX 75 78 69 79 70 80 73 81 71 82 50 83 51 84 59 85 52 86 53 87
REMARK SMILES IDX 57 88 60 89 54 90 55 91 58 92 56 93
REMARK H PARENT 7 14 7 15 80 46 48 57
REMARK Flexibility Score: inf
ROOT
ATOM      1  C   UNL A   1      34.289  32.563  27.984  1.00  0.00     0.202 C 
ENDROOT
BRANCH   1   2
ATOM      2  C   UNL A   1      33.450  31.309  27.722  1.00  0.00     0.261 C 
BRANCH   2   3
ATOM      3  O   UNL A   1      33.967  30.561  26.611  1.00  0.00    -0.460 OA
BRANCH   3   4
ATOM      4  C   UNL A   1      34.383  29.307  26.913  1.00  0.00     0.339 C 
ATOM      5  O   UNL A   1      34.970  28.957  27.928  1.00  0.00    -0.246 OA
BRANCH   4   6
ATOM      6  C   UNL A   1      33.899  28.351  25.905  1.00  0.00     0.078 A 
ATOM      7  C   UNL A   1      32.985  26.386  24.210  1.00  0.00     0.094 A 
ATOM      8  C   UNL A   1      33.524  27.558  23.670  1.00  0.00     0.031 A 
ATOM      9  N   UNL A   1      32.819  26.218  25.546  1.00  0.00    -0.254 NA
ATOM     10  C   UNL A   1      33.993  28.552  24.529  1.00  0.00     0.019 A 
ATOM     11  C   UNL A   1      33.286  27.193  26.358  1.00  0.00     0.127 A 
BRANCH   7  12
ATOM     12  C   UNL A   1      32.629  25.204  23.320  1.00  0.00     0.318 C 
BRANCH  12  13
ATOM     13  N   UNL A   1      33.773  24.299  23.160  1.00  0.00    -0.339 N 
ATOM     14  H   UNL A   1      33.687  23.837  22.254  1.00  0.00     0.346 HD
ATOM     15  H   UNL A   1      34.607  24.879  23.243  1.00  0.00     0.346 HD
BRANCH  13  16
ATOM     16  C   UNL A   1      33.895  23.262  24.187  1.00  0.00     0.182 C 
ATOM     17  C   UNL A   1      32.586  19.600  23.948  1.00  0.00     0.008 C 
ATOM     18  C   UNL A   1      33.272  20.813  24.574  1.00  0.00    -0.008 C 
ATOM     19  C   UNL A   1      34.736  20.502  24.899  1.00  0.00     0.004 C 
ATOM     20  C   UNL A   1      33.170  22.021  23.635  1.00  0.00     0.068 C 
ATOM     21  C   UNL A   1      35.459  21.724  25.456  1.00  0.00     0.006 C 
ATOM     22  C   UNL A   1      35.358  22.921  24.513  1.00  0.00     0.065 C 
ENDBRANCH  13  16
ENDBRANCH  12  13
ENDBRANCH   7  12
ENDBRANCH   4   6
ENDBRANCH   3   4
ENDBRANCH   2   3
ENDBRANCH   1   2
BRANCH   1  23
ATOM     23  O   UNL A   1      33.710  33.560  28.822  1.00  0.00    -0.374 OA
BRANCH  23  24
ATOM     24  C   UNL A   1      34.551  34.175  29.798  1.00  0.00     0.202 C 
BRANCH  24  25
ATOM     25  C   UNL A   1      34.291  33.815  31.266  1.00  0.00     0.261 C 
BRANCH  25  26
ATOM     26  O   UNL A   1      34.501  32.416  31.530  1.00  0.00    -0.460 OA
BRANCH  26  27
ATOM     27  C   UNL A   1      35.493  32.148  32.410  1.00  0.00     0.338 C 
ATOM     28  O   UNL A   1      35.498  32.362  33.614  1.00  0.00    -0.246 OA
BRANCH  27  29
ATOM     29  C   UNL A   1      36.556  31.373  31.748  1.00  0.00     0.060 A 
ATOM     30  C   UNL A   1      37.606  30.901  32.544  1.00  0.00     0.016 A 
ATOM     31  C   UNL A   1      36.569  31.179  30.365  1.00  0.00     0.016 A 
ATOM     32  C   UNL A   1      38.703  30.276  31.956  1.00  0.00     0.010 A 
ATOM     33  C   UNL A   1      37.674  30.559  29.775  1.00  0.00     0.010 A 
ATOM     34  C   UNL A   1      38.762  30.138  30.563  1.00  0.00    -0.014 A 
BRANCH  34  35
ATOM     35  C   UNL A   1      40.023  29.692  29.923  1.00  0.00     0.031 A 
ATOM     36  C   UNL A   1      41.152  30.674  29.776  1.00  0.00     0.074 A 
ATOM     37  C   UNL A   1      40.169  28.425  29.499  1.00  0.00     0.049 A 
ATOM     38  N   UNL A   1      42.319  30.521  29.205  1.00  0.00    -0.248 NA
ATOM     39  C   UNL A   1      40.932  32.012  30.348  1.00  0.00     0.031 C 
ATOM     40  C   UNL A   1      39.164  27.372  29.624  1.00  0.00     0.029 A 
ATOM     41  N   UNL A   1      41.224  27.813  28.869  1.00  0.00    -0.354 N 
ATOM     42  C   UNL A   1      42.968  31.742  29.341  1.00  0.00     0.074 A 
ATOM     43  C   UNL A   1      42.054  32.635  30.019  1.00  0.00     0.031 C 
ATOM     44  C   UNL A   1      39.646  26.243  29.076  1.00  0.00     0.029 A 
ATOM     45  C   UNL A   1      40.978  26.505  28.532  1.00  0.00     0.049 A 
ATOM     46  H   UNL A   1      42.075  28.268  28.677  1.00  0.00     0.167 HD
ATOM     47  C   UNL A   1      44.218  32.083  28.945  1.00  0.00     0.037 A 
ATOM     48  C   UNL A   1      41.732  25.630  27.841  1.00  0.00     0.037 A 
ATOM     49  C   UNL A   1      45.126  31.189  28.274  1.00  0.00     0.049 A 
ATOM     50  C   UNL A   1      43.091  26.056  27.346  1.00  0.00     0.074 A 
ATOM     51  C   UNL A   1      46.421  31.432  27.851  1.00  0.00     0.029 A 
ATOM     52  N   UNL A   1      44.829  29.881  27.923  1.00  0.00    -0.354 N 
ATOM     53  N   UNL A   1      43.707  27.204  27.498  1.00  0.00    -0.248 NA
ATOM     54  C   UNL A   1      43.860  25.062  26.584  1.00  0.00     0.031 C 
ATOM     55  C   UNL A   1      46.888  30.290  27.194  1.00  0.00     0.029 A 
ATOM     56  C   UNL A   1      45.907  29.313  27.261  1.00  0.00     0.049 A 
ATOM     57  H   UNL A   1      43.980  29.422  28.115  1.00  0.00     0.167 HD
ATOM     58  C   UNL A   1      44.944  27.059  26.882  1.00  0.00     0.074 A 
ATOM     59  C   UNL A   1      44.996  25.708  26.363  1.00  0.00     0.031 C 
ATOM     60  C   UNL A   1      45.947  27.964  26.758  1.00  0.00     0.037 A 
BRANCH  47  61
ATOM     61  C   UNL A   1      44.666  33.493  29.199  1.00  0.00     0.064 A 
ATOM     62  C   UNL A   1      45.303  33.863  30.394  1.00  0.00     0.173 A 
ATOM     63  C   UNL A   1      44.486  34.482  28.220  1.00  0.00     0.173 A 
ATOM     64  F   UNL A   1      45.487  32.959  31.369  1.00  0.00    -0.203 F 
ATOM     65  C   UNL A   1      45.718  35.175  30.610  1.00  0.00     0.198 A 
ATOM     66  C   UNL A   1      44.930  35.785  28.426  1.00  0.00     0.198 A 
ATOM     67  F   UNL A   1      43.888  34.182  27.058  1.00  0.00    -0.203 F 
ATOM     68  F   UNL A   1      46.279  35.516  31.778  1.00  0.00    -0.200 F 
ATOM     69  C   UNL A   1      45.537  36.133  29.623  1.00  0.00     0.200 A 
ATOM     70  F   UNL A   1      44.767  36.706  27.466  1.00  0.00    -0.200 F 
ATOM     71  F   UNL A   1      45.943  37.393  29.828  1.00  0.00    -0.200 F 
ENDBRANCH  47  61
BRANCH  48  72
ATOM     72  C   UNL A   1      41.218  24.263  27.562  1.00  0.00     0.064 A 
ATOM     73  C   UNL A   1      41.820  23.133  28.131  1.00  0.00     0.173 A 
ATOM     74  C   UNL A   1      40.127  24.059  26.704  1.00  0.00     0.173 A 
ATOM     75  F   UNL A   1      42.882  23.275  28.938  1.00  0.00    -0.203 F 
ATOM     76  C   UNL A   1      41.362  21.850  27.840  1.00  0.00     0.198 A 
ATOM     77  C   UNL A   1      39.651  22.777  26.437  1.00  0.00     0.198 A 
ATOM     78  F   UNL A   1      39.516  25.106  26.132  1.00  0.00    -0.203 F 
ATOM     79  F   UNL A   1      41.987  20.784  28.359  1.00  0.00    -0.200 F 
ATOM     80  C   UNL A   1      40.274  21.672  26.997  1.00  0.00     0.200 A 
ATOM     81  F   UNL A   1      38.591  22.612  25.633  1.00  0.00    -0.200 F 
ATOM     82  F   UNL A   1      39.833  20.439  26.719  1.00  0.00    -0.200 F 
ENDBRANCH  48  72
BRANCH  60  83
ATOM     83  C   UNL A   1      47.205  27.512  26.070  1.00  0.00     0.064 A 
ATOM     84  C   UNL A   1      48.267  26.932  26.780  1.00  0.00     0.173 A 
ATOM     85  C   UNL A   1      47.329  27.620  24.677  1.00  0.00     0.173 A 
ATOM     86  F   UNL A   1      48.204  26.817  28.115  1.00  0.00    -0.203 F 
ATOM     87  C   UNL A   1      49.418  26.504  26.122  1.00  0.00     0.198 A 
ATOM     88  C   UNL A   1      48.467  27.161  24.019  1.00  0.00     0.198 A 
ATOM     89  F   UNL A   1      46.339  28.160  23.950  1.00  0.00    -0.203 F 
ATOM     90  F   UNL A   1      50.441  26.000  26.826  1.00  0.00    -0.200 F 
ATOM     91  C   UNL A   1      49.514  26.612  24.743  1.00  0.00     0.200 A 
ATOM     92  F   UNL A   1      48.551  27.252  22.684  1.00  0.00    -0.200 F 
ATOM     93  F   UNL A   1      50.619  26.192  24.111  1.00  0.00    -0.200 F 
ENDBRANCH  60  83
ENDBRANCH  34  35
ENDBRANCH  27  29
ENDBRANCH  26  27
ENDBRANCH  25  26
ENDBRANCH  24  25
ENDBRANCH  23  24
ENDBRANCH   1  23
TORSDOF 17
ENDMDL
