MODEL 1
REMARK VINA RESULT:     -12.5      0.000      0.000
REMARK SMILES C[C@H]1[C@@H](C(=O)OCCOCCOC(=O)c2ccc(-c3c4nc(c(-c5c(F)c(F)c(F)c(F)c5F)c5ccc([nH]5)c(-c5c(F)c(F)c(F)c(F)c5F)c5nc(c(-c6c(F)c(F)c(F)c(F)c6F)c6ccc3[nH]6)C=C5)C=C4)cc2)CCN1S(=O)(=O)c1c[nH]c2ncccc12
REMARK SMILES IDX 9 1 8 2 7 3 6 4 4 5 5 6 3 7 1 8 2 9 80 10 78 11 79 12 81 13
REMARK SMILES IDX 82 14 83 15 84 16 85 17 92 18 86 19 87 20 91 21 88 23 90 24
REMARK SMILES IDX 89 25 10 26 11 27 12 28 13 29 14 30 15 31 16 32 77 33 17 34
REMARK SMILES IDX 76 35 18 36 19 37 20 38 70 39 21 40 75 41 69 42 71 43 22 44
REMARK SMILES IDX 74 45 68 46 67 47 23 49 55 50 35 51 54 52 36 53 39 54 53 55
REMARK SMILES IDX 72 56 37 57 38 58 52 60 73 61 40 62 24 63 25 64 33 65 26 66
REMARK SMILES IDX 27 67 31 68 34 69 28 70 29 71 32 72 30 73 56 74 57 75 65 76
REMARK SMILES IDX 58 77 59 78 63 79 66 80 60 81 61 82 64 83 62 84 41 85 42 86
REMARK SMILES IDX 50 87 43 88 44 89 48 90 51 91 45 92 46 93 49 94 47 95
REMARK H PARENT 86 22 71 48 39 59
REMARK Flexibility Score: inf
ROOT
ATOM      1  O   UNL A   1      35.314  21.839  25.768  1.00  0.00    -0.374 OA
ENDROOT
BRANCH   1   2
ATOM      2  C   UNL A   1      34.147  21.132  26.200  1.00  0.00     0.202 C 
BRANCH   2   3
ATOM      3  C   UNL A   1      33.263  21.924  27.167  1.00  0.00     0.261 C 
BRANCH   3   4
ATOM      4  O   UNL A   1      33.400  23.334  26.894  1.00  0.00    -0.463 OA
BRANCH   4   5
ATOM      5  C   UNL A   1      32.277  24.012  26.586  1.00  0.00     0.310 C 
ATOM      6  O   UNL A   1      31.243  23.964  27.243  1.00  0.00    -0.252 OA
BRANCH   5   7
ATOM      7  C   UNL A   1      32.405  24.903  25.363  1.00  0.00     0.118 C 
ATOM      8  C   UNL A   1      31.034  23.271  23.755  1.00  0.00     0.027 C 
ATOM      9  C   UNL A   1      31.710  24.612  24.017  1.00  0.00     0.084 C 
ATOM     10  N   UNL A   1      32.761  24.773  22.957  1.00  0.00    -0.194 NA
ATOM     11  C   UNL A   1      33.886  25.117  25.027  1.00  0.00     0.034 C 
ATOM     12  C   UNL A   1      34.074  24.601  23.617  1.00  0.00     0.104 C 
BRANCH  10  13
ATOM     13  S   UNL A   1      32.662  26.151  21.955  1.00  0.00     0.245 S 
ATOM     14  O   UNL A   1      34.007  26.650  21.771  1.00  0.00    -0.207 OA
ATOM     15  O   UNL A   1      31.820  25.808  20.829  1.00  0.00    -0.207 OA
BRANCH  13  16
ATOM     16  C   UNL A   1      31.836  27.426  22.783  1.00  0.00     0.109 A 
ATOM     17  C   UNL A   1      30.509  27.779  22.589  1.00  0.00     0.106 A 
ATOM     18  C   UNL A   1      32.347  28.246  23.837  1.00  0.00     0.039 A 
ATOM     19  N   UNL A   1      30.209  28.793  23.457  1.00  0.00    -0.345 N 
ATOM     20  C   UNL A   1      31.297  29.074  24.230  1.00  0.00     0.138 A 
ATOM     21  C   UNL A   1      33.555  28.393  24.546  1.00  0.00     0.015 A 
ATOM     22  H   UNL A   1      29.339  29.252  23.514  1.00  0.00     0.168 HD
ATOM     23  N   UNL A   1      31.292  29.996  25.210  1.00  0.00    -0.239 NA
ATOM     24  C   UNL A   1      33.600  29.326  25.584  1.00  0.00     0.021 A 
ATOM     25  C   UNL A   1      32.469  30.076  25.866  1.00  0.00     0.113 A 
ENDBRANCH  13  16
ENDBRANCH  10  13
ENDBRANCH   5   7
ENDBRANCH   4   5
ENDBRANCH   3   4
ENDBRANCH   2   3
ENDBRANCH   1   2
BRANCH   1  26
ATOM     26  C   UNL A   1      35.991  21.299  24.634  1.00  0.00     0.202 C 
BRANCH  26  27
ATOM     27  C   UNL A   1      37.382  20.733  24.930  1.00  0.00     0.261 C 
BRANCH  27  28
ATOM     28  O   UNL A   1      38.301  21.794  25.243  1.00  0.00    -0.460 OA
BRANCH  28  29
ATOM     29  C   UNL A   1      39.316  21.423  26.056  1.00  0.00     0.338 C 
ATOM     30  O   UNL A   1      39.890  20.347  26.074  1.00  0.00    -0.246 OA
BRANCH  29  31
ATOM     31  C   UNL A   1      39.776  22.571  26.862  1.00  0.00     0.060 A 
ATOM     32  C   UNL A   1      39.041  23.756  26.740  1.00  0.00     0.016 A 
ATOM     33  C   UNL A   1      40.924  22.530  27.661  1.00  0.00     0.016 A 
ATOM     34  C   UNL A   1      39.500  24.925  27.333  1.00  0.00     0.010 A 
ATOM     35  C   UNL A   1      41.383  23.708  28.263  1.00  0.00     0.010 A 
ATOM     36  C   UNL A   1      40.703  24.920  28.051  1.00  0.00    -0.014 A 
BRANCH  36  37
ATOM     37  C   UNL A   1      41.320  26.226  28.386  1.00  0.00     0.031 A 
ATOM     38  C   UNL A   1      42.706  26.523  27.876  1.00  0.00     0.074 A 
ATOM     39  C   UNL A   1      40.620  27.172  29.034  1.00  0.00     0.049 A 
ATOM     40  N   UNL A   1      43.395  27.633  27.939  1.00  0.00    -0.248 NA
ATOM     41  C   UNL A   1      43.405  25.420  27.197  1.00  0.00     0.031 C 
ATOM     42  C   UNL A   1      39.262  27.011  29.550  1.00  0.00     0.029 A 
ATOM     43  N   UNL A   1      40.951  28.465  29.350  1.00  0.00    -0.354 N 
ATOM     44  C   UNL A   1      44.601  27.364  27.304  1.00  0.00     0.074 A 
ATOM     45  C   UNL A   1      44.570  25.974  26.903  1.00  0.00     0.031 C 
ATOM     46  C   UNL A   1      38.869  28.167  30.111  1.00  0.00     0.029 A 
ATOM     47  C   UNL A   1      39.952  29.144  30.003  1.00  0.00     0.049 A 
ATOM     48  H   UNL A   1      41.821  28.868  29.130  1.00  0.00     0.167 HD
ATOM     49  C   UNL A   1      45.634  28.204  27.059  1.00  0.00     0.037 A 
ATOM     50  C   UNL A   1      39.919  30.412  30.457  1.00  0.00     0.037 A 
ATOM     51  C   UNL A   1      45.663  29.586  27.454  1.00  0.00     0.049 A 
ATOM     52  C   UNL A   1      41.099  31.315  30.208  1.00  0.00     0.074 A 
ATOM     53  C   UNL A   1      46.658  30.525  27.244  1.00  0.00     0.029 A 
ATOM     54  N   UNL A   1      44.648  30.228  28.147  1.00  0.00    -0.354 N 
ATOM     55  N   UNL A   1      42.218  31.062  29.573  1.00  0.00    -0.248 NA
ATOM     56  C   UNL A   1      41.003  32.686  30.728  1.00  0.00     0.031 C 
ATOM     57  C   UNL A   1      46.263  31.724  27.849  1.00  0.00     0.029 A 
ATOM     58  C   UNL A   1      45.000  31.545  28.392  1.00  0.00     0.049 A 
ATOM     59  H   UNL A   1      43.801  29.808  28.425  1.00  0.00     0.167 HD
ATOM     60  C   UNL A   1      42.944  32.246  29.593  1.00  0.00     0.074 A 
ATOM     61  C   UNL A   1      42.132  33.222  30.287  1.00  0.00     0.031 C 
ATOM     62  C   UNL A   1      44.174  32.503  29.081  1.00  0.00     0.037 A 
BRANCH  49  63
ATOM     63  C   UNL A   1      46.827  27.641  26.343  1.00  0.00     0.064 A 
ATOM     64  C   UNL A   1      46.934  27.681  24.945  1.00  0.00     0.173 A 
ATOM     65  C   UNL A   1      47.886  27.071  27.066  1.00  0.00     0.173 A 
ATOM     66  F   UNL A   1      45.940  28.200  24.207  1.00  0.00    -0.203 F 
ATOM     67  C   UNL A   1      48.045  27.150  24.294  1.00  0.00     0.198 A 
ATOM     68  C   UNL A   1      49.008  26.566  26.414  1.00  0.00     0.198 A 
ATOM     69  F   UNL A   1      47.834  27.008  28.405  1.00  0.00    -0.203 F 
ATOM     70  F   UNL A   1      48.104  27.157  22.956  1.00  0.00    -0.200 F 
ATOM     71  C   UNL A   1      49.084  26.598  25.030  1.00  0.00     0.200 A 
ATOM     72  F   UNL A   1      50.015  26.042  27.126  1.00  0.00    -0.200 F 
ATOM     73  F   UNL A   1      50.154  26.092  24.403  1.00  0.00    -0.200 F 
ENDBRANCH  49  63
BRANCH  50  74
ATOM     74  C   UNL A   1      38.718  30.910  31.177  1.00  0.00     0.064 A 
ATOM     75  C   UNL A   1      37.643  31.486  30.487  1.00  0.00     0.173 A 
ATOM     76  C   UNL A   1      38.631  30.835  32.574  1.00  0.00     0.173 A 
ATOM     77  F   UNL A   1      37.689  31.602  29.151  1.00  0.00    -0.203 F 
ATOM     78  C   UNL A   1      36.535  31.985  31.169  1.00  0.00     0.198 A 
ATOM     79  C   UNL A   1      37.512  31.310  33.253  1.00  0.00     0.198 A 
ATOM     80  F   UNL A   1      39.633  30.292  33.282  1.00  0.00    -0.203 F 
ATOM     81  F   UNL A   1      35.541  32.573  30.488  1.00  0.00    -0.200 F 
ATOM     82  C   UNL A   1      36.467  31.892  32.550  1.00  0.00     0.200 A 
ATOM     83  F   UNL A   1      37.445  31.206  34.588  1.00  0.00    -0.200 F 
ATOM     84  F   UNL A   1      35.401  32.370  33.206  1.00  0.00    -0.200 F 
ENDBRANCH  50  74
BRANCH  62  85
ATOM     85  C   UNL A   1      44.698  33.903  29.226  1.00  0.00     0.064 A 
ATOM     86  C   UNL A   1      45.487  34.284  30.320  1.00  0.00     0.173 A 
ATOM     87  C   UNL A   1      44.431  34.865  28.240  1.00  0.00     0.173 A 
ATOM     88  F   UNL A   1      45.760  33.403  31.294  1.00  0.00    -0.203 F 
ATOM     89  C   UNL A   1      45.960  35.588  30.441  1.00  0.00     0.198 A 
ATOM     90  C   UNL A   1      44.931  36.160  28.349  1.00  0.00     0.198 A 
ATOM     91  F   UNL A   1      43.689  34.549  27.168  1.00  0.00    -0.203 F 
ATOM     92  F   UNL A   1      46.666  35.944  31.523  1.00  0.00    -0.200 F 
ATOM     93  C   UNL A   1      45.687  36.523  29.453  1.00  0.00     0.200 A 
ATOM     94  F   UNL A   1      44.677  37.058  27.387  1.00  0.00    -0.200 F 
ATOM     95  F   UNL A   1      46.145  37.777  29.570  1.00  0.00    -0.200 F 
ENDBRANCH  62  85
ENDBRANCH  36  37
ENDBRANCH  29  31
ENDBRANCH  28  29
ENDBRANCH  27  28
ENDBRANCH  26  27
ENDBRANCH   1  26
TORSDOF 16
ENDMDL
MODEL 2
REMARK VINA RESULT:     -12.3      4.522      7.312
REMARK SMILES C[C@H]1[C@@H](C(=O)OCCOCCOC(=O)c2ccc(-c3c4nc(c(-c5c(F)c(F)c(F)c(F)c5F)c5ccc([nH]5)c(-c5c(F)c(F)c(F)c(F)c5F)c5nc(c(-c6c(F)c(F)c(F)c(F)c6F)c6ccc3[nH]6)C=C5)C=C4)cc2)CCN1S(=O)(=O)c1c[nH]c2ncccc12
REMARK SMILES IDX 9 1 8 2 7 3 6 4 4 5 5 6 3 7 1 8 2 9 80 10 78 11 79 12 81 13
REMARK SMILES IDX 82 14 83 15 84 16 85 17 92 18 86 19 87 20 91 21 88 23 90 24
REMARK SMILES IDX 89 25 10 26 11 27 12 28 13 29 14 30 15 31 16 32 77 33 17 34
REMARK SMILES IDX 76 35 18 36 19 37 20 38 70 39 21 40 75 41 69 42 71 43 22 44
REMARK SMILES IDX 74 45 68 46 67 47 23 49 55 50 35 51 54 52 36 53 39 54 53 55
REMARK SMILES IDX 72 56 37 57 38 58 52 60 73 61 40 62 24 63 25 64 33 65 26 66
REMARK SMILES IDX 27 67 31 68 34 69 28 70 29 71 32 72 30 73 56 74 57 75 65 76
REMARK SMILES IDX 58 77 59 78 63 79 66 80 60 81 61 82 64 83 62 84 41 85 42 86
REMARK SMILES IDX 50 87 43 88 44 89 48 90 51 91 45 92 46 93 49 94 47 95
REMARK H PARENT 86 22 71 48 39 59
REMARK Flexibility Score: inf
ROOT
ATOM      1  O   UNL A   1      41.816  21.940  25.443  1.00  0.00    -0.374 OA
ENDROOT
BRANCH   1   2
ATOM      2  C   UNL A   1      40.764  21.256  26.132  1.00  0.00     0.202 C 
BRANCH   2   3
ATOM      3  C   UNL A   1      39.718  22.187  26.750  1.00  0.00     0.261 C 
BRANCH   3   4
ATOM      4  O   UNL A   1      38.572  22.265  25.877  1.00  0.00    -0.463 OA
BRANCH   4   5
ATOM      5  C   UNL A   1      37.779  23.348  25.999  1.00  0.00     0.310 C 
ATOM      6  O   UNL A   1      38.183  24.465  26.300  1.00  0.00    -0.252 OA
BRANCH   5   7
ATOM      7  C   UNL A   1      36.318  23.086  25.680  1.00  0.00     0.118 C 
ATOM      8  C   UNL A   1      36.715  22.780  23.057  1.00  0.00     0.027 C 
ATOM      9  C   UNL A   1      35.806  22.696  24.278  1.00  0.00     0.084 C 
ATOM     10  N   UNL A   1      34.630  23.587  23.995  1.00  0.00    -0.194 NA
ATOM     11  C   UNL A   1      35.467  24.286  26.112  1.00  0.00     0.034 C 
ATOM     12  C   UNL A   1      34.770  24.778  24.862  1.00  0.00     0.104 C 
BRANCH  10  13
ATOM     13  S   UNL A   1      33.079  22.877  24.035  1.00  0.00     0.245 S 
ATOM     14  O   UNL A   1      32.218  23.757  24.794  1.00  0.00    -0.207 OA
ATOM     15  O   UNL A   1      32.751  22.476  22.683  1.00  0.00    -0.207 OA
BRANCH  13  16
ATOM     16  C   UNL A   1      33.122  21.413  24.957  1.00  0.00     0.109 A 
ATOM     17  C   UNL A   1      33.269  21.338  26.335  1.00  0.00     0.106 A 
ATOM     18  C   UNL A   1      32.930  20.081  24.475  1.00  0.00     0.039 A 
ATOM     19  N   UNL A   1      33.204  20.020  26.696  1.00  0.00    -0.345 N 
ATOM     20  C   UNL A   1      32.981  19.251  25.593  1.00  0.00     0.138 A 
ATOM     21  C   UNL A   1      32.690  19.448  23.240  1.00  0.00     0.015 A 
ATOM     22  H   UNL A   1      33.305  19.679  27.615  1.00  0.00     0.168 HD
ATOM     23  N   UNL A   1      32.824  17.916  25.640  1.00  0.00    -0.239 NA
ATOM     24  C   UNL A   1      32.505  18.064  23.234  1.00  0.00     0.021 A 
ATOM     25  C   UNL A   1      32.577  17.369  24.431  1.00  0.00     0.113 A 
ENDBRANCH  13  16
ENDBRANCH  10  13
ENDBRANCH   5   7
ENDBRANCH   4   5
ENDBRANCH   3   4
ENDBRANCH   2   3
ENDBRANCH   1   2
BRANCH   1  26
ATOM     26  C   UNL A   1      43.145  21.526  25.757  1.00  0.00     0.202 C 
BRANCH  26  27
ATOM     27  C   UNL A   1      44.245  22.425  25.188  1.00  0.00     0.261 C 
BRANCH  27  28
ATOM     28  O   UNL A   1      43.680  23.627  24.638  1.00  0.00    -0.460 OA
BRANCH  28  29
ATOM     29  C   UNL A   1      44.316  24.759  25.018  1.00  0.00     0.338 C 
ATOM     30  O   UNL A   1      45.405  25.156  24.638  1.00  0.00    -0.246 OA
BRANCH  29  31
ATOM     31  C   UNL A   1      43.436  25.579  25.875  1.00  0.00     0.060 A 
ATOM     32  C   UNL A   1      43.960  26.794  26.330  1.00  0.00     0.016 A 
ATOM     33  C   UNL A   1      42.167  25.157  26.288  1.00  0.00     0.016 A 
ATOM     34  C   UNL A   1      43.266  27.545  27.270  1.00  0.00     0.010 A 
ATOM     35  C   UNL A   1      41.465  25.917  27.231  1.00  0.00     0.010 A 
ATOM     36  C   UNL A   1      42.041  27.082  27.768  1.00  0.00    -0.014 A 
BRANCH  36  37
ATOM     37  C   UNL A   1      41.495  27.727  28.986  1.00  0.00     0.031 A 
ATOM     38  C   UNL A   1      42.246  27.577  30.282  1.00  0.00     0.074 A 
ATOM     39  C   UNL A   1      40.415  28.525  28.917  1.00  0.00     0.049 A 
ATOM     40  N   UNL A   1      42.029  28.145  31.440  1.00  0.00    -0.248 NA
ATOM     41  C   UNL A   1      43.402  26.666  30.268  1.00  0.00     0.031 C 
ATOM     42  C   UNL A   1      39.624  28.771  27.713  1.00  0.00     0.029 A 
ATOM     43  N   UNL A   1      39.812  29.292  29.882  1.00  0.00    -0.354 N 
ATOM     44  C   UNL A   1      43.022  27.668  32.286  1.00  0.00     0.074 A 
ATOM     45  C   UNL A   1      43.815  26.729  31.524  1.00  0.00     0.031 C 
ATOM     46  C   UNL A   1      38.642  29.640  28.008  1.00  0.00     0.029 A 
ATOM     47  C   UNL A   1      38.731  30.001  29.422  1.00  0.00     0.049 A 
ATOM     48  H   UNL A   1      40.125  29.330  30.814  1.00  0.00     0.167 HD
ATOM     49  C   UNL A   1      43.264  27.997  33.577  1.00  0.00     0.037 A 
ATOM     50  C   UNL A   1      37.910  30.849  30.072  1.00  0.00     0.037 A 
ATOM     51  C   UNL A   1      42.479  28.934  34.334  1.00  0.00     0.049 A 
ATOM     52  C   UNL A   1      38.176  31.167  31.521  1.00  0.00     0.074 A 
ATOM     53  C   UNL A   1      42.648  29.345  35.645  1.00  0.00     0.029 A 
ATOM     54  N   UNL A   1      41.367  29.604  33.844  1.00  0.00    -0.354 N 
ATOM     55  N   UNL A   1      39.140  30.740  32.300  1.00  0.00    -0.248 NA
ATOM     56  C   UNL A   1      37.246  32.097  32.175  1.00  0.00     0.031 C 
ATOM     57  C   UNL A   1      41.612  30.231  35.962  1.00  0.00     0.029 A 
ATOM     58  C   UNL A   1      40.827  30.410  34.833  1.00  0.00     0.049 A 
ATOM     59  H   UNL A   1      41.014  29.519  32.929  1.00  0.00     0.167 HD
ATOM     60  C   UNL A   1      38.950  31.370  33.524  1.00  0.00     0.074 A 
ATOM     61  C   UNL A   1      37.788  32.220  33.378  1.00  0.00     0.031 C 
ATOM     62  C   UNL A   1      39.672  31.255  34.666  1.00  0.00     0.037 A 
BRANCH  49  63
ATOM     63  C   UNL A   1      44.421  27.323  34.256  1.00  0.00     0.064 A 
ATOM     64  C   UNL A   1      45.697  27.904  34.287  1.00  0.00     0.173 A 
ATOM     65  C   UNL A   1      44.245  26.089  34.900  1.00  0.00     0.173 A 
ATOM     66  F   UNL A   1      45.922  29.074  33.670  1.00  0.00    -0.203 F 
ATOM     67  C   UNL A   1      46.761  27.263  34.917  1.00  0.00     0.198 A 
ATOM     68  C   UNL A   1      45.305  25.464  35.554  1.00  0.00     0.198 A 
ATOM     69  F   UNL A   1      43.044  25.491  34.901  1.00  0.00    -0.203 F 
ATOM     70  F   UNL A   1      47.983  27.813  34.894  1.00  0.00    -0.200 F 
ATOM     71  C   UNL A   1      46.563  26.047  35.555  1.00  0.00     0.200 A 
ATOM     72  F   UNL A   1      45.108  24.294  36.177  1.00  0.00    -0.200 F 
ATOM     73  F   UNL A   1      47.586  25.434  36.165  1.00  0.00    -0.200 F 
ENDBRANCH  49  63
BRANCH  50  74
ATOM     74  C   UNL A   1      36.768  31.472  29.354  1.00  0.00     0.064 A 
ATOM     75  C   UNL A   1      35.651  30.717  28.970  1.00  0.00     0.173 A 
ATOM     76  C   UNL A   1      36.780  32.834  29.022  1.00  0.00     0.173 A 
ATOM     77  F   UNL A   1      35.604  29.405  29.244  1.00  0.00    -0.203 F 
ATOM     78  C   UNL A   1      34.600  31.297  28.263  1.00  0.00     0.198 A 
ATOM     79  C   UNL A   1      35.716  33.419  28.339  1.00  0.00     0.198 A 
ATOM     80  F   UNL A   1      37.825  33.601  29.368  1.00  0.00    -0.203 F 
ATOM     81  F   UNL A   1      33.564  30.542  27.868  1.00  0.00    -0.200 F 
ATOM     82  C   UNL A   1      34.629  32.648  27.954  1.00  0.00     0.200 A 
ATOM     83  F   UNL A   1      35.744  34.728  28.054  1.00  0.00    -0.200 F 
ATOM     84  F   UNL A   1      33.617  33.206  27.277  1.00  0.00    -0.200 F 
ENDBRANCH  50  74
BRANCH  62  85
ATOM     85  C   UNL A   1      39.244  32.094  35.835  1.00  0.00     0.064 A 
ATOM     86  C   UNL A   1      39.711  33.405  36.011  1.00  0.00     0.173 A 
ATOM     87  C   UNL A   1      38.333  31.590  36.775  1.00  0.00     0.173 A 
ATOM     88  F   UNL A   1      40.593  33.928  35.146  1.00  0.00    -0.203 F 
ATOM     89  C   UNL A   1      39.308  34.167  37.104  1.00  0.00     0.198 A 
ATOM     90  C   UNL A   1      37.908  32.365  37.851  1.00  0.00     0.198 A 
ATOM     91  F   UNL A   1      37.848  30.345  36.648  1.00  0.00    -0.203 F 
ATOM     92  F   UNL A   1      39.810  35.397  37.281  1.00  0.00    -0.200 F 
ATOM     93  C   UNL A   1      38.404  33.650  38.019  1.00  0.00     0.200 A 
ATOM     94  F   UNL A   1      37.024  31.868  38.726  1.00  0.00    -0.200 F 
ATOM     95  F   UNL A   1      38.016  34.385  39.069  1.00  0.00    -0.200 F 
ENDBRANCH  62  85
ENDBRANCH  36  37
ENDBRANCH  29  31
ENDBRANCH  28  29
ENDBRANCH  27  28
ENDBRANCH  26  27
ENDBRANCH   1  26
TORSDOF 16
ENDMDL
MODEL 3
REMARK VINA RESULT:     -12.2      4.078      9.889
REMARK SMILES C[C@H]1[C@@H](C(=O)OCCOCCOC(=O)c2ccc(-c3c4nc(c(-c5c(F)c(F)c(F)c(F)c5F)c5ccc([nH]5)c(-c5c(F)c(F)c(F)c(F)c5F)c5nc(c(-c6c(F)c(F)c(F)c(F)c6F)c6ccc3[nH]6)C=C5)C=C4)cc2)CCN1S(=O)(=O)c1c[nH]c2ncccc12
REMARK SMILES IDX 9 1 8 2 7 3 6 4 4 5 5 6 3 7 1 8 2 9 80 10 78 11 79 12 81 13
REMARK SMILES IDX 82 14 83 15 84 16 85 17 92 18 86 19 87 20 91 21 88 23 90 24
REMARK SMILES IDX 89 25 10 26 11 27 12 28 13 29 14 30 15 31 16 32 77 33 17 34
REMARK SMILES IDX 76 35 18 36 19 37 20 38 70 39 21 40 75 41 69 42 71 43 22 44
REMARK SMILES IDX 74 45 68 46 67 47 23 49 55 50 35 51 54 52 36 53 39 54 53 55
REMARK SMILES IDX 72 56 37 57 38 58 52 60 73 61 40 62 24 63 25 64 33 65 26 66
REMARK SMILES IDX 27 67 31 68 34 69 28 70 29 71 32 72 30 73 56 74 57 75 65 76
REMARK SMILES IDX 58 77 59 78 63 79 66 80 60 81 61 82 64 83 62 84 41 85 42 86
REMARK SMILES IDX 50 87 43 88 44 89 48 90 51 91 45 92 46 93 49 94 47 95
REMARK H PARENT 86 22 71 48 39 59
REMARK Flexibility Score: inf
ROOT
ATOM      1  O   UNL A   1      31.975  29.257  24.264  1.00  0.00    -0.374 OA
ENDROOT
BRANCH   1   2
ATOM      2  C   UNL A   1      33.314  28.949  23.861  1.00  0.00     0.202 C 
BRANCH   2   3
ATOM      3  C   UNL A   1      33.454  28.617  22.374  1.00  0.00     0.261 C 
BRANCH   3   4
ATOM      4  O   UNL A   1      33.716  27.206  22.222  1.00  0.00    -0.463 OA
BRANCH   4   5
ATOM      5  C   UNL A   1      32.781  26.354  22.689  1.00  0.00     0.310 C 
ATOM      6  O   UNL A   1      31.635  26.287  22.257  1.00  0.00    -0.252 OA
BRANCH   5   7
ATOM      7  C   UNL A   1      33.278  25.426  23.783  1.00  0.00     0.118 C 
ATOM      8  C   UNL A   1      33.265  23.243  22.246  1.00  0.00     0.027 C 
ATOM      9  C   UNL A   1      33.627  23.942  23.552  1.00  0.00     0.084 C 
ATOM     10  N   UNL A   1      32.947  23.173  24.649  1.00  0.00    -0.194 NA
ATOM     11  C   UNL A   1      32.301  25.443  24.965  1.00  0.00     0.034 C 
ATOM     12  C   UNL A   1      31.835  24.015  25.143  1.00  0.00     0.104 C 
BRANCH  10  13
ATOM     13  S   UNL A   1      33.932  22.528  25.883  1.00  0.00     0.245 S 
ATOM     14  O   UNL A   1      35.060  23.418  26.047  1.00  0.00    -0.207 OA
ATOM     15  O   UNL A   1      33.069  22.185  26.993  1.00  0.00    -0.207 OA
BRANCH  13  16
ATOM     16  C   UNL A   1      34.634  21.034  25.360  1.00  0.00     0.109 A 
ATOM     17  C   UNL A   1      35.982  20.715  25.430  1.00  0.00     0.106 A 
ATOM     18  C   UNL A   1      33.946  19.882  24.866  1.00  0.00     0.039 A 
ATOM     19  N   UNL A   1      36.138  19.435  24.971  1.00  0.00    -0.345 N 
ATOM     20  C   UNL A   1      34.921  18.911  24.646  1.00  0.00     0.138 A 
ATOM     21  C   UNL A   1      32.618  19.503  24.594  1.00  0.00     0.015 A 
ATOM     22  H   UNL A   1      36.999  18.964  24.887  1.00  0.00     0.168 HD
ATOM     23  N   UNL A   1      34.750  17.650  24.210  1.00  0.00    -0.239 NA
ATOM     24  C   UNL A   1      32.382  18.199  24.151  1.00  0.00     0.021 A 
ATOM     25  C   UNL A   1      33.456  17.339  23.985  1.00  0.00     0.113 A 
ENDBRANCH  13  16
ENDBRANCH  10  13
ENDBRANCH   5   7
ENDBRANCH   4   5
ENDBRANCH   3   4
ENDBRANCH   2   3
ENDBRANCH   1   2
BRANCH   1  26
ATOM     26  C   UNL A   1      31.758  29.393  25.668  1.00  0.00     0.202 C 
BRANCH  26  27
ATOM     27  C   UNL A   1      31.901  30.821  26.200  1.00  0.00     0.261 C 
BRANCH  27  28
ATOM     28  O   UNL A   1      32.665  30.831  27.418  1.00  0.00    -0.460 OA
BRANCH  28  29
ATOM     29  C   UNL A   1      33.398  31.953  27.601  1.00  0.00     0.338 C 
ATOM     30  O   UNL A   1      32.987  33.098  27.677  1.00  0.00    -0.246 OA
BRANCH  29  31
ATOM     31  C   UNL A   1      34.810  31.607  27.858  1.00  0.00     0.060 A 
ATOM     32  C   UNL A   1      35.117  30.243  27.938  1.00  0.00     0.016 A 
ATOM     33  C   UNL A   1      35.801  32.569  28.086  1.00  0.00     0.016 A 
ATOM     34  C   UNL A   1      36.383  29.836  28.340  1.00  0.00     0.010 A 
ATOM     35  C   UNL A   1      37.078  32.157  28.485  1.00  0.00     0.010 A 
ATOM     36  C   UNL A   1      37.353  30.791  28.669  1.00  0.00    -0.014 A 
BRANCH  36  37
ATOM     37  C   UNL A   1      38.563  30.333  29.394  1.00  0.00     0.031 A 
ATOM     38  C   UNL A   1      38.761  30.772  30.821  1.00  0.00     0.074 A 
ATOM     39  C   UNL A   1      39.411  29.455  28.831  1.00  0.00     0.049 A 
ATOM     40  N   UNL A   1      39.671  30.404  31.685  1.00  0.00    -0.248 NA
ATOM     41  C   UNL A   1      37.796  31.752  31.345  1.00  0.00     0.031 C 
ATOM     42  C   UNL A   1      39.307  28.937  27.469  1.00  0.00     0.029 A 
ATOM     43  N   UNL A   1      40.517  28.829  29.349  1.00  0.00    -0.354 N 
ATOM     44  C   UNL A   1      39.385  31.101  32.853  1.00  0.00     0.074 A 
ATOM     45  C   UNL A   1      38.245  31.948  32.575  1.00  0.00     0.031 C 
ATOM     46  C   UNL A   1      40.305  28.061  27.259  1.00  0.00     0.029 A 
ATOM     47  C   UNL A   1      41.121  27.967  28.468  1.00  0.00     0.049 A 
ATOM     48  H   UNL A   1      40.844  28.983  30.263  1.00  0.00     0.167 HD
ATOM     49  C   UNL A   1      40.003  31.028  34.055  1.00  0.00     0.037 A 
ATOM     50  C   UNL A   1      42.209  27.188  28.626  1.00  0.00     0.037 A 
ATOM     51  C   UNL A   1      41.133  30.184  34.333  1.00  0.00     0.049 A 
ATOM     52  C   UNL A   1      42.904  27.156  29.962  1.00  0.00     0.074 A 
ATOM     53  C   UNL A   1      41.826  30.029  35.521  1.00  0.00     0.029 A 
ATOM     54  N   UNL A   1      41.741  29.353  33.404  1.00  0.00    -0.354 N 
ATOM     55  N   UNL A   1      42.603  27.789  31.070  1.00  0.00    -0.248 NA
ATOM     56  C   UNL A   1      44.085  26.289  30.072  1.00  0.00     0.031 C 
ATOM     57  C   UNL A   1      42.880  29.136  35.299  1.00  0.00     0.029 A 
ATOM     58  C   UNL A   1      42.814  28.697  33.986  1.00  0.00     0.049 A 
ATOM     59  H   UNL A   1      41.453  29.245  32.468  1.00  0.00     0.167 HD
ATOM     60  C   UNL A   1      43.536  27.376  32.013  1.00  0.00     0.074 A 
ATOM     61  C   UNL A   1      44.403  26.425  31.351  1.00  0.00     0.031 C 
ATOM     62  C   UNL A   1      43.663  27.749  33.311  1.00  0.00     0.037 A 
BRANCH  49  63
ATOM     63  C   UNL A   1      39.476  31.901  35.157  1.00  0.00     0.064 A 
ATOM     64  C   UNL A   1      39.818  33.259  35.248  1.00  0.00     0.173 A 
ATOM     65  C   UNL A   1      38.602  31.378  36.121  1.00  0.00     0.173 A 
ATOM     66  F   UNL A   1      40.665  33.803  34.361  1.00  0.00    -0.203 F 
ATOM     67  C   UNL A   1      39.324  34.054  36.279  1.00  0.00     0.198 A 
ATOM     68  C   UNL A   1      38.088  32.183  37.134  1.00  0.00     0.198 A 
ATOM     69  F   UNL A   1      38.242  30.086  36.078  1.00  0.00    -0.203 F 
ATOM     70  F   UNL A   1      39.702  35.336  36.375  1.00  0.00    -0.200 F 
ATOM     71  C   UNL A   1      38.455  33.517  37.218  1.00  0.00     0.200 A 
ATOM     72  F   UNL A   1      37.241  31.665  38.034  1.00  0.00    -0.200 F 
ATOM     73  F   UNL A   1      37.977  34.285  38.206  1.00  0.00    -0.200 F 
ENDBRANCH  49  63
BRANCH  50  74
ATOM     74  C   UNL A   1      42.698  26.359  27.494  1.00  0.00     0.064 A 
ATOM     75  C   UNL A   1      42.186  25.076  27.258  1.00  0.00     0.173 A 
ATOM     76  C   UNL A   1      43.702  26.829  26.636  1.00  0.00     0.173 A 
ATOM     77  F   UNL A   1      41.241  24.572  28.067  1.00  0.00    -0.203 F 
ATOM     78  C   UNL A   1      42.673  24.287  26.218  1.00  0.00     0.198 A 
ATOM     79  C   UNL A   1      44.169  26.050  25.579  1.00  0.00     0.198 A 
ATOM     80  F   UNL A   1      44.225  28.050  26.818  1.00  0.00    -0.203 F 
ATOM     81  F   UNL A   1      42.198  23.045  26.043  1.00  0.00    -0.200 F 
ATOM     82  C   UNL A   1      43.660  24.776  25.376  1.00  0.00     0.200 A 
ATOM     83  F   UNL A   1      45.114  26.532  24.761  1.00  0.00    -0.200 F 
ATOM     84  F   UNL A   1      44.127  24.018  24.374  1.00  0.00    -0.200 F 
ENDBRANCH  50  74
BRANCH  62  85
ATOM     85  C   UNL A   1      44.759  27.102  34.106  1.00  0.00     0.064 A 
ATOM     86  C   UNL A   1      44.562  25.888  34.780  1.00  0.00     0.173 A 
ATOM     87  C   UNL A   1      46.032  27.690  34.170  1.00  0.00     0.173 A 
ATOM     88  F   UNL A   1      43.361  25.292  34.760  1.00  0.00    -0.203 F 
ATOM     89  C   UNL A   1      45.589  25.304  35.518  1.00  0.00     0.198 A 
ATOM     90  C   UNL A   1      47.065  27.089  34.884  1.00  0.00     0.198 A 
ATOM     91  F   UNL A   1      46.276  28.847  33.535  1.00  0.00    -0.203 F 
ATOM     92  F   UNL A   1      45.362  24.173  36.199  1.00  0.00    -0.200 F 
ATOM     93  C   UNL A   1      46.840  25.901  35.564  1.00  0.00     0.200 A 
ATOM     94  F   UNL A   1      48.277  27.660  34.916  1.00  0.00    -0.200 F 
ATOM     95  F   UNL A   1      47.828  25.338  36.273  1.00  0.00    -0.200 F 
ENDBRANCH  62  85
ENDBRANCH  36  37
ENDBRANCH  29  31
ENDBRANCH  28  29
ENDBRANCH  27  28
ENDBRANCH  26  27
ENDBRANCH   1  26
TORSDOF 16
ENDMDL
