MODEL 1
REMARK VINA RESULT:      -9.0      0.000      0.000
REMARK SMILES O=C(/C=C/c1ccc(O)c(O)c1)OCCOCCOC(=O)c1ccc(-c2c3nc(c(-c4c(F)c(F)c(F)c(F)c4F)c4ccc([nH]4)c(-c4c(F)c(F)c(F)c(F)c4F)c4nc(c(-c5c(F)c(F)c(F)c(F)c5F)c5ccc2[nH]5)C=C4)C=C3)cc1
REMARK SMILES IDX 16 1 15 2 14 3 13 4 2 5 1 6 3 7 4 8 5 9 6 10 12 11 7 12
REMARK SMILES IDX 10 13 8 14 11 15 9 17 17 19 18 20 19 21 20 22 21 23 22 24
REMARK SMILES IDX 23 25 84 26 24 27 83 28 25 29 26 30 27 31 77 32 28 33 82 34
REMARK SMILES IDX 76 35 78 36 29 37 81 38 75 39 74 40 30 42 62 43 42 44 61 45
REMARK SMILES IDX 43 46 46 47 60 48 79 49 44 50 45 51 59 53 80 54 47 55 31 56
REMARK SMILES IDX 32 57 40 58 33 59 34 60 38 61 41 62 35 63 36 64 39 65 37 66
REMARK SMILES IDX 63 67 64 68 72 69 65 70 66 71 70 72 73 73 67 74 68 75 71 76
REMARK SMILES IDX 69 77 48 78 49 79 57 80 50 81 51 82 55 83 58 84 52 85 53 86
REMARK SMILES IDX 56 87 54 88
REMARK H PARENT 11 16 9 18 78 41 46 52
REMARK Flexibility Score: inf
ROOT
ATOM      1  O   UNL A   1      45.354  18.161  25.293  1.00  0.00    -0.374 OA
ENDROOT
BRANCH   1   2
ATOM      2  C   UNL A   1      45.478  19.379  24.566  1.00  0.00     0.202 C 
BRANCH   2   3
ATOM      3  C   UNL A   1      45.985  20.583  25.353  1.00  0.00     0.261 C 
BRANCH   3   4
ATOM      4  O   UNL A   1      45.911  21.836  24.652  1.00  0.00    -0.460 OA
BRANCH   4   5
ATOM      5  C   UNL A   1      44.830  22.404  24.073  1.00  0.00     0.330 C 
ATOM      6  O   UNL A   1      44.349  21.906  23.057  1.00  0.00    -0.247 OA
BRANCH   5   7
ATOM      7  C   UNL A   1      44.278  23.684  24.543  1.00  0.00     0.094 C 
ATOM      8  C   UNL A   1      44.913  24.852  24.694  1.00  0.00     0.016 C 
BRANCH   8   9
ATOM      9  C   UNL A   1      44.212  26.081  25.064  1.00  0.00    -0.021 A 
ATOM     10  C   UNL A   1      42.813  26.131  25.068  1.00  0.00     0.012 A 
ATOM     11  C   UNL A   1      44.955  27.193  25.482  1.00  0.00     0.058 A 
ATOM     12  C   UNL A   1      42.150  27.272  25.526  1.00  0.00     0.051 A 
ATOM     13  C   UNL A   1      44.288  28.321  25.937  1.00  0.00     0.157 A 
ATOM     14  C   UNL A   1      42.896  28.357  25.974  1.00  0.00     0.157 A 
BRANCH  13  15
ATOM     15  O   UNL A   1      45.010  29.394  26.374  1.00  0.00    -0.504 OA
ATOM     16  H   UNL A   1      44.781  29.817  27.179  1.00  0.00     0.293 HD
ENDBRANCH  13  15
BRANCH  14  17
ATOM     17  O   UNL A   1      42.303  29.481  26.475  1.00  0.00    -0.504 OA
ATOM     18  H   UNL A   1      42.667  29.909  27.226  1.00  0.00     0.293 HD
ENDBRANCH  14  17
ENDBRANCH   8   9
ENDBRANCH   5   7
ENDBRANCH   4   5
ENDBRANCH   3   4
ENDBRANCH   2   3
ENDBRANCH   1   2
BRANCH   1  19
ATOM     19  C   UNL A   1      44.145  18.039  26.051  1.00  0.00     0.202 C 
BRANCH  19  20
ATOM     20  C   UNL A   1      43.013  18.961  25.580  1.00  0.00     0.261 C 
BRANCH  20  21
ATOM     21  O   UNL A   1      41.956  19.014  26.551  1.00  0.00    -0.460 OA
BRANCH  21  22
ATOM     22  C   UNL A   1      40.934  19.850  26.244  1.00  0.00     0.338 C 
ATOM     23  O   UNL A   1      39.871  19.567  25.718  1.00  0.00    -0.246 OA
BRANCH  22  24
ATOM     24  C   UNL A   1      41.213  21.167  26.851  1.00  0.00     0.060 A 
ATOM     25  C   UNL A   1      41.130  22.301  26.028  1.00  0.00     0.016 A 
ATOM     26  C   UNL A   1      41.522  21.294  28.206  1.00  0.00     0.016 A 
ATOM     27  C   UNL A   1      41.395  23.564  26.550  1.00  0.00     0.010 A 
ATOM     28  C   UNL A   1      41.804  22.555  28.725  1.00  0.00     0.010 A 
ATOM     29  C   UNL A   1      41.780  23.687  27.890  1.00  0.00    -0.014 A 
BRANCH  29  30
ATOM     30  C   UNL A   1      42.397  24.940  28.375  1.00  0.00     0.031 A 
ATOM     31  C   UNL A   1      41.479  26.080  28.709  1.00  0.00     0.074 A 
ATOM     32  C   UNL A   1      43.728  25.074  28.477  1.00  0.00     0.049 A 
ATOM     33  N   UNL A   1      41.761  27.325  28.990  1.00  0.00    -0.248 NA
ATOM     34  C   UNL A   1      40.039  25.774  28.701  1.00  0.00     0.031 C 
ATOM     35  C   UNL A   1      44.707  24.019  28.224  1.00  0.00     0.029 A 
ATOM     36  N   UNL A   1      44.485  26.172  28.797  1.00  0.00    -0.354 N 
ATOM     37  C   UNL A   1      40.536  27.952  29.169  1.00  0.00     0.074 A 
ATOM     38  C   UNL A   1      39.509  26.963  28.934  1.00  0.00     0.031 C 
ATOM     39  C   UNL A   1      45.942  24.530  28.372  1.00  0.00     0.029 A 
ATOM     40  C   UNL A   1      45.835  25.955  28.685  1.00  0.00     0.049 A 
ATOM     41  H   UNL A   1      44.097  27.031  29.078  1.00  0.00     0.167 HD
ATOM     42  C   UNL A   1      40.293  29.242  29.499  1.00  0.00     0.037 A 
ATOM     43  C   UNL A   1      46.860  26.823  28.787  1.00  0.00     0.037 A 
ATOM     44  C   UNL A   1      41.327  30.214  29.725  1.00  0.00     0.049 A 
ATOM     45  C   UNL A   1      46.567  28.272  29.091  1.00  0.00     0.074 A 
ATOM     46  C   UNL A   1      41.200  31.543  30.083  1.00  0.00     0.029 A 
ATOM     47  N   UNL A   1      42.687  29.959  29.602  1.00  0.00    -0.354 N 
ATOM     48  N   UNL A   1      45.410  28.863  29.273  1.00  0.00    -0.248 NA
ATOM     49  C   UNL A   1      47.722  29.172  29.203  1.00  0.00     0.031 C 
ATOM     50  C   UNL A   1      42.479  32.108  30.118  1.00  0.00     0.029 A 
ATOM     51  C   UNL A   1      43.408  31.113  29.854  1.00  0.00     0.049 A 
ATOM     52  H   UNL A   1      43.079  29.086  29.372  1.00  0.00     0.167 HD
ATOM     53  C   UNL A   1      45.698  30.192  29.560  1.00  0.00     0.074 A 
ATOM     54  C   UNL A   1      47.140  30.318  29.528  1.00  0.00     0.031 C 
ATOM     55  C   UNL A   1      44.847  31.213  29.833  1.00  0.00     0.037 A 
BRANCH  42  56
ATOM     56  C   UNL A   1      38.857  29.673  29.589  1.00  0.00     0.064 A 
ATOM     57  C   UNL A   1      38.102  29.987  28.449  1.00  0.00     0.173 A 
ATOM     58  C   UNL A   1      38.228  29.775  30.839  1.00  0.00     0.173 A 
ATOM     59  F   UNL A   1      38.659  29.923  27.230  1.00  0.00    -0.203 F 
ATOM     60  C   UNL A   1      36.784  30.425  28.559  1.00  0.00     0.198 A 
ATOM     61  C   UNL A   1      36.899  30.179  30.944  1.00  0.00     0.198 A 
ATOM     62  F   UNL A   1      38.902  29.487  31.963  1.00  0.00    -0.203 F 
ATOM     63  F   UNL A   1      36.106  30.784  27.461  1.00  0.00    -0.200 F 
ATOM     64  C   UNL A   1      36.183  30.514  29.805  1.00  0.00     0.200 A 
ATOM     65  F   UNL A   1      36.316  30.251  32.148  1.00  0.00    -0.200 F 
ATOM     66  F   UNL A   1      34.914  30.934  29.910  1.00  0.00    -0.200 F 
ENDBRANCH  42  56
BRANCH  43  67
ATOM     67  C   UNL A   1      48.254  26.347  28.592  1.00  0.00     0.064 A 
ATOM     68  C   UNL A   1      48.819  26.275  27.312  1.00  0.00     0.173 A 
ATOM     69  C   UNL A   1      49.052  25.960  29.679  1.00  0.00     0.173 A 
ATOM     70  F   UNL A   1      48.089  26.611  26.238  1.00  0.00    -0.203 F 
ATOM     71  C   UNL A   1      50.124  25.823  27.124  1.00  0.00     0.198 A 
ATOM     72  C   UNL A   1      50.367  25.536  29.494  1.00  0.00     0.198 A 
ATOM     73  F   UNL A   1      48.560  26.010  30.926  1.00  0.00    -0.203 F 
ATOM     74  F   UNL A   1      50.626  25.725  25.885  1.00  0.00    -0.200 F 
ATOM     75  C   UNL A   1      50.899  25.461  28.216  1.00  0.00     0.200 A 
ATOM     76  F   UNL A   1      51.117  25.202  30.552  1.00  0.00    -0.200 F 
ATOM     77  F   UNL A   1      52.158  25.036  28.035  1.00  0.00    -0.200 F 
ENDBRANCH  43  67
BRANCH  55  78
ATOM     78  C   UNL A   1      45.447  32.544  30.185  1.00  0.00     0.064 A 
ATOM     79  C   UNL A   1      45.804  32.875  31.500  1.00  0.00     0.173 A 
ATOM     80  C   UNL A   1      45.732  33.475  29.173  1.00  0.00     0.173 A 
ATOM     81  F   UNL A   1      45.543  32.025  32.505  1.00  0.00    -0.203 F 
ATOM     82  C   UNL A   1      46.404  34.098  31.792  1.00  0.00     0.198 A 
ATOM     83  C   UNL A   1      46.363  34.681  29.464  1.00  0.00     0.198 A 
ATOM     84  F   UNL A   1      45.419  33.204  27.897  1.00  0.00    -0.203 F 
ATOM     85  F   UNL A   1      46.698  34.411  33.061  1.00  0.00    -0.200 F 
ATOM     86  C   UNL A   1      46.692  34.994  30.773  1.00  0.00     0.200 A 
ATOM     87  F   UNL A   1      46.658  35.536  28.475  1.00  0.00    -0.200 F 
ATOM     88  F   UNL A   1      47.284  36.163  31.055  1.00  0.00    -0.200 F 
ENDBRANCH  55  78
ENDBRANCH  29  30
ENDBRANCH  22  24
ENDBRANCH  21  22
ENDBRANCH  20  21
ENDBRANCH  19  20
ENDBRANCH   1  19
TORSDOF 17
ENDMDL
MODEL 2
REMARK VINA RESULT:      -8.9      3.820      6.401
REMARK SMILES O=C(/C=C/c1ccc(O)c(O)c1)OCCOCCOC(=O)c1ccc(-c2c3nc(c(-c4c(F)c(F)c(F)c(F)c4F)c4ccc([nH]4)c(-c4c(F)c(F)c(F)c(F)c4F)c4nc(c(-c5c(F)c(F)c(F)c(F)c5F)c5ccc2[nH]5)C=C4)C=C3)cc1
REMARK SMILES IDX 16 1 15 2 14 3 13 4 2 5 1 6 3 7 4 8 5 9 6 10 12 11 7 12
REMARK SMILES IDX 10 13 8 14 11 15 9 17 17 19 18 20 19 21 20 22 21 23 22 24
REMARK SMILES IDX 23 25 84 26 24 27 83 28 25 29 26 30 27 31 77 32 28 33 82 34
REMARK SMILES IDX 76 35 78 36 29 37 81 38 75 39 74 40 30 42 62 43 42 44 61 45
REMARK SMILES IDX 43 46 46 47 60 48 79 49 44 50 45 51 59 53 80 54 47 55 31 56
REMARK SMILES IDX 32 57 40 58 33 59 34 60 38 61 41 62 35 63 36 64 39 65 37 66
REMARK SMILES IDX 63 67 64 68 72 69 65 70 66 71 70 72 73 73 67 74 68 75 71 76
REMARK SMILES IDX 69 77 48 78 49 79 57 80 50 81 51 82 55 83 58 84 52 85 53 86
REMARK SMILES IDX 56 87 54 88
REMARK H PARENT 11 16 9 18 78 41 46 52
REMARK Flexibility Score: inf
ROOT
ATOM      1  O   UNL A   1      35.807  23.180  25.012  1.00  0.00    -0.374 OA
ENDROOT
BRANCH   1   2
ATOM      2  C   UNL A   1      34.860  24.108  24.494  1.00  0.00     0.202 C 
BRANCH   2   3
ATOM      3  C   UNL A   1      33.895  24.718  25.505  1.00  0.00     0.261 C 
BRANCH   3   4
ATOM      4  O   UNL A   1      33.522  23.845  26.585  1.00  0.00    -0.460 OA
BRANCH   4   5
ATOM      5  C   UNL A   1      32.549  22.908  26.601  1.00  0.00     0.330 C 
ATOM      6  O   UNL A   1      31.505  23.120  27.214  1.00  0.00    -0.247 OA
BRANCH   5   7
ATOM      7  C   UNL A   1      32.745  21.573  26.012  1.00  0.00     0.094 C 
ATOM      8  C   UNL A   1      32.528  21.187  24.749  1.00  0.00     0.016 C 
BRANCH   8   9
ATOM      9  C   UNL A   1      32.876  19.851  24.270  1.00  0.00    -0.021 A 
ATOM     10  C   UNL A   1      32.220  19.296  23.164  1.00  0.00     0.012 A 
ATOM     11  C   UNL A   1      33.923  19.153  24.887  1.00  0.00     0.058 A 
ATOM     12  C   UNL A   1      32.632  18.066  22.646  1.00  0.00     0.051 A 
ATOM     13  C   UNL A   1      34.325  17.933  24.364  1.00  0.00     0.157 A 
ATOM     14  C   UNL A   1      33.695  17.398  23.243  1.00  0.00     0.157 A 
BRANCH  13  15
ATOM     15  O   UNL A   1      35.366  17.267  24.945  1.00  0.00    -0.504 OA
ATOM     16  H   UNL A   1      35.567  16.390  24.682  1.00  0.00     0.293 HD
ENDBRANCH  13  15
BRANCH  14  17
ATOM     17  O   UNL A   1      34.170  16.215  22.752  1.00  0.00    -0.504 OA
ATOM     18  H   UNL A   1      34.106  16.028  21.835  1.00  0.00     0.293 HD
ENDBRANCH  14  17
ENDBRANCH   8   9
ENDBRANCH   5   7
ENDBRANCH   4   5
ENDBRANCH   3   4
ENDBRANCH   2   3
ENDBRANCH   1   2
BRANCH   1  19
ATOM     19  C   UNL A   1      36.385  22.307  24.034  1.00  0.00     0.202 C 
BRANCH  19  20
ATOM     20  C   UNL A   1      37.293  21.220  24.622  1.00  0.00     0.261 C 
BRANCH  20  21
ATOM     21  O   UNL A   1      37.771  21.597  25.922  1.00  0.00    -0.460 OA
BRANCH  21  22
ATOM     22  C   UNL A   1      39.090  21.371  26.138  1.00  0.00     0.338 C 
ATOM     23  O   UNL A   1      39.754  20.419  25.766  1.00  0.00    -0.246 OA
BRANCH  22  24
ATOM     24  C   UNL A   1      39.680  22.588  26.730  1.00  0.00     0.060 A 
ATOM     25  C   UNL A   1      39.147  23.829  26.349  1.00  0.00     0.016 A 
ATOM     26  C   UNL A   1      40.716  22.516  27.663  1.00  0.00     0.016 A 
ATOM     27  C   UNL A   1      39.677  25.007  26.869  1.00  0.00     0.010 A 
ATOM     28  C   UNL A   1      41.257  23.695  28.171  1.00  0.00     0.010 A 
ATOM     29  C   UNL A   1      40.766  24.943  27.745  1.00  0.00    -0.014 A 
BRANCH  29  30
ATOM     30  C   UNL A   1      41.561  26.154  28.034  1.00  0.00     0.031 A 
ATOM     31  C   UNL A   1      40.877  27.274  28.765  1.00  0.00     0.074 A 
ATOM     32  C   UNL A   1      42.834  26.273  27.627  1.00  0.00     0.049 A 
ATOM     33  N   UNL A   1      41.285  28.494  28.994  1.00  0.00    -0.248 NA
ATOM     34  C   UNL A   1      39.534  26.977  29.290  1.00  0.00     0.031 C 
ATOM     35  C   UNL A   1      43.608  25.233  26.954  1.00  0.00     0.029 A 
ATOM     36  N   UNL A   1      43.690  27.342  27.701  1.00  0.00    -0.354 N 
ATOM     37  C   UNL A   1      40.241  29.114  29.667  1.00  0.00     0.074 A 
ATOM     38  C   UNL A   1      39.171  28.150  29.782  1.00  0.00     0.031 C 
ATOM     39  C   UNL A   1      44.821  25.726  26.649  1.00  0.00     0.029 A 
ATOM     40  C   UNL A   1      44.888  27.126  27.068  1.00  0.00     0.049 A 
ATOM     41  H   UNL A   1      43.467  28.182  28.163  1.00  0.00     0.167 HD
ATOM     42  C   UNL A   1      40.184  30.379  30.145  1.00  0.00     0.037 A 
ATOM     43  C   UNL A   1      45.902  27.979  26.824  1.00  0.00     0.037 A 
ATOM     44  C   UNL A   1      41.258  31.327  30.019  1.00  0.00     0.049 A 
ATOM     45  C   UNL A   1      45.793  29.404  27.307  1.00  0.00     0.074 A 
ATOM     46  C   UNL A   1      41.319  32.628  30.481  1.00  0.00     0.029 A 
ATOM     47  N   UNL A   1      42.458  31.074  29.369  1.00  0.00    -0.354 N 
ATOM     48  N   UNL A   1      44.813  29.988  27.955  1.00  0.00    -0.248 NA
ATOM     49  C   UNL A   1      46.932  30.288  27.025  1.00  0.00     0.031 C 
ATOM     50  C   UNL A   1      42.532  33.183  30.058  1.00  0.00     0.029 A 
ATOM     51  C   UNL A   1      43.258  32.203  29.397  1.00  0.00     0.049 A 
ATOM     52  H   UNL A   1      42.705  30.216  28.952  1.00  0.00     0.167 HD
ATOM     53  C   UNL A   1      45.231  31.292  28.192  1.00  0.00     0.074 A 
ATOM     54  C   UNL A   1      46.555  31.412  27.618  1.00  0.00     0.031 C 
ATOM     55  C   UNL A   1      44.582  32.296  28.833  1.00  0.00     0.037 A 
BRANCH  42  56
ATOM     56  C   UNL A   1      38.906  30.811  30.805  1.00  0.00     0.064 A 
ATOM     57  C   UNL A   1      38.730  30.754  32.196  1.00  0.00     0.173 A 
ATOM     58  C   UNL A   1      37.837  31.286  30.030  1.00  0.00     0.173 A 
ATOM     59  F   UNL A   1      39.713  30.290  32.983  1.00  0.00    -0.203 F 
ATOM     60  C   UNL A   1      37.521  31.119  32.782  1.00  0.00     0.198 A 
ATOM     61  C   UNL A   1      36.642  31.685  30.622  1.00  0.00     0.198 A 
ATOM     62  F   UNL A   1      37.950  31.362  28.695  1.00  0.00    -0.203 F 
ATOM     63  F   UNL A   1      37.355  30.992  34.106  1.00  0.00    -0.200 F 
ATOM     64  C   UNL A   1      36.481  31.591  31.996  1.00  0.00     0.200 A 
ATOM     65  F   UNL A   1      35.643  32.153  29.861  1.00  0.00    -0.200 F 
ATOM     66  F   UNL A   1      35.318  31.944  32.561  1.00  0.00    -0.200 F 
ENDBRANCH  42  56
BRANCH  43  67
ATOM     67  C   UNL A   1      47.100  27.510  26.080  1.00  0.00     0.064 A 
ATOM     68  C   UNL A   1      47.173  27.621  24.686  1.00  0.00     0.173 A 
ATOM     69  C   UNL A   1      48.199  26.946  26.748  1.00  0.00     0.173 A 
ATOM     70  F   UNL A   1      46.139  28.131  24.001  1.00  0.00    -0.203 F 
ATOM     71  C   UNL A   1      48.292  27.177  23.984  1.00  0.00     0.198 A 
ATOM     72  C   UNL A   1      49.330  26.529  26.048  1.00  0.00     0.198 A 
ATOM     73  F   UNL A   1      48.179  26.816  28.082  1.00  0.00    -0.203 F 
ATOM     74  F   UNL A   1      48.319  27.258  22.647  1.00  0.00    -0.200 F 
ATOM     75  C   UNL A   1      49.372  26.638  24.668  1.00  0.00     0.200 A 
ATOM     76  F   UNL A   1      50.376  26.022  26.713  1.00  0.00    -0.200 F 
ATOM     77  F   UNL A   1      50.453  26.220  23.993  1.00  0.00    -0.200 F 
ENDBRANCH  43  67
BRANCH  55  78
ATOM     78  C   UNL A   1      45.313  33.596  29.011  1.00  0.00     0.064 A 
ATOM     79  C   UNL A   1      46.165  33.827  30.101  1.00  0.00     0.173 A 
ATOM     80  C   UNL A   1      45.211  34.598  28.034  1.00  0.00     0.173 A 
ATOM     81  F   UNL A   1      46.289  32.906  31.069  1.00  0.00    -0.203 F 
ATOM     82  C   UNL A   1      46.869  35.023  30.217  1.00  0.00     0.198 A 
ATOM     83  C   UNL A   1      45.942  35.778  28.135  1.00  0.00     0.198 A 
ATOM     84  F   UNL A   1      44.417  34.423  26.967  1.00  0.00    -0.203 F 
ATOM     85  F   UNL A   1      47.644  35.241  31.288  1.00  0.00    -0.200 F 
ATOM     86  C   UNL A   1      46.765  35.992  29.230  1.00  0.00     0.200 A 
ATOM     87  F   UNL A   1      45.856  36.703  27.170  1.00  0.00    -0.200 F 
ATOM     88  F   UNL A   1      47.457  37.135  29.336  1.00  0.00    -0.200 F 
ENDBRANCH  55  78
ENDBRANCH  29  30
ENDBRANCH  22  24
ENDBRANCH  21  22
ENDBRANCH  20  21
ENDBRANCH  19  20
ENDBRANCH   1  19
TORSDOF 17
ENDMDL
MODEL 3
REMARK VINA RESULT:      -8.9      5.687     11.188
REMARK SMILES O=C(/C=C/c1ccc(O)c(O)c1)OCCOCCOC(=O)c1ccc(-c2c3nc(c(-c4c(F)c(F)c(F)c(F)c4F)c4ccc([nH]4)c(-c4c(F)c(F)c(F)c(F)c4F)c4nc(c(-c5c(F)c(F)c(F)c(F)c5F)c5ccc2[nH]5)C=C4)C=C3)cc1
REMARK SMILES IDX 16 1 15 2 14 3 13 4 2 5 1 6 3 7 4 8 5 9 6 10 12 11 7 12
REMARK SMILES IDX 10 13 8 14 11 15 9 17 17 19 18 20 19 21 20 22 21 23 22 24
REMARK SMILES IDX 23 25 84 26 24 27 83 28 25 29 26 30 27 31 77 32 28 33 82 34
REMARK SMILES IDX 76 35 78 36 29 37 81 38 75 39 74 40 30 42 62 43 42 44 61 45
REMARK SMILES IDX 43 46 46 47 60 48 79 49 44 50 45 51 59 53 80 54 47 55 31 56
REMARK SMILES IDX 32 57 40 58 33 59 34 60 38 61 41 62 35 63 36 64 39 65 37 66
REMARK SMILES IDX 63 67 64 68 72 69 65 70 66 71 70 72 73 73 67 74 68 75 71 76
REMARK SMILES IDX 69 77 48 78 49 79 57 80 50 81 51 82 55 83 58 84 52 85 53 86
REMARK SMILES IDX 56 87 54 88
REMARK H PARENT 11 16 9 18 78 41 46 52
REMARK Flexibility Score: inf
ROOT
ATOM      1  O   UNL A   1      33.174  27.940  25.517  1.00  0.00    -0.374 OA
ENDROOT
BRANCH   1   2
ATOM      2  C   UNL A   1      32.963  26.686  24.878  1.00  0.00     0.202 C 
BRANCH   2   3
ATOM      3  C   UNL A   1      32.993  25.459  25.783  1.00  0.00     0.261 C 
BRANCH   3   4
ATOM      4  O   UNL A   1      31.954  24.497  25.530  1.00  0.00    -0.460 OA
BRANCH   4   5
ATOM      5  C   UNL A   1      31.692  23.357  26.206  1.00  0.00     0.330 C 
ATOM      6  O   UNL A   1      31.280  23.414  27.363  1.00  0.00    -0.247 OA
BRANCH   5   7
ATOM      7  C   UNL A   1      32.008  22.032  25.649  1.00  0.00     0.094 C 
ATOM      8  C   UNL A   1      32.678  21.747  24.526  1.00  0.00     0.016 C 
BRANCH   8   9
ATOM      9  C   UNL A   1      33.021  20.377  24.149  1.00  0.00    -0.021 A 
ATOM     10  C   UNL A   1      34.077  19.706  24.777  1.00  0.00     0.012 A 
ATOM     11  C   UNL A   1      32.237  19.713  23.196  1.00  0.00     0.058 A 
ATOM     12  C   UNL A   1      34.330  18.363  24.489  1.00  0.00     0.051 A 
ATOM     13  C   UNL A   1      32.494  18.378  22.918  1.00  0.00     0.157 A 
ATOM     14  C   UNL A   1      33.523  17.702  23.569  1.00  0.00     0.157 A 
BRANCH  13  15
ATOM     15  O   UNL A   1      31.711  17.721  22.013  1.00  0.00    -0.504 OA
ATOM     16  H   UNL A   1      31.173  18.207  21.419  1.00  0.00     0.293 HD
ENDBRANCH  13  15
BRANCH  14  17
ATOM     17  O   UNL A   1      33.694  16.377  23.282  1.00  0.00    -0.504 OA
ATOM     18  H   UNL A   1      33.860  15.765  23.972  1.00  0.00     0.293 HD
ENDBRANCH  14  17
ENDBRANCH   8   9
ENDBRANCH   5   7
ENDBRANCH   4   5
ENDBRANCH   3   4
ENDBRANCH   2   3
ENDBRANCH   1   2
BRANCH   1  19
ATOM     19  C   UNL A   1      32.577  29.058  24.849  1.00  0.00     0.202 C 
BRANCH  19  20
ATOM     20  C   UNL A   1      31.984  30.111  25.793  1.00  0.00     0.261 C 
BRANCH  20  21
ATOM     21  O   UNL A   1      32.712  30.162  27.029  1.00  0.00    -0.460 OA
BRANCH  21  22
ATOM     22  C   UNL A   1      33.310  31.348  27.297  1.00  0.00     0.338 C 
ATOM     23  O   UNL A   1      32.802  32.456  27.299  1.00  0.00    -0.246 OA
BRANCH  22  24
ATOM     24  C   UNL A   1      34.668  31.078  27.811  1.00  0.00     0.060 A 
ATOM     25  C   UNL A   1      35.021  29.745  28.071  1.00  0.00     0.016 A 
ATOM     26  C   UNL A   1      35.589  32.108  28.011  1.00  0.00     0.016 A 
ATOM     27  C   UNL A   1      36.284  29.440  28.569  1.00  0.00     0.010 A 
ATOM     28  C   UNL A   1      36.848  31.806  28.524  1.00  0.00     0.010 A 
ATOM     29  C   UNL A   1      37.184  30.476  28.842  1.00  0.00    -0.014 A 
BRANCH  29  30
ATOM     30  C   UNL A   1      38.374  30.227  29.681  1.00  0.00     0.031 A 
ATOM     31  C   UNL A   1      39.408  29.274  29.153  1.00  0.00     0.074 A 
ATOM     32  C   UNL A   1      38.514  30.794  30.889  1.00  0.00     0.049 A 
ATOM     33  N   UNL A   1      40.449  28.756  29.748  1.00  0.00    -0.248 NA
ATOM     34  C   UNL A   1      39.224  28.829  27.761  1.00  0.00     0.031 C 
ATOM     35  C   UNL A   1      37.597  31.767  31.479  1.00  0.00     0.029 A 
ATOM     36  N   UNL A   1      39.476  30.607  31.849  1.00  0.00    -0.354 N 
ATOM     37  C   UNL A   1      41.028  27.908  28.814  1.00  0.00     0.074 A 
ATOM     38  C   UNL A   1      40.208  27.956  27.625  1.00  0.00     0.031 C 
ATOM     39  C   UNL A   1      38.027  32.072  32.716  1.00  0.00     0.029 A 
ATOM     40  C   UNL A   1      39.221  31.282  33.015  1.00  0.00     0.049 A 
ATOM     41  H   UNL A   1      40.271  30.042  31.713  1.00  0.00     0.167 HD
ATOM     42  C   UNL A   1      42.146  27.157  28.941  1.00  0.00     0.037 A 
ATOM     43  C   UNL A   1      39.862  31.232  34.200  1.00  0.00     0.037 A 
ATOM     44  C   UNL A   1      42.949  27.118  30.133  1.00  0.00     0.049 A 
ATOM     45  C   UNL A   1      41.068  30.338  34.343  1.00  0.00     0.074 A 
ATOM     46  C   UNL A   1      44.111  26.409  30.369  1.00  0.00     0.029 A 
ATOM     47  N   UNL A   1      42.660  27.816  31.298  1.00  0.00    -0.354 N 
ATOM     48  N   UNL A   1      41.624  29.546  33.457  1.00  0.00    -0.248 NA
ATOM     49  C   UNL A   1      41.736  30.331  35.651  1.00  0.00     0.031 C 
ATOM     50  C   UNL A   1      44.493  26.630  31.696  1.00  0.00     0.029 A 
ATOM     51  C   UNL A   1      43.609  27.535  32.265  1.00  0.00     0.049 A 
ATOM     52  H   UNL A   1      41.892  28.422  31.418  1.00  0.00     0.167 HD
ATOM     53  C   UNL A   1      42.726  28.979  34.085  1.00  0.00     0.074 A 
ATOM     54  C   UNL A   1      42.759  29.518  35.428  1.00  0.00     0.031 C 
ATOM     55  C   UNL A   1      43.633  28.097  33.592  1.00  0.00     0.037 A 
BRANCH  42  56
ATOM     56  C   UNL A   1      42.531  26.290  27.776  1.00  0.00     0.064 A 
ATOM     57  C   UNL A   1      43.482  26.697  26.828  1.00  0.00     0.173 A 
ATOM     58  C   UNL A   1      41.935  25.031  27.606  1.00  0.00     0.173 A 
ATOM     59  F   UNL A   1      44.069  27.898  26.933  1.00  0.00    -0.203 F 
ATOM     60  C   UNL A   1      43.792  25.894  25.732  1.00  0.00     0.198 A 
ATOM     61  C   UNL A   1      42.274  24.215  26.530  1.00  0.00     0.198 A 
ATOM     62  F   UNL A   1      41.019  24.591  28.483  1.00  0.00    -0.203 F 
ATOM     63  F   UNL A   1      44.653  26.334  24.805  1.00  0.00    -0.200 F 
ATOM     64  C   UNL A   1      43.193  24.652  25.588  1.00  0.00     0.200 A 
ATOM     65  F   UNL A   1      41.703  23.010  26.400  1.00  0.00    -0.200 F 
ATOM     66  F   UNL A   1      43.494  23.880  24.535  1.00  0.00    -0.200 F 
ENDBRANCH  42  56
BRANCH  43  67
ATOM     67  C   UNL A   1      39.369  32.046  35.341  1.00  0.00     0.064 A 
ATOM     68  C   UNL A   1      38.524  31.491  36.312  1.00  0.00     0.173 A 
ATOM     69  C   UNL A   1      39.737  33.392  35.490  1.00  0.00     0.173 A 
ATOM     70  F   UNL A   1      38.125  30.215  36.200  1.00  0.00    -0.203 F 
ATOM     71  C   UNL A   1      38.055  32.252  37.380  1.00  0.00     0.198 A 
ATOM     72  C   UNL A   1      39.291  34.145  36.576  1.00  0.00     0.198 A 
ATOM     73  F   UNL A   1      40.543  33.972  34.589  1.00  0.00    -0.203 F 
ATOM     74  F   UNL A   1      37.216  31.707  38.272  1.00  0.00    -0.200 F 
ATOM     75  C   UNL A   1      38.446  33.576  37.515  1.00  0.00     0.200 A 
ATOM     76  F   UNL A   1      39.682  35.419  36.709  1.00  0.00    -0.200 F 
ATOM     77  F   UNL A   1      38.002  34.306  38.549  1.00  0.00    -0.200 F 
ENDBRANCH  43  67
BRANCH  55  78
ATOM     78  C   UNL A   1      44.778  27.707  34.482  1.00  0.00     0.064 A 
ATOM     79  C   UNL A   1      45.960  28.460  34.546  1.00  0.00     0.173 A 
ATOM     80  C   UNL A   1      44.659  26.599  35.335  1.00  0.00     0.173 A 
ATOM     81  F   UNL A   1      46.129  29.522  33.744  1.00  0.00    -0.203 F 
ATOM     82  C   UNL A   1      46.988  28.103  35.416  1.00  0.00     0.198 A 
ATOM     83  C   UNL A   1      45.673  26.266  36.227  1.00  0.00     0.198 A 
ATOM     84  F   UNL A   1      43.545  25.851  35.320  1.00  0.00    -0.203 F 
ATOM     85  F   UNL A   1      48.126  28.811  35.430  1.00  0.00    -0.200 F 
ATOM     86  C   UNL A   1      46.840  27.014  36.262  1.00  0.00     0.200 A 
ATOM     87  F   UNL A   1      45.520  25.225  37.057  1.00  0.00    -0.200 F 
ATOM     88  F   UNL A   1      47.824  26.683  37.110  1.00  0.00    -0.200 F 
ENDBRANCH  55  78
ENDBRANCH  29  30
ENDBRANCH  22  24
ENDBRANCH  21  22
ENDBRANCH  20  21
ENDBRANCH  19  20
ENDBRANCH   1  19
TORSDOF 17
ENDMDL
