MODEL 1
REMARK VINA RESULT:     -10.9      0.000      0.000
REMARK SMILES O=C(OCCOCCOC(=O)[C@@H]1C=C[C@H](Nc2ncccn2)C1)c1ccc(-c2c3nc(c(-c4c(F)c(F)c(F)c(F)c4F)c4ccc([nH]4)c(-c4c(F)c(F)c(F)c(F)c4F)c4nc(c(-c5c(F)c(F)c(F)c(F)c5F)c5ccc2[nH]5)C=C4)C=C3)cc1
REMARK SMILES IDX 6 1 5 2 4 3 3 4 2 5 1 6 24 7 25 8 86 9 26 10 85 11 27 12
REMARK SMILES IDX 28 13 29 14 79 15 30 16 84 17 78 18 80 19 31 20 83 21 77 22
REMARK SMILES IDX 76 23 32 25 64 26 44 27 63 28 45 29 48 30 62 31 81 32 46 33
REMARK SMILES IDX 47 34 61 36 82 37 49 38 33 39 34 40 42 41 35 42 36 43 40 44
REMARK SMILES IDX 43 45 37 46 38 47 41 48 39 49 65 50 66 51 74 52 67 53 68 54
REMARK SMILES IDX 72 55 75 56 69 57 70 58 73 59 71 60 50 61 51 62 59 63 52 64
REMARK SMILES IDX 53 65 57 66 60 67 54 68 55 69 58 70 56 71 7 72 8 73 9 74
REMARK SMILES IDX 10 75 11 76 12 77 13 78 23 79 14 80 15 81 16 82 17 84 18 85
REMARK SMILES IDX 22 86 19 87 21 88 20 89
REMARK H PARENT 80 24 48 35 16 83
REMARK Flexibility Score: inf
ROOT
ATOM      1  O   UNL A   1      31.400  31.120  26.251  1.00  0.00    -0.374 OA
ENDROOT
BRANCH   1   2
ATOM      2  C   UNL A   1      31.387  32.521  26.529  1.00  0.00     0.202 C 
BRANCH   2   3
ATOM      3  C   UNL A   1      32.657  33.042  27.208  1.00  0.00     0.261 C 
BRANCH   3   4
ATOM      4  O   UNL A   1      32.363  34.226  27.967  1.00  0.00    -0.460 OA
BRANCH   4   5
ATOM      5  C   UNL A   1      33.070  34.735  29.001  1.00  0.00     0.338 C 
ATOM      6  O   UNL A   1      32.683  35.774  29.534  1.00  0.00    -0.246 OA
BRANCH   5   7
ATOM      7  C   UNL A   1      34.263  34.056  29.584  1.00  0.00     0.060 A 
ATOM      8  C   UNL A   1      34.222  33.018  30.518  1.00  0.00     0.016 A 
ATOM      9  C   UNL A   1      35.515  34.453  29.090  1.00  0.00     0.016 A 
ATOM     10  C   UNL A   1      35.367  32.403  30.976  1.00  0.00     0.010 A 
ATOM     11  C   UNL A   1      36.682  33.837  29.538  1.00  0.00     0.010 A 
ATOM     12  C   UNL A   1      36.597  32.818  30.491  1.00  0.00    -0.014 A 
BRANCH  12  13
ATOM     13  C   UNL A   1      37.782  32.269  31.148  1.00  0.00     0.031 A 
ATOM     14  C   UNL A   1      38.574  31.256  30.394  1.00  0.00     0.074 A 
ATOM     15  C   UNL A   1      38.184  32.787  32.319  1.00  0.00     0.049 A 
ATOM     16  N   UNL A   1      39.577  30.528  30.789  1.00  0.00    -0.248 NA
ATOM     17  C   UNL A   1      38.179  31.042  28.990  1.00  0.00     0.031 C 
ATOM     18  C   UNL A   1      37.543  33.909  33.007  1.00  0.00     0.029 A 
ATOM     19  N   UNL A   1      39.233  32.449  33.124  1.00  0.00    -0.354 N 
ATOM     20  C   UNL A   1      39.903  29.733  29.702  1.00  0.00     0.074 A 
ATOM     21  C   UNL A   1      39.002  30.073  28.625  1.00  0.00     0.031 C 
ATOM     22  C   UNL A   1      38.208  34.157  34.146  1.00  0.00     0.029 A 
ATOM     23  C   UNL A   1      39.260  33.159  34.296  1.00  0.00     0.049 A 
ATOM     24  H   UNL A   1      39.901  31.766  32.887  1.00  0.00     0.167 HD
ATOM     25  C   UNL A   1      40.863  28.783  29.641  1.00  0.00     0.037 A 
ATOM     26  C   UNL A   1      40.018  32.961  35.388  1.00  0.00     0.037 A 
ATOM     27  C   UNL A   1      41.721  28.487  30.756  1.00  0.00     0.049 A 
ATOM     28  C   UNL A   1      41.009  31.829  35.343  1.00  0.00     0.074 A 
ATOM     29  C   UNL A   1      42.689  27.514  30.875  1.00  0.00     0.029 A 
ATOM     30  N   UNL A   1      41.692  29.185  31.962  1.00  0.00    -0.354 N 
ATOM     31  N   UNL A   1      41.264  30.998  34.358  1.00  0.00    -0.248 NA
ATOM     32  C   UNL A   1      41.802  31.593  36.552  1.00  0.00     0.031 C 
ATOM     33  C   UNL A   1      43.207  27.584  32.174  1.00  0.00     0.029 A 
ATOM     34  C   UNL A   1      42.614  28.649  32.841  1.00  0.00     0.049 A 
ATOM     35  H   UNL A   1      41.102  29.948  32.159  1.00  0.00     0.167 HD
ATOM     36  C   UNL A   1      42.267  30.157  34.812  1.00  0.00     0.074 A 
ATOM     37  C   UNL A   1      42.571  30.582  36.167  1.00  0.00     0.031 C 
ATOM     38  C   UNL A   1      42.885  29.131  34.175  1.00  0.00     0.037 A 
BRANCH  25  39
ATOM     39  C   UNL A   1      40.924  27.958  28.389  1.00  0.00     0.064 A 
ATOM     40  C   UNL A   1      40.223  26.748  28.249  1.00  0.00     0.173 A 
ATOM     41  C   UNL A   1      41.775  28.343  27.341  1.00  0.00     0.173 A 
ATOM     42  F   UNL A   1      39.422  26.313  29.234  1.00  0.00    -0.203 F 
ATOM     43  C   UNL A   1      40.412  25.935  27.133  1.00  0.00     0.198 A 
ATOM     44  C   UNL A   1      41.933  27.545  26.211  1.00  0.00     0.198 A 
ATOM     45  F   UNL A   1      42.478  29.482  27.425  1.00  0.00    -0.203 F 
ATOM     46  F   UNL A   1      39.801  24.745  27.063  1.00  0.00    -0.200 F 
ATOM     47  C   UNL A   1      41.265  26.335  26.115  1.00  0.00     0.200 A 
ATOM     48  F   UNL A   1      42.756  27.935  25.228  1.00  0.00    -0.200 F 
ATOM     49  F   UNL A   1      41.460  25.542  25.052  1.00  0.00    -0.200 F 
ENDBRANCH  25  39
BRANCH  26  50
ATOM     50  C   UNL A   1      39.811  33.803  36.594  1.00  0.00     0.064 A 
ATOM     51  C   UNL A   1      40.444  35.044  36.736  1.00  0.00     0.173 A 
ATOM     52  C   UNL A   1      38.933  33.403  37.616  1.00  0.00     0.173 A 
ATOM     53  F   UNL A   1      41.303  35.467  35.797  1.00  0.00    -0.203 F 
ATOM     54  C   UNL A   1      40.211  35.849  37.852  1.00  0.00     0.198 A 
ATOM     55  C   UNL A   1      38.679  34.220  38.715  1.00  0.00     0.198 A 
ATOM     56  F   UNL A   1      38.297  32.225  37.531  1.00  0.00    -0.203 F 
ATOM     57  F   UNL A   1      40.852  37.018  37.975  1.00  0.00    -0.200 F 
ATOM     58  C   UNL A   1      39.322  35.440  38.834  1.00  0.00     0.200 A 
ATOM     59  F   UNL A   1      37.804  33.828  39.652  1.00  0.00    -0.200 F 
ATOM     60  F   UNL A   1      39.088  36.222  39.898  1.00  0.00    -0.200 F 
ENDBRANCH  26  50
BRANCH  38  61
ATOM     61  C   UNL A   1      43.994  28.446  34.912  1.00  0.00     0.064 A 
ATOM     62  C   UNL A   1      43.765  27.314  35.706  1.00  0.00     0.173 A 
ATOM     63  C   UNL A   1      45.317  28.880  34.738  1.00  0.00     0.173 A 
ATOM     64  F   UNL A   1      42.514  26.873  35.910  1.00  0.00    -0.203 F 
ATOM     65  C   UNL A   1      44.825  26.644  36.308  1.00  0.00     0.198 A 
ATOM     66  C   UNL A   1      46.375  28.188  35.314  1.00  0.00     0.198 A 
ATOM     67  F   UNL A   1      45.581  29.954  33.980  1.00  0.00    -0.203 F 
ATOM     68  F   UNL A   1      44.586  25.581  37.089  1.00  0.00    -0.200 F 
ATOM     69  C   UNL A   1      46.129  27.074  36.100  1.00  0.00     0.200 A 
ATOM     70  F   UNL A   1      47.634  28.592  35.097  1.00  0.00    -0.200 F 
ATOM     71  F   UNL A   1      47.149  26.411  36.661  1.00  0.00    -0.200 F 
ENDBRANCH  38  61
ENDBRANCH  12  13
ENDBRANCH   5   7
ENDBRANCH   4   5
ENDBRANCH   3   4
ENDBRANCH   2   3
ENDBRANCH   1   2
BRANCH   1  72
ATOM     72  C   UNL A   1      32.603  30.431  26.592  1.00  0.00     0.202 C 
BRANCH  72  73
ATOM     73  C   UNL A   1      32.284  29.126  27.316  1.00  0.00     0.261 C 
BRANCH  73  74
ATOM     74  O   UNL A   1      32.863  28.015  26.609  1.00  0.00    -0.463 OA
BRANCH  74  75
ATOM     75  C   UNL A   1      31.962  27.120  26.098  1.00  0.00     0.312 C 
ATOM     76  O   UNL A   1      31.007  26.658  26.699  1.00  0.00    -0.252 OA
BRANCH  75  77
ATOM     77  C   UNL A   1      32.305  26.818  24.641  1.00  0.00     0.124 C 
ATOM     78  C   UNL A   1      33.312  27.776  24.074  1.00  0.00    -0.014 C 
ATOM     79  C   UNL A   1      31.089  27.046  23.730  1.00  0.00     0.048 C 
ATOM     80  C   UNL A   1      32.746  28.660  23.245  1.00  0.00    -0.006 C 
ATOM     81  C   UNL A   1      31.275  28.428  23.085  1.00  0.00     0.106 C 
BRANCH  81  82
ATOM     82  N   UNL A   1      30.577  29.463  23.795  1.00  0.00    -0.348 N 
ATOM     83  H   UNL A   1      30.748  29.619  24.752  1.00  0.00     0.164 HD
BRANCH  82  84
ATOM     84  C   UNL A   1      29.664  30.230  23.113  1.00  0.00     0.223 A 
ATOM     85  N   UNL A   1      29.368  29.851  21.862  1.00  0.00    -0.222 NA
ATOM     86  N   UNL A   1      29.089  31.279  23.724  1.00  0.00    -0.222 NA
ATOM     87  C   UNL A   1      28.427  30.567  21.215  1.00  0.00     0.117 A 
ATOM     88  C   UNL A   1      28.177  31.979  23.029  1.00  0.00     0.117 A 
ATOM     89  C   UNL A   1      27.790  31.657  21.755  1.00  0.00     0.040 A 
ENDBRANCH  82  84
ENDBRANCH  81  82
ENDBRANCH  75  77
ENDBRANCH  74  75
ENDBRANCH  73  74
ENDBRANCH  72  73
ENDBRANCH   1  72
TORSDOF 16
ENDMDL
MODEL 2
REMARK VINA RESULT:     -10.8      3.407      4.819
REMARK SMILES O=C(OCCOCCOC(=O)[C@@H]1C=C[C@H](Nc2ncccn2)C1)c1ccc(-c2c3nc(c(-c4c(F)c(F)c(F)c(F)c4F)c4ccc([nH]4)c(-c4c(F)c(F)c(F)c(F)c4F)c4nc(c(-c5c(F)c(F)c(F)c(F)c5F)c5ccc2[nH]5)C=C4)C=C3)cc1
REMARK SMILES IDX 6 1 5 2 4 3 3 4 2 5 1 6 24 7 25 8 86 9 26 10 85 11 27 12
REMARK SMILES IDX 28 13 29 14 79 15 30 16 84 17 78 18 80 19 31 20 83 21 77 22
REMARK SMILES IDX 76 23 32 25 64 26 44 27 63 28 45 29 48 30 62 31 81 32 46 33
REMARK SMILES IDX 47 34 61 36 82 37 49 38 33 39 34 40 42 41 35 42 36 43 40 44
REMARK SMILES IDX 43 45 37 46 38 47 41 48 39 49 65 50 66 51 74 52 67 53 68 54
REMARK SMILES IDX 72 55 75 56 69 57 70 58 73 59 71 60 50 61 51 62 59 63 52 64
REMARK SMILES IDX 53 65 57 66 60 67 54 68 55 69 58 70 56 71 7 72 8 73 9 74
REMARK SMILES IDX 10 75 11 76 12 77 13 78 23 79 14 80 15 81 16 82 17 84 18 85
REMARK SMILES IDX 22 86 19 87 21 88 20 89
REMARK H PARENT 80 24 48 35 16 83
REMARK Flexibility Score: inf
ROOT
ATOM      1  O   UNL A   1      31.316  27.823  25.008  1.00  0.00    -0.374 OA
ENDROOT
BRANCH   1   2
ATOM      2  C   UNL A   1      31.552  29.224  24.863  1.00  0.00     0.202 C 
BRANCH   2   3
ATOM      3  C   UNL A   1      32.849  29.716  25.512  1.00  0.00     0.261 C 
BRANCH   3   4
ATOM      4  O   UNL A   1      32.551  30.555  26.640  1.00  0.00    -0.460 OA
BRANCH   4   5
ATOM      5  C   UNL A   1      33.367  31.458  27.229  1.00  0.00     0.338 C 
ATOM      6  O   UNL A   1      33.027  32.640  27.256  1.00  0.00    -0.246 OA
BRANCH   5   7
ATOM      7  C   UNL A   1      34.633  31.083  27.922  1.00  0.00     0.060 A 
ATOM      8  C   UNL A   1      34.963  29.798  28.358  1.00  0.00     0.016 A 
ATOM      9  C   UNL A   1      35.590  32.099  28.072  1.00  0.00     0.016 A 
ATOM     10  C   UNL A   1      36.176  29.516  28.946  1.00  0.00     0.010 A 
ATOM     11  C   UNL A   1      36.824  31.829  28.660  1.00  0.00     0.010 A 
ATOM     12  C   UNL A   1      37.104  30.533  29.104  1.00  0.00    -0.014 A 
BRANCH  12  13
ATOM     13  C   UNL A   1      38.289  30.224  29.903  1.00  0.00     0.031 A 
ATOM     14  C   UNL A   1      39.344  29.388  29.264  1.00  0.00     0.074 A 
ATOM     15  C   UNL A   1      38.444  30.808  31.101  1.00  0.00     0.049 A 
ATOM     16  N   UNL A   1      40.417  28.869  29.786  1.00  0.00    -0.248 NA
ATOM     17  C   UNL A   1      39.164  29.105  27.829  1.00  0.00     0.031 C 
ATOM     18  C   UNL A   1      37.522  31.781  31.689  1.00  0.00     0.029 A 
ATOM     19  N   UNL A   1      39.438  30.679  32.027  1.00  0.00    -0.354 N 
ATOM     20  C   UNL A   1      41.015  28.156  28.759  1.00  0.00     0.074 A 
ATOM     21  C   UNL A   1      40.196  28.317  27.580  1.00  0.00     0.031 C 
ATOM     22  C   UNL A   1      37.989  32.151  32.891  1.00  0.00     0.029 A 
ATOM     23  C   UNL A   1      39.190  31.377  33.181  1.00  0.00     0.049 A 
ATOM     24  H   UNL A   1      40.250  30.141  31.882  1.00  0.00     0.167 HD
ATOM     25  C   UNL A   1      42.142  27.412  28.827  1.00  0.00     0.037 A 
ATOM     26  C   UNL A   1      39.841  31.329  34.356  1.00  0.00     0.037 A 
ATOM     27  C   UNL A   1      42.906  27.287  30.038  1.00  0.00     0.049 A 
ATOM     28  C   UNL A   1      41.032  30.413  34.446  1.00  0.00     0.074 A 
ATOM     29  C   UNL A   1      44.025  26.521  30.286  1.00  0.00     0.029 A 
ATOM     30  N   UNL A   1      42.603  27.962  31.218  1.00  0.00    -0.354 N 
ATOM     31  N   UNL A   1      41.556  29.650  33.514  1.00  0.00    -0.248 NA
ATOM     32  C   UNL A   1      41.710  30.333  35.742  1.00  0.00     0.031 C 
ATOM     33  C   UNL A   1      44.365  26.688  31.633  1.00  0.00     0.029 A 
ATOM     34  C   UNL A   1      43.503  27.614  32.207  1.00  0.00     0.049 A 
ATOM     35  H   UNL A   1      41.857  28.594  31.331  1.00  0.00     0.167 HD
ATOM     36  C   UNL A   1      42.644  29.020  34.096  1.00  0.00     0.074 A 
ATOM     37  C   UNL A   1      42.700  29.493  35.468  1.00  0.00     0.031 C 
ATOM     38  C   UNL A   1      43.519  28.137  33.554  1.00  0.00     0.037 A 
BRANCH  25  39
ATOM     39  C   UNL A   1      42.507  26.618  27.607  1.00  0.00     0.064 A 
ATOM     40  C   UNL A   1      41.996  25.332  27.364  1.00  0.00     0.173 A 
ATOM     41  C   UNL A   1      43.459  27.122  26.707  1.00  0.00     0.173 A 
ATOM     42  F   UNL A   1      41.109  24.787  28.210  1.00  0.00    -0.203 F 
ATOM     43  C   UNL A   1      42.463  24.565  26.299  1.00  0.00     0.198 A 
ATOM     44  C   UNL A   1      43.896  26.366  25.623  1.00  0.00     0.198 A 
ATOM     45  F   UNL A   1      43.990  28.339  26.895  1.00  0.00    -0.203 F 
ATOM     46  F   UNL A   1      42.026  23.308  26.139  1.00  0.00    -0.200 F 
ATOM     47  C   UNL A   1      43.411  25.082  25.428  1.00  0.00     0.200 A 
ATOM     48  F   UNL A   1      44.811  26.869  24.782  1.00  0.00    -0.200 F 
ATOM     49  F   UNL A   1      43.873  24.335  24.416  1.00  0.00    -0.200 F 
ENDBRANCH  25  39
BRANCH  26  50
ATOM     50  C   UNL A   1      39.336  32.111  35.513  1.00  0.00     0.064 A 
ATOM     51  C   UNL A   1      38.473  31.542  36.457  1.00  0.00     0.173 A 
ATOM     52  C   UNL A   1      39.745  33.438  35.725  1.00  0.00     0.173 A 
ATOM     53  F   UNL A   1      38.040  30.283  36.295  1.00  0.00    -0.203 F 
ATOM     54  C   UNL A   1      38.036  32.269  37.566  1.00  0.00     0.198 A 
ATOM     55  C   UNL A   1      39.332  34.154  36.847  1.00  0.00     0.198 A 
ATOM     56  F   UNL A   1      40.574  34.033  34.854  1.00  0.00    -0.203 F 
ATOM     57  F   UNL A   1      37.188  31.710  38.438  1.00  0.00    -0.200 F 
ATOM     58  C   UNL A   1      38.474  33.570  37.763  1.00  0.00     0.200 A 
ATOM     59  F   UNL A   1      39.774  35.404  37.042  1.00  0.00    -0.200 F 
ATOM     60  F   UNL A   1      38.065  34.262  38.837  1.00  0.00    -0.200 F 
ENDBRANCH  26  50
BRANCH  38  61
ATOM     61  C   UNL A   1      44.648  27.680  34.426  1.00  0.00     0.064 A 
ATOM     62  C   UNL A   1      44.554  26.521  35.208  1.00  0.00     0.173 A 
ATOM     63  C   UNL A   1      45.870  28.367  34.398  1.00  0.00     0.173 A 
ATOM     64  F   UNL A   1      43.399  25.841  35.275  1.00  0.00    -0.203 F 
ATOM     65  C   UNL A   1      45.648  26.070  35.941  1.00  0.00     0.198 A 
ATOM     66  C   UNL A   1      46.969  27.894  35.104  1.00  0.00     0.198 A 
ATOM     67  F   UNL A   1      46.006  29.475  33.656  1.00  0.00    -0.203 F 
ATOM     68  F   UNL A   1      45.532  24.977  36.708  1.00  0.00    -0.200 F 
ATOM     69  C   UNL A   1      46.856  26.749  35.877  1.00  0.00     0.200 A 
ATOM     70  F   UNL A   1      48.141  28.539  35.026  1.00  0.00    -0.200 F 
ATOM     71  F   UNL A   1      47.915  26.297  36.563  1.00  0.00    -0.200 F 
ENDBRANCH  38  61
ENDBRANCH  12  13
ENDBRANCH   5   7
ENDBRANCH   4   5
ENDBRANCH   3   4
ENDBRANCH   2   3
ENDBRANCH   1   2
BRANCH   1  72
ATOM     72  C   UNL A   1      31.239  27.342  26.350  1.00  0.00     0.202 C 
BRANCH  72  73
ATOM     73  C   UNL A   1      32.060  26.065  26.508  1.00  0.00     0.261 C 
BRANCH  73  74
ATOM     74  O   UNL A   1      31.207  24.975  26.896  1.00  0.00    -0.463 OA
BRANCH  74  75
ATOM     75  C   UNL A   1      31.690  23.727  26.604  1.00  0.00     0.312 C 
ATOM     76  O   UNL A   1      31.486  22.720  27.261  1.00  0.00    -0.252 OA
BRANCH  75  77
ATOM     77  C   UNL A   1      32.490  23.775  25.305  1.00  0.00     0.124 C 
ATOM     78  C   UNL A   1      31.734  23.205  24.141  1.00  0.00    -0.014 C 
ATOM     79  C   UNL A   1      33.717  22.853  25.380  1.00  0.00     0.048 C 
ATOM     80  C   UNL A   1      32.185  21.992  23.800  1.00  0.00    -0.006 C 
ATOM     81  C   UNL A   1      33.339  21.556  24.649  1.00  0.00     0.106 C 
BRANCH  81  82
ATOM     82  N   UNL A   1      32.875  20.535  25.547  1.00  0.00    -0.348 N 
ATOM     83  H   UNL A   1      32.359  20.771  26.352  1.00  0.00     0.164 HD
BRANCH  82  84
ATOM     84  C   UNL A   1      33.167  19.223  25.262  1.00  0.00     0.223 A 
ATOM     85  N   UNL A   1      32.285  18.303  25.676  1.00  0.00    -0.222 NA
ATOM     86  N   UNL A   1      34.274  18.926  24.565  1.00  0.00    -0.222 NA
ATOM     87  C   UNL A   1      32.540  17.021  25.344  1.00  0.00     0.117 A 
ATOM     88  C   UNL A   1      34.501  17.632  24.280  1.00  0.00     0.117 A 
ATOM     89  C   UNL A   1      33.648  16.621  24.638  1.00  0.00     0.040 A 
ENDBRANCH  82  84
ENDBRANCH  81  82
ENDBRANCH  75  77
ENDBRANCH  74  75
ENDBRANCH  73  74
ENDBRANCH  72  73
ENDBRANCH   1  72
TORSDOF 16
ENDMDL
MODEL 3
REMARK VINA RESULT:     -10.8      3.896      9.199
REMARK SMILES O=C(OCCOCCOC(=O)[C@@H]1C=C[C@H](Nc2ncccn2)C1)c1ccc(-c2c3nc(c(-c4c(F)c(F)c(F)c(F)c4F)c4ccc([nH]4)c(-c4c(F)c(F)c(F)c(F)c4F)c4nc(c(-c5c(F)c(F)c(F)c(F)c5F)c5ccc2[nH]5)C=C4)C=C3)cc1
REMARK SMILES IDX 6 1 5 2 4 3 3 4 2 5 1 6 24 7 25 8 86 9 26 10 85 11 27 12
REMARK SMILES IDX 28 13 29 14 79 15 30 16 84 17 78 18 80 19 31 20 83 21 77 22
REMARK SMILES IDX 76 23 32 25 64 26 44 27 63 28 45 29 48 30 62 31 81 32 46 33
REMARK SMILES IDX 47 34 61 36 82 37 49 38 33 39 34 40 42 41 35 42 36 43 40 44
REMARK SMILES IDX 43 45 37 46 38 47 41 48 39 49 65 50 66 51 74 52 67 53 68 54
REMARK SMILES IDX 72 55 75 56 69 57 70 58 73 59 71 60 50 61 51 62 59 63 52 64
REMARK SMILES IDX 53 65 57 66 60 67 54 68 55 69 58 70 56 71 7 72 8 73 9 74
REMARK SMILES IDX 10 75 11 76 12 77 13 78 23 79 14 80 15 81 16 82 17 84 18 85
REMARK SMILES IDX 22 86 19 87 21 88 20 89
REMARK H PARENT 80 24 48 35 16 83
REMARK Flexibility Score: inf
ROOT
ATOM      1  O   UNL A   1      40.902  20.873  26.979  1.00  0.00    -0.374 OA
ENDROOT
BRANCH   1   2
ATOM      2  C   UNL A   1      42.312  20.647  26.986  1.00  0.00     0.202 C 
BRANCH   2   3
ATOM      3  C   UNL A   1      43.049  21.221  25.772  1.00  0.00     0.261 C 
BRANCH   3   4
ATOM      4  O   UNL A   1      42.418  22.437  25.338  1.00  0.00    -0.460 OA
BRANCH   4   5
ATOM      5  C   UNL A   1      42.937  23.685  25.364  1.00  0.00     0.338 C 
ATOM      6  O   UNL A   1      43.754  24.009  24.503  1.00  0.00    -0.246 OA
BRANCH   5   7
ATOM      7  C   UNL A   1      42.511  24.725  26.343  1.00  0.00     0.060 A 
ATOM      8  C   UNL A   1      43.021  26.024  26.414  1.00  0.00     0.016 A 
ATOM      9  C   UNL A   1      41.459  24.380  27.208  1.00  0.00     0.016 A 
ATOM     10  C   UNL A   1      42.541  26.949  27.314  1.00  0.00     0.010 A 
ATOM     11  C   UNL A   1      40.959  25.306  28.121  1.00  0.00     0.010 A 
ATOM     12  C   UNL A   1      41.515  26.588  28.173  1.00  0.00    -0.014 A 
BRANCH  12  13
ATOM     13  C   UNL A   1      41.178  27.538  29.232  1.00  0.00     0.031 A 
ATOM     14  C   UNL A   1      42.056  27.560  30.435  1.00  0.00     0.074 A 
ATOM     15  C   UNL A   1      40.198  28.431  29.025  1.00  0.00     0.049 A 
ATOM     16  N   UNL A   1      41.908  28.205  31.556  1.00  0.00    -0.248 NA
ATOM     17  C   UNL A   1      43.280  26.744  30.357  1.00  0.00     0.031 C 
ATOM     18  C   UNL A   1      39.431  28.568  27.785  1.00  0.00     0.029 A 
ATOM     19  N   UNL A   1      39.693  29.399  29.844  1.00  0.00    -0.354 N 
ATOM     20  C   UNL A   1      42.991  27.834  32.337  1.00  0.00     0.074 A 
ATOM     21  C   UNL A   1      43.797  26.919  31.562  1.00  0.00     0.031 C 
ATOM     22  C   UNL A   1      38.538  29.557  27.934  1.00  0.00     0.029 A 
ATOM     23  C   UNL A   1      38.621  30.057  29.300  1.00  0.00     0.049 A 
ATOM     24  H   UNL A   1      40.063  29.604  30.734  1.00  0.00     0.167 HD
ATOM     25  C   UNL A   1      43.255  28.218  33.606  1.00  0.00     0.037 A 
ATOM     26  C   UNL A   1      37.770  30.917  29.886  1.00  0.00     0.037 A 
ATOM     27  C   UNL A   1      42.404  29.127  34.324  1.00  0.00     0.049 A 
ATOM     28  C   UNL A   1      38.016  31.252  31.333  1.00  0.00     0.074 A 
ATOM     29  C   UNL A   1      42.496  29.557  35.631  1.00  0.00     0.029 A 
ATOM     30  N   UNL A   1      41.283  29.741  33.770  1.00  0.00    -0.354 N 
ATOM     31  N   UNL A   1      38.979  30.833  32.122  1.00  0.00    -0.248 NA
ATOM     32  C   UNL A   1      37.060  32.157  31.976  1.00  0.00     0.031 C 
ATOM     33  C   UNL A   1      41.397  30.386  35.885  1.00  0.00     0.029 A 
ATOM     34  C   UNL A   1      40.660  30.533  34.716  1.00  0.00     0.049 A 
ATOM     35  H   UNL A   1      40.979  29.627  32.841  1.00  0.00     0.167 HD
ATOM     36  C   UNL A   1      38.768  31.443  33.347  1.00  0.00     0.074 A 
ATOM     37  C   UNL A   1      37.578  32.262  33.193  1.00  0.00     0.031 C 
ATOM     38  C   UNL A   1      39.485  31.344  34.494  1.00  0.00     0.037 A 
BRANCH  25  39
ATOM     39  C   UNL A   1      44.421  27.562  34.286  1.00  0.00     0.064 A 
ATOM     40  C   UNL A   1      45.714  28.110  34.260  1.00  0.00     0.173 A 
ATOM     41  C   UNL A   1      44.255  26.311  34.900  1.00  0.00     0.173 A 
ATOM     42  F   UNL A   1      45.938  29.287  33.656  1.00  0.00    -0.203 F 
ATOM     43  C   UNL A   1      46.801  27.407  34.777  1.00  0.00     0.198 A 
ATOM     44  C   UNL A   1      45.337  25.628  35.448  1.00  0.00     0.198 A 
ATOM     45  F   UNL A   1      43.045  25.734  34.944  1.00  0.00    -0.203 F 
ATOM     46  F   UNL A   1      48.038  27.910  34.662  1.00  0.00    -0.200 F 
ATOM     47  C   UNL A   1      46.612  26.168  35.372  1.00  0.00     0.200 A 
ATOM     48  F   UNL A   1      45.151  24.432  36.024  1.00  0.00    -0.200 F 
ATOM     49  F   UNL A   1      47.661  25.485  35.851  1.00  0.00    -0.200 F 
ENDBRANCH  25  39
BRANCH  26  50
ATOM     50  C   UNL A   1      36.609  31.442  29.123  1.00  0.00     0.064 A 
ATOM     51  C   UNL A   1      35.523  30.623  28.791  1.00  0.00     0.173 A 
ATOM     52  C   UNL A   1      36.540  32.795  28.749  1.00  0.00     0.173 A 
ATOM     53  F   UNL A   1      35.544  29.322  29.111  1.00  0.00    -0.203 F 
ATOM     54  C   UNL A   1      34.416  31.134  28.112  1.00  0.00     0.198 A 
ATOM     55  C   UNL A   1      35.421  33.310  28.097  1.00  0.00     0.198 A 
ATOM     56  F   UNL A   1      37.550  33.626  29.044  1.00  0.00    -0.203 F 
ATOM     57  F   UNL A   1      33.404  30.322  27.781  1.00  0.00    -0.200 F 
ATOM     58  C   UNL A   1      34.363  32.478  27.774  1.00  0.00     0.200 A 
ATOM     59  F   UNL A   1      35.368  34.614  27.790  1.00  0.00    -0.200 F 
ATOM     60  F   UNL A   1      33.292  32.970  27.135  1.00  0.00    -0.200 F 
ENDBRANCH  26  50
BRANCH  38  61
ATOM     61  C   UNL A   1      39.041  32.191  35.647  1.00  0.00     0.064 A 
ATOM     62  C   UNL A   1      38.257  31.673  36.686  1.00  0.00     0.173 A 
ATOM     63  C   UNL A   1      39.493  33.515  35.750  1.00  0.00     0.173 A 
ATOM     64  F   UNL A   1      37.792  30.415  36.621  1.00  0.00    -0.203 F 
ATOM     65  C   UNL A   1      37.933  32.457  37.788  1.00  0.00     0.198 A 
ATOM     66  C   UNL A   1      39.195  34.283  36.868  1.00  0.00     0.198 A 
ATOM     67  F   UNL A   1      40.253  34.048  34.782  1.00  0.00    -0.203 F 
ATOM     68  F   UNL A   1      37.156  31.956  38.759  1.00  0.00    -0.200 F 
ATOM     69  C   UNL A   1      38.413  33.756  37.884  1.00  0.00     0.200 A 
ATOM     70  F   UNL A   1      39.675  35.530  36.969  1.00  0.00    -0.200 F 
ATOM     71  F   UNL A   1      38.120  34.500  38.960  1.00  0.00    -0.200 F 
ENDBRANCH  38  61
ENDBRANCH  12  13
ENDBRANCH   5   7
ENDBRANCH   4   5
ENDBRANCH   3   4
ENDBRANCH   2   3
ENDBRANCH   1   2
BRANCH   1  72
ATOM     72  C   UNL A   1      40.139  20.009  26.137  1.00  0.00     0.202 C 
BRANCH  72  73
ATOM     73  C   UNL A   1      38.937  20.750  25.559  1.00  0.00     0.261 C 
BRANCH  73  74
ATOM     74  O   UNL A   1      38.717  21.974  26.282  1.00  0.00    -0.463 OA
BRANCH  74  75
ATOM     75  C   UNL A   1      37.856  22.854  25.684  1.00  0.00     0.312 C 
ATOM     76  O   UNL A   1      37.912  24.069  25.775  1.00  0.00    -0.252 OA
BRANCH  75  77
ATOM     77  C   UNL A   1      36.836  22.089  24.845  1.00  0.00     0.124 C 
ATOM     78  C   UNL A   1      36.594  22.725  23.507  1.00  0.00    -0.014 C 
ATOM     79  C   UNL A   1      35.441  22.144  25.488  1.00  0.00     0.048 C 
ATOM     80  C   UNL A   1      35.420  23.363  23.464  1.00  0.00    -0.006 C 
ATOM     81  C   UNL A   1      34.656  23.237  24.746  1.00  0.00     0.106 C 
BRANCH  81  82
ATOM     82  N   UNL A   1      34.705  24.503  25.424  1.00  0.00    -0.348 N 
ATOM     83  H   UNL A   1      35.567  24.898  25.689  1.00  0.00     0.164 HD
BRANCH  82  84
ATOM     84  C   UNL A   1      33.524  25.150  25.698  1.00  0.00     0.223 A 
ATOM     85  N   UNL A   1      33.558  26.489  25.720  1.00  0.00    -0.222 NA
ATOM     86  N   UNL A   1      32.404  24.435  25.889  1.00  0.00    -0.222 NA
ATOM     87  C   UNL A   1      32.388  27.125  25.928  1.00  0.00     0.117 A 
ATOM     88  C   UNL A   1      31.266  25.112  26.120  1.00  0.00     0.117 A 
ATOM     89  C   UNL A   1      31.195  26.480  26.138  1.00  0.00     0.040 A 
ENDBRANCH  82  84
ENDBRANCH  81  82
ENDBRANCH  75  77
ENDBRANCH  74  75
ENDBRANCH  73  74
ENDBRANCH  72  73
ENDBRANCH   1  72
TORSDOF 16
ENDMDL
