MODEL 1
REMARK VINA RESULT:     -12.2      0.000      0.000
REMARK SMILES O=C(CCCN1C(=O)c2ccc3c4c(ccc(c24)C1=O)C(=O)NC3=O)OCCOCCOC(=O)c1ccc(-c2c3nc(c(-c4c(F)c(F)c(F)c(F)c4F)c4ccc([nH]4)c(-c4c(F)c(F)c(F)c(F)c4F)c4nc(c(-c5c(F)c(F)c(F)c(F)c5F)c5ccc2[nH]5)C=C4)C=C3)cc1
REMARK SMILES IDX 28 1 27 2 26 3 2 4 1 5 3 6 4 7 5 8 6 9 19 10 7 11 20 12
REMARK SMILES IDX 17 13 9 14 8 15 16 16 18 17 10 18 15 19 13 20 11 21 14 22
REMARK SMILES IDX 12 23 21 24 24 25 23 26 22 27 25 28 29 30 30 31 31 32 32 33
REMARK SMILES IDX 33 34 34 35 35 36 36 37 97 38 37 39 96 40 38 41 39 42 40 43
REMARK SMILES IDX 90 44 41 45 95 46 89 47 91 48 42 49 94 50 88 51 87 52 43 54
REMARK SMILES IDX 75 55 55 56 74 57 56 58 59 59 73 60 92 61 57 62 58 63 72 65
REMARK SMILES IDX 93 66 60 67 44 68 45 69 53 70 46 71 47 72 51 73 54 74 48 75
REMARK SMILES IDX 49 76 52 77 50 78 76 79 77 80 85 81 78 82 79 83 83 84 86 85
REMARK SMILES IDX 80 86 81 87 84 88 82 89 61 90 62 91 70 92 63 93 64 94 68 95
REMARK SMILES IDX 71 96 65 97 66 98 69 99 67 100
REMARK H PARENT 23 29 91 53 59 64
REMARK Flexibility Score: inf
ROOT
ATOM      1  C   UNL A   1      44.880  19.816  24.247  1.00  0.00     0.202 C 
ENDROOT
BRANCH   1   2
ATOM      2  C   UNL A   1      43.760  19.119  25.001  1.00  0.00     0.261 C 
BRANCH   2   3
ATOM      3  O   UNL A   1      42.805  20.038  25.537  1.00  0.00    -0.463 OA
BRANCH   3   4
ATOM      4  C   UNL A   1      42.367  20.029  26.812  1.00  0.00     0.305 C 
ATOM      5  O   UNL A   1      42.094  18.947  27.334  1.00  0.00    -0.252 OA
BRANCH   4   6
ATOM      6  C   UNL A   1      42.157  21.321  27.577  1.00  0.00     0.124 C 
BRANCH   6   7
ATOM      7  C   UNL A   1      40.813  22.031  27.438  1.00  0.00     0.034 C 
BRANCH   7   8
ATOM      8  C   UNL A   1      40.151  22.145  26.046  1.00  0.00     0.130 C 
BRANCH   8   9
ATOM      9  N   UNL A   1      38.695  21.975  25.908  1.00  0.00    -0.274 N 
ATOM     10  C   UNL A   1      37.873  23.101  25.925  1.00  0.00     0.261 C 
ATOM     11  C   UNL A   1      38.237  20.696  25.566  1.00  0.00     0.261 C 
ATOM     12  O   UNL A   1      38.291  24.249  26.044  1.00  0.00    -0.269 OA
ATOM     13  C   UNL A   1      36.412  22.884  25.756  1.00  0.00     0.049 A 
ATOM     14  C   UNL A   1      36.795  20.533  25.264  1.00  0.00     0.049 A 
ATOM     15  O   UNL A   1      38.954  19.699  25.510  1.00  0.00    -0.269 OA
ATOM     16  C   UNL A   1      35.531  23.964  25.893  1.00  0.00     0.015 A 
ATOM     17  C   UNL A   1      35.929  21.617  25.412  1.00  0.00     0.009 A 
ATOM     18  C   UNL A   1      36.308  19.281  24.854  1.00  0.00     0.015 A 
ATOM     19  C   UNL A   1      34.163  23.787  25.679  1.00  0.00     0.015 A 
ATOM     20  C   UNL A   1      34.539  21.431  25.189  1.00  0.00     0.009 A 
ATOM     21  C   UNL A   1      34.943  19.092  24.643  1.00  0.00     0.015 A 
ATOM     22  C   UNL A   1      33.673  22.526  25.325  1.00  0.00     0.048 A 
ATOM     23  C   UNL A   1      34.062  20.162  24.826  1.00  0.00     0.048 A 
ATOM     24  C   UNL A   1      32.225  22.346  25.066  1.00  0.00     0.258 C 
ATOM     25  C   UNL A   1      32.609  19.957  24.628  1.00  0.00     0.258 C 
ATOM     26  N   UNL A   1      31.816  21.072  24.753  1.00  0.00    -0.288 N 
ATOM     27  O   UNL A   1      31.441  23.287  25.112  1.00  0.00    -0.269 OA
ATOM     28  O   UNL A   1      32.148  18.853  24.367  1.00  0.00    -0.269 OA
ATOM     29  H   UNL A   1      30.852  20.944  24.600  1.00  0.00     0.173 HD
ENDBRANCH   8   9
ENDBRANCH   7   8
ENDBRANCH   6   7
ENDBRANCH   4   6
ENDBRANCH   3   4
ENDBRANCH   2   3
ENDBRANCH   1   2
BRANCH   1  30
ATOM     30  O   UNL A   1      45.738  20.587  25.089  1.00  0.00    -0.374 OA
BRANCH  30  31
ATOM     31  C   UNL A   1      45.191  21.862  25.454  1.00  0.00     0.202 C 
BRANCH  31  32
ATOM     32  C   UNL A   1      44.608  22.618  24.251  1.00  0.00     0.261 C 
BRANCH  32  33
ATOM     33  O   UNL A   1      43.839  23.756  24.679  1.00  0.00    -0.460 OA
BRANCH  33  34
ATOM     34  C   UNL A   1      44.577  24.823  25.074  1.00  0.00     0.338 C 
ATOM     35  O   UNL A   1      45.595  25.252  24.549  1.00  0.00    -0.246 OA
BRANCH  34  36
ATOM     36  C   UNL A   1      43.843  25.576  26.119  1.00  0.00     0.060 A 
ATOM     37  C   UNL A   1      43.974  26.969  26.096  1.00  0.00     0.016 A 
ATOM     38  C   UNL A   1      43.007  24.976  27.061  1.00  0.00     0.016 A 
ATOM     39  C   UNL A   1      43.296  27.772  27.007  1.00  0.00     0.010 A 
ATOM     40  C   UNL A   1      42.338  25.778  27.996  1.00  0.00     0.010 A 
ATOM     41  C   UNL A   1      42.498  27.177  27.985  1.00  0.00    -0.014 A 
BRANCH  41  42
ATOM     42  C   UNL A   1      41.984  28.007  29.100  1.00  0.00     0.031 A 
ATOM     43  C   UNL A   1      42.768  28.037  30.381  1.00  0.00     0.074 A 
ATOM     44  C   UNL A   1      40.877  28.759  28.965  1.00  0.00     0.049 A 
ATOM     45  N   UNL A   1      42.479  28.607  31.523  1.00  0.00    -0.248 NA
ATOM     46  C   UNL A   1      44.058  27.328  30.371  1.00  0.00     0.031 C 
ATOM     47  C   UNL A   1      40.078  28.881  27.747  1.00  0.00     0.029 A 
ATOM     48  N   UNL A   1      40.229  29.560  29.874  1.00  0.00    -0.354 N 
ATOM     49  C   UNL A   1      43.538  28.307  32.369  1.00  0.00     0.074 A 
ATOM     50  C   UNL A   1      44.470  27.496  31.618  1.00  0.00     0.031 C 
ATOM     51  C   UNL A   1      39.036  29.696  27.990  1.00  0.00     0.029 A 
ATOM     52  C   UNL A   1      39.070  30.115  29.390  1.00  0.00     0.049 A 
ATOM     53  H   UNL A   1      40.565  29.722  30.785  1.00  0.00     0.167 HD
ATOM     54  C   UNL A   1      43.715  28.679  33.658  1.00  0.00     0.037 A 
ATOM     55  C   UNL A   1      38.128  30.844  30.021  1.00  0.00     0.037 A 
ATOM     56  C   UNL A   1      42.793  29.499  34.395  1.00  0.00     0.049 A 
ATOM     57  C   UNL A   1      38.309  31.172  31.483  1.00  0.00     0.074 A 
ATOM     58  C   UNL A   1      42.885  29.936  35.704  1.00  0.00     0.029 A 
ATOM     59  N   UNL A   1      41.608  30.007  33.885  1.00  0.00    -0.354 N 
ATOM     60  N   UNL A   1      39.305  30.877  32.284  1.00  0.00    -0.248 NA
ATOM     61  C   UNL A   1      37.228  31.929  32.132  1.00  0.00     0.031 C 
ATOM     62  C   UNL A   1      41.730  30.666  36.003  1.00  0.00     0.029 A 
ATOM     63  C   UNL A   1      40.946  30.731  34.863  1.00  0.00     0.049 A 
ATOM     64  H   UNL A   1      41.285  29.872  32.965  1.00  0.00     0.167 HD
ATOM     65  C   UNL A   1      38.985  31.434  33.516  1.00  0.00     0.074 A 
ATOM     66  C   UNL A   1      37.710  32.100  33.355  1.00  0.00     0.031 C 
ATOM     67  C   UNL A   1      39.682  31.397  34.678  1.00  0.00     0.037 A 
BRANCH  54  68
ATOM     68  C   UNL A   1      44.933  28.169  34.367  1.00  0.00     0.064 A 
ATOM     69  C   UNL A   1      46.144  28.876  34.362  1.00  0.00     0.173 A 
ATOM     70  C   UNL A   1      44.873  26.972  35.096  1.00  0.00     0.173 A 
ATOM     71  F   UNL A   1      46.258  30.016  33.663  1.00  0.00    -0.203 F 
ATOM     72  C   UNL A   1      47.254  28.394  35.050  1.00  0.00     0.198 A 
ATOM     73  C   UNL A   1      45.976  26.508  35.805  1.00  0.00     0.198 A 
ATOM     74  F   UNL A   1      43.737  26.257  35.130  1.00  0.00    -0.203 F 
ATOM     75  F   UNL A   1      48.414  29.066  35.000  1.00  0.00    -0.200 F 
ATOM     76  C   UNL A   1      47.168  27.216  35.777  1.00  0.00     0.200 A 
ATOM     77  F   UNL A   1      45.886  25.375  36.515  1.00  0.00    -0.200 F 
ATOM     78  F   UNL A   1      48.235  26.762  36.449  1.00  0.00    -0.200 F 
ENDBRANCH  54  68
BRANCH  55  79
ATOM     79  C   UNL A   1      36.904  31.282  29.297  1.00  0.00     0.064 A 
ATOM     80  C   UNL A   1      35.886  30.373  28.972  1.00  0.00     0.173 A 
ATOM     81  C   UNL A   1      36.749  32.609  28.870  1.00  0.00     0.173 A 
ATOM     82  F   UNL A   1      36.000  29.085  29.330  1.00  0.00    -0.203 F 
ATOM     83  C   UNL A   1      34.777  30.768  28.227  1.00  0.00     0.198 A 
ATOM     84  C   UNL A   1      35.623  33.011  28.153  1.00  0.00     0.198 A 
ATOM     85  F   UNL A   1      37.694  33.518  29.147  1.00  0.00    -0.203 F 
ATOM     86  F   UNL A   1      33.851  29.865  27.878  1.00  0.00    -0.200 F 
ATOM     87  C   UNL A   1      34.644  32.087  27.822  1.00  0.00     0.200 A 
ATOM     88  F   UNL A   1      35.496  34.289  27.772  1.00  0.00    -0.200 F 
ATOM     89  F   UNL A   1      33.580  32.466  27.101  1.00  0.00    -0.200 F 
ENDBRANCH  55  79
BRANCH  67  90
ATOM     90  C   UNL A   1      39.104  32.127  35.856  1.00  0.00     0.064 A 
ATOM     91  C   UNL A   1      38.246  31.494  36.768  1.00  0.00     0.173 A 
ATOM     92  C   UNL A   1      39.449  33.465  36.100  1.00  0.00     0.173 A 
ATOM     93  F   UNL A   1      37.875  30.219  36.571  1.00  0.00    -0.203 F 
ATOM     94  C   UNL A   1      37.736  32.181  37.866  1.00  0.00     0.198 A 
ATOM     95  C   UNL A   1      38.963  34.139  37.217  1.00  0.00     0.198 A 
ATOM     96  F   UNL A   1      40.274  34.114  35.264  1.00  0.00    -0.203 F 
ATOM     97  F   UNL A   1      36.881  31.570  38.697  1.00  0.00    -0.200 F 
ATOM     98  C   UNL A   1      38.101  33.499  38.094  1.00  0.00     0.200 A 
ATOM     99  F   UNL A   1      39.330  35.408  37.444  1.00  0.00    -0.200 F 
ATOM    100  F   UNL A   1      37.616  34.156  39.157  1.00  0.00    -0.200 F 
ENDBRANCH  67  90
ENDBRANCH  41  42
ENDBRANCH  34  36
ENDBRANCH  33  34
ENDBRANCH  32  33
ENDBRANCH  31  32
ENDBRANCH  30  31
ENDBRANCH   1  30
TORSDOF 17
ENDMDL
MODEL 2
REMARK VINA RESULT:     -12.2      0.589      7.023
REMARK SMILES O=C(CCCN1C(=O)c2ccc3c4c(ccc(c24)C1=O)C(=O)NC3=O)OCCOCCOC(=O)c1ccc(-c2c3nc(c(-c4c(F)c(F)c(F)c(F)c4F)c4ccc([nH]4)c(-c4c(F)c(F)c(F)c(F)c4F)c4nc(c(-c5c(F)c(F)c(F)c(F)c5F)c5ccc2[nH]5)C=C4)C=C3)cc1
REMARK SMILES IDX 28 1 27 2 26 3 2 4 1 5 3 6 4 7 5 8 6 9 19 10 7 11 20 12
REMARK SMILES IDX 17 13 9 14 8 15 16 16 18 17 10 18 15 19 13 20 11 21 14 22
REMARK SMILES IDX 12 23 21 24 24 25 23 26 22 27 25 28 29 30 30 31 31 32 32 33
REMARK SMILES IDX 33 34 34 35 35 36 36 37 97 38 37 39 96 40 38 41 39 42 40 43
REMARK SMILES IDX 90 44 41 45 95 46 89 47 91 48 42 49 94 50 88 51 87 52 43 54
REMARK SMILES IDX 75 55 55 56 74 57 56 58 59 59 73 60 92 61 57 62 58 63 72 65
REMARK SMILES IDX 93 66 60 67 44 68 45 69 53 70 46 71 47 72 51 73 54 74 48 75
REMARK SMILES IDX 49 76 52 77 50 78 76 79 77 80 85 81 78 82 79 83 83 84 86 85
REMARK SMILES IDX 80 86 81 87 84 88 82 89 61 90 62 91 70 92 63 93 64 94 68 95
REMARK SMILES IDX 71 96 65 97 66 98 69 99 67 100
REMARK H PARENT 23 29 91 53 59 64
REMARK Flexibility Score: inf
ROOT
ATOM      1  C   UNL A   1      45.511  20.267  24.344  1.00  0.00     0.202 C 
ENDROOT
BRANCH   1   2
ATOM      2  C   UNL A   1      44.437  19.357  24.915  1.00  0.00     0.261 C 
BRANCH   2   3
ATOM      3  O   UNL A   1      43.209  20.047  25.164  1.00  0.00    -0.463 OA
BRANCH   3   4
ATOM      4  C   UNL A   1      42.458  19.894  26.274  1.00  0.00     0.305 C 
ATOM      5  O   UNL A   1      41.911  18.808  26.471  1.00  0.00    -0.252 OA
BRANCH   4   6
ATOM      6  C   UNL A   1      42.239  21.046  27.235  1.00  0.00     0.124 C 
BRANCH   6   7
ATOM      7  C   UNL A   1      40.919  21.807  27.158  1.00  0.00     0.034 C 
BRANCH   7   8
ATOM      8  C   UNL A   1      40.176  21.912  25.806  1.00  0.00     0.130 C 
BRANCH   8   9
ATOM      9  N   UNL A   1      38.714  21.741  25.755  1.00  0.00    -0.274 N 
ATOM     10  C   UNL A   1      37.893  22.863  25.866  1.00  0.00     0.261 C 
ATOM     11  C   UNL A   1      38.238  20.474  25.394  1.00  0.00     0.261 C 
ATOM     12  O   UNL A   1      38.315  24.007  26.003  1.00  0.00    -0.269 OA
ATOM     13  C   UNL A   1      36.425  22.645  25.783  1.00  0.00     0.049 A 
ATOM     14  C   UNL A   1      36.780  20.316  25.179  1.00  0.00     0.049 A 
ATOM     15  O   UNL A   1      38.952  19.484  25.254  1.00  0.00    -0.269 OA
ATOM     16  C   UNL A   1      35.552  23.716  26.017  1.00  0.00     0.015 A 
ATOM     17  C   UNL A   1      35.923  21.391  25.422  1.00  0.00     0.009 A 
ATOM     18  C   UNL A   1      36.271  19.078  24.753  1.00  0.00     0.015 A 
ATOM     19  C   UNL A   1      34.174  23.541  25.883  1.00  0.00     0.015 A 
ATOM     20  C   UNL A   1      34.522  21.207  25.281  1.00  0.00     0.009 A 
ATOM     21  C   UNL A   1      34.895  18.892  24.622  1.00  0.00     0.015 A 
ATOM     22  C   UNL A   1      33.664  22.292  25.514  1.00  0.00     0.048 A 
ATOM     23  C   UNL A   1      34.026  19.950  24.901  1.00  0.00     0.048 A 
ATOM     24  C   UNL A   1      32.203  22.116  25.340  1.00  0.00     0.258 C 
ATOM     25  C   UNL A   1      32.563  19.746  24.789  1.00  0.00     0.258 C 
ATOM     26  N   UNL A   1      31.778  20.853  25.005  1.00  0.00    -0.288 N 
ATOM     27  O   UNL A   1      31.422  23.050  25.472  1.00  0.00    -0.269 OA
ATOM     28  O   UNL A   1      32.088  18.651  24.516  1.00  0.00    -0.269 OA
ATOM     29  H   UNL A   1      30.806  20.726  24.910  1.00  0.00     0.173 HD
ENDBRANCH   8   9
ENDBRANCH   7   8
ENDBRANCH   6   7
ENDBRANCH   4   6
ENDBRANCH   3   4
ENDBRANCH   2   3
ENDBRANCH   1   2
BRANCH   1  30
ATOM     30  O   UNL A   1      46.216  21.009  25.339  1.00  0.00    -0.374 OA
BRANCH  30  31
ATOM     31  C   UNL A   1      45.564  22.231  25.714  1.00  0.00     0.202 C 
BRANCH  31  32
ATOM     32  C   UNL A   1      45.058  23.024  24.501  1.00  0.00     0.261 C 
BRANCH  32  33
ATOM     33  O   UNL A   1      44.131  24.049  24.903  1.00  0.00    -0.460 OA
BRANCH  33  34
ATOM     34  C   UNL A   1      44.705  25.229  25.245  1.00  0.00     0.338 C 
ATOM     35  O   UNL A   1      45.568  25.838  24.627  1.00  0.00    -0.246 OA
BRANCH  34  36
ATOM     36  C   UNL A   1      43.964  25.831  26.379  1.00  0.00     0.060 A 
ATOM     37  C   UNL A   1      44.192  27.190  26.625  1.00  0.00     0.016 A 
ATOM     38  C   UNL A   1      43.034  25.136  27.152  1.00  0.00     0.016 A 
ATOM     39  C   UNL A   1      43.518  27.862  27.639  1.00  0.00     0.010 A 
ATOM     40  C   UNL A   1      42.369  25.802  28.190  1.00  0.00     0.010 A 
ATOM     41  C   UNL A   1      42.624  27.161  28.451  1.00  0.00    -0.014 A 
BRANCH  41  42
ATOM     42  C   UNL A   1      42.104  27.809  29.678  1.00  0.00     0.031 A 
ATOM     43  C   UNL A   1      40.811  28.569  29.585  1.00  0.00     0.074 A 
ATOM     44  C   UNL A   1      42.733  27.684  30.860  1.00  0.00     0.049 A 
ATOM     45  N   UNL A   1      40.204  29.295  30.488  1.00  0.00    -0.248 NA
ATOM     46  C   UNL A   1      40.106  28.497  28.295  1.00  0.00     0.031 C 
ATOM     47  C   UNL A   1      43.946  26.902  31.097  1.00  0.00     0.029 A 
ATOM     48  N   UNL A   1      42.435  28.223  32.088  1.00  0.00    -0.354 N 
ATOM     49  C   UNL A   1      39.060  29.781  29.869  1.00  0.00     0.074 A 
ATOM     50  C   UNL A   1      39.062  29.281  28.512  1.00  0.00     0.031 C 
ATOM     51  C   UNL A   1      44.299  27.029  32.389  1.00  0.00     0.029 A 
ATOM     52  C   UNL A   1      43.365  27.933  33.056  1.00  0.00     0.049 A 
ATOM     53  H   UNL A   1      41.631  28.766  32.257  1.00  0.00     0.167 HD
ATOM     54  C   UNL A   1      38.095  30.573  30.390  1.00  0.00     0.037 A 
ATOM     55  C   UNL A   1      43.466  28.380  34.324  1.00  0.00     0.037 A 
ATOM     56  C   UNL A   1      38.090  31.055  31.744  1.00  0.00     0.049 A 
ATOM     57  C   UNL A   1      42.421  29.333  34.853  1.00  0.00     0.074 A 
ATOM     58  C   UNL A   1      37.153  31.858  32.370  1.00  0.00     0.029 A 
ATOM     59  N   UNL A   1      39.070  30.775  32.684  1.00  0.00    -0.354 N 
ATOM     60  N   UNL A   1      41.347  29.800  34.262  1.00  0.00    -0.248 NA
ATOM     61  C   UNL A   1      42.607  29.826  36.226  1.00  0.00     0.031 C 
ATOM     62  C   UNL A   1      37.594  32.108  33.674  1.00  0.00     0.029 A 
ATOM     63  C   UNL A   1      38.776  31.413  33.877  1.00  0.00     0.049 A 
ATOM     64  H   UNL A   1      39.859  30.208  32.526  1.00  0.00     0.167 HD
ATOM     65  C   UNL A   1      40.719  30.615  35.195  1.00  0.00     0.074 A 
ATOM     66  C   UNL A   1      41.522  30.567  36.399  1.00  0.00     0.031 C 
ATOM     67  C   UNL A   1      39.581  31.342  35.069  1.00  0.00     0.037 A 
BRANCH  54  68
ATOM     68  C   UNL A   1      36.984  31.003  29.481  1.00  0.00     0.064 A 
ATOM     69  C   UNL A   1      36.964  32.271  28.882  1.00  0.00     0.173 A 
ATOM     70  C   UNL A   1      35.943  30.115  29.173  1.00  0.00     0.173 A 
ATOM     71  F   UNL A   1      37.927  33.164  29.160  1.00  0.00    -0.203 F 
ATOM     72  C   UNL A   1      35.934  32.639  28.021  1.00  0.00     0.198 A 
ATOM     73  C   UNL A   1      34.930  30.475  28.290  1.00  0.00     0.198 A 
ATOM     74  F   UNL A   1      35.914  28.891  29.722  1.00  0.00    -0.203 F 
ATOM     75  F   UNL A   1      35.914  33.870  27.490  1.00  0.00    -0.200 F 
ATOM     76  C   UNL A   1      34.923  31.738  27.718  1.00  0.00     0.200 A 
ATOM     77  F   UNL A   1      33.960  29.599  27.992  1.00  0.00    -0.200 F 
ATOM     78  F   UNL A   1      33.939  32.090  26.879  1.00  0.00    -0.200 F 
ENDBRANCH  54  68
BRANCH  55  79
ATOM     79  C   UNL A   1      44.617  27.977  35.176  1.00  0.00     0.064 A 
ATOM     80  C   UNL A   1      44.516  26.909  36.079  1.00  0.00     0.173 A 
ATOM     81  C   UNL A   1      45.827  28.687  35.143  1.00  0.00     0.173 A 
ATOM     82  F   UNL A   1      43.370  26.218  36.173  1.00  0.00    -0.203 F 
ATOM     83  C   UNL A   1      45.569  26.584  36.932  1.00  0.00     0.198 A 
ATOM     84  C   UNL A   1      46.891  28.340  35.973  1.00  0.00     0.198 A 
ATOM     85  F   UNL A   1      45.976  29.722  34.304  1.00  0.00    -0.203 F 
ATOM     86  F   UNL A   1      45.423  25.598  37.827  1.00  0.00    -0.200 F 
ATOM     87  C   UNL A   1      46.757  27.296  36.875  1.00  0.00     0.200 A 
ATOM     88  F   UNL A   1      48.040  29.026  35.907  1.00  0.00    -0.200 F 
ATOM     89  F   UNL A   1      47.768  26.986  37.698  1.00  0.00    -0.200 F 
ENDBRANCH  55  79
BRANCH  67  90
ATOM     90  C   UNL A   1      39.113  32.111  36.271  1.00  0.00     0.064 A 
ATOM     91  C   UNL A   1      39.524  33.431  36.508  1.00  0.00     0.173 A 
ATOM     92  C   UNL A   1      38.205  31.534  37.172  1.00  0.00     0.173 A 
ATOM     93  F   UNL A   1      40.402  34.022  35.683  1.00  0.00    -0.203 F 
ATOM     94  C   UNL A   1      39.063  34.135  37.617  1.00  0.00     0.198 A 
ATOM     95  C   UNL A   1      37.721  32.252  38.261  1.00  0.00     0.198 A 
ATOM     96  F   UNL A   1      37.773  30.278  36.985  1.00  0.00    -0.203 F 
ATOM     97  F   UNL A   1      39.507  35.378  37.849  1.00  0.00    -0.200 F 
ATOM     98  C   UNL A   1      38.157  33.549  38.487  1.00  0.00     0.200 A 
ATOM     99  F   UNL A   1      36.832  31.690  39.092  1.00  0.00    -0.200 F 
ATOM    100  F   UNL A   1      37.707  34.233  39.549  1.00  0.00    -0.200 F 
ENDBRANCH  67  90
ENDBRANCH  41  42
ENDBRANCH  34  36
ENDBRANCH  33  34
ENDBRANCH  32  33
ENDBRANCH  31  32
ENDBRANCH  30  31
ENDBRANCH   1  30
TORSDOF 17
ENDMDL
MODEL 3
REMARK VINA RESULT:     -11.8      0.284      2.177
REMARK SMILES O=C(CCCN1C(=O)c2ccc3c4c(ccc(c24)C1=O)C(=O)NC3=O)OCCOCCOC(=O)c1ccc(-c2c3nc(c(-c4c(F)c(F)c(F)c(F)c4F)c4ccc([nH]4)c(-c4c(F)c(F)c(F)c(F)c4F)c4nc(c(-c5c(F)c(F)c(F)c(F)c5F)c5ccc2[nH]5)C=C4)C=C3)cc1
REMARK SMILES IDX 28 1 27 2 26 3 2 4 1 5 3 6 4 7 5 8 6 9 19 10 7 11 20 12
REMARK SMILES IDX 17 13 9 14 8 15 16 16 18 17 10 18 15 19 13 20 11 21 14 22
REMARK SMILES IDX 12 23 21 24 24 25 23 26 22 27 25 28 29 30 30 31 31 32 32 33
REMARK SMILES IDX 33 34 34 35 35 36 36 37 97 38 37 39 96 40 38 41 39 42 40 43
REMARK SMILES IDX 90 44 41 45 95 46 89 47 91 48 42 49 94 50 88 51 87 52 43 54
REMARK SMILES IDX 75 55 55 56 74 57 56 58 59 59 73 60 92 61 57 62 58 63 72 65
REMARK SMILES IDX 93 66 60 67 44 68 45 69 53 70 46 71 47 72 51 73 54 74 48 75
REMARK SMILES IDX 49 76 52 77 50 78 76 79 77 80 85 81 78 82 79 83 83 84 86 85
REMARK SMILES IDX 80 86 81 87 84 88 82 89 61 90 62 91 70 92 63 93 64 94 68 95
REMARK SMILES IDX 71 96 65 97 66 98 69 99 67 100
REMARK H PARENT 23 29 91 53 59 64
REMARK Flexibility Score: inf
ROOT
ATOM      1  C   UNL A   1      44.894  19.755  24.339  1.00  0.00     0.202 C 
ENDROOT
BRANCH   1   2
ATOM      2  C   UNL A   1      43.779  19.266  25.248  1.00  0.00     0.261 C 
BRANCH   2   3
ATOM      3  O   UNL A   1      43.027  20.340  25.819  1.00  0.00    -0.463 OA
BRANCH   3   4
ATOM      4  C   UNL A   1      42.231  20.225  26.902  1.00  0.00     0.305 C 
ATOM      5  O   UNL A   1      41.747  19.124  27.163  1.00  0.00    -0.252 OA
BRANCH   4   6
ATOM      6  C   UNL A   1      41.888  21.432  27.752  1.00  0.00     0.124 C 
BRANCH   6   7
ATOM      7  C   UNL A   1      40.608  22.199  27.432  1.00  0.00     0.034 C 
BRANCH   7   8
ATOM      8  C   UNL A   1      40.077  22.227  25.981  1.00  0.00     0.130 C 
BRANCH   8   9
ATOM      9  N   UNL A   1      38.656  21.952  25.711  1.00  0.00    -0.274 N 
ATOM     10  C   UNL A   1      38.254  20.645  25.440  1.00  0.00     0.261 C 
ATOM     11  C   UNL A   1      37.755  23.000  25.942  1.00  0.00     0.261 C 
ATOM     12  O   UNL A   1      39.021  19.687  25.415  1.00  0.00    -0.269 OA
ATOM     13  C   UNL A   1      36.806  20.412  25.200  1.00  0.00     0.049 A 
ATOM     14  C   UNL A   1      36.307  22.706  25.834  1.00  0.00     0.049 A 
ATOM     15  O   UNL A   1      38.091  24.149  26.219  1.00  0.00    -0.269 OA
ATOM     16  C   UNL A   1      36.367  19.144  24.797  1.00  0.00     0.015 A 
ATOM     17  C   UNL A   1      35.885  21.440  25.425  1.00  0.00     0.009 A 
ATOM     18  C   UNL A   1      35.370  23.713  26.121  1.00  0.00     0.015 A 
ATOM     19  C   UNL A   1      35.004  18.894  24.626  1.00  0.00     0.015 A 
ATOM     20  C   UNL A   1      34.497  21.191  25.255  1.00  0.00     0.009 A 
ATOM     21  C   UNL A   1      34.006  23.474  25.947  1.00  0.00     0.015 A 
ATOM     22  C   UNL A   1      34.076  19.914  24.858  1.00  0.00     0.048 A 
ATOM     23  C   UNL A   1      33.577  22.222  25.501  1.00  0.00     0.048 A 
ATOM     24  C   UNL A   1      32.627  19.638  24.708  1.00  0.00     0.258 C 
ATOM     25  C   UNL A   1      32.132  21.976  25.290  1.00  0.00     0.258 C 
ATOM     26  N   UNL A   1      31.781  20.698  24.924  1.00  0.00    -0.288 N 
ATOM     27  O   UNL A   1      32.211  18.522  24.423  1.00  0.00    -0.269 OA
ATOM     28  O   UNL A   1      31.302  22.864  25.438  1.00  0.00    -0.269 OA
ATOM     29  H   UNL A   1      30.819  20.525  24.805  1.00  0.00     0.173 HD
ENDBRANCH   8   9
ENDBRANCH   7   8
ENDBRANCH   6   7
ENDBRANCH   4   6
ENDBRANCH   3   4
ENDBRANCH   2   3
ENDBRANCH   1   2
BRANCH   1  30
ATOM     30  O   UNL A   1      45.897  20.505  25.024  1.00  0.00    -0.374 OA
BRANCH  30  31
ATOM     31  C   UNL A   1      45.479  21.830  25.383  1.00  0.00     0.202 C 
BRANCH  31  32
ATOM     32  C   UNL A   1      44.913  22.611  24.189  1.00  0.00     0.261 C 
BRANCH  32  33
ATOM     33  O   UNL A   1      44.162  23.757  24.629  1.00  0.00    -0.460 OA
BRANCH  33  34
ATOM     34  C   UNL A   1      44.917  24.787  25.087  1.00  0.00     0.338 C 
ATOM     35  O   UNL A   1      45.966  25.202  24.614  1.00  0.00    -0.246 OA
BRANCH  34  36
ATOM     36  C   UNL A   1      44.166  25.527  26.130  1.00  0.00     0.060 A 
ATOM     37  C   UNL A   1      44.249  26.924  26.088  1.00  0.00     0.016 A 
ATOM     38  C   UNL A   1      43.360  24.910  27.087  1.00  0.00     0.016 A 
ATOM     39  C   UNL A   1      43.551  27.714  26.996  1.00  0.00     0.010 A 
ATOM     40  C   UNL A   1      42.674  25.701  28.019  1.00  0.00     0.010 A 
ATOM     41  C   UNL A   1      42.784  27.104  27.989  1.00  0.00    -0.014 A 
BRANCH  41  42
ATOM     42  C   UNL A   1      42.252  27.929  29.099  1.00  0.00     0.031 A 
ATOM     43  C   UNL A   1      43.028  27.975  30.384  1.00  0.00     0.074 A 
ATOM     44  C   UNL A   1      41.134  28.665  28.956  1.00  0.00     0.049 A 
ATOM     45  N   UNL A   1      42.725  28.544  31.522  1.00  0.00    -0.248 NA
ATOM     46  C   UNL A   1      44.329  27.285  30.383  1.00  0.00     0.031 C 
ATOM     47  C   UNL A   1      40.341  28.772  27.733  1.00  0.00     0.029 A 
ATOM     48  N   UNL A   1      40.470  29.459  29.858  1.00  0.00    -0.354 N 
ATOM     49  C   UNL A   1      43.783  28.262  32.375  1.00  0.00     0.074 A 
ATOM     50  C   UNL A   1      44.731  27.463  31.632  1.00  0.00     0.031 C 
ATOM     51  C   UNL A   1      39.285  29.571  27.968  1.00  0.00     0.029 A 
ATOM     52  C   UNL A   1      39.305  29.995  29.366  1.00  0.00     0.049 A 
ATOM     53  H   UNL A   1      40.799  29.628  30.771  1.00  0.00     0.167 HD
ATOM     54  C   UNL A   1      43.948  28.641  33.664  1.00  0.00     0.037 A 
ATOM     55  C   UNL A   1      38.350  30.712  29.990  1.00  0.00     0.037 A 
ATOM     56  C   UNL A   1      43.010  29.450  34.394  1.00  0.00     0.049 A 
ATOM     57  C   UNL A   1      38.518  31.047  31.453  1.00  0.00     0.074 A 
ATOM     58  C   UNL A   1      43.089  29.892  35.702  1.00  0.00     0.029 A 
ATOM     59  N   UNL A   1      41.820  29.938  33.876  1.00  0.00    -0.354 N 
ATOM     60  N   UNL A   1      39.514  30.769  32.259  1.00  0.00    -0.248 NA
ATOM     61  C   UNL A   1      37.422  31.790  32.093  1.00  0.00     0.031 C 
ATOM     62  C   UNL A   1      41.921  30.605  35.992  1.00  0.00     0.029 A 
ATOM     63  C   UNL A   1      41.142  30.655  34.847  1.00  0.00     0.049 A 
ATOM     64  H   UNL A   1      41.504  29.796  32.954  1.00  0.00     0.167 HD
ATOM     65  C   UNL A   1      39.179  31.325  33.488  1.00  0.00     0.074 A 
ATOM     66  C   UNL A   1      37.895  31.971  33.318  1.00  0.00     0.031 C 
ATOM     67  C   UNL A   1      39.870  31.302  34.654  1.00  0.00     0.037 A 
BRANCH  54  68
ATOM     68  C   UNL A   1      45.170  28.150  34.381  1.00  0.00     0.064 A 
ATOM     69  C   UNL A   1      45.195  26.914  35.041  1.00  0.00     0.173 A 
ATOM     70  C   UNL A   1      46.345  28.915  34.371  1.00  0.00     0.173 A 
ATOM     71  F   UNL A   1      44.089  26.154  35.095  1.00  0.00    -0.203 F 
ATOM     72  C   UNL A   1      46.349  26.468  35.678  1.00  0.00     0.198 A 
ATOM     73  C   UNL A   1      47.505  28.454  34.985  1.00  0.00     0.198 A 
ATOM     74  F   UNL A   1      46.371  30.107  33.755  1.00  0.00    -0.203 F 
ATOM     75  F   UNL A   1      46.341  25.300  36.337  1.00  0.00    -0.200 F 
ATOM     76  C   UNL A   1      47.506  27.234  35.643  1.00  0.00     0.200 A 
ATOM     77  F   UNL A   1      48.624  29.191  34.940  1.00  0.00    -0.200 F 
ATOM     78  F   UNL A   1      48.620  26.796  36.246  1.00  0.00    -0.200 F 
ENDBRANCH  54  68
BRANCH  55  79
ATOM     79  C   UNL A   1      37.123  31.129  29.259  1.00  0.00     0.064 A 
ATOM     80  C   UNL A   1      36.093  30.218  28.985  1.00  0.00     0.173 A 
ATOM     81  C   UNL A   1      36.977  32.438  28.773  1.00  0.00     0.173 A 
ATOM     82  F   UNL A   1      36.197  28.946  29.400  1.00  0.00    -0.203 F 
ATOM     83  C   UNL A   1      34.980  30.590  28.233  1.00  0.00     0.198 A 
ATOM     84  C   UNL A   1      35.849  32.819  28.049  1.00  0.00     0.198 A 
ATOM     85  F   UNL A   1      37.934  33.349  29.000  1.00  0.00    -0.203 F 
ATOM     86  F   UNL A   1      34.042  29.682  27.934  1.00  0.00    -0.200 F 
ATOM     87  C   UNL A   1      34.857  31.891  27.769  1.00  0.00     0.200 A 
ATOM     88  F   UNL A   1      35.731  34.079  27.612  1.00  0.00    -0.200 F 
ATOM     89  F   UNL A   1      33.790  32.248  27.042  1.00  0.00    -0.200 F 
ENDBRANCH  55  79
BRANCH  67  90
ATOM     90  C   UNL A   1      39.275  32.027  35.827  1.00  0.00     0.064 A 
ATOM     91  C   UNL A   1      39.549  33.380  36.075  1.00  0.00     0.173 A 
ATOM     92  C   UNL A   1      38.381  31.370  36.687  1.00  0.00     0.173 A 
ATOM     93  F   UNL A   1      40.407  34.049  35.289  1.00  0.00    -0.203 F 
ATOM     94  C   UNL A   1      38.970  34.041  37.155  1.00  0.00     0.198 A 
ATOM     95  C   UNL A   1      37.780  32.042  37.747  1.00  0.00     0.198 A 
ATOM     96  F   UNL A   1      38.078  30.078  36.488  1.00  0.00    -0.203 F 
ATOM     97  F   UNL A   1      39.285  35.321  37.400  1.00  0.00    -0.200 F 
ATOM     98  C   UNL A   1      38.082  33.375  37.985  1.00  0.00     0.200 A 
ATOM     99  F   UNL A   1      36.908  31.401  38.537  1.00  0.00    -0.200 F 
ATOM    100  F   UNL A   1      37.519  34.016  39.018  1.00  0.00    -0.200 F 
ENDBRANCH  67  90
ENDBRANCH  41  42
ENDBRANCH  34  36
ENDBRANCH  33  34
ENDBRANCH  32  33
ENDBRANCH  31  32
ENDBRANCH  30  31
ENDBRANCH   1  30
TORSDOF 17
ENDMDL
