MODEL 1
REMARK VINA RESULT:     -11.5      0.000      0.000
REMARK SMILES CCOc1ccc(C(=O)N2CCC(C(=O)OCCOCCOC(=O)c3ccc(-c4c5nc(c(-c6c(F)c(F)c(F)c(F)c6F)c6ccc([nH]6)c(-c6c(F)c(F)c(F)c(F)c6F)c6nc(c(-c7c(F)c(F)c(F)c(F)c7F)c7ccc4[nH]7)C=C6)C=C5)cc3)(c3ccccc3)CC2)cc1OC
REMARK SMILES IDX 18 1 17 2 16 3 14 4 15 5 13 6 8 7 9 8 10 9 11 10 95 11 12 12
REMARK SMILES IDX 94 13 7 14 4 15 5 16 97 17 6 18 96 19 3 20 2 21 1 22 98 23
REMARK SMILES IDX 99 24 88 25 89 26 93 27 90 28 92 29 91 30 19 31 20 32 21 33
REMARK SMILES IDX 22 34 23 35 24 36 25 37 26 38 87 39 27 40 86 41 28 42 29 43
REMARK SMILES IDX 30 44 80 45 31 46 85 47 79 48 81 49 32 50 84 51 78 52 77 53
REMARK SMILES IDX 33 55 65 56 45 57 64 58 46 59 49 60 63 61 82 62 47 63 48 64
REMARK SMILES IDX 62 66 83 67 50 68 34 69 35 70 43 71 36 72 37 73 41 74 44 75
REMARK SMILES IDX 38 76 39 77 42 78 40 79 66 80 67 81 75 82 68 83 69 84 73 85
REMARK SMILES IDX 76 86 70 87 71 88 74 89 72 90 51 91 52 92 60 93 53 94 54 95
REMARK SMILES IDX 58 96 61 97 55 98 56 99 59 100 57 101
REMARK H PARENT 81 54 49 65
REMARK Flexibility Score: inf
ROOT
ATOM      1  C   UNL A   1      34.049  31.344  27.652  1.00  0.00     0.202 C 
ENDROOT
BRANCH   1   2
ATOM      2  C   UNL A   1      32.866  30.486  27.199  1.00  0.00     0.261 C 
BRANCH   2   3
ATOM      3  O   UNL A   1      33.221  29.100  27.110  1.00  0.00    -0.463 OA
BRANCH   3   4
ATOM      4  C   UNL A   1      32.184  28.220  27.173  1.00  0.00     0.316 C 
ATOM      5  O   UNL A   1      31.258  28.321  27.973  1.00  0.00    -0.251 OA
BRANCH   4   6
ATOM      6  C   UNL A   1      32.284  27.067  26.132  1.00  0.00     0.096 C 
ATOM      7  C   UNL A   1      34.590  23.487  25.073  1.00  0.00     0.253 C 
ATOM      8  O   UNL A   1      35.735  23.547  24.635  1.00  0.00    -0.269 OA
ATOM      9  N   UNL A   1      33.866  24.616  25.493  1.00  0.00    -0.339 N 
ATOM     10  C   UNL A   1      34.046  25.814  24.687  1.00  0.00     0.121 C 
ATOM     11  C   UNL A   1      32.743  24.527  26.425  1.00  0.00     0.121 C 
ATOM     12  C   UNL A   1      33.617  27.121  25.341  1.00  0.00     0.045 C 
ATOM     13  C   UNL A   1      32.350  25.837  27.074  1.00  0.00     0.045 C 
BRANCH   7  14
ATOM     14  C   UNL A   1      33.888  22.176  25.025  1.00  0.00     0.043 A 
ATOM     15  C   UNL A   1      32.627  19.692  24.816  1.00  0.00     0.161 A 
ATOM     16  C   UNL A   1      33.253  20.072  26.015  1.00  0.00     0.051 A 
ATOM     17  C   UNL A   1      32.623  20.553  23.720  1.00  0.00     0.161 A 
ATOM     18  C   UNL A   1      33.884  21.318  26.122  1.00  0.00     0.018 A 
ATOM     19  C   UNL A   1      33.323  21.752  23.817  1.00  0.00     0.064 A 
BRANCH  15  20
ATOM     20  O   UNL A   1      32.007  18.475  24.754  1.00  0.00    -0.490 OA
BRANCH  20  21
ATOM     21  C   UNL A   1      32.933  17.396  24.942  1.00  0.00     0.226 C 
ATOM     22  C   UNL A   1      33.626  17.114  23.622  1.00  0.00     0.049 C 
ENDBRANCH  20  21
ENDBRANCH  15  20
BRANCH  17  23
ATOM     23  O   UNL A   1      32.061  20.350  22.492  1.00  0.00    -0.493 OA
ATOM     24  C   UNL A   1      31.843  21.495  21.677  1.00  0.00     0.278 C 
ENDBRANCH  17  23
ENDBRANCH   7  14
BRANCH   6  25
ATOM     25  C   UNL A   1      31.049  27.090  25.178  1.00  0.00    -0.031 A 
ATOM     26  C   UNL A   1      30.044  26.100  25.237  1.00  0.00     0.005 A 
ATOM     27  C   UNL A   1      30.849  28.102  24.222  1.00  0.00     0.005 A 
ATOM     28  C   UNL A   1      28.947  26.099  24.362  1.00  0.00     0.000 A 
ATOM     29  C   UNL A   1      29.756  28.104  23.344  1.00  0.00     0.000 A 
ATOM     30  C   UNL A   1      28.808  27.096  23.407  1.00  0.00     0.000 A 
ENDBRANCH   6  25
ENDBRANCH   4   6
ENDBRANCH   3   4
ENDBRANCH   2   3
ENDBRANCH   1   2
BRANCH   1  31
ATOM     31  O   UNL A   1      33.814  32.743  27.774  1.00  0.00    -0.374 OA
BRANCH  31  32
ATOM     32  C   UNL A   1      34.003  33.345  29.057  1.00  0.00     0.202 C 
BRANCH  32  33
ATOM     33  C   UNL A   1      33.450  34.761  29.261  1.00  0.00     0.261 C 
BRANCH  33  34
ATOM     34  O   UNL A   1      32.518  34.836  30.359  1.00  0.00    -0.460 OA
BRANCH  34  35
ATOM     35  C   UNL A   1      32.907  35.642  31.378  1.00  0.00     0.338 C 
ATOM     36  O   UNL A   1      32.392  36.685  31.737  1.00  0.00    -0.246 OA
BRANCH  35  37
ATOM     37  C   UNL A   1      33.983  34.999  32.155  1.00  0.00     0.060 A 
ATOM     38  C   UNL A   1      35.248  35.602  32.140  1.00  0.00     0.016 A 
ATOM     39  C   UNL A   1      33.791  33.763  32.773  1.00  0.00     0.016 A 
ATOM     40  C   UNL A   1      36.343  34.944  32.696  1.00  0.00     0.010 A 
ATOM     41  C   UNL A   1      34.893  33.098  33.320  1.00  0.00     0.010 A 
ATOM     42  C   UNL A   1      36.178  33.667  33.247  1.00  0.00    -0.014 A 
BRANCH  42  43
ATOM     43  C   UNL A   1      37.367  32.847  33.583  1.00  0.00     0.031 A 
ATOM     44  C   UNL A   1      38.080  33.111  34.880  1.00  0.00     0.074 A 
ATOM     45  C   UNL A   1      37.802  31.884  32.755  1.00  0.00     0.049 A 
ATOM     46  N   UNL A   1      39.196  32.601  35.337  1.00  0.00    -0.248 NA
ATOM     47  C   UNL A   1      37.450  34.087  35.785  1.00  0.00     0.031 C 
ATOM     48  C   UNL A   1      37.163  31.499  31.499  1.00  0.00     0.029 A 
ATOM     49  N   UNL A   1      38.901  31.066  32.842  1.00  0.00    -0.354 N 
ATOM     50  C   UNL A   1      39.408  33.203  36.570  1.00  0.00     0.074 A 
ATOM     51  C   UNL A   1      38.317  34.129  36.786  1.00  0.00     0.031 C 
ATOM     52  C   UNL A   1      37.894  30.531  30.919  1.00  0.00     0.029 A 
ATOM     53  C   UNL A   1      39.071  30.260  31.744  1.00  0.00     0.049 A 
ATOM     54  H   UNL A   1      39.507  31.058  33.616  1.00  0.00     0.167 HD
ATOM     55  C   UNL A   1      40.423  33.001  37.444  1.00  0.00     0.037 A 
ATOM     56  C   UNL A   1      40.080  29.425  31.429  1.00  0.00     0.037 A 
ATOM     57  C   UNL A   1      41.505  32.078  37.226  1.00  0.00     0.049 A 
ATOM     58  C   UNL A   1      41.235  29.268  32.384  1.00  0.00     0.074 A 
ATOM     59  C   UNL A   1      42.579  31.795  38.051  1.00  0.00     0.029 A 
ATOM     60  N   UNL A   1      41.650  31.290  36.094  1.00  0.00    -0.354 N 
ATOM     61  N   UNL A   1      41.429  29.837  33.550  1.00  0.00    -0.248 NA
ATOM     62  C   UNL A   1      42.313  28.355  31.979  1.00  0.00     0.031 C 
ATOM     63  C   UNL A   1      43.397  30.867  37.399  1.00  0.00     0.029 A 
ATOM     64  C   UNL A   1      42.806  30.534  36.191  1.00  0.00     0.049 A 
ATOM     65  H   UNL A   1      41.024  31.270  35.334  1.00  0.00     0.167 HD
ATOM     66  C   UNL A   1      42.627  29.327  34.031  1.00  0.00     0.074 A 
ATOM     67  C   UNL A   1      43.117  28.399  33.032  1.00  0.00     0.031 C 
ATOM     68  C   UNL A   1      43.266  29.599  35.196  1.00  0.00     0.037 A 
BRANCH  55  69
ATOM     69  C   UNL A   1      40.427  33.817  38.702  1.00  0.00     0.064 A 
ATOM     70  C   UNL A   1      39.750  33.396  39.856  1.00  0.00     0.173 A 
ATOM     71  C   UNL A   1      41.141  35.023  38.762  1.00  0.00     0.173 A 
ATOM     72  F   UNL A   1      39.039  32.259  39.846  1.00  0.00    -0.203 F 
ATOM     73  C   UNL A   1      39.769  34.165  41.018  1.00  0.00     0.198 A 
ATOM     74  C   UNL A   1      41.181  35.775  39.932  1.00  0.00     0.198 A 
ATOM     75  F   UNL A   1      41.808  35.468  37.686  1.00  0.00    -0.203 F 
ATOM     76  F   UNL A   1      39.080  33.766  42.096  1.00  0.00    -0.200 F 
ATOM     77  C   UNL A   1      40.490  35.350  41.056  1.00  0.00     0.200 A 
ATOM     78  F   UNL A   1      41.886  36.915  39.971  1.00  0.00    -0.200 F 
ATOM     79  F   UNL A   1      40.512  36.085  42.177  1.00  0.00    -0.200 F 
ENDBRANCH  55  69
BRANCH  56  80
ATOM     80  C   UNL A   1      40.055  28.685  30.141  1.00  0.00     0.064 A 
ATOM     81  C   UNL A   1      39.491  27.406  30.053  1.00  0.00     0.173 A 
ATOM     82  C   UNL A   1      40.606  29.237  28.975  1.00  0.00     0.173 A 
ATOM     83  F   UNL A   1      38.976  26.825  31.146  1.00  0.00    -0.203 F 
ATOM     84  C   UNL A   1      39.493  26.700  28.851  1.00  0.00     0.198 A 
ATOM     85  C   UNL A   1      40.583  28.543  27.768  1.00  0.00     0.198 A 
ATOM     86  F   UNL A   1      41.161  30.458  29.007  1.00  0.00    -0.203 F 
ATOM     87  F   UNL A   1      38.986  25.461  28.805  1.00  0.00    -0.200 F 
ATOM     88  C   UNL A   1      40.033  27.271  27.709  1.00  0.00     0.200 A 
ATOM     89  F   UNL A   1      41.098  29.102  26.665  1.00  0.00    -0.200 F 
ATOM     90  F   UNL A   1      40.031  26.593  26.553  1.00  0.00    -0.200 F 
ENDBRANCH  56  80
BRANCH  68  91
ATOM     91  C   UNL A   1      44.531  28.848  35.485  1.00  0.00     0.064 A 
ATOM     92  C   UNL A   1      44.522  27.611  36.144  1.00  0.00     0.173 A 
ATOM     93  C   UNL A   1      45.766  29.350  35.042  1.00  0.00     0.173 A 
ATOM     94  F   UNL A   1      43.369  27.097  36.598  1.00  0.00    -0.203 F 
ATOM     95  C   UNL A   1      45.705  26.911  36.365  1.00  0.00     0.198 A 
ATOM     96  C   UNL A   1      46.942  28.634  35.241  1.00  0.00     0.198 A 
ATOM     97  F   UNL A   1      45.826  30.526  34.400  1.00  0.00    -0.203 F 
ATOM     98  F   UNL A   1      45.679  25.747  37.030  1.00  0.00    -0.200 F 
ATOM     99  C   UNL A   1      46.912  27.419  35.907  1.00  0.00     0.200 A 
ATOM    100  F   UNL A   1      48.106  29.120  34.786  1.00  0.00    -0.200 F 
ATOM    101  F   UNL A   1      48.048  26.737  36.111  1.00  0.00    -0.200 F 
ENDBRANCH  68  91
ENDBRANCH  42  43
ENDBRANCH  35  37
ENDBRANCH  34  35
ENDBRANCH  33  34
ENDBRANCH  32  33
ENDBRANCH  31  32
ENDBRANCH   1  31
TORSDOF 19
ENDMDL
MODEL 2
REMARK VINA RESULT:     -11.2      2.843      9.636
REMARK SMILES CCOc1ccc(C(=O)N2CCC(C(=O)OCCOCCOC(=O)c3ccc(-c4c5nc(c(-c6c(F)c(F)c(F)c(F)c6F)c6ccc([nH]6)c(-c6c(F)c(F)c(F)c(F)c6F)c6nc(c(-c7c(F)c(F)c(F)c(F)c7F)c7ccc4[nH]7)C=C6)C=C5)cc3)(c3ccccc3)CC2)cc1OC
REMARK SMILES IDX 18 1 17 2 16 3 14 4 15 5 13 6 8 7 9 8 10 9 11 10 95 11 12 12
REMARK SMILES IDX 94 13 7 14 4 15 5 16 97 17 6 18 96 19 3 20 2 21 1 22 98 23
REMARK SMILES IDX 99 24 88 25 89 26 93 27 90 28 92 29 91 30 19 31 20 32 21 33
REMARK SMILES IDX 22 34 23 35 24 36 25 37 26 38 87 39 27 40 86 41 28 42 29 43
REMARK SMILES IDX 30 44 80 45 31 46 85 47 79 48 81 49 32 50 84 51 78 52 77 53
REMARK SMILES IDX 33 55 65 56 45 57 64 58 46 59 49 60 63 61 82 62 47 63 48 64
REMARK SMILES IDX 62 66 83 67 50 68 34 69 35 70 43 71 36 72 37 73 41 74 44 75
REMARK SMILES IDX 38 76 39 77 42 78 40 79 66 80 67 81 75 82 68 83 69 84 73 85
REMARK SMILES IDX 76 86 70 87 71 88 74 89 72 90 51 91 52 92 60 93 53 94 54 95
REMARK SMILES IDX 58 96 61 97 55 98 56 99 59 100 57 101
REMARK H PARENT 81 54 49 65
REMARK Flexibility Score: inf
ROOT
ATOM      1  C   UNL A   1      39.336  21.772  26.410  1.00  0.00     0.202 C 
ENDROOT
BRANCH   1   2
ATOM      2  C   UNL A   1      38.415  22.827  25.793  1.00  0.00     0.261 C 
BRANCH   2   3
ATOM      3  O   UNL A   1      37.040  22.425  25.845  1.00  0.00    -0.463 OA
BRANCH   3   4
ATOM      4  C   UNL A   1      36.357  22.506  24.670  1.00  0.00     0.316 C 
ATOM      5  O   UNL A   1      36.858  22.259  23.577  1.00  0.00    -0.251 OA
BRANCH   4   6
ATOM      6  C   UNL A   1      34.872  22.943  24.844  1.00  0.00     0.096 C 
ATOM      7  C   UNL A   1      32.325  26.220  26.263  1.00  0.00     0.253 C 
ATOM      8  O   UNL A   1      32.207  26.495  27.454  1.00  0.00    -0.269 OA
ATOM      9  N   UNL A   1      33.197  25.229  25.784  1.00  0.00    -0.339 N 
ATOM     10  C   UNL A   1      33.292  24.027  26.600  1.00  0.00     0.121 C 
ATOM     11  C   UNL A   1      33.693  25.215  24.408  1.00  0.00     0.121 C 
ATOM     12  C   UNL A   1      34.504  23.144  26.336  1.00  0.00     0.045 C 
ATOM     13  C   UNL A   1      34.908  24.343  24.180  1.00  0.00     0.045 C 
BRANCH   7  14
ATOM     14  C   UNL A   1      31.399  26.871  25.297  1.00  0.00     0.043 A 
ATOM     15  C   UNL A   1      29.760  28.176  23.448  1.00  0.00     0.161 A 
ATOM     16  C   UNL A   1      29.778  26.773  23.515  1.00  0.00     0.051 A 
ATOM     17  C   UNL A   1      30.555  28.932  24.308  1.00  0.00     0.161 A 
ATOM     18  C   UNL A   1      30.598  26.117  24.443  1.00  0.00     0.018 A 
ATOM     19  C   UNL A   1      31.422  28.265  25.167  1.00  0.00     0.064 A 
BRANCH  15  20
ATOM     20  O   UNL A   1      28.935  28.781  22.541  1.00  0.00    -0.490 OA
BRANCH  20  21
ATOM     21  C   UNL A   1      27.625  29.001  23.078  1.00  0.00     0.226 C 
ATOM     22  C   UNL A   1      27.375  30.496  23.157  1.00  0.00     0.049 C 
ENDBRANCH  20  21
ENDBRANCH  15  20
BRANCH  17  23
ATOM     23  O   UNL A   1      30.656  30.292  24.384  1.00  0.00    -0.493 OA
ATOM     24  C   UNL A   1      31.160  30.842  25.594  1.00  0.00     0.278 C 
ENDBRANCH  17  23
ENDBRANCH   7  14
BRANCH   6  25
ATOM     25  C   UNL A   1      33.922  21.917  24.150  1.00  0.00    -0.031 A 
ATOM     26  C   UNL A   1      33.151  22.264  23.019  1.00  0.00     0.005 A 
ATOM     27  C   UNL A   1      33.790  20.588  24.591  1.00  0.00     0.005 A 
ATOM     28  C   UNL A   1      32.272  21.356  22.410  1.00  0.00     0.000 A 
ATOM     29  C   UNL A   1      32.911  19.678  23.988  1.00  0.00     0.000 A 
ATOM     30  C   UNL A   1      32.143  20.065  22.900  1.00  0.00     0.000 A 
ENDBRANCH   6  25
ENDBRANCH   4   6
ENDBRANCH   3   4
ENDBRANCH   2   3
ENDBRANCH   1   2
BRANCH   1  31
ATOM     31  O   UNL A   1      40.553  21.505  25.721  1.00  0.00    -0.374 OA
BRANCH  31  32
ATOM     32  C   UNL A   1      41.780  21.696  26.428  1.00  0.00     0.202 C 
BRANCH  32  33
ATOM     33  C   UNL A   1      42.933  22.369  25.674  1.00  0.00     0.261 C 
BRANCH  33  34
ATOM     34  O   UNL A   1      42.533  23.599  25.038  1.00  0.00    -0.460 OA
BRANCH  34  35
ATOM     35  C   UNL A   1      43.326  24.664  25.314  1.00  0.00     0.338 C 
ATOM     36  O   UNL A   1      44.402  24.937  24.813  1.00  0.00    -0.246 OA
BRANCH  35  37
ATOM     37  C   UNL A   1      42.632  25.597  26.220  1.00  0.00     0.060 A 
ATOM     38  C   UNL A   1      43.276  26.802  26.533  1.00  0.00     0.016 A 
ATOM     39  C   UNL A   1      41.440  25.241  26.852  1.00  0.00     0.016 A 
ATOM     40  C   UNL A   1      42.758  27.633  27.525  1.00  0.00     0.010 A 
ATOM     41  C   UNL A   1      40.929  26.070  27.855  1.00  0.00     0.010 A 
ATOM     42  C   UNL A   1      41.607  27.246  28.224  1.00  0.00    -0.014 A 
BRANCH  42  43
ATOM     43  C   UNL A   1      41.211  27.972  29.454  1.00  0.00     0.031 A 
ATOM     44  C   UNL A   1      39.996  28.857  29.410  1.00  0.00     0.074 A 
ATOM     45  C   UNL A   1      41.914  27.843  30.591  1.00  0.00     0.049 A 
ATOM     46  N   UNL A   1      39.521  29.667  30.321  1.00  0.00    -0.248 NA
ATOM     47  C   UNL A   1      39.211  28.825  28.165  1.00  0.00     0.031 C 
ATOM     48  C   UNL A   1      43.074  26.975  30.772  1.00  0.00     0.029 A 
ATOM     49  N   UNL A   1      41.761  28.464  31.806  1.00  0.00    -0.354 N 
ATOM     50  C   UNL A   1      38.395  30.251  29.756  1.00  0.00     0.074 A 
ATOM     51  C   UNL A   1      38.264  29.717  28.418  1.00  0.00     0.031 C 
ATOM     52  C   UNL A   1      43.544  27.134  32.022  1.00  0.00     0.029 A 
ATOM     53  C   UNL A   1      42.741  28.143  32.712  1.00  0.00     0.049 A 
ATOM     54  H   UNL A   1      41.020  29.079  32.008  1.00  0.00     0.167 HD
ATOM     55  C   UNL A   1      37.546  31.152  30.305  1.00  0.00     0.037 A 
ATOM     56  C   UNL A   1      42.979  28.635  33.943  1.00  0.00     0.037 A 
ATOM     57  C   UNL A   1      37.679  31.679  31.637  1.00  0.00     0.049 A 
ATOM     58  C   UNL A   1      42.062  29.689  34.507  1.00  0.00     0.074 A 
ATOM     59  C   UNL A   1      36.870  32.592  32.290  1.00  0.00     0.029 A 
ATOM     60  N   UNL A   1      38.695  31.341  32.519  1.00  0.00    -0.354 N 
ATOM     61  N   UNL A   1      40.997  30.235  33.970  1.00  0.00    -0.248 NA
ATOM     62  C   UNL A   1      42.382  30.198  35.849  1.00  0.00     0.031 C 
ATOM     63  C   UNL A   1      37.420  32.838  33.552  1.00  0.00     0.029 A 
ATOM     64  C   UNL A   1      38.542  32.041  33.704  1.00  0.00     0.049 A 
ATOM     65  H   UNL A   1      39.416  30.698  32.331  1.00  0.00     0.167 HD
ATOM     66  C   UNL A   1      40.502  31.122  34.917  1.00  0.00     0.074 A 
ATOM     67  C   UNL A   1      41.381  31.040  36.066  1.00  0.00     0.031 C 
ATOM     68  C   UNL A   1      39.416  31.930  34.845  1.00  0.00     0.037 A 
BRANCH  55  69
ATOM     69  C   UNL A   1      36.417  31.649  29.453  1.00  0.00     0.064 A 
ATOM     70  C   UNL A   1      36.313  32.996  29.078  1.00  0.00     0.173 A 
ATOM     71  C   UNL A   1      35.441  30.758  28.980  1.00  0.00     0.173 A 
ATOM     72  F   UNL A   1      37.212  33.891  29.516  1.00  0.00    -0.203 F 
ATOM     73  C   UNL A   1      35.260  33.439  28.280  1.00  0.00     0.198 A 
ATOM     74  C   UNL A   1      34.405  31.199  28.161  1.00  0.00     0.198 A 
ATOM     75  F   UNL A   1      35.497  29.459  29.307  1.00  0.00    -0.203 F 
ATOM     76  F   UNL A   1      35.156  34.738  27.969  1.00  0.00    -0.200 F 
ATOM     77  C   UNL A   1      34.312  32.538  27.817  1.00  0.00     0.200 A 
ATOM     78  F   UNL A   1      33.495  30.325  27.707  1.00  0.00    -0.200 F 
ATOM     79  F   UNL A   1      33.303  32.965  27.046  1.00  0.00    -0.200 F 
ENDBRANCH  55  69
BRANCH  56  80
ATOM     80  C   UNL A   1      44.148  28.151  34.721  1.00  0.00     0.064 A 
ATOM     81  C   UNL A   1      45.430  28.668  34.497  1.00  0.00     0.173 A 
ATOM     82  C   UNL A   1      44.008  27.151  35.696  1.00  0.00     0.173 A 
ATOM     83  F   UNL A   1      45.618  29.606  33.558  1.00  0.00    -0.203 F 
ATOM     84  C   UNL A   1      46.532  28.195  35.208  1.00  0.00     0.198 A 
ATOM     85  C   UNL A   1      45.105  26.697  36.424  1.00  0.00     0.198 A 
ATOM     86  F   UNL A   1      42.803  26.620  35.946  1.00  0.00    -0.203 F 
ATOM     87  F   UNL A   1      47.754  28.676  34.943  1.00  0.00    -0.200 F 
ATOM     88  C   UNL A   1      46.367  27.214  36.175  1.00  0.00     0.200 A 
ATOM     89  F   UNL A   1      44.941  25.756  37.364  1.00  0.00    -0.200 F 
ATOM     90  F   UNL A   1      47.427  26.761  36.860  1.00  0.00    -0.200 F 
ENDBRANCH  56  80
BRANCH  68  91
ATOM     91  C   UNL A   1      39.079  32.749  36.055  1.00  0.00     0.064 A 
ATOM     92  C   UNL A   1      38.305  32.233  37.104  1.00  0.00     0.173 A 
ATOM     93  C   UNL A   1      39.590  34.050  36.190  1.00  0.00     0.173 A 
ATOM     94  F   UNL A   1      37.784  31.001  37.016  1.00  0.00    -0.203 F 
ATOM     95  C   UNL A   1      38.040  32.997  38.238  1.00  0.00     0.198 A 
ATOM     96  C   UNL A   1      39.345  34.800  37.336  1.00  0.00     0.198 A 
ATOM     97  F   UNL A   1      40.341  34.585  35.217  1.00  0.00    -0.203 F 
ATOM     98  F   UNL A   1      37.267  32.500  39.213  1.00  0.00    -0.200 F 
ATOM     99  C   UNL A   1      38.566  34.276  38.356  1.00  0.00     0.200 A 
ATOM    100  F   UNL A   1      39.864  36.030  37.455  1.00  0.00    -0.200 F 
ATOM    101  F   UNL A   1      38.318  35.004  39.453  1.00  0.00    -0.200 F 
ENDBRANCH  68  91
ENDBRANCH  42  43
ENDBRANCH  35  37
ENDBRANCH  34  35
ENDBRANCH  33  34
ENDBRANCH  32  33
ENDBRANCH  31  32
ENDBRANCH   1  31
TORSDOF 19
ENDMDL
MODEL 3
REMARK VINA RESULT:     -11.1      0.940      2.025
REMARK SMILES CCOc1ccc(C(=O)N2CCC(C(=O)OCCOCCOC(=O)c3ccc(-c4c5nc(c(-c6c(F)c(F)c(F)c(F)c6F)c6ccc([nH]6)c(-c6c(F)c(F)c(F)c(F)c6F)c6nc(c(-c7c(F)c(F)c(F)c(F)c7F)c7ccc4[nH]7)C=C6)C=C5)cc3)(c3ccccc3)CC2)cc1OC
REMARK SMILES IDX 18 1 17 2 16 3 14 4 15 5 13 6 8 7 9 8 10 9 11 10 95 11 12 12
REMARK SMILES IDX 94 13 7 14 4 15 5 16 97 17 6 18 96 19 3 20 2 21 1 22 98 23
REMARK SMILES IDX 99 24 88 25 89 26 93 27 90 28 92 29 91 30 19 31 20 32 21 33
REMARK SMILES IDX 22 34 23 35 24 36 25 37 26 38 87 39 27 40 86 41 28 42 29 43
REMARK SMILES IDX 30 44 80 45 31 46 85 47 79 48 81 49 32 50 84 51 78 52 77 53
REMARK SMILES IDX 33 55 65 56 45 57 64 58 46 59 49 60 63 61 82 62 47 63 48 64
REMARK SMILES IDX 62 66 83 67 50 68 34 69 35 70 43 71 36 72 37 73 41 74 44 75
REMARK SMILES IDX 38 76 39 77 42 78 40 79 66 80 67 81 75 82 68 83 69 84 73 85
REMARK SMILES IDX 76 86 70 87 71 88 74 89 72 90 51 91 52 92 60 93 53 94 54 95
REMARK SMILES IDX 58 96 61 97 55 98 56 99 59 100 57 101
REMARK H PARENT 81 54 49 65
REMARK Flexibility Score: inf
ROOT
ATOM      1  C   UNL A   1      34.502  31.557  27.644  1.00  0.00     0.202 C 
ENDROOT
BRANCH   1   2
ATOM      2  C   UNL A   1      33.162  30.878  27.352  1.00  0.00     0.261 C 
BRANCH   2   3
ATOM      3  O   UNL A   1      33.229  30.060  26.177  1.00  0.00    -0.463 OA
BRANCH   3   4
ATOM      4  C   UNL A   1      32.076  29.964  25.459  1.00  0.00     0.316 C 
ATOM      5  O   UNL A   1      31.198  30.822  25.470  1.00  0.00    -0.251 OA
BRANCH   4   6
ATOM      6  C   UNL A   1      31.975  28.657  24.619  1.00  0.00     0.096 C 
ATOM      7  C   UNL A   1      34.171  25.027  23.502  1.00  0.00     0.253 C 
ATOM      8  O   UNL A   1      35.143  25.050  22.752  1.00  0.00    -0.269 OA
ATOM      9  N   UNL A   1      33.506  26.186  23.935  1.00  0.00    -0.339 N 
ATOM     10  C   UNL A   1      33.362  27.238  22.940  1.00  0.00     0.121 C 
ATOM     11  C   UNL A   1      32.694  26.218  25.151  1.00  0.00     0.121 C 
ATOM     12  C   UNL A   1      33.029  28.621  23.483  1.00  0.00     0.045 C 
ATOM     13  C   UNL A   1      32.394  27.605  25.678  1.00  0.00     0.045 C 
BRANCH   7  14
ATOM     14  C   UNL A   1      33.588  23.705  23.855  1.00  0.00     0.043 A 
ATOM     15  C   UNL A   1      32.533  21.241  24.644  1.00  0.00     0.161 A 
ATOM     16  C   UNL A   1      31.776  22.115  23.847  1.00  0.00     0.051 A 
ATOM     17  C   UNL A   1      33.822  21.591  25.044  1.00  0.00     0.161 A 
ATOM     18  C   UNL A   1      32.303  23.350  23.449  1.00  0.00     0.018 A 
ATOM     19  C   UNL A   1      34.299  22.854  24.708  1.00  0.00     0.064 A 
BRANCH  15  20
ATOM     20  O   UNL A   1      31.991  20.037  24.999  1.00  0.00    -0.490 OA
BRANCH  20  21
ATOM     21  C   UNL A   1      32.400  18.987  24.113  1.00  0.00     0.226 C 
ATOM     22  C   UNL A   1      32.747  17.761  24.937  1.00  0.00     0.049 C 
ENDBRANCH  20  21
ENDBRANCH  15  20
BRANCH  17  23
ATOM     23  O   UNL A   1      34.693  20.867  25.807  1.00  0.00    -0.493 OA
ATOM     24  C   UNL A   1      36.018  20.713  25.315  1.00  0.00     0.278 C 
ENDBRANCH  17  23
ENDBRANCH   7  14
BRANCH   6  25
ATOM     25  C   UNL A   1      30.527  28.481  24.064  1.00  0.00    -0.031 A 
ATOM     26  C   UNL A   1      29.778  27.306  24.297  1.00  0.00     0.005 A 
ATOM     27  C   UNL A   1      29.872  29.481  23.323  1.00  0.00     0.005 A 
ATOM     28  C   UNL A   1      28.487  27.130  23.776  1.00  0.00     0.000 A 
ATOM     29  C   UNL A   1      28.584  29.308  22.797  1.00  0.00     0.000 A 
ATOM     30  C   UNL A   1      27.893  28.127  23.016  1.00  0.00     0.000 A 
ENDBRANCH   6  25
ENDBRANCH   4   6
ENDBRANCH   3   4
ENDBRANCH   2   3
ENDBRANCH   1   2
BRANCH   1  31
ATOM     31  O   UNL A   1      34.483  32.973  27.791  1.00  0.00    -0.374 OA
BRANCH  31  32
ATOM     32  C   UNL A   1      34.243  33.509  29.095  1.00  0.00     0.202 C 
BRANCH  32  33
ATOM     33  C   UNL A   1      33.523  34.861  29.181  1.00  0.00     0.261 C 
BRANCH  33  34
ATOM     34  O   UNL A   1      32.518  34.887  30.214  1.00  0.00    -0.460 OA
BRANCH  34  35
ATOM     35  C   UNL A   1      32.829  35.657  31.287  1.00  0.00     0.338 C 
ATOM     36  O   UNL A   1      32.259  36.663  31.667  1.00  0.00    -0.246 OA
BRANCH  35  37
ATOM     37  C   UNL A   1      33.889  35.016  32.086  1.00  0.00     0.060 A 
ATOM     38  C   UNL A   1      35.146  35.635  32.118  1.00  0.00     0.016 A 
ATOM     39  C   UNL A   1      33.694  33.768  32.680  1.00  0.00     0.016 A 
ATOM     40  C   UNL A   1      36.232  34.981  32.697  1.00  0.00     0.010 A 
ATOM     41  C   UNL A   1      34.788  33.109  33.250  1.00  0.00     0.010 A 
ATOM     42  C   UNL A   1      36.067  33.694  33.224  1.00  0.00    -0.014 A 
BRANCH  42  43
ATOM     43  C   UNL A   1      37.256  32.885  33.584  1.00  0.00     0.031 A 
ATOM     44  C   UNL A   1      37.951  33.164  34.887  1.00  0.00     0.074 A 
ATOM     45  C   UNL A   1      37.707  31.916  32.770  1.00  0.00     0.049 A 
ATOM     46  N   UNL A   1      39.062  32.664  35.364  1.00  0.00    -0.248 NA
ATOM     47  C   UNL A   1      37.303  34.144  35.775  1.00  0.00     0.031 C 
ATOM     48  C   UNL A   1      37.088  31.517  31.509  1.00  0.00     0.029 A 
ATOM     49  N   UNL A   1      38.810  31.105  32.879  1.00  0.00    -0.354 N 
ATOM     50  C   UNL A   1      39.255  33.278  36.594  1.00  0.00     0.074 A 
ATOM     51  C   UNL A   1      38.156  34.200  36.787  1.00  0.00     0.031 C 
ATOM     52  C   UNL A   1      37.832  30.548  30.948  1.00  0.00     0.029 A 
ATOM     53  C   UNL A   1      38.999  30.291  31.791  1.00  0.00     0.049 A 
ATOM     54  H   UNL A   1      39.406  31.107  33.661  1.00  0.00     0.167 HD
ATOM     55  C   UNL A   1      40.259  33.090  37.484  1.00  0.00     0.037 A 
ATOM     56  C   UNL A   1      40.017  29.459  31.497  1.00  0.00     0.037 A 
ATOM     57  C   UNL A   1      41.348  32.172  37.289  1.00  0.00     0.049 A 
ATOM     58  C   UNL A   1      41.160  29.317  32.469  1.00  0.00     0.074 A 
ATOM     59  C   UNL A   1      42.413  31.902  38.131  1.00  0.00     0.029 A 
ATOM     60  N   UNL A   1      41.514  31.374  36.165  1.00  0.00    -0.354 N 
ATOM     61  N   UNL A   1      41.335  29.897  33.632  1.00  0.00    -0.248 NA
ATOM     62  C   UNL A   1      42.248  28.406  32.086  1.00  0.00     0.031 C 
ATOM     63  C   UNL A   1      43.245  30.972  37.498  1.00  0.00     0.029 A 
ATOM     64  C   UNL A   1      42.673  30.626  36.286  1.00  0.00     0.049 A 
ATOM     65  H   UNL A   1      40.898  31.344  35.398  1.00  0.00     0.167 HD
ATOM     66  C   UNL A   1      42.530  29.398  34.133  1.00  0.00     0.074 A 
ATOM     67  C   UNL A   1      43.038  28.464  33.150  1.00  0.00     0.031 C 
ATOM     68  C   UNL A   1      43.150  29.684  35.305  1.00  0.00     0.037 A 
BRANCH  55  69
ATOM     69  C   UNL A   1      40.241  33.917  38.734  1.00  0.00     0.064 A 
ATOM     70  C   UNL A   1      40.914  35.146  38.815  1.00  0.00     0.173 A 
ATOM     71  C   UNL A   1      39.517  33.490  39.857  1.00  0.00     0.173 A 
ATOM     72  F   UNL A   1      41.634  35.592  37.775  1.00  0.00    -0.203 F 
ATOM     73  C   UNL A   1      40.881  35.904  39.983  1.00  0.00     0.198 A 
ATOM     74  C   UNL A   1      39.464  34.263  41.013  1.00  0.00     0.198 A 
ATOM     75  F   UNL A   1      38.854  32.324  39.829  1.00  0.00    -0.203 F 
ATOM     76  F   UNL A   1      41.566  37.054  40.054  1.00  0.00    -0.200 F 
ATOM     77  C   UNL A   1      40.150  35.465  41.078  1.00  0.00     0.200 A 
ATOM     78  F   UNL A   1      38.750  33.842  42.067  1.00  0.00    -0.200 F 
ATOM     79  F   UNL A   1      40.116  36.199  42.199  1.00  0.00    -0.200 F 
ENDBRANCH  55  69
BRANCH  56  80
ATOM     80  C   UNL A   1      40.014  28.707  30.216  1.00  0.00     0.064 A 
ATOM     81  C   UNL A   1      39.408  27.448  30.117  1.00  0.00     0.173 A 
ATOM     82  C   UNL A   1      40.628  29.228  29.066  1.00  0.00     0.173 A 
ATOM     83  F   UNL A   1      38.831  26.897  31.196  1.00  0.00    -0.203 F 
ATOM     84  C   UNL A   1      39.429  26.730  28.923  1.00  0.00     0.198 A 
ATOM     85  C   UNL A   1      40.625  28.522  27.866  1.00  0.00     0.198 A 
ATOM     86  F   UNL A   1      41.225  30.427  29.109  1.00  0.00    -0.203 F 
ATOM     87  F   UNL A   1      38.880  25.510  28.868  1.00  0.00    -0.200 F 
ATOM     88  C   UNL A   1      40.032  27.271  27.797  1.00  0.00     0.200 A 
ATOM     89  F   UNL A   1      41.200  29.051  26.777  1.00  0.00    -0.200 F 
ATOM     90  F   UNL A   1      40.048  26.581  26.647  1.00  0.00    -0.200 F 
ENDBRANCH  56  80
BRANCH  68  91
ATOM     91  C   UNL A   1      44.416  28.943  35.617  1.00  0.00     0.064 A 
ATOM     92  C   UNL A   1      45.674  29.444  35.256  1.00  0.00     0.173 A 
ATOM     93  C   UNL A   1      44.368  27.741  36.341  1.00  0.00     0.173 A 
ATOM     94  F   UNL A   1      45.771  30.581  34.552  1.00  0.00    -0.203 F 
ATOM     95  C   UNL A   1      46.839  28.760  35.593  1.00  0.00     0.198 A 
ATOM     96  C   UNL A   1      45.536  27.074  36.700  1.00  0.00     0.198 A 
ATOM     97  F   UNL A   1      43.189  27.224  36.716  1.00  0.00    -0.203 F 
ATOM     98  F   UNL A   1      48.030  29.237  35.206  1.00  0.00    -0.200 F 
ATOM     99  C   UNL A   1      46.769  27.580  36.321  1.00  0.00     0.200 A 
ATOM    100  F   UNL A   1      45.467  25.942  37.414  1.00  0.00    -0.200 F 
ATOM    101  F   UNL A   1      47.893  26.930  36.653  1.00  0.00    -0.200 F 
ENDBRANCH  68  91
ENDBRANCH  42  43
ENDBRANCH  35  37
ENDBRANCH  34  35
ENDBRANCH  33  34
ENDBRANCH  32  33
ENDBRANCH  31  32
ENDBRANCH   1  31
TORSDOF 19
ENDMDL
