MODEL 1
REMARK VINA RESULT:     -11.7      0.000      0.000
REMARK SMILES Cc1cccc(C(=O)OCCOCCOC(=O)c2ccc(-c3c4nc(c(-c5c(F)c(F)c(F)c(F)c5F)c5ccc([nH]5)c(-c5c(F)c(F)c(F)c(F)c5F)c5nc(c(-c6c(F)c(F)c(F)c(F)c6F)c6ccc3[nH]6)C=C5)C=C4)cc2)c1OC[C@@H]1C[C@H]2CC[C@@H]1C2
REMARK SMILES IDX 11 1 10 2 9 3 7 4 8 5 6 6 1 7 2 8 3 9 81 10 4 11 5 12 82 13
REMARK SMILES IDX 83 14 84 15 85 16 89 17 86 18 88 19 90 20 87 21 12 22 13 23
REMARK SMILES IDX 14 24 15 25 16 26 17 27 18 28 19 29 80 30 20 31 79 32 21 33
REMARK SMILES IDX 22 34 23 35 73 36 24 37 78 38 72 39 74 40 25 41 77 42 71 43
REMARK SMILES IDX 70 44 26 46 58 47 38 48 57 49 39 50 42 51 56 52 75 53 40 54
REMARK SMILES IDX 41 55 55 57 76 58 43 59 27 60 28 61 36 62 29 63 30 64 34 65
REMARK SMILES IDX 37 66 31 67 32 68 35 69 33 70 59 71 60 72 68 73 61 74 62 75
REMARK SMILES IDX 66 76 69 77 63 78 64 79 67 80 65 81 44 82 45 83 53 84 46 85
REMARK SMILES IDX 47 86 51 87 54 88 48 89 49 90 52 91 50 92
REMARK H PARENT 74 45 42 56
REMARK Flexibility Score: inf
ROOT
ATOM      1  C   UNL A   1      44.011  18.445  24.964  1.00  0.00     0.202 C 
ENDROOT
BRANCH   1   2
ATOM      2  C   UNL A   1      43.141  18.951  26.086  1.00  0.00     0.261 C 
BRANCH   2   3
ATOM      3  O   UNL A   1      42.312  20.070  25.714  1.00  0.00    -0.460 OA
BRANCH   3   4
ATOM      4  C   UNL A   1      41.019  20.071  26.124  1.00  0.00     0.342 C 
ATOM      5  O   UNL A   1      40.217  19.173  25.965  1.00  0.00    -0.246 OA
BRANCH   4   6
ATOM      6  C   UNL A   1      40.705  21.329  26.843  1.00  0.00     0.102 A 
ATOM      7  C   UNL A   1      38.679  24.543  26.548  1.00  0.00     0.048 C 
ATOM      8  C   UNL A   1      39.615  23.478  27.045  1.00  0.00    -0.008 A 
ATOM      9  C   UNL A   1      40.581  23.857  27.996  1.00  0.00     0.007 A 
ATOM     10  C   UNL A   1      39.635  22.183  26.501  1.00  0.00     0.136 A 
ATOM     11  C   UNL A   1      41.609  22.997  28.361  1.00  0.00     0.001 A 
ATOM     12  C   UNL A   1      41.678  21.738  27.779  1.00  0.00     0.019 A 
BRANCH  10  13
ATOM     13  O   UNL A   1      38.835  21.937  25.419  1.00  0.00    -0.492 OA
BRANCH  13  14
ATOM     14  C   UNL A   1      37.614  21.177  25.503  1.00  0.00     0.233 C 
BRANCH  14  15
ATOM     15  C   UNL A   1      36.401  21.502  24.621  1.00  0.00     0.030 C 
ATOM     16  C   UNL A   1      36.651  22.740  23.708  1.00  0.00     0.011 C 
ATOM     17  C   UNL A   1      35.161  21.982  25.416  1.00  0.00    -0.004 C 
ATOM     18  C   UNL A   1      35.434  23.644  23.971  1.00  0.00    -0.010 C 
ATOM     19  C   UNL A   1      33.936  21.836  24.506  1.00  0.00     0.004 C 
ATOM     20  C   UNL A   1      35.311  23.505  25.481  1.00  0.00     0.007 C 
ATOM     21  C   UNL A   1      34.152  22.950  23.475  1.00  0.00     0.004 C 
ENDBRANCH  14  15
ENDBRANCH  13  14
ENDBRANCH  10  13
ENDBRANCH   4   6
ENDBRANCH   3   4
ENDBRANCH   2   3
ENDBRANCH   1   2
BRANCH   1  22
ATOM     22  O   UNL A   1      45.208  17.959  25.551  1.00  0.00    -0.374 OA
BRANCH  22  23
ATOM     23  C   UNL A   1      46.320  18.834  25.501  1.00  0.00     0.202 C 
BRANCH  23  24
ATOM     24  C   UNL A   1      46.312  19.727  24.253  1.00  0.00     0.261 C 
BRANCH  24  25
ATOM     25  O   UNL A   1      46.598  21.096  24.622  1.00  0.00    -0.460 OA
BRANCH  25  26
ATOM     26  C   UNL A   1      45.516  21.906  24.800  1.00  0.00     0.338 C 
ATOM     27  O   UNL A   1      44.508  21.895  24.112  1.00  0.00    -0.246 OA
BRANCH  26  28
ATOM     28  C   UNL A   1      45.844  22.987  25.777  1.00  0.00     0.060 A 
ATOM     29  C   UNL A   1      45.243  23.005  27.050  1.00  0.00     0.016 A 
ATOM     30  C   UNL A   1      46.469  24.131  25.294  1.00  0.00     0.016 A 
ATOM     31  C   UNL A   1      45.114  24.213  27.755  1.00  0.00     0.010 A 
ATOM     32  C   UNL A   1      46.211  25.330  25.920  1.00  0.00     0.010 A 
ATOM     33  C   UNL A   1      45.508  25.394  27.137  1.00  0.00    -0.014 A 
BRANCH  33  34
ATOM     34  C   UNL A   1      45.246  26.768  27.587  1.00  0.00     0.031 A 
ATOM     35  C   UNL A   1      43.853  27.259  27.428  1.00  0.00     0.074 A 
ATOM     36  C   UNL A   1      46.079  27.385  28.464  1.00  0.00     0.049 A 
ATOM     37  N   UNL A   1      43.431  28.388  27.876  1.00  0.00    -0.248 NA
ATOM     38  C   UNL A   1      42.799  26.519  26.725  1.00  0.00     0.031 C 
ATOM     39  C   UNL A   1      45.704  28.294  29.559  1.00  0.00     0.029 A 
ATOM     40  N   UNL A   1      47.474  27.302  28.613  1.00  0.00    -0.354 N 
ATOM     41  C   UNL A   1      42.060  28.349  27.874  1.00  0.00     0.074 A 
ATOM     42  C   UNL A   1      41.716  27.243  27.023  1.00  0.00     0.031 C 
ATOM     43  C   UNL A   1      46.803  28.887  30.059  1.00  0.00     0.029 A 
ATOM     44  C   UNL A   1      47.906  28.512  29.198  1.00  0.00     0.049 A 
ATOM     45  H   UNL A   1      48.044  26.541  28.357  1.00  0.00     0.167 HD
ATOM     46  C   UNL A   1      41.403  29.192  28.717  1.00  0.00     0.037 A 
ATOM     47  C   UNL A   1      48.751  29.349  28.538  1.00  0.00     0.037 A 
ATOM     48  C   UNL A   1      42.335  30.182  29.270  1.00  0.00     0.049 A 
ATOM     49  C   UNL A   1      48.046  30.649  28.297  1.00  0.00     0.074 A 
ATOM     50  C   UNL A   1      42.889  30.389  30.520  1.00  0.00     0.029 A 
ATOM     51  N   UNL A   1      43.078  30.959  28.379  1.00  0.00    -0.354 N 
ATOM     52  N   UNL A   1      46.743  30.733  28.242  1.00  0.00    -0.248 NA
ATOM     53  C   UNL A   1      48.700  31.948  28.221  1.00  0.00     0.031 C 
ATOM     54  C   UNL A   1      44.040  31.219  30.348  1.00  0.00     0.029 A 
ATOM     55  C   UNL A   1      44.154  31.556  29.005  1.00  0.00     0.049 A 
ATOM     56  H   UNL A   1      42.862  31.068  27.425  1.00  0.00     0.167 HD
ATOM     57  C   UNL A   1      46.376  32.039  28.223  1.00  0.00     0.074 A 
ATOM     58  C   UNL A   1      47.633  32.766  28.165  1.00  0.00     0.031 C 
ATOM     59  C   UNL A   1      45.069  32.422  28.263  1.00  0.00     0.037 A 
BRANCH  46  60
ATOM     60  C   UNL A   1      39.961  29.057  29.157  1.00  0.00     0.064 A 
ATOM     61  C   UNL A   1      38.920  29.354  28.252  1.00  0.00     0.173 A 
ATOM     62  C   UNL A   1      39.531  28.742  30.465  1.00  0.00     0.173 A 
ATOM     63  F   UNL A   1      39.185  29.701  26.983  1.00  0.00    -0.203 F 
ATOM     64  C   UNL A   1      37.570  29.320  28.620  1.00  0.00     0.198 A 
ATOM     65  C   UNL A   1      38.179  28.656  30.817  1.00  0.00     0.198 A 
ATOM     66  F   UNL A   1      40.389  28.564  31.475  1.00  0.00    -0.203 F 
ATOM     67  F   UNL A   1      36.628  29.657  27.728  1.00  0.00    -0.200 F 
ATOM     68  C   UNL A   1      37.198  28.953  29.897  1.00  0.00     0.200 A 
ATOM     69  F   UNL A   1      37.839  28.306  32.067  1.00  0.00    -0.200 F 
ATOM     70  F   UNL A   1      35.905  28.907  30.246  1.00  0.00    -0.200 F 
ENDBRANCH  46  60
BRANCH  47  71
ATOM     71  C   UNL A   1      49.677  28.586  27.650  1.00  0.00     0.064 A 
ATOM     72  C   UNL A   1      50.740  27.924  28.304  1.00  0.00     0.173 A 
ATOM     73  C   UNL A   1      49.214  28.024  26.451  1.00  0.00     0.173 A 
ATOM     74  F   UNL A   1      51.243  28.430  29.439  1.00  0.00    -0.203 F 
ATOM     75  C   UNL A   1      51.159  26.655  27.907  1.00  0.00     0.198 A 
ATOM     76  C   UNL A   1      49.654  26.759  26.046  1.00  0.00     0.198 A 
ATOM     77  F   UNL A   1      48.217  28.608  25.772  1.00  0.00    -0.203 F 
ATOM     78  F   UNL A   1      52.029  25.970  28.665  1.00  0.00    -0.200 F 
ATOM     79  C   UNL A   1      50.576  26.052  26.807  1.00  0.00     0.200 A 
ATOM     80  F   UNL A   1      49.100  26.169  24.977  1.00  0.00    -0.200 F 
ATOM     81  F   UNL A   1      50.858  24.774  26.517  1.00  0.00    -0.200 F 
ENDBRANCH  47  71
BRANCH  59  82
ATOM     82  C   UNL A   1      44.577  33.704  27.650  1.00  0.00     0.064 A 
ATOM     83  C   UNL A   1      43.965  33.763  26.385  1.00  0.00     0.173 A 
ATOM     84  C   UNL A   1      44.541  34.900  28.400  1.00  0.00     0.173 A 
ATOM     85  F   UNL A   1      43.780  32.666  25.636  1.00  0.00    -0.203 F 
ATOM     86  C   UNL A   1      43.455  34.949  25.863  1.00  0.00     0.198 A 
ATOM     87  C   UNL A   1      43.958  36.065  27.908  1.00  0.00     0.198 A 
ATOM     88  F   UNL A   1      45.027  34.969  29.646  1.00  0.00    -0.203 F 
ATOM     89  F   UNL A   1      42.947  34.961  24.624  1.00  0.00    -0.200 F 
ATOM     90  C   UNL A   1      43.443  36.098  26.628  1.00  0.00     0.200 A 
ATOM     91  F   UNL A   1      43.879  37.149  28.691  1.00  0.00    -0.200 F 
ATOM     92  F   UNL A   1      42.913  37.226  26.142  1.00  0.00    -0.200 F 
ENDBRANCH  59  82
ENDBRANCH  33  34
ENDBRANCH  26  28
ENDBRANCH  25  26
ENDBRANCH  24  25
ENDBRANCH  23  24
ENDBRANCH  22  23
ENDBRANCH   1  22
TORSDOF 17
ENDMDL
MODEL 2
REMARK VINA RESULT:     -11.3      6.340     11.902
REMARK SMILES Cc1cccc(C(=O)OCCOCCOC(=O)c2ccc(-c3c4nc(c(-c5c(F)c(F)c(F)c(F)c5F)c5ccc([nH]5)c(-c5c(F)c(F)c(F)c(F)c5F)c5nc(c(-c6c(F)c(F)c(F)c(F)c6F)c6ccc3[nH]6)C=C5)C=C4)cc2)c1OC[C@@H]1C[C@H]2CC[C@@H]1C2
REMARK SMILES IDX 11 1 10 2 9 3 7 4 8 5 6 6 1 7 2 8 3 9 81 10 4 11 5 12 82 13
REMARK SMILES IDX 83 14 84 15 85 16 89 17 86 18 88 19 90 20 87 21 12 22 13 23
REMARK SMILES IDX 14 24 15 25 16 26 17 27 18 28 19 29 80 30 20 31 79 32 21 33
REMARK SMILES IDX 22 34 23 35 73 36 24 37 78 38 72 39 74 40 25 41 77 42 71 43
REMARK SMILES IDX 70 44 26 46 58 47 38 48 57 49 39 50 42 51 56 52 75 53 40 54
REMARK SMILES IDX 41 55 55 57 76 58 43 59 27 60 28 61 36 62 29 63 30 64 34 65
REMARK SMILES IDX 37 66 31 67 32 68 35 69 33 70 59 71 60 72 68 73 61 74 62 75
REMARK SMILES IDX 66 76 69 77 63 78 64 79 67 80 65 81 44 82 45 83 53 84 46 85
REMARK SMILES IDX 47 86 51 87 54 88 48 89 49 90 52 91 50 92
REMARK H PARENT 74 45 42 56
REMARK Flexibility Score: inf
ROOT
ATOM      1  C   UNL A   1      32.132  31.635  26.692  1.00  0.00     0.202 C 
ENDROOT
BRANCH   1   2
ATOM      2  C   UNL A   1      32.530  30.191  26.864  1.00  0.00     0.261 C 
BRANCH   2   3
ATOM      3  O   UNL A   1      31.662  29.266  26.179  1.00  0.00    -0.460 OA
BRANCH   3   4
ATOM      4  C   UNL A   1      31.637  27.979  26.604  1.00  0.00     0.342 C 
ATOM      5  O   UNL A   1      31.105  27.569  27.615  1.00  0.00    -0.246 OA
BRANCH   4   6
ATOM      6  C   UNL A   1      32.331  27.101  25.632  1.00  0.00     0.102 A 
ATOM      7  C   UNL A   1      31.684  24.696  22.748  1.00  0.00     0.048 C 
ATOM      8  C   UNL A   1      32.365  25.511  23.810  1.00  0.00    -0.008 A 
ATOM      9  C   UNL A   1      33.651  25.104  24.214  1.00  0.00     0.007 A 
ATOM     10  C   UNL A   1      31.715  26.559  24.484  1.00  0.00     0.136 A 
ATOM     11  C   UNL A   1      34.271  25.670  25.321  1.00  0.00     0.001 A 
ATOM     12  C   UNL A   1      33.609  26.660  26.035  1.00  0.00     0.019 A 
BRANCH  10  13
ATOM     13  O   UNL A   1      30.389  26.759  24.216  1.00  0.00    -0.492 OA
BRANCH  13  14
ATOM     14  C   UNL A   1      29.923  27.687  23.216  1.00  0.00     0.233 C 
BRANCH  14  15
ATOM     15  C   UNL A   1      29.090  28.920  23.589  1.00  0.00     0.030 C 
ATOM     16  C   UNL A   1      27.731  28.966  22.827  1.00  0.00     0.011 C 
ATOM     17  C   UNL A   1      29.718  30.260  23.131  1.00  0.00    -0.004 C 
ATOM     18  C   UNL A   1      27.701  30.378  22.214  1.00  0.00    -0.010 C 
ATOM     19  C   UNL A   1      29.055  31.387  23.932  1.00  0.00     0.004 C 
ATOM     20  C   UNL A   1      29.139  30.499  21.734  1.00  0.00     0.007 C 
ATOM     21  C   UNL A   1      27.643  31.432  23.336  1.00  0.00     0.004 C 
ENDBRANCH  14  15
ENDBRANCH  13  14
ENDBRANCH  10  13
ENDBRANCH   4   6
ENDBRANCH   3   4
ENDBRANCH   2   3
ENDBRANCH   1   2
BRANCH   1  22
ATOM     22  O   UNL A   1      32.892  32.391  27.622  1.00  0.00    -0.374 OA
BRANCH  22  23
ATOM     23  C   UNL A   1      32.578  33.769  27.700  1.00  0.00     0.202 C 
BRANCH  23  24
ATOM     24  C   UNL A   1      33.582  34.556  28.553  1.00  0.00     0.261 C 
BRANCH  24  25
ATOM     25  O   UNL A   1      33.180  34.531  29.942  1.00  0.00    -0.460 OA
BRANCH  25  26
ATOM     26  C   UNL A   1      34.187  34.585  30.858  1.00  0.00     0.338 C 
ATOM     27  O   UNL A   1      34.488  35.567  31.516  1.00  0.00    -0.246 OA
BRANCH  26  28
ATOM     28  C   UNL A   1      35.039  33.363  30.750  1.00  0.00     0.060 A 
ATOM     29  C   UNL A   1      34.865  32.291  31.646  1.00  0.00     0.016 A 
ATOM     30  C   UNL A   1      36.203  33.447  29.994  1.00  0.00     0.016 A 
ATOM     31  C   UNL A   1      35.927  31.409  31.911  1.00  0.00     0.010 A 
ATOM     32  C   UNL A   1      37.280  32.674  30.365  1.00  0.00     0.010 A 
ATOM     33  C   UNL A   1      37.170  31.669  31.343  1.00  0.00    -0.014 A 
BRANCH  33  34
ATOM     34  C   UNL A   1      38.452  31.031  31.670  1.00  0.00     0.031 A 
ATOM     35  C   UNL A   1      38.786  29.797  30.912  1.00  0.00     0.074 A 
ATOM     36  C   UNL A   1      39.442  31.728  32.285  1.00  0.00     0.049 A 
ATOM     37  N   UNL A   1      39.914  29.186  30.991  1.00  0.00    -0.248 NA
ATOM     38  C   UNL A   1      37.858  29.123  29.996  1.00  0.00     0.031 C 
ATOM     39  C   UNL A   1      40.889  31.628  32.037  1.00  0.00     0.029 A 
ATOM     40  N   UNL A   1      39.377  32.742  33.256  1.00  0.00    -0.354 N 
ATOM     41  C   UNL A   1      40.000  28.335  29.918  1.00  0.00     0.074 A 
ATOM     42  C   UNL A   1      38.658  28.221  29.419  1.00  0.00     0.031 C 
ATOM     43  C   UNL A   1      41.564  32.294  32.990  1.00  0.00     0.029 A 
ATOM     44  C   UNL A   1      40.589  32.707  33.979  1.00  0.00     0.049 A 
ATOM     45  H   UNL A   1      38.626  33.362  33.404  1.00  0.00     0.167 HD
ATOM     46  C   UNL A   1      41.243  27.948  29.518  1.00  0.00     0.037 A 
ATOM     47  C   UNL A   1      40.606  32.430  35.311  1.00  0.00     0.037 A 
ATOM     48  C   UNL A   1      42.240  28.329  30.525  1.00  0.00     0.049 A 
ATOM     49  C   UNL A   1      41.371  31.159  35.526  1.00  0.00     0.074 A 
ATOM     50  C   UNL A   1      43.247  29.276  30.573  1.00  0.00     0.029 A 
ATOM     51  N   UNL A   1      42.055  27.887  31.837  1.00  0.00    -0.354 N 
ATOM     52  N   UNL A   1      41.496  30.257  34.590  1.00  0.00    -0.248 NA
ATOM     53  C   UNL A   1      42.142  30.846  36.721  1.00  0.00     0.031 C 
ATOM     54  C   UNL A   1      43.588  29.471  31.947  1.00  0.00     0.029 A 
ATOM     55  C   UNL A   1      42.827  28.608  32.726  1.00  0.00     0.049 A 
ATOM     56  H   UNL A   1      41.451  27.155  32.096  1.00  0.00     0.167 HD
ATOM     57  C   UNL A   1      42.399  29.323  34.982  1.00  0.00     0.074 A 
ATOM     58  C   UNL A   1      42.745  29.704  36.341  1.00  0.00     0.031 C 
ATOM     59  C   UNL A   1      42.797  28.314  34.158  1.00  0.00     0.037 A 
BRANCH  46  60
ATOM     60  C   UNL A   1      41.592  27.352  28.172  1.00  0.00     0.064 A 
ATOM     61  C   UNL A   1      41.815  25.963  28.055  1.00  0.00     0.173 A 
ATOM     62  C   UNL A   1      41.822  28.086  26.986  1.00  0.00     0.173 A 
ATOM     63  F   UNL A   1      41.665  25.148  29.110  1.00  0.00    -0.203 F 
ATOM     64  C   UNL A   1      42.213  25.362  26.855  1.00  0.00     0.198 A 
ATOM     65  C   UNL A   1      42.168  27.477  25.774  1.00  0.00     0.198 A 
ATOM     66  F   UNL A   1      41.784  29.421  26.956  1.00  0.00    -0.203 F 
ATOM     67  F   UNL A   1      42.453  24.044  26.817  1.00  0.00    -0.200 F 
ATOM     68  C   UNL A   1      42.371  26.116  25.710  1.00  0.00     0.200 A 
ATOM     69  F   UNL A   1      42.326  28.229  24.675  1.00  0.00    -0.200 F 
ATOM     70  F   UNL A   1      42.739  25.540  24.557  1.00  0.00    -0.200 F 
ENDBRANCH  46  60
BRANCH  47  71
ATOM     71  C   UNL A   1      39.362  32.919  35.976  1.00  0.00     0.064 A 
ATOM     72  C   UNL A   1      38.491  31.914  36.453  1.00  0.00     0.173 A 
ATOM     73  C   UNL A   1      39.350  34.149  36.650  1.00  0.00     0.173 A 
ATOM     74  F   UNL A   1      38.439  30.727  35.831  1.00  0.00    -0.203 F 
ATOM     75  C   UNL A   1      37.820  32.052  37.666  1.00  0.00     0.198 A 
ATOM     76  C   UNL A   1      38.656  34.288  37.858  1.00  0.00     0.198 A 
ATOM     77  F   UNL A   1      40.141  35.151  36.243  1.00  0.00    -0.203 F 
ATOM     78  F   UNL A   1      37.160  31.006  38.188  1.00  0.00    -0.200 F 
ATOM     79  C   UNL A   1      37.946  33.222  38.393  1.00  0.00     0.200 A 
ATOM     80  F   UNL A   1      38.767  35.421  38.566  1.00  0.00    -0.200 F 
ATOM     81  F   UNL A   1      37.437  33.299  39.631  1.00  0.00    -0.200 F 
ENDBRANCH  47  71
BRANCH  59  82
ATOM     82  C   UNL A   1      43.261  26.979  34.671  1.00  0.00     0.064 A 
ATOM     83  C   UNL A   1      42.375  25.953  35.049  1.00  0.00     0.173 A 
ATOM     84  C   UNL A   1      44.626  26.618  34.628  1.00  0.00     0.173 A 
ATOM     85  F   UNL A   1      41.045  26.104  34.975  1.00  0.00    -0.203 F 
ATOM     86  C   UNL A   1      42.824  24.700  35.458  1.00  0.00     0.198 A 
ATOM     87  C   UNL A   1      45.065  25.339  34.960  1.00  0.00     0.198 A 
ATOM     88  F   UNL A   1      45.571  27.476  34.221  1.00  0.00    -0.203 F 
ATOM     89  F   UNL A   1      41.939  23.785  35.875  1.00  0.00    -0.200 F 
ATOM     90  C   UNL A   1      44.169  24.390  35.405  1.00  0.00     0.200 A 
ATOM     91  F   UNL A   1      46.361  25.027  34.824  1.00  0.00    -0.200 F 
ATOM     92  F   UNL A   1      44.594  23.171  35.756  1.00  0.00    -0.200 F 
ENDBRANCH  59  82
ENDBRANCH  33  34
ENDBRANCH  26  28
ENDBRANCH  25  26
ENDBRANCH  24  25
ENDBRANCH  23  24
ENDBRANCH  22  23
ENDBRANCH   1  22
TORSDOF 17
ENDMDL
MODEL 3
REMARK VINA RESULT:     -11.2      4.660      9.977
REMARK SMILES Cc1cccc(C(=O)OCCOCCOC(=O)c2ccc(-c3c4nc(c(-c5c(F)c(F)c(F)c(F)c5F)c5ccc([nH]5)c(-c5c(F)c(F)c(F)c(F)c5F)c5nc(c(-c6c(F)c(F)c(F)c(F)c6F)c6ccc3[nH]6)C=C5)C=C4)cc2)c1OC[C@@H]1C[C@H]2CC[C@@H]1C2
REMARK SMILES IDX 11 1 10 2 9 3 7 4 8 5 6 6 1 7 2 8 3 9 81 10 4 11 5 12 82 13
REMARK SMILES IDX 83 14 84 15 85 16 89 17 86 18 88 19 90 20 87 21 12 22 13 23
REMARK SMILES IDX 14 24 15 25 16 26 17 27 18 28 19 29 80 30 20 31 79 32 21 33
REMARK SMILES IDX 22 34 23 35 73 36 24 37 78 38 72 39 74 40 25 41 77 42 71 43
REMARK SMILES IDX 70 44 26 46 58 47 38 48 57 49 39 50 42 51 56 52 75 53 40 54
REMARK SMILES IDX 41 55 55 57 76 58 43 59 27 60 28 61 36 62 29 63 30 64 34 65
REMARK SMILES IDX 37 66 31 67 32 68 35 69 33 70 59 71 60 72 68 73 61 74 62 75
REMARK SMILES IDX 66 76 69 77 63 78 64 79 67 80 65 81 44 82 45 83 53 84 46 85
REMARK SMILES IDX 47 86 51 87 54 88 48 89 49 90 52 91 50 92
REMARK H PARENT 74 45 42 56
REMARK Flexibility Score: inf
ROOT
ATOM      1  C   UNL A   1      33.174  26.876  22.521  1.00  0.00     0.202 C 
ENDROOT
BRANCH   1   2
ATOM      2  C   UNL A   1      32.668  25.457  22.460  1.00  0.00     0.261 C 
BRANCH   2   3
ATOM      3  O   UNL A   1      33.688  24.494  22.130  1.00  0.00    -0.460 OA
BRANCH   3   4
ATOM      4  C   UNL A   1      33.517  23.215  22.544  1.00  0.00     0.342 C 
ATOM      5  O   UNL A   1      32.831  22.372  22.001  1.00  0.00    -0.246 OA
BRANCH   4   6
ATOM      6  C   UNL A   1      34.323  22.951  23.760  1.00  0.00     0.102 A 
ATOM      7  C   UNL A   1      34.090  21.488  27.270  1.00  0.00     0.048 C 
ATOM      8  C   UNL A   1      34.603  22.155  26.026  1.00  0.00    -0.008 A 
ATOM      9  C   UNL A   1      35.744  22.971  26.151  1.00  0.00     0.007 A 
ATOM     10  C   UNL A   1      33.914  22.094  24.804  1.00  0.00     0.136 A 
ATOM     11  C   UNL A   1      36.168  23.782  25.106  1.00  0.00     0.001 A 
ATOM     12  C   UNL A   1      35.454  23.780  23.915  1.00  0.00     0.019 A 
BRANCH  10  13
ATOM     13  O   UNL A   1      32.690  21.484  24.795  1.00  0.00    -0.492 OA
BRANCH  13  14
ATOM     14  C   UNL A   1      32.472  20.170  24.245  1.00  0.00     0.233 C 
BRANCH  14  15
ATOM     15  C   UNL A   1      33.016  18.910  24.931  1.00  0.00     0.030 C 
ATOM     16  C   UNL A   1      34.495  18.616  24.536  1.00  0.00     0.011 C 
ATOM     17  C   UNL A   1      32.333  17.600  24.465  1.00  0.00    -0.004 C 
ATOM     18  C   UNL A   1      34.472  17.143  24.092  1.00  0.00    -0.010 C 
ATOM     19  C   UNL A   1      32.629  16.519  25.512  1.00  0.00     0.004 C 
ATOM     20  C   UNL A   1      33.182  17.121  23.285  1.00  0.00     0.007 C 
ATOM     21  C   UNL A   1      34.121  16.242  25.290  1.00  0.00     0.004 C 
ENDBRANCH  14  15
ENDBRANCH  13  14
ENDBRANCH  10  13
ENDBRANCH   4   6
ENDBRANCH   3   4
ENDBRANCH   2   3
ENDBRANCH   1   2
BRANCH   1  22
ATOM     22  O   UNL A   1      34.037  26.963  23.644  1.00  0.00    -0.374 OA
BRANCH  22  23
ATOM     23  C   UNL A   1      33.403  27.141  24.897  1.00  0.00     0.202 C 
BRANCH  23  24
ATOM     24  C   UNL A   1      33.656  28.532  25.495  1.00  0.00     0.261 C 
BRANCH  24  25
ATOM     25  O   UNL A   1      34.538  28.428  26.636  1.00  0.00    -0.460 OA
BRANCH  25  26
ATOM     26  C   UNL A   1      34.485  29.456  27.530  1.00  0.00     0.338 C 
ATOM     27  O   UNL A   1      33.496  30.129  27.770  1.00  0.00    -0.246 OA
BRANCH  26  28
ATOM     28  C   UNL A   1      35.865  29.817  27.973  1.00  0.00     0.060 A 
ATOM     29  C   UNL A   1      36.906  29.937  27.033  1.00  0.00     0.016 A 
ATOM     30  C   UNL A   1      36.166  29.693  29.324  1.00  0.00     0.016 A 
ATOM     31  C   UNL A   1      38.242  29.755  27.429  1.00  0.00     0.010 A 
ATOM     32  C   UNL A   1      37.457  29.371  29.678  1.00  0.00     0.010 A 
ATOM     33  C   UNL A   1      38.505  29.368  28.739  1.00  0.00    -0.014 A 
BRANCH  33  34
ATOM     34  C   UNL A   1      39.782  28.898  29.292  1.00  0.00     0.031 A 
ATOM     35  C   UNL A   1      40.150  27.489  28.997  1.00  0.00     0.074 A 
ATOM     36  C   UNL A   1      40.746  29.779  29.665  1.00  0.00     0.049 A 
ATOM     37  N   UNL A   1      41.281  26.960  29.305  1.00  0.00    -0.248 NA
ATOM     38  C   UNL A   1      39.257  26.532  28.335  1.00  0.00     0.031 C 
ATOM     39  C   UNL A   1      42.201  29.628  29.503  1.00  0.00     0.029 A 
ATOM     40  N   UNL A   1      40.643  31.057  30.241  1.00  0.00    -0.354 N 
ATOM     41  C   UNL A   1      41.407  25.802  28.580  1.00  0.00     0.074 A 
ATOM     42  C   UNL A   1      40.082  25.503  28.113  1.00  0.00     0.031 C 
ATOM     43  C   UNL A   1      42.841  30.586  30.196  1.00  0.00     0.029 A 
ATOM     44  C   UNL A   1      41.832  31.286  30.966  1.00  0.00     0.049 A 
ATOM     45  H   UNL A   1      39.883  31.676  30.154  1.00  0.00     0.167 HD
ATOM     46  C   UNL A   1      42.664  25.327  28.364  1.00  0.00     0.037 A 
ATOM     47  C   UNL A   1      41.811  31.469  32.314  1.00  0.00     0.037 A 
ATOM     48  C   UNL A   1      43.627  26.040  29.212  1.00  0.00     0.049 A 
ATOM     49  C   UNL A   1      42.580  30.356  32.959  1.00  0.00     0.074 A 
ATOM     50  C   UNL A   1      44.624  26.967  28.967  1.00  0.00     0.029 A 
ATOM     51  N   UNL A   1      43.406  26.057  30.591  1.00  0.00    -0.354 N 
ATOM     52  N   UNL A   1      42.742  29.196  32.381  1.00  0.00    -0.248 NA
ATOM     53  C   UNL A   1      43.317  30.473  34.210  1.00  0.00     0.031 C 
ATOM     54  C   UNL A   1      44.920  27.615  30.206  1.00  0.00     0.029 A 
ATOM     55  C   UNL A   1      44.144  27.046  31.208  1.00  0.00     0.049 A 
ATOM     56  H   UNL A   1      42.801  25.441  31.063  1.00  0.00     0.167 HD
ATOM     57  C   UNL A   1      43.641  28.464  33.085  1.00  0.00     0.074 A 
ATOM     58  C   UNL A   1      43.942  29.281  34.248  1.00  0.00     0.031 C 
ATOM     59  C   UNL A   1      44.073  27.245  32.655  1.00  0.00     0.037 A 
BRANCH  46  60
ATOM     60  C   UNL A   1      43.060  24.323  27.303  1.00  0.00     0.064 A 
ATOM     61  C   UNL A   1      42.686  22.970  27.442  1.00  0.00     0.173 A 
ATOM     62  C   UNL A   1      43.882  24.595  26.185  1.00  0.00     0.173 A 
ATOM     63  F   UNL A   1      41.933  22.563  28.475  1.00  0.00    -0.203 F 
ATOM     64  C   UNL A   1      43.085  21.981  26.534  1.00  0.00     0.198 A 
ATOM     65  C   UNL A   1      44.234  23.615  25.250  1.00  0.00     0.198 A 
ATOM     66  F   UNL A   1      44.431  25.795  25.979  1.00  0.00    -0.203 F 
ATOM     67  F   UNL A   1      42.735  20.704  26.744  1.00  0.00    -0.200 F 
ATOM     68  C   UNL A   1      43.843  22.307  25.428  1.00  0.00     0.200 A 
ATOM     69  F   UNL A   1      44.980  23.951  24.186  1.00  0.00    -0.200 F 
ATOM     70  F   UNL A   1      44.212  21.363  24.551  1.00  0.00    -0.200 F 
ENDBRANCH  46  60
BRANCH  47  71
ATOM     71  C   UNL A   1      40.543  32.129  32.745  1.00  0.00     0.064 A 
ATOM     72  C   UNL A   1      40.344  33.440  32.258  1.00  0.00     0.173 A 
ATOM     73  C   UNL A   1      39.398  31.367  33.016  1.00  0.00     0.173 A 
ATOM     74  F   UNL A   1      41.402  34.226  32.008  1.00  0.00    -0.203 F 
ATOM     75  C   UNL A   1      39.087  33.880  31.850  1.00  0.00     0.198 A 
ATOM     76  C   UNL A   1      38.134  31.822  32.623  1.00  0.00     0.198 A 
ATOM     77  F   UNL A   1      39.514  30.119  33.492  1.00  0.00    -0.203 F 
ATOM     78  F   UNL A   1      38.964  35.053  31.210  1.00  0.00    -0.200 F 
ATOM     79  C   UNL A   1      37.990  33.048  31.986  1.00  0.00     0.200 A 
ATOM     80  F   UNL A   1      37.064  31.025  32.756  1.00  0.00    -0.200 F 
ATOM     81  F   UNL A   1      36.812  33.400  31.450  1.00  0.00    -0.200 F 
ENDBRANCH  47  71
BRANCH  59  82
ATOM     82  C   UNL A   1      44.532  26.165  33.596  1.00  0.00     0.064 A 
ATOM     83  C   UNL A   1      43.663  25.496  34.477  1.00  0.00     0.173 A 
ATOM     84  C   UNL A   1      45.839  25.638  33.512  1.00  0.00     0.173 A 
ATOM     85  F   UNL A   1      42.356  25.783  34.535  1.00  0.00    -0.203 F 
ATOM     86  C   UNL A   1      44.096  24.453  35.293  1.00  0.00     0.198 A 
ATOM     87  C   UNL A   1      46.246  24.542  34.270  1.00  0.00     0.198 A 
ATOM     88  F   UNL A   1      46.751  26.135  32.665  1.00  0.00    -0.203 F 
ATOM     89  F   UNL A   1      43.242  23.900  36.164  1.00  0.00    -0.200 F 
ATOM     90  C   UNL A   1      45.384  23.970  35.182  1.00  0.00     0.200 A 
ATOM     91  F   UNL A   1      47.472  24.032  34.093  1.00  0.00    -0.200 F 
ATOM     92  F   UNL A   1      45.785  22.939  35.935  1.00  0.00    -0.200 F 
ENDBRANCH  59  82
ENDBRANCH  33  34
ENDBRANCH  26  28
ENDBRANCH  25  26
ENDBRANCH  24  25
ENDBRANCH  23  24
ENDBRANCH  22  23
ENDBRANCH   1  22
TORSDOF 17
ENDMDL
