MODEL 1
REMARK VINA RESULT:     -12.2      0.000      0.000
REMARK SMILES NC(=O)c1c(-c2ccc(Cl)cc2)csc1NC(=O)[C@H]1[C@@H](C(=O)OCCOCCOC(=O)c2ccc(-c3c4nc(c(-c5c(F)c(F)c(F)c(F)c5F)c5ccc([nH]5)c(-c5c(F)c(F)c(F)c(F)c5F)c5nc(c(-c6c(F)c(F)c(F)c(F)c6F)c6ccc3[nH]6)C=C5)C=C4)cc2)[C@@H]2CC[C@H]1O2
REMARK SMILES IDX 25 1 24 2 23 3 21 4 22 5 20 6 19 7 98 8 95 9 97 10 99 11
REMARK SMILES IDX 96 12 17 13 16 14 18 16 15 17 4 18 5 19 13 20 14 21 2 22
REMARK SMILES IDX 1 23 3 26 6 27 7 28 12 29 8 30 11 31 9 32 10 33 26 34 27 35
REMARK SMILES IDX 28 36 29 37 30 38 31 39 32 40 33 41 94 42 34 43 93 44 35 45
REMARK SMILES IDX 36 46 37 47 87 48 38 49 92 50 86 51 88 52 39 53 91 54 85 55
REMARK SMILES IDX 84 56 40 58 72 59 52 60 71 61 53 62 56 63 70 64 89 65 54 66
REMARK SMILES IDX 55 67 69 69 90 70 57 71 41 72 42 73 50 74 43 75 44 76 48 77
REMARK SMILES IDX 51 78 45 79 46 80 49 81 47 82 73 83 74 84 82 85 75 86 76 87
REMARK SMILES IDX 80 88 83 89 77 90 78 91 81 92 79 93 58 94 59 95 67 96 60 97
REMARK SMILES IDX 61 98 65 99 68 100 62 101 63 102 66 103 64 104
REMARK H PARENT 16 15 1 24 1 25 88 57 56 68
REMARK Flexibility Score: inf
ROOT
ATOM      1  C   UNL A   1      34.709  29.856  27.491  1.00  0.00     0.202 C 
ENDROOT
BRANCH   1   2
ATOM      2  C   UNL A   1      33.805  28.650  27.227  1.00  0.00     0.261 C 
BRANCH   2   3
ATOM      3  O   UNL A   1      34.069  28.081  25.929  1.00  0.00    -0.463 OA
BRANCH   3   4
ATOM      4  C   UNL A   1      33.072  28.242  25.010  1.00  0.00     0.312 C 
ATOM      5  O   UNL A   1      32.965  29.211  24.275  1.00  0.00    -0.252 OA
BRANCH   4   6
ATOM      6  C   UNL A   1      32.171  27.020  24.995  1.00  0.00     0.143 C 
ATOM      7  C   UNL A   1      32.147  26.270  23.658  1.00  0.00     0.124 C 
ATOM      8  C   UNL A   1      30.936  26.928  22.960  1.00  0.00     0.132 C 
ATOM      9  C   UNL A   1      30.731  27.522  25.050  1.00  0.00     0.133 C 
ATOM     10  C   UNL A   1      29.692  26.136  23.387  1.00  0.00     0.035 C 
ATOM     11  O   UNL A   1      30.651  28.123  23.737  1.00  0.00    -0.373 OA
ATOM     12  C   UNL A   1      29.705  26.381  24.911  1.00  0.00     0.036 C 
BRANCH   7  13
ATOM     13  C   UNL A   1      33.459  26.084  22.907  1.00  0.00     0.231 C 
ATOM     14  N   UNL A   1      34.349  25.083  23.263  1.00  0.00    -0.317 N 
ATOM     15  H   UNL A   1      35.260  25.229  22.922  1.00  0.00     0.170 HD
ATOM     16  O   UNL A   1      33.780  26.841  21.989  1.00  0.00    -0.274 OA
BRANCH  14  17
ATOM     17  C   UNL A   1      34.215  23.908  24.008  1.00  0.00     0.108 A 
ATOM     18  C   UNL A   1      33.643  22.689  23.613  1.00  0.00     0.082 A 
ATOM     19  C   UNL A   1      33.933  21.660  24.607  1.00  0.00     0.007 A 
ATOM     20  C   UNL A   1      34.478  22.198  25.753  1.00  0.00     0.076 A 
ATOM     21  S   UNL A   1      34.593  23.875  25.666  1.00  0.00    -0.125 S 
BRANCH  18  22
ATOM     22  C   UNL A   1      32.967  22.535  22.322  1.00  0.00     0.252 C 
ATOM     23  N   UNL A   1      31.803  21.827  22.299  1.00  0.00    -0.365 N 
ATOM     24  H   UNL A   1      31.319  21.702  21.450  1.00  0.00     0.159 HD
ATOM     25  H   UNL A   1      31.446  21.440  23.130  1.00  0.00     0.159 HD
ATOM     26  O   UNL A   1      33.397  23.040  21.290  1.00  0.00    -0.269 OA
ENDBRANCH  18  22
BRANCH  19  27
ATOM     27  C   UNL A   1      33.771  20.213  24.570  1.00  0.00    -0.017 A 
ATOM     28  C   UNL A   1      32.492  19.658  24.703  1.00  0.00     0.010 A 
ATOM     29  C   UNL A   1      34.885  19.367  24.504  1.00  0.00     0.010 A 
ATOM     30  C   UNL A   1      32.331  18.273  24.777  1.00  0.00     0.021 A 
ATOM     31  C   UNL A   1      34.722  17.981  24.573  1.00  0.00     0.021 A 
ATOM     32  C   UNL A   1      33.446  17.440  24.714  1.00  0.00     0.041 A 
ATOM     33  Cl  UNL A   1      33.246  15.736  24.827  1.00  0.00    -0.084 Cl
ENDBRANCH  19  27
ENDBRANCH  14  17
ENDBRANCH   7  13
ENDBRANCH   4   6
ENDBRANCH   3   4
ENDBRANCH   2   3
ENDBRANCH   1   2
BRANCH   1  34
ATOM     34  O   UNL A   1      34.175  31.161  27.288  1.00  0.00    -0.374 OA
BRANCH  34  35
ATOM     35  C   UNL A   1      32.767  31.315  27.211  1.00  0.00     0.202 C 
BRANCH  35  36
ATOM     36  C   UNL A   1      32.190  32.729  27.333  1.00  0.00     0.261 C 
BRANCH  36  37
ATOM     37  O   UNL A   1      33.154  33.774  27.315  1.00  0.00    -0.460 OA
BRANCH  37  38
ATOM     38  C   UNL A   1      33.230  34.473  28.467  1.00  0.00     0.338 C 
ATOM     39  O   UNL A   1      32.462  35.318  28.898  1.00  0.00    -0.246 OA
BRANCH  38  40
ATOM     40  C   UNL A   1      34.374  33.954  29.215  1.00  0.00     0.060 A 
ATOM     41  C   UNL A   1      35.649  34.355  28.807  1.00  0.00     0.016 A 
ATOM     42  C   UNL A   1      34.186  33.094  30.299  1.00  0.00     0.016 A 
ATOM     43  C   UNL A   1      36.759  33.859  29.473  1.00  0.00     0.010 A 
ATOM     44  C   UNL A   1      35.303  32.593  30.963  1.00  0.00     0.010 A 
ATOM     45  C   UNL A   1      36.591  32.953  30.530  1.00  0.00    -0.014 A 
BRANCH  45  46
ATOM     46  C   UNL A   1      37.786  32.287  31.083  1.00  0.00     0.031 A 
ATOM     47  C   UNL A   1      38.237  32.652  32.466  1.00  0.00     0.074 A 
ATOM     48  C   UNL A   1      38.395  31.319  30.379  1.00  0.00     0.049 A 
ATOM     49  N   UNL A   1      39.209  32.150  33.181  1.00  0.00    -0.248 NA
ATOM     50  C   UNL A   1      37.489  33.729  33.140  1.00  0.00     0.031 C 
ATOM     51  C   UNL A   1      38.006  30.883  29.037  1.00  0.00     0.029 A 
ATOM     52  N   UNL A   1      39.456  30.516  30.701  1.00  0.00    -0.354 N 
ATOM     53  C   UNL A   1      39.179  32.835  34.388  1.00  0.00     0.074 A 
ATOM     54  C   UNL A   1      38.127  33.823  34.296  1.00  0.00     0.031 C 
ATOM     55  C   UNL A   1      38.813  29.880  28.654  1.00  0.00     0.029 A 
ATOM     56  C   UNL A   1      39.787  29.623  29.712  1.00  0.00     0.049 A 
ATOM     57  H   UNL A   1      39.935  30.574  31.558  1.00  0.00     0.167 HD
ATOM     58  C   UNL A   1      39.953  32.639  35.481  1.00  0.00     0.037 A 
ATOM     59  C   UNL A   1      40.773  28.709  29.675  1.00  0.00     0.037 A 
ATOM     60  C   UNL A   1      41.001  31.656  35.550  1.00  0.00     0.049 A 
ATOM     61  C   UNL A   1      41.659  28.559  30.884  1.00  0.00     0.074 A 
ATOM     62  C   UNL A   1      41.854  31.371  36.601  1.00  0.00     0.029 A 
ATOM     63  N   UNL A   1      41.340  30.795  34.514  1.00  0.00    -0.354 N 
ATOM     64  N   UNL A   1      41.609  29.190  32.033  1.00  0.00    -0.248 NA
ATOM     65  C   UNL A   1      42.733  27.562  30.794  1.00  0.00     0.031 C 
ATOM     66  C   UNL A   1      42.742  30.374  36.183  1.00  0.00     0.029 A 
ATOM     67  C   UNL A   1      42.404  29.994  34.893  1.00  0.00     0.049 A 
ATOM     68  H   UNL A   1      40.890  30.760  33.638  1.00  0.00     0.167 HD
ATOM     69  C   UNL A   1      42.624  28.650  32.812  1.00  0.00     0.074 A 
ATOM     70  C   UNL A   1      43.253  27.620  32.012  1.00  0.00     0.031 C 
ATOM     71  C   UNL A   1      43.008  28.976  34.071  1.00  0.00     0.037 A 
BRANCH  58  72
ATOM     72  C   UNL A   1      39.706  33.512  36.677  1.00  0.00     0.064 A 
ATOM     73  C   UNL A   1      40.325  34.763  36.816  1.00  0.00     0.173 A 
ATOM     74  C   UNL A   1      38.809  33.110  37.679  1.00  0.00     0.173 A 
ATOM     75  F   UNL A   1      41.206  35.187  35.898  1.00  0.00    -0.203 F 
ATOM     76  C   UNL A   1      40.069  35.573  37.922  1.00  0.00     0.198 A 
ATOM     77  C   UNL A   1      38.533  33.933  38.767  1.00  0.00     0.198 A 
ATOM     78  F   UNL A   1      38.192  31.922  37.597  1.00  0.00    -0.203 F 
ATOM     79  F   UNL A   1      40.703  36.745  38.054  1.00  0.00    -0.200 F 
ATOM     80  C   UNL A   1      39.165  35.161  38.890  1.00  0.00     0.200 A 
ATOM     81  F   UNL A   1      37.654  33.538  39.698  1.00  0.00    -0.200 F 
ATOM     82  F   UNL A   1      38.911  35.945  39.947  1.00  0.00    -0.200 F 
ENDBRANCH  58  72
BRANCH  59  83
ATOM     83  C   UNL A   1      40.979  27.872  28.463  1.00  0.00     0.064 A 
ATOM     84  C   UNL A   1      41.794  28.306  27.407  1.00  0.00     0.173 A 
ATOM     85  C   UNL A   1      40.335  26.634  28.318  1.00  0.00     0.173 A 
ATOM     86  F   UNL A   1      42.417  29.491  27.486  1.00  0.00    -0.203 F 
ATOM     87  C   UNL A   1      41.928  27.551  26.242  1.00  0.00     0.198 A 
ATOM     88  C   UNL A   1      40.498  25.864  27.168  1.00  0.00     0.198 A 
ATOM     89  F   UNL A   1      39.546  26.167  29.298  1.00  0.00    -0.203 F 
ATOM     90  F   UNL A   1      42.663  28.020  25.225  1.00  0.00    -0.200 F 
ATOM     91  C   UNL A   1      41.284  26.329  26.125  1.00  0.00     0.200 A 
ATOM     92  F   UNL A   1      39.885  24.676  27.067  1.00  0.00    -0.200 F 
ATOM     93  F   UNL A   1      41.411  25.607  25.005  1.00  0.00    -0.200 F 
ENDBRANCH  59  83
BRANCH  71  94
ATOM     94  C   UNL A   1      44.141  28.185  34.659  1.00  0.00     0.064 A 
ATOM     95  C   UNL A   1      45.472  28.613  34.550  1.00  0.00     0.173 A 
ATOM     96  C   UNL A   1      43.889  26.988  35.347  1.00  0.00     0.173 A 
ATOM     97  F   UNL A   1      45.766  29.744  33.891  1.00  0.00    -0.203 F 
ATOM     98  C   UNL A   1      46.513  27.849  35.070  1.00  0.00     0.198 A 
ATOM     99  C   UNL A   1      44.929  26.247  35.897  1.00  0.00     0.198 A 
ATOM    100  F   UNL A   1      42.633  26.540  35.488  1.00  0.00    -0.203 F 
ATOM    101  F   UNL A   1      47.783  28.243  34.893  1.00  0.00    -0.200 F 
ATOM    102  C   UNL A   1      46.241  26.670  35.748  1.00  0.00     0.200 A 
ATOM    103  F   UNL A   1      44.663  25.116  36.566  1.00  0.00    -0.200 F 
ATOM    104  F   UNL A   1      47.245  25.935  36.246  1.00  0.00    -0.200 F 
ENDBRANCH  71  94
ENDBRANCH  45  46
ENDBRANCH  38  40
ENDBRANCH  37  38
ENDBRANCH  36  37
ENDBRANCH  35  36
ENDBRANCH  34  35
ENDBRANCH   1  34
TORSDOF 18
ENDMDL
MODEL 2
REMARK VINA RESULT:     -12.1      5.076     10.612
REMARK SMILES NC(=O)c1c(-c2ccc(Cl)cc2)csc1NC(=O)[C@H]1[C@@H](C(=O)OCCOCCOC(=O)c2ccc(-c3c4nc(c(-c5c(F)c(F)c(F)c(F)c5F)c5ccc([nH]5)c(-c5c(F)c(F)c(F)c(F)c5F)c5nc(c(-c6c(F)c(F)c(F)c(F)c6F)c6ccc3[nH]6)C=C5)C=C4)cc2)[C@@H]2CC[C@H]1O2
REMARK SMILES IDX 25 1 24 2 23 3 21 4 22 5 20 6 19 7 98 8 95 9 97 10 99 11
REMARK SMILES IDX 96 12 17 13 16 14 18 16 15 17 4 18 5 19 13 20 14 21 2 22
REMARK SMILES IDX 1 23 3 26 6 27 7 28 12 29 8 30 11 31 9 32 10 33 26 34 27 35
REMARK SMILES IDX 28 36 29 37 30 38 31 39 32 40 33 41 94 42 34 43 93 44 35 45
REMARK SMILES IDX 36 46 37 47 87 48 38 49 92 50 86 51 88 52 39 53 91 54 85 55
REMARK SMILES IDX 84 56 40 58 72 59 52 60 71 61 53 62 56 63 70 64 89 65 54 66
REMARK SMILES IDX 55 67 69 69 90 70 57 71 41 72 42 73 50 74 43 75 44 76 48 77
REMARK SMILES IDX 51 78 45 79 46 80 49 81 47 82 73 83 74 84 82 85 75 86 76 87
REMARK SMILES IDX 80 88 83 89 77 90 78 91 81 92 79 93 58 94 59 95 67 96 60 97
REMARK SMILES IDX 61 98 65 99 68 100 62 101 63 102 66 103 64 104
REMARK H PARENT 16 15 1 24 1 25 88 57 56 68
REMARK Flexibility Score: inf
ROOT
ATOM      1  C   UNL A   1      37.300  22.372  24.677  1.00  0.00     0.202 C 
ENDROOT
BRANCH   1   2
ATOM      2  C   UNL A   1      37.230  23.647  25.519  1.00  0.00     0.261 C 
BRANCH   2   3
ATOM      3  O   UNL A   1      35.991  24.349  25.293  1.00  0.00    -0.463 OA
BRANCH   3   4
ATOM      4  C   UNL A   1      34.870  23.703  25.728  1.00  0.00     0.312 C 
ATOM      5  O   UNL A   1      34.747  23.212  26.839  1.00  0.00    -0.252 OA
BRANCH   4   6
ATOM      6  C   UNL A   1      33.791  23.750  24.660  1.00  0.00     0.143 C 
ATOM      7  C   UNL A   1      32.378  23.453  25.176  1.00  0.00     0.124 C 
ATOM      8  C   UNL A   1      32.278  21.931  24.934  1.00  0.00     0.132 C 
ATOM      9  C   UNL A   1      34.007  22.542  23.751  1.00  0.00     0.133 C 
ATOM     10  C   UNL A   1      31.757  21.742  23.502  1.00  0.00     0.035 C 
ATOM     11  O   UNL A   1      33.640  21.493  24.677  1.00  0.00    -0.373 OA
ATOM     12  C   UNL A   1      32.896  22.398  22.693  1.00  0.00     0.036 C 
BRANCH   7  13
ATOM     13  C   UNL A   1      31.954  24.047  26.513  1.00  0.00     0.231 C 
ATOM     14  N   UNL A   1      31.924  25.419  26.706  1.00  0.00    -0.317 N 
ATOM     15  H   UNL A   1      31.922  25.682  27.654  1.00  0.00     0.170 HD
ATOM     16  O   UNL A   1      31.664  23.324  27.468  1.00  0.00    -0.274 OA
BRANCH  14  17
ATOM     17  C   UNL A   1      31.896  26.505  25.827  1.00  0.00     0.108 A 
ATOM     18  C   UNL A   1      30.837  26.939  25.014  1.00  0.00     0.082 A 
ATOM     19  C   UNL A   1      31.150  28.247  24.448  1.00  0.00     0.007 A 
ATOM     20  C   UNL A   1      32.465  28.596  24.667  1.00  0.00     0.076 A 
ATOM     21  S   UNL A   1      33.309  27.385  25.477  1.00  0.00    -0.125 S 
BRANCH  18  22
ATOM     22  C   UNL A   1      29.590  26.177  24.899  1.00  0.00     0.252 C 
ATOM     23  N   UNL A   1      29.084  25.982  23.650  1.00  0.00    -0.365 N 
ATOM     24  H   UNL A   1      28.247  25.474  23.531  1.00  0.00     0.159 HD
ATOM     25  H   UNL A   1      29.552  26.347  22.865  1.00  0.00     0.159 HD
ATOM     26  O   UNL A   1      29.020  25.698  25.874  1.00  0.00    -0.269 OA
ENDBRANCH  18  22
BRANCH  19  27
ATOM     27  C   UNL A   1      30.320  29.213  23.742  1.00  0.00    -0.017 A 
ATOM     28  C   UNL A   1      30.002  28.997  22.394  1.00  0.00     0.010 A 
ATOM     29  C   UNL A   1      29.921  30.405  24.360  1.00  0.00     0.010 A 
ATOM     30  C   UNL A   1      29.298  29.963  21.674  1.00  0.00     0.021 A 
ATOM     31  C   UNL A   1      29.212  31.369  23.639  1.00  0.00     0.021 A 
ATOM     32  C   UNL A   1      28.908  31.146  22.298  1.00  0.00     0.041 A 
ATOM     33  Cl  UNL A   1      28.061  32.345  21.401  1.00  0.00    -0.084 Cl
ENDBRANCH  19  27
ENDBRANCH  14  17
ENDBRANCH   7  13
ENDBRANCH   4   6
ENDBRANCH   3   4
ENDBRANCH   2   3
ENDBRANCH   1   2
BRANCH   1  34
ATOM     34  O   UNL A   1      37.232  21.114  25.343  1.00  0.00    -0.374 OA
BRANCH  34  35
ATOM     35  C   UNL A   1      37.993  20.032  24.831  1.00  0.00     0.202 C 
BRANCH  35  36
ATOM     36  C   UNL A   1      39.229  19.585  25.618  1.00  0.00     0.261 C 
BRANCH  36  37
ATOM     37  O   UNL A   1      40.226  20.585  25.788  1.00  0.00    -0.460 OA
BRANCH  37  38
ATOM     38  C   UNL A   1      40.858  20.535  26.980  1.00  0.00     0.338 C 
ATOM     39  O   UNL A   1      41.223  19.553  27.608  1.00  0.00    -0.246 OA
BRANCH  38  40
ATOM     40  C   UNL A   1      41.158  21.911  27.372  1.00  0.00     0.060 A 
ATOM     41  C   UNL A   1      40.674  22.936  26.555  1.00  0.00     0.016 A 
ATOM     42  C   UNL A   1      41.899  22.178  28.525  1.00  0.00     0.016 A 
ATOM     43  C   UNL A   1      40.965  24.252  26.878  1.00  0.00     0.010 A 
ATOM     44  C   UNL A   1      42.194  23.501  28.844  1.00  0.00     0.010 A 
ATOM     45  C   UNL A   1      41.752  24.536  28.003  1.00  0.00    -0.014 A 
BRANCH  45  46
ATOM     46  C   UNL A   1      42.215  25.923  28.206  1.00  0.00     0.031 A 
ATOM     47  C   UNL A   1      43.535  26.333  27.623  1.00  0.00     0.074 A 
ATOM     48  C   UNL A   1      41.419  26.805  28.831  1.00  0.00     0.049 A 
ATOM     49  N   UNL A   1      44.106  27.508  27.610  1.00  0.00    -0.248 NA
ATOM     50  C   UNL A   1      44.318  25.276  26.958  1.00  0.00     0.031 C 
ATOM     51  C   UNL A   1      40.109  26.497  29.406  1.00  0.00     0.029 A 
ATOM     52  N   UNL A   1      41.587  28.143  29.072  1.00  0.00    -0.354 N 
ATOM     53  C   UNL A   1      45.303  27.336  26.928  1.00  0.00     0.074 A 
ATOM     54  C   UNL A   1      45.403  25.936  26.582  1.00  0.00     0.031 C 
ATOM     55  C   UNL A   1      39.585  27.621  29.924  1.00  0.00     0.029 A 
ATOM     56  C   UNL A   1      40.533  28.716  29.739  1.00  0.00     0.049 A 
ATOM     57  H   UNL A   1      42.387  28.644  28.794  1.00  0.00     0.167 HD
ATOM     58  C   UNL A   1      46.224  28.273  26.605  1.00  0.00     0.037 A 
ATOM     59  C   UNL A   1      40.367  29.985  30.153  1.00  0.00     0.037 A 
ATOM     60  C   UNL A   1      46.110  29.661  26.965  1.00  0.00     0.049 A 
ATOM     61  C   UNL A   1      41.441  30.991  29.834  1.00  0.00     0.074 A 
ATOM     62  C   UNL A   1      46.984  30.700  26.698  1.00  0.00     0.029 A 
ATOM     63  N   UNL A   1      45.049  30.203  27.680  1.00  0.00    -0.354 N 
ATOM     64  N   UNL A   1      42.558  30.829  29.163  1.00  0.00    -0.248 NA
ATOM     65  C   UNL A   1      41.228  32.360  30.319  1.00  0.00     0.031 C 
ATOM     66  C   UNL A   1      46.476  31.859  27.295  1.00  0.00     0.029 A 
ATOM     67  C   UNL A   1      45.257  31.557  27.882  1.00  0.00     0.049 A 
ATOM     68  H   UNL A   1      44.265  29.698  27.996  1.00  0.00     0.167 HD
ATOM     69  C   UNL A   1      43.166  32.077  29.124  1.00  0.00     0.074 A 
ATOM     70  C   UNL A   1      42.278  32.990  29.812  1.00  0.00     0.031 C 
ATOM     71  C   UNL A   1      44.352  32.439  28.574  1.00  0.00     0.037 A 
BRANCH  58  72
ATOM     72  C   UNL A   1      47.436  27.825  25.840  1.00  0.00     0.064 A 
ATOM     73  C   UNL A   1      47.436  27.748  24.439  1.00  0.00     0.173 A 
ATOM     74  C   UNL A   1      48.625  27.505  26.514  1.00  0.00     0.173 A 
ATOM     75  F   UNL A   1      46.321  28.022  23.747  1.00  0.00    -0.203 F 
ATOM     76  C   UNL A   1      48.576  27.351  23.742  1.00  0.00     0.198 A 
ATOM     77  C   UNL A   1      49.770  27.138  25.813  1.00  0.00     0.198 A 
ATOM     78  F   UNL A   1      48.678  27.559  27.853  1.00  0.00    -0.203 F 
ATOM     79  F   UNL A   1      48.541  27.244  22.407  1.00  0.00    -0.200 F 
ATOM     80  C   UNL A   1      49.744  27.056  24.429  1.00  0.00     0.200 A 
ATOM     81  F   UNL A   1      50.900  26.861  26.478  1.00  0.00    -0.200 F 
ATOM     82  F   UNL A   1      50.844  26.686  23.757  1.00  0.00    -0.200 F 
ENDBRANCH  58  72
BRANCH  59  83
ATOM     83  C   UNL A   1      39.149  30.376  30.912  1.00  0.00     0.064 A 
ATOM     84  C   UNL A   1      37.987  30.805  30.255  1.00  0.00     0.173 A 
ATOM     85  C   UNL A   1      39.134  30.365  32.315  1.00  0.00     0.173 A 
ATOM     86  F   UNL A   1      37.955  30.853  28.914  1.00  0.00    -0.203 F 
ATOM     87  C   UNL A   1      36.871  31.238  30.971  1.00  0.00     0.198 A 
ATOM     88  C   UNL A   1      38.006  30.765  33.029  1.00  0.00     0.198 A 
ATOM     89  F   UNL A   1      40.216  29.962  32.996  1.00  0.00    -0.203 F 
ATOM     90  F   UNL A   1      35.798  31.701  30.316  1.00  0.00    -0.200 F 
ATOM     91  C   UNL A   1      36.880  31.214  32.356  1.00  0.00     0.200 A 
ATOM     92  F   UNL A   1      38.015  30.725  34.368  1.00  0.00    -0.200 F 
ATOM     93  F   UNL A   1      35.810  31.634  33.043  1.00  0.00    -0.200 F 
ENDBRANCH  59  83
BRANCH  71  94
ATOM     94  C   UNL A   1      44.731  33.888  28.676  1.00  0.00     0.064 A 
ATOM     95  C   UNL A   1      44.277  34.835  27.746  1.00  0.00     0.173 A 
ATOM     96  C   UNL A   1      45.551  34.335  29.723  1.00  0.00     0.173 A 
ATOM     97  F   UNL A   1      43.501  34.456  26.720  1.00  0.00    -0.203 F 
ATOM     98  C   UNL A   1      44.667  36.168  27.836  1.00  0.00     0.198 A 
ATOM     99  C   UNL A   1      45.908  35.675  29.831  1.00  0.00     0.198 A 
ATOM    100  F   UNL A   1      46.003  33.472  30.645  1.00  0.00    -0.203 F 
ATOM    101  F   UNL A   1      44.278  37.042  26.897  1.00  0.00    -0.200 F 
ATOM    102  C   UNL A   1      45.477  36.589  28.880  1.00  0.00     0.200 A 
ATOM    103  F   UNL A   1      46.677  36.083  30.850  1.00  0.00    -0.200 F 
ATOM    104  F   UNL A   1      45.852  37.872  28.964  1.00  0.00    -0.200 F 
ENDBRANCH  71  94
ENDBRANCH  45  46
ENDBRANCH  38  40
ENDBRANCH  37  38
ENDBRANCH  36  37
ENDBRANCH  35  36
ENDBRANCH  34  35
ENDBRANCH   1  34
TORSDOF 18
ENDMDL
MODEL 3
REMARK VINA RESULT:     -12.0      0.634      7.144
REMARK SMILES NC(=O)c1c(-c2ccc(Cl)cc2)csc1NC(=O)[C@H]1[C@@H](C(=O)OCCOCCOC(=O)c2ccc(-c3c4nc(c(-c5c(F)c(F)c(F)c(F)c5F)c5ccc([nH]5)c(-c5c(F)c(F)c(F)c(F)c5F)c5nc(c(-c6c(F)c(F)c(F)c(F)c6F)c6ccc3[nH]6)C=C5)C=C4)cc2)[C@@H]2CC[C@H]1O2
REMARK SMILES IDX 25 1 24 2 23 3 21 4 22 5 20 6 19 7 98 8 95 9 97 10 99 11
REMARK SMILES IDX 96 12 17 13 16 14 18 16 15 17 4 18 5 19 13 20 14 21 2 22
REMARK SMILES IDX 1 23 3 26 6 27 7 28 12 29 8 30 11 31 9 32 10 33 26 34 27 35
REMARK SMILES IDX 28 36 29 37 30 38 31 39 32 40 33 41 94 42 34 43 93 44 35 45
REMARK SMILES IDX 36 46 37 47 87 48 38 49 92 50 86 51 88 52 39 53 91 54 85 55
REMARK SMILES IDX 84 56 40 58 72 59 52 60 71 61 53 62 56 63 70 64 89 65 54 66
REMARK SMILES IDX 55 67 69 69 90 70 57 71 41 72 42 73 50 74 43 75 44 76 48 77
REMARK SMILES IDX 51 78 45 79 46 80 49 81 47 82 73 83 74 84 82 85 75 86 76 87
REMARK SMILES IDX 80 88 83 89 77 90 78 91 81 92 79 93 58 94 59 95 67 96 60 97
REMARK SMILES IDX 61 98 65 99 68 100 62 101 63 102 66 103 64 104
REMARK H PARENT 16 15 1 24 1 25 88 57 56 68
REMARK Flexibility Score: inf
ROOT
ATOM      1  C   UNL A   1      34.780  29.929  27.632  1.00  0.00     0.202 C 
ENDROOT
BRANCH   1   2
ATOM      2  C   UNL A   1      33.848  28.782  27.236  1.00  0.00     0.261 C 
BRANCH   2   3
ATOM      3  O   UNL A   1      34.145  28.312  25.906  1.00  0.00    -0.463 OA
BRANCH   3   4
ATOM      4  C   UNL A   1      33.114  28.402  25.015  1.00  0.00     0.312 C 
ATOM      5  O   UNL A   1      32.931  29.351  24.269  1.00  0.00    -0.252 OA
BRANCH   4   6
ATOM      6  C   UNL A   1      32.284  27.130  25.045  1.00  0.00     0.143 C 
ATOM      7  C   UNL A   1      32.249  26.368  23.715  1.00  0.00     0.124 C 
ATOM      8  C   UNL A   1      30.976  26.951  23.063  1.00  0.00     0.132 C 
ATOM      9  C   UNL A   1      30.821  27.552  25.155  1.00  0.00     0.133 C 
ATOM     10  C   UNL A   1      29.797  26.094  23.545  1.00  0.00     0.035 C 
ATOM     11  O   UNL A   1      30.654  28.135  23.842  1.00  0.00    -0.373 OA
ATOM     12  C   UNL A   1      29.857  26.354  25.066  1.00  0.00     0.036 C 
BRANCH   7  13
ATOM     13  C   UNL A   1      33.538  26.249  22.912  1.00  0.00     0.231 C 
ATOM     14  N   UNL A   1      34.482  25.281  23.218  1.00  0.00    -0.317 N 
ATOM     15  H   UNL A   1      35.373  25.471  22.845  1.00  0.00     0.170 HD
ATOM     16  O   UNL A   1      33.792  27.033  21.997  1.00  0.00    -0.274 OA
BRANCH  14  17
ATOM     17  C   UNL A   1      34.425  24.091  23.948  1.00  0.00     0.108 A 
ATOM     18  C   UNL A   1      33.760  22.900  23.618  1.00  0.00     0.082 A 
ATOM     19  C   UNL A   1      34.166  21.836  24.531  1.00  0.00     0.007 A 
ATOM     20  C   UNL A   1      34.896  22.327  25.592  1.00  0.00     0.076 A 
ATOM     21  S   UNL A   1      35.051  24.001  25.527  1.00  0.00    -0.125 S 
BRANCH  18  22
ATOM     22  C   UNL A   1      32.891  22.801  22.442  1.00  0.00     0.252 C 
ATOM     23  N   UNL A   1      31.555  22.639  22.657  1.00  0.00    -0.365 N 
ATOM     24  H   UNL A   1      30.938  22.569  21.892  1.00  0.00     0.159 HD
ATOM     25  H   UNL A   1      31.206  22.592  23.576  1.00  0.00     0.159 HD
ATOM     26  O   UNL A   1      33.321  22.888  21.296  1.00  0.00    -0.269 OA
ENDBRANCH  18  22
BRANCH  19  27
ATOM     27  C   UNL A   1      33.953  20.396  24.486  1.00  0.00    -0.017 A 
ATOM     28  C   UNL A   1      32.646  19.891  24.462  1.00  0.00     0.010 A 
ATOM     29  C   UNL A   1      35.032  19.508  24.568  1.00  0.00     0.010 A 
ATOM     30  C   UNL A   1      32.424  18.514  24.526  1.00  0.00     0.021 A 
ATOM     31  C   UNL A   1      34.808  18.130  24.627  1.00  0.00     0.021 A 
ATOM     32  C   UNL A   1      33.504  17.640  24.611  1.00  0.00     0.041 A 
ATOM     33  Cl  UNL A   1      33.225  15.946  24.713  1.00  0.00    -0.084 Cl
ENDBRANCH  19  27
ENDBRANCH  14  17
ENDBRANCH   7  13
ENDBRANCH   4   6
ENDBRANCH   3   4
ENDBRANCH   2   3
ENDBRANCH   1   2
BRANCH   1  34
ATOM     34  O   UNL A   1      34.267  31.259  27.606  1.00  0.00    -0.374 OA
BRANCH  34  35
ATOM     35  C   UNL A   1      32.902  31.454  27.274  1.00  0.00     0.202 C 
BRANCH  35  36
ATOM     36  C   UNL A   1      32.314  32.859  27.442  1.00  0.00     0.261 C 
BRANCH  36  37
ATOM     37  O   UNL A   1      33.266  33.915  27.410  1.00  0.00    -0.460 OA
BRANCH  37  38
ATOM     38  C   UNL A   1      33.275  34.683  28.520  1.00  0.00     0.338 C 
ATOM     39  O   UNL A   1      32.509  35.580  28.832  1.00  0.00    -0.246 OA
BRANCH  38  40
ATOM     40  C   UNL A   1      34.330  34.172  29.394  1.00  0.00     0.060 A 
ATOM     41  C   UNL A   1      35.652  34.322  28.967  1.00  0.00     0.016 A 
ATOM     42  C   UNL A   1      34.015  33.562  30.610  1.00  0.00     0.016 A 
ATOM     43  C   UNL A   1      36.677  33.822  29.755  1.00  0.00     0.010 A 
ATOM     44  C   UNL A   1      35.047  33.056  31.397  1.00  0.00     0.010 A 
ATOM     45  C   UNL A   1      36.376  33.159  30.953  1.00  0.00    -0.014 A 
BRANCH  45  46
ATOM     46  C   UNL A   1      37.465  32.462  31.664  1.00  0.00     0.031 A 
ATOM     47  C   UNL A   1      38.171  31.336  30.970  1.00  0.00     0.074 A 
ATOM     48  C   UNL A   1      37.856  32.896  32.874  1.00  0.00     0.049 A 
ATOM     49  N   UNL A   1      39.198  30.631  31.366  1.00  0.00    -0.248 NA
ATOM     50  C   UNL A   1      37.653  30.951  29.645  1.00  0.00     0.031 C 
ATOM     51  C   UNL A   1      37.241  34.002  33.610  1.00  0.00     0.029 A 
ATOM     52  N   UNL A   1      38.872  32.472  33.687  1.00  0.00    -0.354 N 
ATOM     53  C   UNL A   1      39.457  29.734  30.338  1.00  0.00     0.074 A 
ATOM     54  C   UNL A   1      38.453  29.947  29.320  1.00  0.00     0.031 C 
ATOM     55  C   UNL A   1      37.904  34.177  34.765  1.00  0.00     0.029 A 
ATOM     56  C   UNL A   1      38.968  33.181  34.859  1.00  0.00     0.049 A 
ATOM     57  H   UNL A   1      39.474  31.730  33.455  1.00  0.00     0.167 HD
ATOM     58  C   UNL A   1      40.458  28.829  30.251  1.00  0.00     0.037 A 
ATOM     59  C   UNL A   1      39.822  33.030  35.887  1.00  0.00     0.037 A 
ATOM     60  C   UNL A   1      41.444  28.627  31.279  1.00  0.00     0.049 A 
ATOM     61  C   UNL A   1      40.886  31.969  35.787  1.00  0.00     0.074 A 
ATOM     62  C   UNL A   1      42.500  27.734  31.304  1.00  0.00     0.029 A 
ATOM     63  N   UNL A   1      41.487  29.332  32.475  1.00  0.00    -0.354 N 
ATOM     64  N   UNL A   1      41.144  31.142  34.800  1.00  0.00    -0.248 NA
ATOM     65  C   UNL A   1      41.785  31.826  36.938  1.00  0.00     0.031 C 
ATOM     66  C   UNL A   1      43.152  27.865  32.535  1.00  0.00     0.029 A 
ATOM     67  C   UNL A   1      42.539  28.880  33.253  1.00  0.00     0.049 A 
ATOM     68  H   UNL A   1      40.862  30.049  32.731  1.00  0.00     0.167 HD
ATOM     69  C   UNL A   1      42.248  30.401  35.200  1.00  0.00     0.074 A 
ATOM     70  C   UNL A   1      42.627  30.898  36.505  1.00  0.00     0.031 C 
ATOM     71  C   UNL A   1      42.890  29.397  34.552  1.00  0.00     0.037 A 
BRANCH  58  72
ATOM     72  C   UNL A   1      40.526  27.982  29.013  1.00  0.00     0.064 A 
ATOM     73  C   UNL A   1      39.811  26.780  28.902  1.00  0.00     0.173 A 
ATOM     74  C   UNL A   1      41.287  28.396  27.908  1.00  0.00     0.173 A 
ATOM     75  F   UNL A   1      39.085  26.328  29.936  1.00  0.00    -0.203 F 
ATOM     76  C   UNL A   1      39.867  26.015  27.739  1.00  0.00     0.198 A 
ATOM     77  C   UNL A   1      41.317  27.644  26.736  1.00  0.00     0.198 A 
ATOM     78  F   UNL A   1      41.993  29.535  27.961  1.00  0.00    -0.203 F 
ATOM     79  F   UNL A   1      39.209  24.850  27.671  1.00  0.00    -0.200 F 
ATOM     80  C   UNL A   1      40.612  26.453  26.653  1.00  0.00     0.200 A 
ATOM     81  F   UNL A   1      42.030  28.073  25.686  1.00  0.00    -0.200 F 
ATOM     82  F   UNL A   1      40.656  25.723  25.530  1.00  0.00    -0.200 F 
ENDBRANCH  58  72
BRANCH  59  83
ATOM     83  C   UNL A   1      39.708  33.892  37.094  1.00  0.00     0.064 A 
ATOM     84  C   UNL A   1      38.917  33.513  38.189  1.00  0.00     0.173 A 
ATOM     85  C   UNL A   1      40.360  35.133  37.163  1.00  0.00     0.173 A 
ATOM     86  F   UNL A   1      38.257  32.346  38.166  1.00  0.00    -0.203 F 
ATOM     87  C   UNL A   1      38.757  34.356  39.288  1.00  0.00     0.198 A 
ATOM     88  C   UNL A   1      40.227  35.958  38.278  1.00  0.00     0.198 A 
ATOM     89  F   UNL A   1      41.132  35.544  36.147  1.00  0.00    -0.203 F 
ATOM     90  F   UNL A   1      37.945  33.995  40.291  1.00  0.00    -0.200 F 
ATOM     91  C   UNL A   1      39.414  35.575  39.334  1.00  0.00     0.200 A 
ATOM     92  F   UNL A   1      40.877  37.129  38.323  1.00  0.00    -0.200 F 
ATOM     93  F   UNL A   1      39.256  36.386  40.388  1.00  0.00    -0.200 F 
ENDBRANCH  59  83
BRANCH  71  94
ATOM     94  C   UNL A   1      44.082  28.800  35.242  1.00  0.00     0.064 A 
ATOM     95  C   UNL A   1      43.962  27.689  36.090  1.00  0.00     0.173 A 
ATOM     96  C   UNL A   1      45.361  29.343  35.046  1.00  0.00     0.173 A 
ATOM     97  F   UNL A   1      42.759  27.142  36.319  1.00  0.00    -0.203 F 
ATOM     98  C   UNL A   1      45.072  27.171  36.751  1.00  0.00     0.198 A 
ATOM     99  C   UNL A   1      46.474  28.798  35.679  1.00  0.00     0.198 A 
ATOM    100  F   UNL A   1      45.532  30.399  34.238  1.00  0.00    -0.203 F 
ATOM    101  F   UNL A   1      44.922  26.152  37.609  1.00  0.00    -0.200 F 
ATOM    102  C   UNL A   1      46.328  27.721  36.540  1.00  0.00     0.200 A 
ATOM    103  F   UNL A   1      47.689  29.321  35.462  1.00  0.00    -0.200 F 
ATOM    104  F   UNL A   1      47.395  27.221  37.178  1.00  0.00    -0.200 F 
ENDBRANCH  71  94
ENDBRANCH  45  46
ENDBRANCH  38  40
ENDBRANCH  37  38
ENDBRANCH  36  37
ENDBRANCH  35  36
ENDBRANCH  34  35
ENDBRANCH   1  34
TORSDOF 18
ENDMDL
