MODEL 1
REMARK VINA RESULT:      -9.5      0.000      0.000
REMARK SMILES CC[C@@](CC(F)(F)F)(C(=O)OCCOCCOC(=O)c1ccc(-c2c3nc(c(-c4c(F)c(F)c(F)c(F)c4F)c4ccc([nH]4)c(-c4c(F)c(F)c(F)c(F)c4F)c4nc(c(-c5c(F)c(F)c(F)c(F)c5F)c5ccc2[nH]5)C=C4)C=C3)cc1)c1ccccc1
REMARK SMILES IDX 14 1 13 2 12 3 11 4 9 5 10 6 3 7 2 8 1 9 4 10 5 11 6 12 7 13
REMARK SMILES IDX 8 14 83 15 84 16 88 17 85 18 87 19 86 20 15 21 16 22 17 23
REMARK SMILES IDX 18 24 19 25 20 26 21 27 82 28 22 29 81 30 23 31 24 32 25 33
REMARK SMILES IDX 75 34 26 35 80 36 74 37 76 38 27 39 79 40 73 41 72 42 28 44
REMARK SMILES IDX 60 45 40 46 59 47 41 48 44 49 58 50 77 51 42 52 43 53 57 55
REMARK SMILES IDX 78 56 45 57 29 58 30 59 38 60 31 61 32 62 36 63 39 64 33 65
REMARK SMILES IDX 34 66 37 67 35 68 61 69 62 70 70 71 63 72 64 73 68 74 71 75
REMARK SMILES IDX 65 76 66 77 69 78 67 79 46 80 47 81 55 82 48 83 49 84 53 85
REMARK SMILES IDX 56 86 50 87 51 88 54 89 52 90
REMARK H PARENT 76 43 44 54
REMARK Flexibility Score: inf
ROOT
ATOM      1  O   UNL A   1      34.253  34.465  28.841  1.00  0.00    -0.374 OA
ENDROOT
BRANCH   1   2
ATOM      2  C   UNL A   1      33.307  35.219  29.593  1.00  0.00     0.202 C 
BRANCH   2   3
ATOM      3  C   UNL A   1      33.410  35.142  31.119  1.00  0.00     0.261 C 
BRANCH   3   4
ATOM      4  O   UNL A   1      34.739  34.825  31.566  1.00  0.00    -0.463 OA
BRANCH   4   5
ATOM      5  C   UNL A   1      34.913  33.548  32.003  1.00  0.00     0.316 C 
ATOM      6  O   UNL A   1      34.023  32.702  32.020  1.00  0.00    -0.251 OA
BRANCH   5   7
ATOM      7  C   UNL A   1      36.352  33.255  32.519  1.00  0.00     0.101 C 
BRANCH   7   8
ATOM      8  C   UNL A   1      36.691  34.051  33.825  1.00  0.00     0.020 C 
ATOM      9  C   UNL A   1      35.537  34.203  34.819  1.00  0.00     0.005 C 
ENDBRANCH   7   8
BRANCH   7  10
ATOM     10  C   UNL A   1      36.357  31.719  32.817  1.00  0.00     0.139 C 
BRANCH  10  11
ATOM     11  C   UNL A   1      37.580  31.209  33.562  1.00  0.00     0.390 C 
ATOM     12  F   UNL A   1      38.702  31.872  33.223  1.00  0.00    -0.171 F 
ATOM     13  F   UNL A   1      37.407  31.361  34.894  1.00  0.00    -0.171 F 
ATOM     14  F   UNL A   1      37.800  29.896  33.343  1.00  0.00    -0.171 F 
ENDBRANCH  10  11
ENDBRANCH   7  10
BRANCH   7  15
ATOM     15  C   UNL A   1      37.324  33.603  31.342  1.00  0.00    -0.030 A 
ATOM     16  C   UNL A   1      38.350  34.560  31.456  1.00  0.00     0.005 A 
ATOM     17  C   UNL A   1      37.140  33.029  30.066  1.00  0.00     0.005 A 
ATOM     18  C   UNL A   1      39.160  34.907  30.366  1.00  0.00     0.000 A 
ATOM     19  C   UNL A   1      37.945  33.377  28.976  1.00  0.00     0.000 A 
ATOM     20  C   UNL A   1      38.958  34.316  29.126  1.00  0.00     0.000 A 
ENDBRANCH   7  15
ENDBRANCH   5   7
ENDBRANCH   4   5
ENDBRANCH   3   4
ENDBRANCH   2   3
ENDBRANCH   1   2
BRANCH   1  21
ATOM     21  C   UNL A   1      33.758  33.422  28.001  1.00  0.00     0.202 C 
BRANCH  21  22
ATOM     22  C   UNL A   1      34.048  31.979  28.435  1.00  0.00     0.261 C 
BRANCH  22  23
ATOM     23  O   UNL A   1      34.227  31.084  27.318  1.00  0.00    -0.460 OA
BRANCH  23  24
ATOM     24  C   UNL A   1      34.607  29.828  27.658  1.00  0.00     0.338 C 
ATOM     25  O   UNL A   1      33.988  28.790  27.472  1.00  0.00    -0.246 OA
BRANCH  24  26
ATOM     26  C   UNL A   1      35.989  29.818  28.168  1.00  0.00     0.060 A 
ATOM     27  C   UNL A   1      37.020  30.057  27.251  1.00  0.00     0.016 A 
ATOM     28  C   UNL A   1      36.278  29.437  29.479  1.00  0.00     0.016 A 
ATOM     29  C   UNL A   1      38.349  29.868  27.630  1.00  0.00     0.010 A 
ATOM     30  C   UNL A   1      37.613  29.236  29.854  1.00  0.00     0.010 A 
ATOM     31  C   UNL A   1      38.651  29.412  28.920  1.00  0.00    -0.014 A 
BRANCH  31  32
ATOM     32  C   UNL A   1      40.033  28.973  29.229  1.00  0.00     0.031 A 
ATOM     33  C   UNL A   1      40.920  29.868  30.051  1.00  0.00     0.074 A 
ATOM     34  C   UNL A   1      40.483  27.773  28.822  1.00  0.00     0.049 A 
ATOM     35  N   UNL A   1      42.159  29.688  30.434  1.00  0.00    -0.248 NA
ATOM     36  C   UNL A   1      40.329  31.136  30.505  1.00  0.00     0.031 C 
ATOM     37  C   UNL A   1      39.710  26.800  28.055  1.00  0.00     0.029 A 
ATOM     38  N   UNL A   1      41.706  27.173  28.998  1.00  0.00    -0.354 N 
ATOM     39  C   UNL A   1      42.494  30.816  31.173  1.00  0.00     0.074 A 
ATOM     40  C   UNL A   1      41.340  31.688  31.160  1.00  0.00     0.031 C 
ATOM     41  C   UNL A   1      40.481  25.725  27.815  1.00  0.00     0.029 A 
ATOM     42  C   UNL A   1      41.807  25.947  28.390  1.00  0.00     0.049 A 
ATOM     43  H   UNL A   1      42.439  27.583  29.511  1.00  0.00     0.167 HD
ATOM     44  C   UNL A   1      43.655  31.095  31.811  1.00  0.00     0.037 A 
ATOM     45  C   UNL A   1      42.857  25.108  28.296  1.00  0.00     0.037 A 
ATOM     46  C   UNL A   1      44.806  30.231  31.825  1.00  0.00     0.049 A 
ATOM     47  C   UNL A   1      44.160  25.471  28.959  1.00  0.00     0.074 A 
ATOM     48  C   UNL A   1      46.024  30.421  32.453  1.00  0.00     0.029 A 
ATOM     49  N   UNL A   1      44.882  29.011  31.168  1.00  0.00    -0.354 N 
ATOM     50  N   UNL A   1      44.460  26.528  29.672  1.00  0.00    -0.248 NA
ATOM     51  C   UNL A   1      45.271  24.520  28.804  1.00  0.00     0.031 C 
ATOM     52  C   UNL A   1      46.851  29.336  32.145  1.00  0.00     0.029 A 
ATOM     53  C   UNL A   1      46.133  28.449  31.360  1.00  0.00     0.049 A 
ATOM     54  H   UNL A   1      44.153  28.605  30.646  1.00  0.00     0.167 HD
ATOM     55  C   UNL A   1      45.780  26.361  30.070  1.00  0.00     0.074 A 
ATOM     56  C   UNL A   1      46.221  25.092  29.529  1.00  0.00     0.031 C 
ATOM     57  C   UNL A   1      46.556  27.183  30.818  1.00  0.00     0.037 A 
BRANCH  44  58
ATOM     58  C   UNL A   1      43.746  32.405  32.537  1.00  0.00     0.064 A 
ATOM     59  C   UNL A   1      44.208  33.566  31.901  1.00  0.00     0.173 A 
ATOM     60  C   UNL A   1      43.334  32.506  33.874  1.00  0.00     0.173 A 
ATOM     61  F   UNL A   1      44.627  33.518  30.627  1.00  0.00    -0.203 F 
ATOM     62  C   UNL A   1      44.277  34.776  32.585  1.00  0.00     0.198 A 
ATOM     63  C   UNL A   1      43.381  33.723  34.548  1.00  0.00     0.198 A 
ATOM     64  F   UNL A   1      42.880  31.424  34.526  1.00  0.00    -0.203 F 
ATOM     65  F   UNL A   1      44.760  35.865  31.971  1.00  0.00    -0.200 F 
ATOM     66  C   UNL A   1      43.858  34.856  33.905  1.00  0.00     0.200 A 
ATOM     67  F   UNL A   1      42.966  33.801  35.820  1.00  0.00    -0.200 F 
ATOM     68  F   UNL A   1      43.919  36.023  34.560  1.00  0.00    -0.200 F 
ENDBRANCH  44  58
BRANCH  45  69
ATOM     69  C   UNL A   1      42.724  23.843  27.529  1.00  0.00     0.064 A 
ATOM     70  C   UNL A   1      43.063  23.780  26.171  1.00  0.00     0.173 A 
ATOM     71  C   UNL A   1      42.240  22.675  28.138  1.00  0.00     0.173 A 
ATOM     72  F   UNL A   1      43.502  24.878  25.538  1.00  0.00    -0.203 F 
ATOM     73  C   UNL A   1      42.910  22.599  25.447  1.00  0.00     0.198 A 
ATOM     74  C   UNL A   1      42.112  21.489  27.419  1.00  0.00     0.198 A 
ATOM     75  F   UNL A   1      41.897  22.687  29.434  1.00  0.00    -0.203 F 
ATOM     76  F   UNL A   1      43.202  22.576  24.139  1.00  0.00    -0.200 F 
ATOM     77  C   UNL A   1      42.442  21.454  26.073  1.00  0.00     0.200 A 
ATOM     78  F   UNL A   1      41.667  20.383  28.030  1.00  0.00    -0.200 F 
ATOM     79  F   UNL A   1      42.298  20.318  25.377  1.00  0.00    -0.200 F 
ENDBRANCH  45  69
BRANCH  57  80
ATOM     80  C   UNL A   1      47.953  26.727  31.120  1.00  0.00     0.064 A 
ATOM     81  C   UNL A   1      48.232  25.881  32.204  1.00  0.00     0.173 A 
ATOM     82  C   UNL A   1      49.019  27.105  30.290  1.00  0.00     0.173 A 
ATOM     83  F   UNL A   1      47.249  25.503  33.035  1.00  0.00    -0.203 F 
ATOM     84  C   UNL A   1      49.531  25.448  32.458  1.00  0.00     0.198 A 
ATOM     85  C   UNL A   1      50.312  26.650  30.532  1.00  0.00     0.198 A 
ATOM     86  F   UNL A   1      48.804  27.908  29.237  1.00  0.00    -0.203 F 
ATOM     87  F   UNL A   1      49.781  24.672  33.522  1.00  0.00    -0.200 F 
ATOM     88  C   UNL A   1      50.568  25.827  31.618  1.00  0.00     0.200 A 
ATOM     89  F   UNL A   1      51.312  27.007  29.714  1.00  0.00    -0.200 F 
ATOM     90  F   UNL A   1      51.817  25.403  31.860  1.00  0.00    -0.200 F 
ENDBRANCH  57  80
ENDBRANCH  31  32
ENDBRANCH  24  26
ENDBRANCH  23  24
ENDBRANCH  22  23
ENDBRANCH  21  22
ENDBRANCH   1  21
TORSDOF 18
ENDMDL
MODEL 2
REMARK VINA RESULT:      -8.8      5.373     11.126
REMARK SMILES CC[C@@](CC(F)(F)F)(C(=O)OCCOCCOC(=O)c1ccc(-c2c3nc(c(-c4c(F)c(F)c(F)c(F)c4F)c4ccc([nH]4)c(-c4c(F)c(F)c(F)c(F)c4F)c4nc(c(-c5c(F)c(F)c(F)c(F)c5F)c5ccc2[nH]5)C=C4)C=C3)cc1)c1ccccc1
REMARK SMILES IDX 14 1 13 2 12 3 11 4 9 5 10 6 3 7 2 8 1 9 4 10 5 11 6 12 7 13
REMARK SMILES IDX 8 14 83 15 84 16 88 17 85 18 87 19 86 20 15 21 16 22 17 23
REMARK SMILES IDX 18 24 19 25 20 26 21 27 82 28 22 29 81 30 23 31 24 32 25 33
REMARK SMILES IDX 75 34 26 35 80 36 74 37 76 38 27 39 79 40 73 41 72 42 28 44
REMARK SMILES IDX 60 45 40 46 59 47 41 48 44 49 58 50 77 51 42 52 43 53 57 55
REMARK SMILES IDX 78 56 45 57 29 58 30 59 38 60 31 61 32 62 36 63 39 64 33 65
REMARK SMILES IDX 34 66 37 67 35 68 61 69 62 70 70 71 63 72 64 73 68 74 71 75
REMARK SMILES IDX 65 76 66 77 69 78 67 79 46 80 47 81 55 82 48 83 49 84 53 85
REMARK SMILES IDX 56 86 50 87 51 88 54 89 52 90
REMARK H PARENT 76 43 44 54
REMARK Flexibility Score: inf
ROOT
ATOM      1  O   UNL A   1      37.211  20.935  25.694  1.00  0.00    -0.374 OA
ENDROOT
BRANCH   1   2
ATOM      2  C   UNL A   1      37.029  22.304  25.344  1.00  0.00     0.202 C 
BRANCH   2   3
ATOM      3  C   UNL A   1      36.053  23.117  26.197  1.00  0.00     0.261 C 
BRANCH   3   4
ATOM      4  O   UNL A   1      34.699  23.030  25.721  1.00  0.00    -0.463 OA
BRANCH   4   5
ATOM      5  C   UNL A   1      34.005  21.942  26.150  1.00  0.00     0.316 C 
ATOM      6  O   UNL A   1      34.173  21.408  27.243  1.00  0.00    -0.251 OA
BRANCH   5   7
ATOM      7  C   UNL A   1      32.984  21.401  25.106  1.00  0.00     0.101 C 
BRANCH   7   8
ATOM      8  C   UNL A   1      31.500  21.688  25.518  1.00  0.00     0.020 C 
ATOM      9  C   UNL A   1      31.262  23.028  26.221  1.00  0.00     0.005 C 
ENDBRANCH   7   8
BRANCH   7  10
ATOM     10  C   UNL A   1      33.327  22.169  23.786  1.00  0.00     0.139 C 
BRANCH  10  11
ATOM     11  C   UNL A   1      32.329  21.989  22.655  1.00  0.00     0.390 C 
ATOM     12  F   UNL A   1      32.825  22.377  21.464  1.00  0.00    -0.171 F 
ATOM     13  F   UNL A   1      31.986  20.685  22.544  1.00  0.00    -0.171 F 
ATOM     14  F   UNL A   1      31.188  22.677  22.866  1.00  0.00    -0.171 F 
ENDBRANCH  10  11
ENDBRANCH   7  10
BRANCH   7  15
ATOM     15  C   UNL A   1      33.274  19.870  24.957  1.00  0.00    -0.030 A 
ATOM     16  C   UNL A   1      32.353  18.877  25.344  1.00  0.00     0.005 A 
ATOM     17  C   UNL A   1      34.534  19.417  24.513  1.00  0.00     0.005 A 
ATOM     18  C   UNL A   1      32.664  17.513  25.269  1.00  0.00     0.000 A 
ATOM     19  C   UNL A   1      34.847  18.056  24.441  1.00  0.00     0.000 A 
ATOM     20  C   UNL A   1      33.911  17.101  24.818  1.00  0.00     0.000 A 
ENDBRANCH   7  15
ENDBRANCH   5   7
ENDBRANCH   4   5
ENDBRANCH   3   4
ENDBRANCH   2   3
ENDBRANCH   1   2
BRANCH   1  21
ATOM     21  C   UNL A   1      38.120  20.162  24.910  1.00  0.00     0.202 C 
BRANCH  21  22
ATOM     22  C   UNL A   1      39.319  19.541  25.641  1.00  0.00     0.261 C 
BRANCH  22  23
ATOM     23  O   UNL A   1      40.390  20.482  25.856  1.00  0.00    -0.460 OA
BRANCH  23  24
ATOM     24  C   UNL A   1      40.877  20.500  27.121  1.00  0.00     0.338 C 
ATOM     25  O   UNL A   1      41.274  19.548  27.778  1.00  0.00    -0.246 OA
BRANCH  24  26
ATOM     26  C   UNL A   1      41.034  21.884  27.604  1.00  0.00     0.060 A 
ATOM     27  C   UNL A   1      40.337  22.891  26.924  1.00  0.00     0.016 A 
ATOM     28  C   UNL A   1      41.955  22.206  28.602  1.00  0.00     0.016 A 
ATOM     29  C   UNL A   1      40.596  24.232  27.206  1.00  0.00     0.010 A 
ATOM     30  C   UNL A   1      42.222  23.554  28.875  1.00  0.00     0.010 A 
ATOM     31  C   UNL A   1      41.573  24.571  28.151  1.00  0.00    -0.014 A 
BRANCH  31  32
ATOM     32  C   UNL A   1      42.019  25.982  28.259  1.00  0.00     0.031 A 
ATOM     33  C   UNL A   1      43.338  26.382  27.658  1.00  0.00     0.074 A 
ATOM     34  C   UNL A   1      41.240  26.908  28.847  1.00  0.00     0.049 A 
ATOM     35  N   UNL A   1      43.925  27.553  27.641  1.00  0.00    -0.248 NA
ATOM     36  C   UNL A   1      44.099  25.319  26.983  1.00  0.00     0.031 C 
ATOM     37  C   UNL A   1      39.926  26.656  29.431  1.00  0.00     0.029 A 
ATOM     38  N   UNL A   1      41.450  28.250  29.049  1.00  0.00    -0.354 N 
ATOM     39  C   UNL A   1      45.118  27.368  26.955  1.00  0.00     0.074 A 
ATOM     40  C   UNL A   1      45.188  25.967  26.598  1.00  0.00     0.031 C 
ATOM     41  C   UNL A   1      39.447  27.805  29.938  1.00  0.00     0.029 A 
ATOM     42  C   UNL A   1      40.434  28.866  29.735  1.00  0.00     0.049 A 
ATOM     43  H   UNL A   1      42.252  28.724  28.732  1.00  0.00     0.167 HD
ATOM     44  C   UNL A   1      46.066  28.284  26.643  1.00  0.00     0.037 A 
ATOM     45  C   UNL A   1      40.321  30.138  30.164  1.00  0.00     0.037 A 
ATOM     46  C   UNL A   1      46.000  29.677  26.998  1.00  0.00     0.049 A 
ATOM     47  C   UNL A   1      41.419  31.124  29.863  1.00  0.00     0.074 A 
ATOM     48  C   UNL A   1      46.905  30.685  26.716  1.00  0.00     0.029 A 
ATOM     49  N   UNL A   1      44.969  30.257  27.723  1.00  0.00    -0.354 N 
ATOM     50  N   UNL A   1      42.533  30.945  29.195  1.00  0.00    -0.248 NA
ATOM     51  C   UNL A   1      41.242  32.492  30.373  1.00  0.00     0.031 C 
ATOM     52  C   UNL A   1      46.443  31.867  27.304  1.00  0.00     0.029 A 
ATOM     53  C   UNL A   1      45.228  31.604  27.916  1.00  0.00     0.049 A 
ATOM     54  H   UNL A   1      44.172  29.781  28.050  1.00  0.00     0.167 HD
ATOM     55  C   UNL A   1      43.176  32.175  29.185  1.00  0.00     0.074 A 
ATOM     56  C   UNL A   1      42.322  33.099  29.902  1.00  0.00     0.031 C 
ATOM     57  C   UNL A   1      44.366  32.512  28.629  1.00  0.00     0.037 A 
BRANCH  44  58
ATOM     58  C   UNL A   1      47.271  27.801  25.891  1.00  0.00     0.064 A 
ATOM     59  C   UNL A   1      47.281  27.727  24.490  1.00  0.00     0.173 A 
ATOM     60  C   UNL A   1      48.440  27.442  26.578  1.00  0.00     0.173 A 
ATOM     61  F   UNL A   1      46.183  28.046  23.789  1.00  0.00    -0.203 F 
ATOM     62  C   UNL A   1      48.411  27.286  23.807  1.00  0.00     0.198 A 
ATOM     63  C   UNL A   1      49.576  27.026  25.890  1.00  0.00     0.198 A 
ATOM     64  F   UNL A   1      48.482  27.501  27.918  1.00  0.00    -0.203 F 
ATOM     65  F   UNL A   1      48.386  27.183  22.471  1.00  0.00    -0.200 F 
ATOM     66  C   UNL A   1      49.559  26.943  24.505  1.00  0.00     0.200 A 
ATOM     67  F   UNL A   1      50.688  26.704  26.566  1.00  0.00    -0.200 F 
ATOM     68  F   UNL A   1      50.647  26.525  23.845  1.00  0.00    -0.200 F 
ENDBRANCH  44  58
BRANCH  45  69
ATOM     69  C   UNL A   1      39.125  30.552  30.941  1.00  0.00     0.064 A 
ATOM     70  C   UNL A   1      38.012  31.121  30.309  1.00  0.00     0.173 A 
ATOM     71  C   UNL A   1      39.078  30.398  32.335  1.00  0.00     0.173 A 
ATOM     72  F   UNL A   1      38.021  31.314  28.982  1.00  0.00    -0.203 F 
ATOM     73  C   UNL A   1      36.901  31.533  31.043  1.00  0.00     0.198 A 
ATOM     74  C   UNL A   1      37.958  30.787  33.064  1.00  0.00     0.198 A 
ATOM     75  F   UNL A   1      40.121  29.864  32.987  1.00  0.00    -0.203 F 
ATOM     76  F   UNL A   1      35.867  32.113  30.419  1.00  0.00    -0.200 F 
ATOM     77  C   UNL A   1      36.873  31.360  32.419  1.00  0.00     0.200 A 
ATOM     78  F   UNL A   1      37.931  30.611  34.392  1.00  0.00    -0.200 F 
ATOM     79  F   UNL A   1      35.804  31.754  33.124  1.00  0.00    -0.200 F 
ENDBRANCH  45  69
BRANCH  57  80
ATOM     80  C   UNL A   1      44.805  33.941  28.749  1.00  0.00     0.064 A 
ATOM     81  C   UNL A   1      45.643  34.366  29.791  1.00  0.00     0.173 A 
ATOM     82  C   UNL A   1      44.419  34.887  27.787  1.00  0.00     0.173 A 
ATOM     83  F   UNL A   1      46.028  33.503  30.742  1.00  0.00    -0.203 F 
ATOM     84  C   UNL A   1      46.061  35.692  29.876  1.00  0.00     0.198 A 
ATOM     85  C   UNL A   1      44.859  36.205  27.861  1.00  0.00     0.198 A 
ATOM     86  F   UNL A   1      43.623  34.528  26.768  1.00  0.00    -0.203 F 
ATOM     87  F   UNL A   1      46.829  36.087  30.901  1.00  0.00    -0.200 F 
ATOM     88  C   UNL A   1      45.674  36.608  28.908  1.00  0.00     0.200 A 
ATOM     89  F   UNL A   1      44.494  37.087  26.920  1.00  0.00    -0.200 F 
ATOM     90  F   UNL A   1      46.084  37.882  28.988  1.00  0.00    -0.200 F 
ENDBRANCH  57  80
ENDBRANCH  31  32
ENDBRANCH  24  26
ENDBRANCH  23  24
ENDBRANCH  22  23
ENDBRANCH  21  22
ENDBRANCH   1  21
TORSDOF 18
ENDMDL
MODEL 3
REMARK VINA RESULT:      -8.8      4.740     10.057
REMARK SMILES CC[C@@](CC(F)(F)F)(C(=O)OCCOCCOC(=O)c1ccc(-c2c3nc(c(-c4c(F)c(F)c(F)c(F)c4F)c4ccc([nH]4)c(-c4c(F)c(F)c(F)c(F)c4F)c4nc(c(-c5c(F)c(F)c(F)c(F)c5F)c5ccc2[nH]5)C=C4)C=C3)cc1)c1ccccc1
REMARK SMILES IDX 14 1 13 2 12 3 11 4 9 5 10 6 3 7 2 8 1 9 4 10 5 11 6 12 7 13
REMARK SMILES IDX 8 14 83 15 84 16 88 17 85 18 87 19 86 20 15 21 16 22 17 23
REMARK SMILES IDX 18 24 19 25 20 26 21 27 82 28 22 29 81 30 23 31 24 32 25 33
REMARK SMILES IDX 75 34 26 35 80 36 74 37 76 38 27 39 79 40 73 41 72 42 28 44
REMARK SMILES IDX 60 45 40 46 59 47 41 48 44 49 58 50 77 51 42 52 43 53 57 55
REMARK SMILES IDX 78 56 45 57 29 58 30 59 38 60 31 61 32 62 36 63 39 64 33 65
REMARK SMILES IDX 34 66 37 67 35 68 61 69 62 70 70 71 63 72 64 73 68 74 71 75
REMARK SMILES IDX 65 76 66 77 69 78 67 79 46 80 47 81 55 82 48 83 49 84 53 85
REMARK SMILES IDX 56 86 50 87 51 88 54 89 52 90
REMARK H PARENT 76 43 44 54
REMARK Flexibility Score: inf
ROOT
ATOM      1  O   UNL A   1      35.707  21.576  25.778  1.00  0.00    -0.374 OA
ENDROOT
BRANCH   1   2
ATOM      2  C   UNL A   1      34.330  21.937  25.743  1.00  0.00     0.202 C 
BRANCH   2   3
ATOM      3  C   UNL A   1      33.784  22.714  26.944  1.00  0.00     0.261 C 
BRANCH   3   4
ATOM      4  O   UNL A   1      33.439  24.070  26.614  1.00  0.00    -0.463 OA
BRANCH   4   5
ATOM      5  C   UNL A   1      32.105  24.323  26.531  1.00  0.00     0.316 C 
ATOM      6  O   UNL A   1      31.261  23.799  27.254  1.00  0.00    -0.251 OA
BRANCH   5   7
ATOM      7  C   UNL A   1      31.728  25.325  25.401  1.00  0.00     0.101 C 
BRANCH   7   8
ATOM      8  C   UNL A   1      32.271  24.878  24.001  1.00  0.00     0.020 C 
ATOM      9  C   UNL A   1      31.947  23.436  23.602  1.00  0.00     0.005 C 
ENDBRANCH   7   8
BRANCH   7  10
ATOM     10  C   UNL A   1      30.163  25.331  25.387  1.00  0.00     0.139 C 
BRANCH  10  11
ATOM     11  C   UNL A   1      29.529  26.079  24.226  1.00  0.00     0.390 C 
ATOM     12  F   UNL A   1      28.302  26.546  24.524  1.00  0.00    -0.171 F 
ATOM     13  F   UNL A   1      30.295  27.141  23.886  1.00  0.00    -0.171 F 
ATOM     14  F   UNL A   1      29.417  25.309  23.124  1.00  0.00    -0.171 F 
ENDBRANCH  10  11
ENDBRANCH   7  10
BRANCH   7  15
ATOM     15  C   UNL A   1      32.291  26.719  25.840  1.00  0.00    -0.030 A 
ATOM     16  C   UNL A   1      33.467  27.272  25.298  1.00  0.00     0.005 A 
ATOM     17  C   UNL A   1      31.683  27.441  26.888  1.00  0.00     0.005 A 
ATOM     18  C   UNL A   1      33.992  28.487  25.759  1.00  0.00     0.000 A 
ATOM     19  C   UNL A   1      32.208  28.652  27.353  1.00  0.00     0.000 A 
ATOM     20  C   UNL A   1      33.362  29.178  26.787  1.00  0.00     0.000 A 
ENDBRANCH   7  15
ENDBRANCH   5   7
ENDBRANCH   4   5
ENDBRANCH   3   4
ENDBRANCH   2   3
ENDBRANCH   1   2
BRANCH   1  21
ATOM     21  C   UNL A   1      36.111  20.417  25.048  1.00  0.00     0.202 C 
BRANCH  21  22
ATOM     22  C   UNL A   1      37.613  20.106  25.005  1.00  0.00     0.261 C 
BRANCH  22  23
ATOM     23  O   UNL A   1      38.432  21.278  25.200  1.00  0.00    -0.460 OA
BRANCH  23  24
ATOM     24  C   UNL A   1      39.458  21.108  26.069  1.00  0.00     0.338 C 
ATOM     25  O   UNL A   1      40.130  20.100  26.237  1.00  0.00    -0.246 OA
BRANCH  24  26
ATOM     26  C   UNL A   1      39.805  22.381  26.726  1.00  0.00     0.060 A 
ATOM     27  C   UNL A   1      39.201  23.547  26.241  1.00  0.00     0.016 A 
ATOM     28  C   UNL A   1      40.809  22.450  27.693  1.00  0.00     0.016 A 
ATOM     29  C   UNL A   1      39.634  24.796  26.687  1.00  0.00     0.010 A 
ATOM     30  C   UNL A   1      41.251  23.706  28.130  1.00  0.00     0.010 A 
ATOM     31  C   UNL A   1      40.692  24.883  27.600  1.00  0.00    -0.014 A 
BRANCH  31  32
ATOM     32  C   UNL A   1      41.310  26.205  27.870  1.00  0.00     0.031 A 
ATOM     33  C   UNL A   1      42.707  26.475  27.383  1.00  0.00     0.074 A 
ATOM     34  C   UNL A   1      40.621  27.171  28.504  1.00  0.00     0.049 A 
ATOM     35  N   UNL A   1      43.441  27.551  27.513  1.00  0.00    -0.248 NA
ATOM     36  C   UNL A   1      43.366  25.383  26.648  1.00  0.00     0.031 C 
ATOM     37  C   UNL A   1      39.249  27.048  28.989  1.00  0.00     0.029 A 
ATOM     38  N   UNL A   1      40.990  28.448  28.848  1.00  0.00    -0.354 N 
ATOM     39  C   UNL A   1      44.643  27.269  26.877  1.00  0.00     0.074 A 
ATOM     40  C   UNL A   1      44.554  25.910  26.387  1.00  0.00     0.031 C 
ATOM     41  C   UNL A   1      38.892  28.201  29.580  1.00  0.00     0.029 A 
ATOM     42  C   UNL A   1      40.019  29.132  29.536  1.00  0.00     0.049 A 
ATOM     43  H   UNL A   1      41.866  28.836  28.623  1.00  0.00     0.167 HD
ATOM     44  C   UNL A   1      45.720  28.072  26.708  1.00  0.00     0.037 A 
ATOM     45  C   UNL A   1      40.046  30.363  30.082  1.00  0.00     0.037 A 
ATOM     46  C   UNL A   1      45.814  29.423  27.194  1.00  0.00     0.049 A 
ATOM     47  C   UNL A   1      41.280  31.214  29.938  1.00  0.00     0.074 A 
ATOM     48  C   UNL A   1      46.859  30.320  27.062  1.00  0.00     0.029 A 
ATOM     49  N   UNL A   1      44.821  30.070  27.917  1.00  0.00    -0.354 N 
ATOM     50  N   UNL A   1      42.402  30.946  29.317  1.00  0.00    -0.248 NA
ATOM     51  C   UNL A   1      41.249  32.541  30.571  1.00  0.00     0.031 C 
ATOM     52  C   UNL A   1      46.516  31.495  27.739  1.00  0.00     0.029 A 
ATOM     53  C   UNL A   1      45.239  31.346  28.256  1.00  0.00     0.049 A 
ATOM     54  H   UNL A   1      43.948  29.679  28.152  1.00  0.00     0.167 HD
ATOM     55  C   UNL A   1      43.200  32.074  29.462  1.00  0.00     0.074 A 
ATOM     56  C   UNL A   1      42.427  33.036  30.220  1.00  0.00     0.031 C 
ATOM     57  C   UNL A   1      44.457  32.294  29.007  1.00  0.00     0.037 A 
BRANCH  44  58
ATOM     58  C   UNL A   1      46.899  27.500  25.978  1.00  0.00     0.064 A 
ATOM     59  C   UNL A   1      47.047  27.649  24.591  1.00  0.00     0.173 A 
ATOM     60  C   UNL A   1      47.910  26.826  26.679  1.00  0.00     0.173 A 
ATOM     61  F   UNL A   1      46.100  28.273  23.874  1.00  0.00    -0.203 F 
ATOM     62  C   UNL A   1      48.152  27.121  23.929  1.00  0.00     0.198 A 
ATOM     63  C   UNL A   1      49.026  26.321  26.017  1.00  0.00     0.198 A 
ATOM     64  F   UNL A   1      47.818  26.662  28.008  1.00  0.00    -0.203 F 
ATOM     65  F   UNL A   1      48.253  27.238  22.598  1.00  0.00    -0.200 F 
ATOM     66  C   UNL A   1      49.144  26.464  24.643  1.00  0.00     0.200 A 
ATOM     67  F   UNL A   1      49.988  25.695  26.710  1.00  0.00    -0.200 F 
ATOM     68  F   UNL A   1      50.210  25.962  24.005  1.00  0.00    -0.200 F 
ENDBRANCH  44  58
BRANCH  45  69
ATOM     69  C   UNL A   1      38.864  30.863  30.830  1.00  0.00     0.064 A 
ATOM     70  C   UNL A   1      37.864  31.607  30.192  1.00  0.00     0.173 A 
ATOM     71  C   UNL A   1      38.721  30.619  32.205  1.00  0.00     0.173 A 
ATOM     72  F   UNL A   1      37.971  31.892  28.886  1.00  0.00    -0.203 F 
ATOM     73  C   UNL A   1      36.770  32.099  30.902  1.00  0.00     0.198 A 
ATOM     74  C   UNL A   1      37.615  31.088  32.908  1.00  0.00     0.198 A 
ATOM     75  F   UNL A   1      39.655  29.916  32.862  1.00  0.00    -0.203 F 
ATOM     76  F   UNL A   1      35.848  32.844  30.276  1.00  0.00    -0.200 F 
ATOM     77  C   UNL A   1      36.643  31.834  32.257  1.00  0.00     0.200 A 
ATOM     78  F   UNL A   1      37.492  30.823  34.215  1.00  0.00    -0.200 F 
ATOM     79  F   UNL A   1      35.590  32.304  32.939  1.00  0.00    -0.200 F 
ENDBRANCH  45  69
BRANCH  57  80
ATOM     80  C   UNL A   1      45.070  33.634  29.291  1.00  0.00     0.064 A 
ATOM     81  C   UNL A   1      44.886  34.723  28.427  1.00  0.00     0.173 A 
ATOM     82  C   UNL A   1      45.813  33.841  30.463  1.00  0.00     0.173 A 
ATOM     83  F   UNL A   1      44.196  34.572  27.287  1.00  0.00    -0.203 F 
ATOM     84  C   UNL A   1      45.442  35.967  28.717  1.00  0.00     0.198 A 
ATOM     85  C   UNL A   1      46.346  35.092  30.762  1.00  0.00     0.198 A 
ATOM     86  F   UNL A   1      46.012  32.833  31.325  1.00  0.00    -0.203 F 
ATOM     87  F   UNL A   1      45.288  36.985  27.858  1.00  0.00    -0.200 F 
ATOM     88  C   UNL A   1      46.165  36.152  29.886  1.00  0.00     0.200 A 
ATOM     89  F   UNL A   1      47.035  35.273  31.897  1.00  0.00    -0.200 F 
ATOM     90  F   UNL A   1      46.693  37.352  30.166  1.00  0.00    -0.200 F 
ENDBRANCH  57  80
ENDBRANCH  31  32
ENDBRANCH  24  26
ENDBRANCH  23  24
ENDBRANCH  22  23
ENDBRANCH  21  22
ENDBRANCH   1  21
TORSDOF 18
ENDMDL
