MODEL 1
REMARK VINA RESULT:     -12.1      0.000      0.000
REMARK SMILES CCc1ccc(C(=O)N2Cc3nc[nH]c3C[C@@H]2C(=O)OCCOCCOC(=O)c2ccc(-c3c4nc(c(-c5c(F)c(F)c(F)c(F)c5F)c5ccc([nH]5)c(-c5c(F)c(F)c(F)c(F)c5F)c5nc(c(-c6c(F)c(F)c(F)c(F)c6F)c6ccc3[nH]6)C=C5)C=C4)cc2)o1
REMARK SMILES IDX 22 1 21 2 20 3 18 4 19 5 17 6 9 7 10 8 11 9 16 10 12 11
REMARK SMILES IDX 15 12 13 13 14 14 7 16 8 17 6 18 3 19 4 20 92 21 5 22 2 23
REMARK SMILES IDX 1 24 23 25 24 26 25 27 26 28 27 29 28 30 29 31 30 32 91 33
REMARK SMILES IDX 31 34 90 35 32 36 33 37 34 38 84 39 35 40 89 41 83 42 85 43
REMARK SMILES IDX 36 44 88 45 82 46 81 47 37 49 69 50 49 51 68 52 50 53 53 54
REMARK SMILES IDX 67 55 86 56 51 57 52 58 66 60 87 61 54 62 38 63 39 64 47 65
REMARK SMILES IDX 40 66 41 67 45 68 48 69 42 70 43 71 46 72 44 73 70 74 71 75
REMARK SMILES IDX 79 76 72 77 73 78 77 79 80 80 74 81 75 82 78 83 76 84 55 85
REMARK SMILES IDX 56 86 64 87 57 88 58 89 62 90 65 91 59 92 60 93 63 94 61 95
REMARK H PARENT 14 15 85 48 53 59
REMARK Flexibility Score: inf
ROOT
ATOM      1  C   UNL A   1      39.204  21.848  26.136  1.00  0.00     0.202 C 
ENDROOT
BRANCH   1   2
ATOM      2  C   UNL A   1      37.885  21.792  25.369  1.00  0.00     0.261 C 
BRANCH   2   3
ATOM      3  O   UNL A   1      36.978  22.796  25.863  1.00  0.00    -0.462 OA
BRANCH   3   4
ATOM      4  C   UNL A   1      35.852  23.002  25.113  1.00  0.00     0.329 C 
ATOM      5  O   UNL A   1      35.761  22.776  23.917  1.00  0.00    -0.250 OA
BRANCH   4   6
ATOM      6  C   UNL A   1      34.772  23.650  25.997  1.00  0.00     0.201 C 
ATOM      7  N   UNL A   1      33.518  22.865  26.225  1.00  0.00    -0.316 N 
ATOM      8  C   UNL A   1      32.355  23.527  26.842  1.00  0.00     0.179 C 
ATOM      9  C   UNL A   1      32.234  24.914  26.332  1.00  0.00     0.081 A 
ATOM     10  C   UNL A   1      34.543  25.025  25.300  1.00  0.00     0.093 C 
ATOM     11  N   UNL A   1      31.132  25.712  26.469  1.00  0.00    -0.240 NA
ATOM     12  C   UNL A   1      33.230  25.582  25.665  1.00  0.00     0.042 A 
ATOM     13  C   UNL A   1      31.438  26.828  25.839  1.00  0.00     0.197 A 
ATOM     14  N   UNL A   1      32.709  26.796  25.331  1.00  0.00    -0.348 N 
ATOM     15  H   UNL A   1      33.159  27.510  24.823  1.00  0.00     0.167 HD
BRANCH   7  16
ATOM     16  C   UNL A   1      33.587  21.474  26.321  1.00  0.00     0.290 C 
ATOM     17  O   UNL A   1      33.933  20.963  27.383  1.00  0.00    -0.265 OA
BRANCH  16  18
ATOM     18  C   UNL A   1      33.189  20.682  25.163  1.00  0.00     0.191 A 
ATOM     19  C   UNL A   1      32.880  18.755  24.108  1.00  0.00     0.104 A 
ATOM     20  C   UNL A   1      32.340  19.729  23.300  1.00  0.00     0.046 A 
ATOM     21  O   UNL A   1      33.394  19.324  25.231  1.00  0.00    -0.456 OA
ATOM     22  C   UNL A   1      32.549  20.963  23.968  1.00  0.00     0.056 A 
BRANCH  19  23
ATOM     23  C   UNL A   1      32.974  17.274  24.009  1.00  0.00     0.072 C 
ATOM     24  C   UNL A   1      34.142  16.837  23.140  1.00  0.00     0.012 C 
ENDBRANCH  19  23
ENDBRANCH  16  18
ENDBRANCH   7  16
ENDBRANCH   4   6
ENDBRANCH   3   4
ENDBRANCH   2   3
ENDBRANCH   1   2
BRANCH   1  25
ATOM     25  O   UNL A   1      40.065  20.715  26.003  1.00  0.00    -0.374 OA
BRANCH  25  26
ATOM     26  C   UNL A   1      41.159  20.563  26.900  1.00  0.00     0.202 C 
BRANCH  26  27
ATOM     27  C   UNL A   1      42.311  19.683  26.437  1.00  0.00     0.261 C 
BRANCH  27  28
ATOM     28  O   UNL A   1      42.801  20.032  25.155  1.00  0.00    -0.460 OA
BRANCH  28  29
ATOM     29  C   UNL A   1      44.122  20.330  25.163  1.00  0.00     0.338 C 
ATOM     30  O   UNL A   1      45.056  19.554  25.214  1.00  0.00    -0.246 OA
BRANCH  29  31
ATOM     31  C   UNL A   1      44.259  21.781  25.317  1.00  0.00     0.060 A 
ATOM     32  C   UNL A   1      45.097  22.197  26.351  1.00  0.00     0.016 A 
ATOM     33  C   UNL A   1      43.371  22.658  24.673  1.00  0.00     0.016 A 
ATOM     34  C   UNL A   1      44.897  23.446  26.883  1.00  0.00     0.010 A 
ATOM     35  C   UNL A   1      43.163  23.904  25.215  1.00  0.00     0.010 A 
ATOM     36  C   UNL A   1      43.874  24.246  26.360  1.00  0.00    -0.014 A 
BRANCH  36  37
ATOM     37  C   UNL A   1      43.622  25.497  27.035  1.00  0.00     0.031 A 
ATOM     38  C   UNL A   1      44.665  26.504  26.789  1.00  0.00     0.074 A 
ATOM     39  C   UNL A   1      42.526  25.712  27.781  1.00  0.00     0.049 A 
ATOM     40  N   UNL A   1      45.534  26.958  27.627  1.00  0.00    -0.248 NA
ATOM     41  C   UNL A   1      44.860  26.952  25.403  1.00  0.00     0.031 C 
ATOM     42  C   UNL A   1      41.299  24.910  27.806  1.00  0.00     0.029 A 
ATOM     43  N   UNL A   1      42.241  26.757  28.608  1.00  0.00    -0.354 N 
ATOM     44  C   UNL A   1      46.257  27.910  26.919  1.00  0.00     0.074 A 
ATOM     45  C   UNL A   1      45.937  27.725  25.528  1.00  0.00     0.031 C 
ATOM     46  C   UNL A   1      40.331  25.609  28.437  1.00  0.00     0.029 A 
ATOM     47  C   UNL A   1      40.910  26.826  28.983  1.00  0.00     0.049 A 
ATOM     48  H   UNL A   1      42.920  27.403  28.910  1.00  0.00     0.167 HD
ATOM     49  C   UNL A   1      46.815  28.965  27.565  1.00  0.00     0.037 A 
ATOM     50  C   UNL A   1      40.319  27.847  29.643  1.00  0.00     0.037 A 
ATOM     51  C   UNL A   1      46.880  28.745  28.986  1.00  0.00     0.049 A 
ATOM     52  C   UNL A   1      41.367  28.626  30.346  1.00  0.00     0.074 A 
ATOM     53  C   UNL A   1      47.734  28.124  29.868  1.00  0.00     0.029 A 
ATOM     54  N   UNL A   1      45.701  28.965  29.645  1.00  0.00    -0.354 N 
ATOM     55  N   UNL A   1      42.066  28.163  31.345  1.00  0.00    -0.248 NA
ATOM     56  C   UNL A   1      41.881  29.854  29.743  1.00  0.00     0.031 C 
ATOM     57  C   UNL A   1      46.986  27.891  31.063  1.00  0.00     0.029 A 
ATOM     58  C   UNL A   1      45.695  28.375  30.880  1.00  0.00     0.049 A 
ATOM     59  H   UNL A   1      44.949  29.485  29.275  1.00  0.00     0.167 HD
ATOM     60  C   UNL A   1      43.289  28.791  31.228  1.00  0.00     0.074 A 
ATOM     61  C   UNL A   1      43.065  29.932  30.355  1.00  0.00     0.031 C 
ATOM     62  C   UNL A   1      44.442  28.151  31.563  1.00  0.00     0.037 A 
BRANCH  49  63
ATOM     63  C   UNL A   1      46.872  30.361  26.998  1.00  0.00     0.064 A 
ATOM     64  C   UNL A   1      48.095  31.056  27.017  1.00  0.00     0.173 A 
ATOM     65  C   UNL A   1      45.729  31.146  26.725  1.00  0.00     0.173 A 
ATOM     66  F   UNL A   1      49.240  30.415  27.295  1.00  0.00    -0.203 F 
ATOM     67  C   UNL A   1      48.160  32.440  26.832  1.00  0.00     0.198 A 
ATOM     68  C   UNL A   1      45.804  32.515  26.482  1.00  0.00     0.198 A 
ATOM     69  F   UNL A   1      44.488  30.651  26.798  1.00  0.00    -0.203 F 
ATOM     70  F   UNL A   1      49.330  33.076  26.973  1.00  0.00    -0.200 F 
ATOM     71  C   UNL A   1      47.014  33.168  26.564  1.00  0.00     0.200 A 
ATOM     72  F   UNL A   1      44.678  33.205  26.247  1.00  0.00    -0.200 F 
ATOM     73  F   UNL A   1      47.067  34.499  26.433  1.00  0.00    -0.200 F 
ENDBRANCH  49  63
BRANCH  50  74
ATOM     74  C   UNL A   1      38.932  28.337  29.499  1.00  0.00     0.064 A 
ATOM     75  C   UNL A   1      38.127  28.568  30.622  1.00  0.00     0.173 A 
ATOM     76  C   UNL A   1      38.469  28.844  28.270  1.00  0.00     0.173 A 
ATOM     77  F   UNL A   1      38.522  28.149  31.832  1.00  0.00    -0.203 F 
ATOM     78  C   UNL A   1      36.938  29.297  30.528  1.00  0.00     0.198 A 
ATOM     79  C   UNL A   1      37.279  29.564  28.176  1.00  0.00     0.198 A 
ATOM     80  F   UNL A   1      39.210  28.736  27.157  1.00  0.00    -0.203 F 
ATOM     81  F   UNL A   1      36.227  29.558  31.633  1.00  0.00    -0.200 F 
ATOM     82  C   UNL A   1      36.522  29.804  29.308  1.00  0.00     0.200 A 
ATOM     83  F   UNL A   1      36.905  30.078  26.995  1.00  0.00    -0.200 F 
ATOM     84  F   UNL A   1      35.417  30.558  29.228  1.00  0.00    -0.200 F 
ENDBRANCH  50  74
BRANCH  62  85
ATOM     85  C   UNL A   1      44.346  27.035  32.551  1.00  0.00     0.064 A 
ATOM     86  C   UNL A   1      44.288  25.678  32.200  1.00  0.00     0.173 A 
ATOM     87  C   UNL A   1      44.363  27.359  33.913  1.00  0.00     0.173 A 
ATOM     88  F   UNL A   1      44.341  25.297  30.917  1.00  0.00    -0.203 F 
ATOM     89  C   UNL A   1      44.208  24.689  33.181  1.00  0.00     0.198 A 
ATOM     90  C   UNL A   1      44.317  26.370  34.889  1.00  0.00     0.198 A 
ATOM     91  F   UNL A   1      44.455  28.641  34.300  1.00  0.00    -0.203 F 
ATOM     92  F   UNL A   1      44.130  23.398  32.827  1.00  0.00    -0.200 F 
ATOM     93  C   UNL A   1      44.228  25.036  34.523  1.00  0.00     0.200 A 
ATOM     94  F   UNL A   1      44.375  26.708  36.185  1.00  0.00    -0.200 F 
ATOM     95  F   UNL A   1      44.180  24.083  35.465  1.00  0.00    -0.200 F 
ENDBRANCH  62  85
ENDBRANCH  36  37
ENDBRANCH  29  31
ENDBRANCH  28  29
ENDBRANCH  27  28
ENDBRANCH  26  27
ENDBRANCH  25  26
ENDBRANCH   1  25
TORSDOF 17
ENDMDL
MODEL 2
REMARK VINA RESULT:     -11.9      2.870      4.131
REMARK SMILES CCc1ccc(C(=O)N2Cc3nc[nH]c3C[C@@H]2C(=O)OCCOCCOC(=O)c2ccc(-c3c4nc(c(-c5c(F)c(F)c(F)c(F)c5F)c5ccc([nH]5)c(-c5c(F)c(F)c(F)c(F)c5F)c5nc(c(-c6c(F)c(F)c(F)c(F)c6F)c6ccc3[nH]6)C=C5)C=C4)cc2)o1
REMARK SMILES IDX 22 1 21 2 20 3 18 4 19 5 17 6 9 7 10 8 11 9 16 10 12 11
REMARK SMILES IDX 15 12 13 13 14 14 7 16 8 17 6 18 3 19 4 20 92 21 5 22 2 23
REMARK SMILES IDX 1 24 23 25 24 26 25 27 26 28 27 29 28 30 29 31 30 32 91 33
REMARK SMILES IDX 31 34 90 35 32 36 33 37 34 38 84 39 35 40 89 41 83 42 85 43
REMARK SMILES IDX 36 44 88 45 82 46 81 47 37 49 69 50 49 51 68 52 50 53 53 54
REMARK SMILES IDX 67 55 86 56 51 57 52 58 66 60 87 61 54 62 38 63 39 64 47 65
REMARK SMILES IDX 40 66 41 67 45 68 48 69 42 70 43 71 46 72 44 73 70 74 71 75
REMARK SMILES IDX 79 76 72 77 73 78 77 79 80 80 74 81 75 82 78 83 76 84 55 85
REMARK SMILES IDX 56 86 64 87 57 88 58 89 62 90 65 91 59 92 60 93 63 94 61 95
REMARK H PARENT 14 15 85 48 53 59
REMARK Flexibility Score: inf
ROOT
ATOM      1  C   UNL A   1      35.962  22.652  23.923  1.00  0.00     0.202 C 
ENDROOT
BRANCH   1   2
ATOM      2  C   UNL A   1      35.290  24.007  23.710  1.00  0.00     0.261 C 
BRANCH   2   3
ATOM      3  O   UNL A   1      34.316  23.920  22.653  1.00  0.00    -0.462 OA
BRANCH   3   4
ATOM      4  C   UNL A   1      33.626  25.071  22.384  1.00  0.00     0.329 C 
ATOM      5  O   UNL A   1      33.387  25.494  21.264  1.00  0.00    -0.250 OA
BRANCH   4   6
ATOM      6  C   UNL A   1      33.297  25.780  23.710  1.00  0.00     0.201 C 
ATOM      7  N   UNL A   1      31.921  25.582  24.264  1.00  0.00    -0.316 N 
ATOM      8  C   UNL A   1      31.465  26.428  25.381  1.00  0.00     0.179 C 
ATOM      9  C   UNL A   1      31.957  27.814  25.198  1.00  0.00     0.081 A 
ATOM     10  C   UNL A   1      33.648  27.266  23.396  1.00  0.00     0.093 C 
ATOM     11  N   UNL A   1      31.503  28.910  25.879  1.00  0.00    -0.240 NA
ATOM     12  C   UNL A   1      32.952  28.173  24.324  1.00  0.00     0.042 A 
ATOM     13  C   UNL A   1      32.174  29.927  25.378  1.00  0.00     0.197 A 
ATOM     14  N   UNL A   1      33.072  29.526  24.424  1.00  0.00    -0.348 N 
ATOM     15  H   UNL A   1      33.684  30.103  23.912  1.00  0.00     0.167 HD
BRANCH   7  16
ATOM     16  C   UNL A   1      31.281  24.353  24.090  1.00  0.00     0.290 C 
ATOM     17  O   UNL A   1      30.321  24.280  23.327  1.00  0.00    -0.265 OA
BRANCH  16  18
ATOM     18  C   UNL A   1      31.820  23.190  24.784  1.00  0.00     0.191 A 
ATOM     19  C   UNL A   1      32.557  21.098  24.843  1.00  0.00     0.104 A 
ATOM     20  C   UNL A   1      32.811  21.632  26.086  1.00  0.00     0.046 A 
ATOM     21  O   UNL A   1      31.959  22.033  24.056  1.00  0.00    -0.456 OA
ATOM     22  C   UNL A   1      32.327  22.966  26.053  1.00  0.00     0.056 A 
BRANCH  19  23
ATOM     23  C   UNL A   1      32.828  19.776  24.218  1.00  0.00     0.072 C 
ATOM     24  C   UNL A   1      32.612  18.633  25.197  1.00  0.00     0.012 C 
ENDBRANCH  19  23
ENDBRANCH  16  18
ENDBRANCH   7  16
ENDBRANCH   4   6
ENDBRANCH   3   4
ENDBRANCH   2   3
ENDBRANCH   1   2
BRANCH   1  25
ATOM     25  O   UNL A   1      37.227  22.667  24.588  1.00  0.00    -0.374 OA
BRANCH  25  26
ATOM     26  C   UNL A   1      37.729  21.463  25.157  1.00  0.00     0.202 C 
BRANCH  26  27
ATOM     27  C   UNL A   1      39.016  21.567  25.962  1.00  0.00     0.261 C 
BRANCH  27  28
ATOM     28  O   UNL A   1      39.243  22.862  26.488  1.00  0.00    -0.460 OA
BRANCH  28  29
ATOM     29  C   UNL A   1      40.350  22.924  27.264  1.00  0.00     0.338 C 
ATOM     30  O   UNL A   1      40.804  22.051  27.978  1.00  0.00    -0.246 OA
BRANCH  29  31
ATOM     31  C   UNL A   1      40.818  24.312  27.279  1.00  0.00     0.060 A 
ATOM     32  C   UNL A   1      41.587  24.675  28.384  1.00  0.00     0.016 A 
ATOM     33  C   UNL A   1      40.265  25.265  26.407  1.00  0.00     0.016 A 
ATOM     34  C   UNL A   1      41.630  26.001  28.737  1.00  0.00     0.010 A 
ATOM     35  C   UNL A   1      40.298  26.591  26.768  1.00  0.00     0.010 A 
ATOM     36  C   UNL A   1      40.913  26.926  27.969  1.00  0.00    -0.014 A 
BRANCH  36  37
ATOM     37  C   UNL A   1      40.888  28.285  28.453  1.00  0.00     0.031 A 
ATOM     38  C   UNL A   1      42.039  29.080  27.997  1.00  0.00     0.074 A 
ATOM     39  C   UNL A   1      39.892  28.767  29.214  1.00  0.00     0.049 A 
ATOM     40  N   UNL A   1      43.023  29.519  28.706  1.00  0.00    -0.248 NA
ATOM     41  C   UNL A   1      42.188  29.286  26.549  1.00  0.00     0.031 C 
ATOM     42  C   UNL A   1      38.572  28.168  29.431  1.00  0.00     0.029 A 
ATOM     43  N   UNL A   1      39.818  29.953  29.882  1.00  0.00    -0.354 N 
ATOM     44  C   UNL A   1      43.814  30.239  27.820  1.00  0.00     0.074 A 
ATOM     45  C   UNL A   1      43.367  29.901  26.494  1.00  0.00     0.031 C 
ATOM     46  C   UNL A   1      37.760  29.088  29.996  1.00  0.00     0.029 A 
ATOM     47  C   UNL A   1      38.542  30.273  30.313  1.00  0.00     0.049 A 
ATOM     48  H   UNL A   1      40.600  30.529  30.043  1.00  0.00     0.167 HD
ATOM     49  C   UNL A   1      44.560  31.283  28.262  1.00  0.00     0.037 A 
ATOM     50  C   UNL A   1      38.149  31.455  30.836  1.00  0.00     0.037 A 
ATOM     51  C   UNL A   1      44.701  31.267  29.694  1.00  0.00     0.049 A 
ATOM     52  C   UNL A   1      39.344  32.166  31.352  1.00  0.00     0.074 A 
ATOM     53  C   UNL A   1      45.526  30.663  30.615  1.00  0.00     0.029 A 
ATOM     54  N   UNL A   1      43.618  31.754  30.373  1.00  0.00    -0.354 N 
ATOM     55  N   UNL A   1      40.047  31.756  32.372  1.00  0.00    -0.248 NA
ATOM     56  C   UNL A   1      39.975  33.202  30.537  1.00  0.00     0.031 C 
ATOM     57  C   UNL A   1      44.847  30.721  31.870  1.00  0.00     0.029 A 
ATOM     58  C   UNL A   1      43.624  31.358  31.684  1.00  0.00     0.049 A 
ATOM     59  H   UNL A   1      42.919  32.318  29.968  1.00  0.00     0.167 HD
ATOM     60  C   UNL A   1      41.332  32.173  32.091  1.00  0.00     0.074 A 
ATOM     61  C   UNL A   1      41.202  33.193  31.065  1.00  0.00     0.031 C 
ATOM     62  C   UNL A   1      42.408  31.425  32.460  1.00  0.00     0.037 A 
BRANCH  49  63
ATOM     63  C   UNL A   1      44.765  32.557  27.481  1.00  0.00     0.064 A 
ATOM     64  C   UNL A   1      45.947  32.716  26.734  1.00  0.00     0.173 A 
ATOM     65  C   UNL A   1      44.007  33.733  27.681  1.00  0.00     0.173 A 
ATOM     66  F   UNL A   1      46.758  31.672  26.507  1.00  0.00    -0.203 F 
ATOM     67  C   UNL A   1      46.364  33.967  26.271  1.00  0.00     0.198 A 
ATOM     68  C   UNL A   1      44.396  34.968  27.168  1.00  0.00     0.198 A 
ATOM     69  F   UNL A   1      42.931  33.763  28.476  1.00  0.00    -0.203 F 
ATOM     70  F   UNL A   1      47.551  34.091  25.664  1.00  0.00    -0.200 F 
ATOM     71  C   UNL A   1      45.587  35.092  26.488  1.00  0.00     0.200 A 
ATOM     72  F   UNL A   1      43.639  36.048  27.410  1.00  0.00    -0.200 F 
ATOM     73  F   UNL A   1      46.007  36.298  26.087  1.00  0.00    -0.200 F 
ENDBRANCH  49  63
BRANCH  50  74
ATOM     74  C   UNL A   1      36.836  32.118  30.693  1.00  0.00     0.064 A 
ATOM     75  C   UNL A   1      35.902  32.107  31.738  1.00  0.00     0.173 A 
ATOM     76  C   UNL A   1      36.587  33.006  29.629  1.00  0.00     0.173 A 
ATOM     77  F   UNL A   1      36.092  31.316  32.803  1.00  0.00    -0.203 F 
ATOM     78  C   UNL A   1      34.795  32.960  31.735  1.00  0.00     0.198 A 
ATOM     79  C   UNL A   1      35.479  33.851  29.623  1.00  0.00     0.198 A 
ATOM     80  F   UNL A   1      37.465  33.140  28.623  1.00  0.00    -0.203 F 
ATOM     81  F   UNL A   1      33.959  32.971  32.782  1.00  0.00    -0.200 F 
ATOM     82  C   UNL A   1      34.591  33.840  30.684  1.00  0.00     0.200 A 
ATOM     83  F   UNL A   1      35.311  34.721  28.617  1.00  0.00    -0.200 F 
ATOM     84  F   UNL A   1      33.568  34.704  30.712  1.00  0.00    -0.200 F 
ENDBRANCH  50  74
BRANCH  62  85
ATOM     85  C   UNL A   1      42.235  30.493  33.614  1.00  0.00     0.064 A 
ATOM     86  C   UNL A   1      42.418  30.862  34.955  1.00  0.00     0.173 A 
ATOM     87  C   UNL A   1      41.817  29.183  33.347  1.00  0.00     0.173 A 
ATOM     88  F   UNL A   1      42.747  32.118  35.284  1.00  0.00    -0.203 F 
ATOM     89  C   UNL A   1      42.230  29.937  35.982  1.00  0.00     0.198 A 
ATOM     90  C   UNL A   1      41.597  28.273  34.375  1.00  0.00     0.198 A 
ATOM     91  F   UNL A   1      41.593  28.793  32.082  1.00  0.00    -0.203 F 
ATOM     92  F   UNL A   1      42.432  30.301  37.257  1.00  0.00    -0.200 F 
ATOM     93  C   UNL A   1      41.814  28.647  35.692  1.00  0.00     0.200 A 
ATOM     94  F   UNL A   1      41.159  27.039  34.090  1.00  0.00    -0.200 F 
ATOM     95  F   UNL A   1      41.606  27.768  36.682  1.00  0.00    -0.200 F 
ENDBRANCH  62  85
ENDBRANCH  36  37
ENDBRANCH  29  31
ENDBRANCH  28  29
ENDBRANCH  27  28
ENDBRANCH  26  27
ENDBRANCH  25  26
ENDBRANCH   1  25
TORSDOF 17
ENDMDL
MODEL 3
REMARK VINA RESULT:     -11.8      3.081      5.086
REMARK SMILES CCc1ccc(C(=O)N2Cc3nc[nH]c3C[C@@H]2C(=O)OCCOCCOC(=O)c2ccc(-c3c4nc(c(-c5c(F)c(F)c(F)c(F)c5F)c5ccc([nH]5)c(-c5c(F)c(F)c(F)c(F)c5F)c5nc(c(-c6c(F)c(F)c(F)c(F)c6F)c6ccc3[nH]6)C=C5)C=C4)cc2)o1
REMARK SMILES IDX 22 1 21 2 20 3 18 4 19 5 17 6 9 7 10 8 11 9 16 10 12 11
REMARK SMILES IDX 15 12 13 13 14 14 7 16 8 17 6 18 3 19 4 20 92 21 5 22 2 23
REMARK SMILES IDX 1 24 23 25 24 26 25 27 26 28 27 29 28 30 29 31 30 32 91 33
REMARK SMILES IDX 31 34 90 35 32 36 33 37 34 38 84 39 35 40 89 41 83 42 85 43
REMARK SMILES IDX 36 44 88 45 82 46 81 47 37 49 69 50 49 51 68 52 50 53 53 54
REMARK SMILES IDX 67 55 86 56 51 57 52 58 66 60 87 61 54 62 38 63 39 64 47 65
REMARK SMILES IDX 40 66 41 67 45 68 48 69 42 70 43 71 46 72 44 73 70 74 71 75
REMARK SMILES IDX 79 76 72 77 73 78 77 79 80 80 74 81 75 82 78 83 76 84 55 85
REMARK SMILES IDX 56 86 64 87 57 88 58 89 62 90 65 91 59 92 60 93 63 94 61 95
REMARK H PARENT 14 15 85 48 53 59
REMARK Flexibility Score: inf
ROOT
ATOM      1  C   UNL A   1      35.953  23.542  24.394  1.00  0.00     0.202 C 
ENDROOT
BRANCH   1   2
ATOM      2  C   UNL A   1      34.869  23.719  23.333  1.00  0.00     0.261 C 
BRANCH   2   3
ATOM      3  O   UNL A   1      34.056  24.868  23.637  1.00  0.00    -0.462 OA
BRANCH   3   4
ATOM      4  C   UNL A   1      32.984  25.074  22.811  1.00  0.00     0.329 C 
ATOM      5  O   UNL A   1      33.062  25.372  21.631  1.00  0.00    -0.250 OA
BRANCH   4   6
ATOM      6  C   UNL A   1      31.689  24.966  23.635  1.00  0.00     0.201 C 
ATOM      7  N   UNL A   1      31.448  26.026  24.665  1.00  0.00    -0.316 N 
ATOM      8  C   UNL A   1      30.368  25.840  25.651  1.00  0.00     0.179 C 
ATOM      9  C   UNL A   1      30.311  24.422  26.076  1.00  0.00     0.081 A 
ATOM     10  C   UNL A   1      31.778  23.523  24.218  1.00  0.00     0.093 C 
ATOM     11  N   UNL A   1      29.631  23.950  27.166  1.00  0.00    -0.240 NA
ATOM     12  C   UNL A   1      30.925  23.390  25.412  1.00  0.00     0.042 A 
ATOM     13  C   UNL A   1      29.883  22.658  27.193  1.00  0.00     0.197 A 
ATOM     14  N   UNL A   1      30.670  22.268  26.141  1.00  0.00    -0.348 N 
ATOM     15  H   UNL A   1      30.988  21.356  25.950  1.00  0.00     0.167 HD
BRANCH   7  16
ATOM     16  C   UNL A   1      31.868  27.333  24.415  1.00  0.00     0.290 C 
ATOM     17  O   UNL A   1      32.983  27.687  24.792  1.00  0.00    -0.265 OA
BRANCH  16  18
ATOM     18  C   UNL A   1      30.980  28.212  23.662  1.00  0.00     0.191 A 
ATOM     19  C   UNL A   1      29.759  30.050  23.433  1.00  0.00     0.104 A 
ATOM     20  C   UNL A   1      29.775  29.440  22.199  1.00  0.00     0.046 A 
ATOM     21  O   UNL A   1      30.483  29.313  24.318  1.00  0.00    -0.456 OA
ATOM     22  C   UNL A   1      30.544  28.257  22.348  1.00  0.00     0.056 A 
BRANCH  19  23
ATOM     23  C   UNL A   1      29.163  31.311  23.947  1.00  0.00     0.072 C 
ATOM     24  C   UNL A   1      27.763  31.540  23.399  1.00  0.00     0.012 C 
ENDBRANCH  19  23
ENDBRANCH  16  18
ENDBRANCH   7  16
ENDBRANCH   4   6
ENDBRANCH   3   4
ENDBRANCH   2   3
ENDBRANCH   1   2
BRANCH   1  25
ATOM     25  O   UNL A   1      36.816  22.413  24.239  1.00  0.00    -0.374 OA
BRANCH  25  26
ATOM     26  C   UNL A   1      37.202  21.670  25.389  1.00  0.00     0.202 C 
BRANCH  26  27
ATOM     27  C   UNL A   1      38.663  21.758  25.807  1.00  0.00     0.261 C 
BRANCH  27  28
ATOM     28  O   UNL A   1      38.954  22.906  26.583  1.00  0.00    -0.460 OA
BRANCH  28  29
ATOM     29  C   UNL A   1      40.200  22.879  27.110  1.00  0.00     0.338 C 
ATOM     30  O   UNL A   1      40.770  21.932  27.616  1.00  0.00    -0.246 OA
BRANCH  29  31
ATOM     31  C   UNL A   1      40.698  24.256  27.170  1.00  0.00     0.060 A 
ATOM     32  C   UNL A   1      41.445  24.575  28.303  1.00  0.00     0.016 A 
ATOM     33  C   UNL A   1      40.191  25.241  26.306  1.00  0.00     0.016 A 
ATOM     34  C   UNL A   1      41.508  25.891  28.689  1.00  0.00     0.010 A 
ATOM     35  C   UNL A   1      40.243  26.557  26.699  1.00  0.00     0.010 A 
ATOM     36  C   UNL A   1      40.833  26.850  27.924  1.00  0.00    -0.014 A 
BRANCH  36  37
ATOM     37  C   UNL A   1      40.825  28.198  28.439  1.00  0.00     0.031 A 
ATOM     38  C   UNL A   1      41.984  28.990  27.999  1.00  0.00     0.074 A 
ATOM     39  C   UNL A   1      39.836  28.674  29.214  1.00  0.00     0.049 A 
ATOM     40  N   UNL A   1      42.975  29.401  28.715  1.00  0.00    -0.248 NA
ATOM     41  C   UNL A   1      42.131  29.228  26.556  1.00  0.00     0.031 C 
ATOM     42  C   UNL A   1      38.510  28.086  29.420  1.00  0.00     0.029 A 
ATOM     43  N   UNL A   1      39.778  29.845  29.909  1.00  0.00    -0.354 N 
ATOM     44  C   UNL A   1      43.772  30.131  27.843  1.00  0.00     0.074 A 
ATOM     45  C   UNL A   1      43.318  29.830  26.511  1.00  0.00     0.031 C 
ATOM     46  C   UNL A   1      37.710  29.002  30.009  1.00  0.00     0.029 A 
ATOM     47  C   UNL A   1      38.506  30.169  30.351  1.00  0.00     0.049 A 
ATOM     48  H   UNL A   1      40.567  30.408  30.081  1.00  0.00     0.167 HD
ATOM     49  C   UNL A   1      44.531  31.156  28.307  1.00  0.00     0.037 A 
ATOM     50  C   UNL A   1      38.129  31.344  30.902  1.00  0.00     0.037 A 
ATOM     51  C   UNL A   1      44.676  31.106  29.738  1.00  0.00     0.049 A 
ATOM     52  C   UNL A   1      39.333  32.029  31.431  1.00  0.00     0.074 A 
ATOM     53  C   UNL A   1      45.496  30.471  30.643  1.00  0.00     0.029 A 
ATOM     54  N   UNL A   1      43.600  31.589  30.431  1.00  0.00    -0.354 N 
ATOM     55  N   UNL A   1      40.034  31.587  32.439  1.00  0.00    -0.248 NA
ATOM     56  C   UNL A   1      39.975  33.076  30.638  1.00  0.00     0.031 C 
ATOM     57  C   UNL A   1      44.820  30.509  31.900  1.00  0.00     0.029 A 
ATOM     58  C   UNL A   1      43.604  31.164  31.733  1.00  0.00     0.049 A 
ATOM     59  H   UNL A   1      42.907  32.171  30.041  1.00  0.00     0.167 HD
ATOM     60  C   UNL A   1      41.323  31.995  32.165  1.00  0.00     0.074 A 
ATOM     61  C   UNL A   1      41.202  33.041  31.162  1.00  0.00     0.031 C 
ATOM     62  C   UNL A   1      42.391  31.226  32.513  1.00  0.00     0.037 A 
BRANCH  49  63
ATOM     63  C   UNL A   1      44.750  32.446  27.555  1.00  0.00     0.064 A 
ATOM     64  C   UNL A   1      45.951  32.627  26.846  1.00  0.00     0.173 A 
ATOM     65  C   UNL A   1      43.977  33.612  27.754  1.00  0.00     0.173 A 
ATOM     66  F   UNL A   1      46.777  31.592  26.625  1.00  0.00    -0.203 F 
ATOM     67  C   UNL A   1      46.372  33.889  26.418  1.00  0.00     0.198 A 
ATOM     68  C   UNL A   1      44.371  34.859  27.274  1.00  0.00     0.198 A 
ATOM     69  F   UNL A   1      42.878  33.620  28.516  1.00  0.00    -0.203 F 
ATOM     70  F   UNL A   1      47.576  34.031  25.849  1.00  0.00    -0.200 F 
ATOM     71  C   UNL A   1      45.581  35.003  26.631  1.00  0.00     0.200 A 
ATOM     72  F   UNL A   1      43.599  35.930  27.513  1.00  0.00    -0.200 F 
ATOM     73  F   UNL A   1      46.003  36.220  26.264  1.00  0.00    -0.200 F 
ENDBRANCH  49  63
BRANCH  50  74
ATOM     74  C   UNL A   1      36.823  32.025  30.778  1.00  0.00     0.064 A 
ATOM     75  C   UNL A   1      35.949  32.118  31.868  1.00  0.00     0.173 A 
ATOM     76  C   UNL A   1      36.533  32.833  29.662  1.00  0.00     0.173 A 
ATOM     77  F   UNL A   1      36.182  31.409  32.982  1.00  0.00    -0.203 F 
ATOM     78  C   UNL A   1      34.861  32.995  31.858  1.00  0.00     0.198 A 
ATOM     79  C   UNL A   1      35.444  33.702  29.649  1.00  0.00     0.198 A 
ATOM     80  F   UNL A   1      37.357  32.867  28.603  1.00  0.00    -0.203 F 
ATOM     81  F   UNL A   1      34.084  33.108  32.944  1.00  0.00    -0.200 F 
ATOM     82  C   UNL A   1      34.617  33.795  30.754  1.00  0.00     0.200 A 
ATOM     83  F   UNL A   1      35.238  34.495  28.587  1.00  0.00    -0.200 F 
ATOM     84  F   UNL A   1      33.613  34.683  30.767  1.00  0.00    -0.200 F 
ENDBRANCH  50  74
BRANCH  62  85
ATOM     85  C   UNL A   1      42.210  30.271  33.646  1.00  0.00     0.064 A 
ATOM     86  C   UNL A   1      41.779  28.944  33.493  1.00  0.00     0.173 A 
ATOM     87  C   UNL A   1      42.535  30.708  34.936  1.00  0.00     0.173 A 
ATOM     88  F   UNL A   1      41.521  28.441  32.278  1.00  0.00    -0.203 F 
ATOM     89  C   UNL A   1      41.640  28.106  34.599  1.00  0.00     0.198 A 
ATOM     90  C   UNL A   1      42.428  29.860  36.032  1.00  0.00     0.198 A 
ATOM     91  F   UNL A   1      42.986  31.957  35.129  1.00  0.00    -0.203 F 
ATOM     92  F   UNL A   1      41.205  26.848  34.436  1.00  0.00    -0.200 F 
ATOM     93  C   UNL A   1      41.970  28.562  35.865  1.00  0.00     0.200 A 
ATOM     94  F   UNL A   1      42.784  30.295  37.249  1.00  0.00    -0.200 F 
ATOM     95  F   UNL A   1      41.864  27.747  36.924  1.00  0.00    -0.200 F 
ENDBRANCH  62  85
ENDBRANCH  36  37
ENDBRANCH  29  31
ENDBRANCH  28  29
ENDBRANCH  27  28
ENDBRANCH  26  27
ENDBRANCH  25  26
ENDBRANCH   1  25
TORSDOF 17
ENDMDL
