MODEL 1
REMARK VINA RESULT:     -10.0      0.000      0.000
REMARK SMILES O=C(OCCOCCOC(=O)[C@@H]1C[C@@H]1C(=O)Nc1cc(F)ccc1F)c1ccc(-c2c3nc(c(-c4c(F)c(F)c(F)c(F)c4F)c4ccc([nH]4)c(-c4c(F)c(F)c(F)c(F)c4F)c4nc(c(-c5c(F)c(F)c(F)c(F)c5F)c5ccc2[nH]5)C=C4)C=C3)cc1
REMARK SMILES IDX 6 1 5 2 4 3 3 4 2 5 1 6 26 7 27 8 88 9 28 10 87 11 29 12
REMARK SMILES IDX 30 13 31 14 81 15 32 16 86 17 80 18 82 19 33 20 85 21 79 22
REMARK SMILES IDX 78 23 34 25 66 26 46 27 65 28 47 29 50 30 64 31 83 32 48 33
REMARK SMILES IDX 49 34 63 36 84 37 51 38 35 39 36 40 44 41 37 42 38 43 42 44
REMARK SMILES IDX 45 45 39 46 40 47 43 48 41 49 67 50 68 51 76 52 69 53 70 54
REMARK SMILES IDX 74 55 77 56 71 57 72 58 75 59 73 60 52 61 53 62 61 63 54 64
REMARK SMILES IDX 55 65 59 66 62 67 56 68 57 69 60 70 58 71 7 72 8 73 9 74
REMARK SMILES IDX 10 75 11 76 12 77 13 78 14 79 15 80 16 81 17 82 18 84 19 85
REMARK SMILES IDX 24 86 20 87 23 88 25 89 21 90 22 91
REMARK H PARENT 82 24 50 35 17 83
REMARK Flexibility Score: inf
ROOT
ATOM      1  O   UNL A   1      32.722  34.492  29.266  1.00  0.00    -0.374 OA
ENDROOT
BRANCH   1   2
ATOM      2  C   UNL A   1      33.309  33.967  28.078  1.00  0.00     0.202 C 
BRANCH   2   3
ATOM      3  C   UNL A   1      34.328  32.854  28.318  1.00  0.00     0.261 C 
BRANCH   3   4
ATOM      4  O   UNL A   1      33.724  31.579  28.060  1.00  0.00    -0.460 OA
BRANCH   4   5
ATOM      5  C   UNL A   1      34.330  30.412  27.762  1.00  0.00     0.338 C 
ATOM      6  O   UNL A   1      33.703  29.573  27.116  1.00  0.00    -0.246 OA
BRANCH   5   7
ATOM      7  C   UNL A   1      35.736  30.079  28.140  1.00  0.00     0.060 A 
ATOM      8  C   UNL A   1      36.135  29.423  29.310  1.00  0.00     0.016 A 
ATOM      9  C   UNL A   1      36.715  30.347  27.169  1.00  0.00     0.016 A 
ATOM     10  C   UNL A   1      37.449  29.033  29.516  1.00  0.00     0.010 A 
ATOM     11  C   UNL A   1      38.041  29.968  27.367  1.00  0.00     0.010 A 
ATOM     12  C   UNL A   1      38.404  29.309  28.546  1.00  0.00    -0.014 A 
BRANCH  12  13
ATOM     13  C   UNL A   1      39.807  29.021  28.855  1.00  0.00     0.031 A 
ATOM     14  C   UNL A   1      40.563  30.045  29.635  1.00  0.00     0.074 A 
ATOM     15  C   UNL A   1      40.332  27.831  28.522  1.00  0.00     0.049 A 
ATOM     16  N   UNL A   1      41.837  30.105  29.901  1.00  0.00    -0.248 NA
ATOM     17  C   UNL A   1      39.770  31.150  30.206  1.00  0.00     0.031 C 
ATOM     18  C   UNL A   1      39.597  26.724  27.905  1.00  0.00     0.029 A 
ATOM     19  N   UNL A   1      41.602  27.347  28.671  1.00  0.00    -0.354 N 
ATOM     20  C   UNL A   1      42.002  31.262  30.649  1.00  0.00     0.074 A 
ATOM     21  C   UNL A   1      40.703  31.876  30.801  1.00  0.00     0.031 C 
ATOM     22  C   UNL A   1      40.436  25.691  27.721  1.00  0.00     0.029 A 
ATOM     23  C   UNL A   1      41.774  26.091  28.142  1.00  0.00     0.049 A 
ATOM     24  H   UNL A   1      42.323  27.849  29.115  1.00  0.00     0.167 HD
ATOM     25  C   UNL A   1      43.155  31.758  31.150  1.00  0.00     0.037 A 
ATOM     26  C   UNL A   1      42.906  25.383  27.981  1.00  0.00     0.037 A 
ATOM     27  C   UNL A   1      44.424  31.115  30.961  1.00  0.00     0.049 A 
ATOM     28  C   UNL A   1      44.193  26.022  28.439  1.00  0.00     0.074 A 
ATOM     29  C   UNL A   1      45.683  31.555  31.319  1.00  0.00     0.029 A 
ATOM     30  N   UNL A   1      44.584  29.871  30.361  1.00  0.00    -0.354 N 
ATOM     31  N   UNL A   1      44.378  27.173  29.047  1.00  0.00    -0.248 NA
ATOM     32  C   UNL A   1      45.431  25.282  28.171  1.00  0.00     0.031 C 
ATOM     33  C   UNL A   1      46.608  30.590  30.906  1.00  0.00     0.029 A 
ATOM     34  C   UNL A   1      45.921  29.527  30.337  1.00  0.00     0.049 A 
ATOM     35  H   UNL A   1      43.851  29.317  30.005  1.00  0.00     0.167 HD
ATOM     36  C   UNL A   1      45.744  27.283  29.255  1.00  0.00     0.074 A 
ATOM     37  C   UNL A   1      46.338  26.068  28.731  1.00  0.00     0.031 C 
ATOM     38  C   UNL A   1      46.455  28.294  29.815  1.00  0.00     0.037 A 
BRANCH  25  39
ATOM     39  C   UNL A   1      43.091  33.060  31.885  1.00  0.00     0.064 A 
ATOM     40  C   UNL A   1      43.210  34.272  31.189  1.00  0.00     0.173 A 
ATOM     41  C   UNL A   1      42.930  33.114  33.277  1.00  0.00     0.173 A 
ATOM     42  F   UNL A   1      43.346  34.275  29.855  1.00  0.00    -0.203 F 
ATOM     43  C   UNL A   1      43.193  35.490  31.863  1.00  0.00     0.198 A 
ATOM     44  C   UNL A   1      42.891  34.335  33.945  1.00  0.00     0.198 A 
ATOM     45  F   UNL A   1      42.776  31.984  33.983  1.00  0.00    -0.203 F 
ATOM     46  F   UNL A   1      43.329  36.634  31.180  1.00  0.00    -0.200 F 
ATOM     47  C   UNL A   1      43.033  35.522  33.240  1.00  0.00     0.200 A 
ATOM     48  F   UNL A   1      42.704  34.365  35.273  1.00  0.00    -0.200 F 
ATOM     49  F   UNL A   1      43.006  36.695  33.887  1.00  0.00    -0.200 F 
ENDBRANCH  25  39
BRANCH  26  50
ATOM     50  C   UNL A   1      42.891  24.049  27.320  1.00  0.00     0.064 A 
ATOM     51  C   UNL A   1      42.539  22.886  28.022  1.00  0.00     0.173 A 
ATOM     52  C   UNL A   1      43.189  23.914  25.956  1.00  0.00     0.173 A 
ATOM     53  F   UNL A   1      42.238  22.952  29.327  1.00  0.00    -0.203 F 
ATOM     54  C   UNL A   1      42.492  21.644  27.392  1.00  0.00     0.198 A 
ATOM     55  C   UNL A   1      43.107  22.676  25.318  1.00  0.00     0.198 A 
ATOM     56  F   UNL A   1      43.509  24.994  25.230  1.00  0.00    -0.203 F 
ATOM     57  F   UNL A   1      42.171  20.549  28.094  1.00  0.00    -0.200 F 
ATOM     58  C   UNL A   1      42.764  21.542  26.036  1.00  0.00     0.200 A 
ATOM     59  F   UNL A   1      43.336  22.589  24.000  1.00  0.00    -0.200 F 
ATOM     60  F   UNL A   1      42.680  20.354  25.421  1.00  0.00    -0.200 F 
ENDBRANCH  26  50
BRANCH  38  61
ATOM     61  C   UNL A   1      47.937  28.099  29.918  1.00  0.00     0.064 A 
ATOM     62  C   UNL A   1      48.771  28.470  28.853  1.00  0.00     0.173 A 
ATOM     63  C   UNL A   1      48.523  27.505  31.044  1.00  0.00     0.173 A 
ATOM     64  F   UNL A   1      48.253  29.029  27.749  1.00  0.00    -0.203 F 
ATOM     65  C   UNL A   1      50.142  28.248  28.913  1.00  0.00     0.198 A 
ATOM     66  C   UNL A   1      49.898  27.318  31.114  1.00  0.00     0.198 A 
ATOM     67  F   UNL A   1      47.763  27.146  32.090  1.00  0.00    -0.203 F 
ATOM     68  F   UNL A   1      50.918  28.582  27.873  1.00  0.00    -0.200 F 
ATOM     69  C   UNL A   1      50.705  27.683  30.046  1.00  0.00     0.200 A 
ATOM     70  F   UNL A   1      50.446  26.799  32.222  1.00  0.00    -0.200 F 
ATOM     71  F   UNL A   1      52.031  27.493  30.112  1.00  0.00    -0.200 F 
ENDBRANCH  38  61
ENDBRANCH  12  13
ENDBRANCH   5   7
ENDBRANCH   4   5
ENDBRANCH   3   4
ENDBRANCH   2   3
ENDBRANCH   1   2
BRANCH   1  72
ATOM     72  C   UNL A   1      33.424  35.544  29.937  1.00  0.00     0.202 C 
BRANCH  72  73
ATOM     73  C   UNL A   1      33.199  35.387  31.444  1.00  0.00     0.261 C 
BRANCH  73  74
ATOM     74  O   UNL A   1      34.451  35.007  32.029  1.00  0.00    -0.463 OA
BRANCH  74  75
ATOM     75  C   UNL A   1      34.739  33.681  31.985  1.00  0.00     0.309 C 
ATOM     76  O   UNL A   1      33.951  32.754  32.094  1.00  0.00    -0.252 OA
BRANCH  75  77
ATOM     77  C   UNL A   1      36.129  33.481  31.518  1.00  0.00     0.112 C 
ATOM     78  C   UNL A   1      36.682  32.130  31.199  1.00  0.00     0.030 C 
ATOM     79  C   UNL A   1      37.181  32.880  32.425  1.00  0.00     0.094 C 
BRANCH  79  80
ATOM     80  C   UNL A   1      36.831  32.382  33.776  1.00  0.00     0.228 C 
ATOM     81  O   UNL A   1      36.100  33.058  34.495  1.00  0.00    -0.274 OA
ATOM     82  N   UNL A   1      37.278  31.169  34.231  1.00  0.00    -0.323 N 
ATOM     83  H   UNL A   1      36.872  30.915  35.092  1.00  0.00     0.170 HD
BRANCH  82  84
ATOM     84  C   UNL A   1      38.183  30.199  33.754  1.00  0.00     0.080 A 
ATOM     85  C   UNL A   1      37.858  29.075  33.002  1.00  0.00     0.068 A 
ATOM     86  C   UNL A   1      39.541  30.431  34.036  1.00  0.00     0.146 A 
ATOM     87  C   UNL A   1      38.870  28.228  32.541  1.00  0.00     0.125 A 
ATOM     88  C   UNL A   1      40.549  29.576  33.591  1.00  0.00     0.044 A 
ATOM     89  F   UNL A   1      39.888  31.513  34.750  1.00  0.00    -0.205 F 
ATOM     90  F   UNL A   1      38.538  27.176  31.781  1.00  0.00    -0.207 F 
ATOM     91  C   UNL A   1      40.210  28.463  32.831  1.00  0.00     0.042 A 
ENDBRANCH  82  84
ENDBRANCH  79  80
ENDBRANCH  75  77
ENDBRANCH  74  75
ENDBRANCH  73  74
ENDBRANCH  72  73
ENDBRANCH   1  72
TORSDOF 16
ENDMDL
MODEL 2
REMARK VINA RESULT:      -9.6      4.772      8.440
REMARK SMILES O=C(OCCOCCOC(=O)[C@@H]1C[C@@H]1C(=O)Nc1cc(F)ccc1F)c1ccc(-c2c3nc(c(-c4c(F)c(F)c(F)c(F)c4F)c4ccc([nH]4)c(-c4c(F)c(F)c(F)c(F)c4F)c4nc(c(-c5c(F)c(F)c(F)c(F)c5F)c5ccc2[nH]5)C=C4)C=C3)cc1
REMARK SMILES IDX 6 1 5 2 4 3 3 4 2 5 1 6 26 7 27 8 88 9 28 10 87 11 29 12
REMARK SMILES IDX 30 13 31 14 81 15 32 16 86 17 80 18 82 19 33 20 85 21 79 22
REMARK SMILES IDX 78 23 34 25 66 26 46 27 65 28 47 29 50 30 64 31 83 32 48 33
REMARK SMILES IDX 49 34 63 36 84 37 51 38 35 39 36 40 44 41 37 42 38 43 42 44
REMARK SMILES IDX 45 45 39 46 40 47 43 48 41 49 67 50 68 51 76 52 69 53 70 54
REMARK SMILES IDX 74 55 77 56 71 57 72 58 75 59 73 60 52 61 53 62 61 63 54 64
REMARK SMILES IDX 55 65 59 66 62 67 56 68 57 69 60 70 58 71 7 72 8 73 9 74
REMARK SMILES IDX 10 75 11 76 12 77 13 78 14 79 15 80 16 81 17 82 18 84 19 85
REMARK SMILES IDX 24 86 20 87 23 88 25 89 21 90 22 91
REMARK H PARENT 82 24 50 35 17 83
REMARK Flexibility Score: inf
ROOT
ATOM      1  O   UNL A   1      33.663  34.203  29.102  1.00  0.00    -0.374 OA
ENDROOT
BRANCH   1   2
ATOM      2  C   UNL A   1      32.898  35.367  28.797  1.00  0.00     0.202 C 
BRANCH   2   3
ATOM      3  C   UNL A   1      33.186  36.564  29.699  1.00  0.00     0.261 C 
BRANCH   3   4
ATOM      4  O   UNL A   1      32.316  36.534  30.839  1.00  0.00    -0.460 OA
BRANCH   4   5
ATOM      5  C   UNL A   1      32.490  35.886  32.008  1.00  0.00     0.338 C 
ATOM      6  O   UNL A   1      31.563  35.873  32.818  1.00  0.00    -0.246 OA
BRANCH   5   7
ATOM      7  C   UNL A   1      33.735  35.146  32.377  1.00  0.00     0.060 A 
ATOM      8  C   UNL A   1      35.024  35.688  32.426  1.00  0.00     0.016 A 
ATOM      9  C   UNL A   1      33.557  33.827  32.826  1.00  0.00     0.016 A 
ATOM     10  C   UNL A   1      36.102  34.964  32.910  1.00  0.00     0.010 A 
ATOM     11  C   UNL A   1      34.634  33.085  33.308  1.00  0.00     0.010 A 
ATOM     12  C   UNL A   1      35.908  33.660  33.348  1.00  0.00    -0.014 A 
BRANCH  12  13
ATOM     13  C   UNL A   1      37.087  32.870  33.712  1.00  0.00     0.031 A 
ATOM     14  C   UNL A   1      37.668  33.088  35.070  1.00  0.00     0.074 A 
ATOM     15  C   UNL A   1      37.541  31.924  32.874  1.00  0.00     0.049 A 
ATOM     16  N   UNL A   1      38.783  32.640  35.573  1.00  0.00    -0.248 NA
ATOM     17  C   UNL A   1      36.876  33.920  35.995  1.00  0.00     0.031 C 
ATOM     18  C   UNL A   1      36.917  31.550  31.603  1.00  0.00     0.029 A 
ATOM     19  N   UNL A   1      38.623  31.095  32.972  1.00  0.00    -0.354 N 
ATOM     20  C   UNL A   1      38.837  33.151  36.862  1.00  0.00     0.074 A 
ATOM     21  C   UNL A   1      37.646  33.940  37.071  1.00  0.00     0.031 C 
ATOM     22  C   UNL A   1      37.635  30.566  31.035  1.00  0.00     0.029 A 
ATOM     23  C   UNL A   1      38.801  30.296  31.869  1.00  0.00     0.049 A 
ATOM     24  H   UNL A   1      39.217  31.071  33.758  1.00  0.00     0.167 HD
ATOM     25  C   UNL A   1      39.815  32.970  37.776  1.00  0.00     0.037 A 
ATOM     26  C   UNL A   1      39.828  29.482  31.565  1.00  0.00     0.037 A 
ATOM     27  C   UNL A   1      40.988  32.184  37.514  1.00  0.00     0.049 A 
ATOM     28  C   UNL A   1      40.964  29.402  32.553  1.00  0.00     0.074 A 
ATOM     29  C   UNL A   1      42.105  32.000  38.304  1.00  0.00     0.029 A 
ATOM     30  N   UNL A   1      41.179  31.434  36.358  1.00  0.00    -0.354 N 
ATOM     31  N   UNL A   1      41.081  29.973  33.731  1.00  0.00    -0.248 NA
ATOM     32  C   UNL A   1      42.120  28.585  32.167  1.00  0.00     0.031 C 
ATOM     33  C   UNL A   1      42.988  31.165  37.611  1.00  0.00     0.029 A 
ATOM     34  C   UNL A   1      42.398  30.788  36.413  1.00  0.00     0.049 A 
ATOM     35  H   UNL A   1      40.539  31.375  35.612  1.00  0.00     0.167 HD
ATOM     36  C   UNL A   1      42.308  29.568  34.235  1.00  0.00     0.074 A 
ATOM     37  C   UNL A   1      42.885  28.680  33.244  1.00  0.00     0.031 C 
ATOM     38  C   UNL A   1      42.916  29.901  35.401  1.00  0.00     0.037 A 
BRANCH  25  39
ATOM     39  C   UNL A   1      39.677  33.670  39.091  1.00  0.00     0.064 A 
ATOM     40  C   UNL A   1      38.869  33.129  40.101  1.00  0.00     0.173 A 
ATOM     41  C   UNL A   1      40.328  34.885  39.351  1.00  0.00     0.173 A 
ATOM     42  F   UNL A   1      38.240  31.959  39.909  1.00  0.00    -0.203 F 
ATOM     43  C   UNL A   1      38.700  33.790  41.315  1.00  0.00     0.198 A 
ATOM     44  C   UNL A   1      40.174  35.532  40.574  1.00  0.00     0.198 A 
ATOM     45  F   UNL A   1      41.141  35.426  38.431  1.00  0.00    -0.203 F 
ATOM     46  F   UNL A   1      37.906  33.263  42.257  1.00  0.00    -0.200 F 
ATOM     47  C   UNL A   1      39.352  34.990  41.552  1.00  0.00     0.200 A 
ATOM     48  F   UNL A   1      40.832  36.676  40.813  1.00  0.00    -0.200 F 
ATOM     49  F   UNL A   1      39.197  35.620  42.724  1.00  0.00    -0.200 F 
ENDBRANCH  25  39
BRANCH  26  50
ATOM     50  C   UNL A   1      39.865  28.741  30.274  1.00  0.00     0.064 A 
ATOM     51  C   UNL A   1      40.468  29.287  29.131  1.00  0.00     0.173 A 
ATOM     52  C   UNL A   1      39.334  27.447  30.167  1.00  0.00     0.173 A 
ATOM     53  F   UNL A   1      40.999  30.518  29.173  1.00  0.00    -0.203 F 
ATOM     54  C   UNL A   1      40.532  28.577  27.933  1.00  0.00     0.198 A 
ATOM     55  C   UNL A   1      39.429  26.723  28.978  1.00  0.00     0.198 A 
ATOM     56  F   UNL A   1      38.767  26.865  31.233  1.00  0.00    -0.203 F 
ATOM     57  F   UNL A   1      41.096  29.135  26.854  1.00  0.00    -0.200 F 
ATOM     58  C   UNL A   1      40.023  27.289  27.862  1.00  0.00     0.200 A 
ATOM     59  F   UNL A   1      38.968  25.465  28.926  1.00  0.00    -0.200 F 
ATOM     60  F   UNL A   1      40.120  26.591  26.722  1.00  0.00    -0.200 F 
ENDBRANCH  26  50
BRANCH  38  61
ATOM     61  C   UNL A   1      44.248  29.269  35.670  1.00  0.00     0.064 A 
ATOM     62  C   UNL A   1      44.324  28.061  36.379  1.00  0.00     0.173 A 
ATOM     63  C   UNL A   1      45.444  29.880  35.269  1.00  0.00     0.173 A 
ATOM     64  F   UNL A   1      43.206  27.447  36.795  1.00  0.00    -0.203 F 
ATOM     65  C   UNL A   1      45.555  27.489  36.680  1.00  0.00     0.198 A 
ATOM     66  C   UNL A   1      46.670  29.286  35.541  1.00  0.00     0.198 A 
ATOM     67  F   UNL A   1      45.416  31.030  34.579  1.00  0.00    -0.203 F 
ATOM     68  F   UNL A   1      45.607  26.351  37.385  1.00  0.00    -0.200 F 
ATOM     69  C   UNL A   1      46.725  28.096  36.253  1.00  0.00     0.200 A 
ATOM     70  F   UNL A   1      47.801  29.858  35.101  1.00  0.00    -0.200 F 
ATOM     71  F   UNL A   1      47.910  27.530  36.522  1.00  0.00    -0.200 F 
ENDBRANCH  38  61
ENDBRANCH  12  13
ENDBRANCH   5   7
ENDBRANCH   4   5
ENDBRANCH   3   4
ENDBRANCH   2   3
ENDBRANCH   1   2
BRANCH   1  72
ATOM     72  C   UNL A   1      34.237  33.486  28.004  1.00  0.00     0.202 C 
BRANCH  72  73
ATOM     73  C   UNL A   1      34.267  31.997  28.365  1.00  0.00     0.261 C 
BRANCH  73  74
ATOM     74  O   UNL A   1      33.500  31.299  27.376  1.00  0.00    -0.463 OA
BRANCH  74  75
ATOM     75  C   UNL A   1      33.780  29.977  27.244  1.00  0.00     0.309 C 
ATOM     76  O   UNL A   1      34.882  29.451  27.289  1.00  0.00    -0.252 OA
BRANCH  75  77
ATOM     77  C   UNL A   1      32.529  29.189  27.299  1.00  0.00     0.112 C 
ATOM     78  C   UNL A   1      32.452  27.772  26.827  1.00  0.00     0.030 C 
ATOM     79  C   UNL A   1      31.748  28.869  26.043  1.00  0.00     0.094 C 
BRANCH  79  80
ATOM     80  C   UNL A   1      32.262  29.252  24.706  1.00  0.00     0.228 C 
ATOM     81  O   UNL A   1      33.475  29.313  24.525  1.00  0.00    -0.274 OA
ATOM     82  N   UNL A   1      31.417  29.507  23.658  1.00  0.00    -0.323 N 
ATOM     83  H   UNL A   1      31.897  29.631  22.807  1.00  0.00     0.170 HD
BRANCH  82  84
ATOM     84  C   UNL A   1      30.021  29.634  23.515  1.00  0.00     0.080 A 
ATOM     85  C   UNL A   1      29.286  30.807  23.655  1.00  0.00     0.068 A 
ATOM     86  C   UNL A   1      29.328  28.465  23.153  1.00  0.00     0.146 A 
ATOM     87  C   UNL A   1      27.908  30.799  23.422  1.00  0.00     0.125 A 
ATOM     88  C   UNL A   1      27.950  28.454  22.939  1.00  0.00     0.044 A 
ATOM     89  F   UNL A   1      30.010  27.319  23.000  1.00  0.00    -0.205 F 
ATOM     90  F   UNL A   1      27.228  31.950  23.518  1.00  0.00    -0.207 F 
ATOM     91  C   UNL A   1      27.232  29.636  23.070  1.00  0.00     0.042 A 
ENDBRANCH  82  84
ENDBRANCH  79  80
ENDBRANCH  75  77
ENDBRANCH  74  75
ENDBRANCH  73  74
ENDBRANCH  72  73
ENDBRANCH   1  72
TORSDOF 16
ENDMDL
MODEL 3
REMARK VINA RESULT:      -9.4      4.715     10.481
REMARK SMILES O=C(OCCOCCOC(=O)[C@@H]1C[C@@H]1C(=O)Nc1cc(F)ccc1F)c1ccc(-c2c3nc(c(-c4c(F)c(F)c(F)c(F)c4F)c4ccc([nH]4)c(-c4c(F)c(F)c(F)c(F)c4F)c4nc(c(-c5c(F)c(F)c(F)c(F)c5F)c5ccc2[nH]5)C=C4)C=C3)cc1
REMARK SMILES IDX 6 1 5 2 4 3 3 4 2 5 1 6 26 7 27 8 88 9 28 10 87 11 29 12
REMARK SMILES IDX 30 13 31 14 81 15 32 16 86 17 80 18 82 19 33 20 85 21 79 22
REMARK SMILES IDX 78 23 34 25 66 26 46 27 65 28 47 29 50 30 64 31 83 32 48 33
REMARK SMILES IDX 49 34 63 36 84 37 51 38 35 39 36 40 44 41 37 42 38 43 42 44
REMARK SMILES IDX 45 45 39 46 40 47 43 48 41 49 67 50 68 51 76 52 69 53 70 54
REMARK SMILES IDX 74 55 77 56 71 57 72 58 75 59 73 60 52 61 53 62 61 63 54 64
REMARK SMILES IDX 55 65 59 66 62 67 56 68 57 69 60 70 58 71 7 72 8 73 9 74
REMARK SMILES IDX 10 75 11 76 12 77 13 78 14 79 15 80 16 81 17 82 18 84 19 85
REMARK SMILES IDX 24 86 20 87 23 88 25 89 21 90 22 91
REMARK H PARENT 82 24 50 35 17 83
REMARK Flexibility Score: inf
ROOT
ATOM      1  O   UNL A   1      33.458  33.875  28.206  1.00  0.00    -0.374 OA
ENDROOT
BRANCH   1   2
ATOM      2  C   UNL A   1      33.800  35.126  28.798  1.00  0.00     0.202 C 
BRANCH   2   3
ATOM      3  C   UNL A   1      32.638  35.833  29.492  1.00  0.00     0.261 C 
BRANCH   3   4
ATOM      4  O   UNL A   1      32.993  36.133  30.849  1.00  0.00    -0.460 OA
BRANCH   4   5
ATOM      5  C   UNL A   1      33.054  35.295  31.904  1.00  0.00     0.338 C 
ATOM      6  O   UNL A   1      32.019  35.057  32.526  1.00  0.00    -0.246 OA
BRANCH   5   7
ATOM      7  C   UNL A   1      34.300  34.604  32.351  1.00  0.00     0.060 A 
ATOM      8  C   UNL A   1      34.362  33.358  32.984  1.00  0.00     0.016 A 
ATOM      9  C   UNL A   1      35.510  35.218  31.987  1.00  0.00     0.016 A 
ATOM     10  C   UNL A   1      35.570  32.730  33.242  1.00  0.00     0.010 A 
ATOM     11  C   UNL A   1      36.732  34.601  32.248  1.00  0.00     0.010 A 
ATOM     12  C   UNL A   1      36.756  33.353  32.877  1.00  0.00    -0.014 A 
BRANCH  12  13
ATOM     13  C   UNL A   1      38.019  32.738  33.296  1.00  0.00     0.031 A 
ATOM     14  C   UNL A   1      38.640  31.746  32.370  1.00  0.00     0.074 A 
ATOM     15  C   UNL A   1      38.617  33.147  34.426  1.00  0.00     0.049 A 
ATOM     16  N   UNL A   1      39.657  30.955  32.567  1.00  0.00    -0.248 NA
ATOM     17  C   UNL A   1      38.039  31.638  31.027  1.00  0.00     0.031 C 
ATOM     18  C   UNL A   1      38.142  34.230  35.291  1.00  0.00     0.029 A 
ATOM     19  N   UNL A   1      39.762  32.711  35.034  1.00  0.00    -0.354 N 
ATOM     20  C   UNL A   1      39.804  30.242  31.386  1.00  0.00     0.074 A 
ATOM     21  C   UNL A   1      38.778  30.690  30.473  1.00  0.00     0.031 C 
ATOM     22  C   UNL A   1      38.990  34.368  36.325  1.00  0.00     0.029 A 
ATOM     23  C   UNL A   1      40.020  33.339  36.227  1.00  0.00     0.049 A 
ATOM     24  H   UNL A   1      40.345  32.015  34.653  1.00  0.00     0.167 HD
ATOM     25  C   UNL A   1      40.721  29.289  31.112  1.00  0.00     0.037 A 
ATOM     26  C   UNL A   1      40.961  33.063  37.149  1.00  0.00     0.037 A 
ATOM     27  C   UNL A   1      41.714  28.870  32.061  1.00  0.00     0.049 A 
ATOM     28  C   UNL A   1      41.889  31.909  36.865  1.00  0.00     0.074 A 
ATOM     29  C   UNL A   1      42.635  27.846  31.959  1.00  0.00     0.029 A 
ATOM     30  N   UNL A   1      41.914  29.478  33.296  1.00  0.00    -0.354 N 
ATOM     31  N   UNL A   1      41.964  31.148  35.796  1.00  0.00    -0.248 NA
ATOM     32  C   UNL A   1      42.847  31.558  37.919  1.00  0.00     0.031 C 
ATOM     33  C   UNL A   1      43.373  27.815  33.148  1.00  0.00     0.029 A 
ATOM     34  C   UNL A   1      42.945  28.849  33.968  1.00  0.00     0.049 A 
ATOM     35  H   UNL A   1      41.397  30.242  33.639  1.00  0.00     0.167 HD
ATOM     36  C   UNL A   1      42.989  30.245  36.038  1.00  0.00     0.074 A 
ATOM     37  C   UNL A   1      43.524  30.573  37.345  1.00  0.00     0.031 C 
ATOM     38  C   UNL A   1      43.447  29.230  35.264  1.00  0.00     0.037 A 
BRANCH  25  39
ATOM     39  C   UNL A   1      40.648  28.616  29.777  1.00  0.00     0.064 A 
ATOM     40  C   UNL A   1      39.842  27.482  29.599  1.00  0.00     0.173 A 
ATOM     41  C   UNL A   1      41.385  29.078  28.678  1.00  0.00     0.173 A 
ATOM     42  F   UNL A   1      39.102  27.012  30.614  1.00  0.00    -0.203 F 
ATOM     43  C   UNL A   1      39.795  26.823  28.374  1.00  0.00     0.198 A 
ATOM     44  C   UNL A   1      41.319  28.428  27.448  1.00  0.00     0.198 A 
ATOM     45  F   UNL A   1      42.143  30.180  28.788  1.00  0.00    -0.203 F 
ATOM     46  F   UNL A   1      39.034  25.729  28.232  1.00  0.00    -0.200 F 
ATOM     47  C   UNL A   1      40.532  27.296  27.299  1.00  0.00     0.200 A 
ATOM     48  F   UNL A   1      42.007  28.907  26.401  1.00  0.00    -0.200 F 
ATOM     49  F   UNL A   1      40.478  26.666  26.117  1.00  0.00    -0.200 F 
ENDBRANCH  25  39
BRANCH  26  50
ATOM     50  C   UNL A   1      41.037  33.830  38.423  1.00  0.00     0.064 A 
ATOM     51  C   UNL A   1      41.906  34.922  38.571  1.00  0.00     0.173 A 
ATOM     52  C   UNL A   1      40.211  33.511  39.510  1.00  0.00     0.173 A 
ATOM     53  F   UNL A   1      42.717  35.279  37.564  1.00  0.00    -0.203 F 
ATOM     54  C   UNL A   1      41.950  35.660  39.752  1.00  0.00     0.198 A 
ATOM     55  C   UNL A   1      40.230  34.272  40.680  1.00  0.00     0.198 A 
ATOM     56  F   UNL A   1      39.344  32.493  39.417  1.00  0.00    -0.203 F 
ATOM     57  F   UNL A   1      42.804  36.686  39.869  1.00  0.00    -0.200 F 
ATOM     58  C   UNL A   1      41.102  35.342  40.802  1.00  0.00     0.200 A 
ATOM     59  F   UNL A   1      39.384  33.981  41.677  1.00  0.00    -0.200 F 
ATOM     60  F   UNL A   1      41.117  36.075  41.924  1.00  0.00    -0.200 F 
ENDBRANCH  26  50
BRANCH  38  61
ATOM     61  C   UNL A   1      44.600  28.439  35.804  1.00  0.00     0.064 A 
ATOM     62  C   UNL A   1      45.916  28.822  35.506  1.00  0.00     0.173 A 
ATOM     63  C   UNL A   1      44.401  27.284  36.571  1.00  0.00     0.173 A 
ATOM     64  F   UNL A   1      46.154  29.913  34.764  1.00  0.00    -0.203 F 
ATOM     65  C   UNL A   1      46.994  28.069  35.958  1.00  0.00     0.198 A 
ATOM     66  C   UNL A   1      45.483  26.555  37.050  1.00  0.00     0.198 A 
ATOM     67  F   UNL A   1      43.159  26.889  36.889  1.00  0.00    -0.203 F 
ATOM     68  F   UNL A   1      48.243  28.434  35.638  1.00  0.00    -0.200 F 
ATOM     69  C   UNL A   1      46.778  26.943  36.737  1.00  0.00     0.200 A 
ATOM     70  F   UNL A   1      45.274  25.483  37.829  1.00  0.00    -0.200 F 
ATOM     71  F   UNL A   1      47.819  26.233  37.193  1.00  0.00    -0.200 F 
ENDBRANCH  38  61
ENDBRANCH  12  13
ENDBRANCH   5   7
ENDBRANCH   4   5
ENDBRANCH   3   4
ENDBRANCH   2   3
ENDBRANCH   1   2
BRANCH   1  72
ATOM     72  C   UNL A   1      34.526  32.957  27.946  1.00  0.00     0.202 C 
BRANCH  72  73
ATOM     73  C   UNL A   1      34.007  31.536  28.189  1.00  0.00     0.261 C 
BRANCH  73  74
ATOM     74  O   UNL A   1      33.553  31.023  26.930  1.00  0.00    -0.463 OA
BRANCH  74  75
ATOM     75  C   UNL A   1      32.211  30.848  26.820  1.00  0.00     0.309 C 
ATOM     76  O   UNL A   1      31.386  31.683  26.480  1.00  0.00    -0.252 OA
BRANCH  75  77
ATOM     77  C   UNL A   1      31.880  29.409  26.913  1.00  0.00     0.112 C 
ATOM     78  C   UNL A   1      32.915  28.338  26.783  1.00  0.00     0.030 C 
ATOM     79  C   UNL A   1      31.879  28.524  25.685  1.00  0.00     0.094 C 
BRANCH  79  80
ATOM     80  C   UNL A   1      32.305  29.049  24.366  1.00  0.00     0.228 C 
ATOM     81  O   UNL A   1      33.503  29.130  24.110  1.00  0.00    -0.274 OA
ATOM     82  N   UNL A   1      31.393  29.415  23.411  1.00  0.00    -0.323 N 
ATOM     83  H   UNL A   1      31.815  29.630  22.548  1.00  0.00     0.170 HD
BRANCH  82  84
ATOM     84  C   UNL A   1      29.991  29.556  23.377  1.00  0.00     0.080 A 
ATOM     85  C   UNL A   1      29.281  30.736  23.571  1.00  0.00     0.068 A 
ATOM     86  C   UNL A   1      29.260  28.393  23.073  1.00  0.00     0.146 A 
ATOM     87  C   UNL A   1      27.889  30.742  23.446  1.00  0.00     0.125 A 
ATOM     88  C   UNL A   1      27.869  28.395  22.967  1.00  0.00     0.044 A 
ATOM     89  F   UNL A   1      29.917  27.240  22.869  1.00  0.00    -0.205 F 
ATOM     90  F   UNL A   1      27.230  31.899  23.592  1.00  0.00    -0.207 F 
ATOM     91  C   UNL A   1      27.176  29.585  23.151  1.00  0.00     0.042 A 
ENDBRANCH  82  84
ENDBRANCH  79  80
ENDBRANCH  75  77
ENDBRANCH  74  75
ENDBRANCH  73  74
ENDBRANCH  72  73
ENDBRANCH   1  72
TORSDOF 16
ENDMDL
