MODEL 1
REMARK VINA RESULT:     -11.5      0.000      0.000
REMARK SMILES CN(CC(=O)OCCOCCOC(=O)c1ccc(-c2c3nc(c(-c4c(F)c(F)c(F)c(F)c4F)c4ccc([nH]4)c(-c4c(F)c(F)c(F)c(F)c4F)c4nc(c(-c5c(F)c(F)c(F)c(F)c5F)c5ccc2[nH]5)C=C4)C=C3)cc1)c1ncc(-c2nnnn2-c2ccccc2)c(-c2ccc(Cl)cc2)n1
REMARK SMILES IDX 8 1 7 2 6 3 4 4 5 5 3 6 2 7 1 8 78 9 79 10 101 11 80 12
REMARK SMILES IDX 93 13 81 14 94 15 95 16 100 17 96 18 99 19 97 20 98 21 82 22
REMARK SMILES IDX 83 23 86 24 84 25 85 26 87 27 88 28 92 29 89 30 91 31 90 32
REMARK SMILES IDX 9 33 10 34 11 35 12 36 13 37 14 38 15 39 16 40 77 41 17 42
REMARK SMILES IDX 76 43 18 44 19 45 20 46 70 47 21 48 75 49 69 50 71 51 22 52
REMARK SMILES IDX 74 53 68 54 67 55 23 57 55 58 35 59 54 60 36 61 39 62 53 63
REMARK SMILES IDX 72 64 37 65 38 66 52 68 73 69 40 70 24 71 25 72 33 73 26 74
REMARK SMILES IDX 27 75 31 76 34 77 28 78 29 79 32 80 30 81 56 82 57 83 65 84
REMARK SMILES IDX 58 85 59 86 63 87 66 88 60 89 61 90 64 91 62 92 41 93 42 94
REMARK SMILES IDX 50 95 43 96 44 97 48 98 51 99 45 100 46 101 49 102 47 103
REMARK H PARENT 71 56 39 67
REMARK Flexibility Score: inf
ROOT
ATOM      1  C   UNL A   1      42.519  21.113  26.078  1.00  0.00     0.202 C 
ENDROOT
BRANCH   1   2
ATOM      2  C   UNL A   1      42.012  22.273  26.944  1.00  0.00     0.261 C 
BRANCH   2   3
ATOM      3  O   UNL A   1      41.057  23.086  26.244  1.00  0.00    -0.462 OA
BRANCH   3   4
ATOM      4  C   UNL A   1      40.079  23.628  27.024  1.00  0.00     0.325 C 
ATOM      5  O   UNL A   1      40.185  23.831  28.230  1.00  0.00    -0.250 OA
BRANCH   4   6
ATOM      6  C   UNL A   1      38.877  24.074  26.201  1.00  0.00     0.241 C 
BRANCH   6   7
ATOM      7  N   UNL A   1      38.070  22.966  25.692  1.00  0.00    -0.333 N 
ATOM      8  C   UNL A   1      38.617  21.631  25.727  1.00  0.00     0.147 C 
BRANCH   7   9
ATOM      9  C   UNL A   1      36.719  23.119  25.913  1.00  0.00     0.226 A 
ATOM     10  N   UNL A   1      36.114  22.124  26.562  1.00  0.00    -0.221 NA
ATOM     11  N   UNL A   1      36.056  24.194  25.448  1.00  0.00    -0.212 NA
ATOM     12  C   UNL A   1      34.791  22.228  26.752  1.00  0.00     0.129 A 
ATOM     13  C   UNL A   1      34.704  24.247  25.626  1.00  0.00     0.087 A 
ATOM     14  C   UNL A   1      34.008  23.266  26.307  1.00  0.00     0.066 A 
BRANCH  13  15
ATOM     15  C   UNL A   1      34.043  25.429  25.047  1.00  0.00     0.001 A 
ATOM     16  C   UNL A   1      33.661  25.450  23.695  1.00  0.00     0.012 A 
ATOM     17  C   UNL A   1      33.736  26.549  25.840  1.00  0.00     0.012 A 
ATOM     18  C   UNL A   1      32.968  26.542  23.161  1.00  0.00     0.021 A 
ATOM     19  C   UNL A   1      33.042  27.640  25.310  1.00  0.00     0.021 A 
ATOM     20  C   UNL A   1      32.656  27.630  23.973  1.00  0.00     0.041 A 
ATOM     21  Cl  UNL A   1      31.791  28.967  23.326  1.00  0.00    -0.084 Cl
ENDBRANCH  13  15
BRANCH  14  22
ATOM     22  C   UNL A   1      32.567  23.194  26.507  1.00  0.00     0.190 A 
ATOM     23  N   UNL A   1      31.884  23.851  27.425  1.00  0.00    -0.108 NA
ATOM     24  N   UNL A   1      31.654  22.654  25.604  1.00  0.00    -0.193 N 
ATOM     25  N   UNL A   1      30.575  23.829  27.022  1.00  0.00    -0.023 NA
ATOM     26  N   UNL A   1      30.437  23.171  25.881  1.00  0.00    -0.040 NA
BRANCH  24  27
ATOM     27  C   UNL A   1      31.860  21.738  24.546  1.00  0.00     0.069 A 
ATOM     28  C   UNL A   1      32.210  20.414  24.838  1.00  0.00     0.028 A 
ATOM     29  C   UNL A   1      31.724  22.147  23.212  1.00  0.00     0.028 A 
ATOM     30  C   UNL A   1      32.389  19.500  23.797  1.00  0.00     0.002 A 
ATOM     31  C   UNL A   1      31.937  21.236  22.178  1.00  0.00     0.002 A 
ATOM     32  C   UNL A   1      32.266  19.915  22.471  1.00  0.00     0.000 A 
ENDBRANCH  24  27
ENDBRANCH  14  22
ENDBRANCH   7   9
ENDBRANCH   6   7
ENDBRANCH   4   6
ENDBRANCH   3   4
ENDBRANCH   2   3
ENDBRANCH   1   2
BRANCH   1  33
ATOM     33  O   UNL A   1      43.590  21.432  25.183  1.00  0.00    -0.374 OA
BRANCH  33  34
ATOM     34  C   UNL A   1      44.528  22.424  25.610  1.00  0.00     0.202 C 
BRANCH  34  35
ATOM     35  C   UNL A   1      44.933  23.441  24.541  1.00  0.00     0.261 C 
BRANCH  35  36
ATOM     36  O   UNL A   1      44.988  24.765  25.092  1.00  0.00    -0.460 OA
BRANCH  36  37
ATOM     37  C   UNL A   1      43.791  25.363  25.244  1.00  0.00     0.338 C 
ATOM     38  O   UNL A   1      42.815  25.254  24.523  1.00  0.00    -0.246 OA
BRANCH  37  39
ATOM     39  C   UNL A   1      43.789  26.122  26.501  1.00  0.00     0.060 A 
ATOM     40  C   UNL A   1      43.208  25.521  27.619  1.00  0.00     0.016 A 
ATOM     41  C   UNL A   1      44.204  27.456  26.536  1.00  0.00     0.016 A 
ATOM     42  C   UNL A   1      42.958  26.284  28.758  1.00  0.00     0.010 A 
ATOM     43  C   UNL A   1      43.962  28.218  27.687  1.00  0.00     0.010 A 
ATOM     44  C   UNL A   1      43.285  27.650  28.780  1.00  0.00    -0.014 A 
BRANCH  44  45
ATOM     45  C   UNL A   1      42.748  28.489  29.881  1.00  0.00     0.031 A 
ATOM     46  C   UNL A   1      41.370  29.079  29.751  1.00  0.00     0.074 A 
ATOM     47  C   UNL A   1      43.442  28.668  31.017  1.00  0.00     0.049 A 
ATOM     48  N   UNL A   1      40.662  29.750  30.625  1.00  0.00    -0.248 NA
ATOM     49  C   UNL A   1      40.705  28.899  28.455  1.00  0.00     0.031 C 
ATOM     50  C   UNL A   1      44.791  28.168  31.270  1.00  0.00     0.029 A 
ATOM     51  N   UNL A   1      43.094  29.313  32.178  1.00  0.00    -0.354 N 
ATOM     52  C   UNL A   1      39.478  30.083  29.978  1.00  0.00     0.074 A 
ATOM     53  C   UNL A   1      39.579  29.576  28.626  1.00  0.00     0.031 C 
ATOM     54  C   UNL A   1      45.154  28.515  32.517  1.00  0.00     0.029 A 
ATOM     55  C   UNL A   1      44.063  29.258  33.146  1.00  0.00     0.049 A 
ATOM     56  H   UNL A   1      42.231  29.771  32.302  1.00  0.00     0.167 HD
ATOM     57  C   UNL A   1      38.395  30.730  30.471  1.00  0.00     0.037 A 
ATOM     58  C   UNL A   1      44.062  29.737  34.405  1.00  0.00     0.037 A 
ATOM     59  C   UNL A   1      38.269  31.192  31.828  1.00  0.00     0.049 A 
ATOM     60  C   UNL A   1      42.828  30.405  34.952  1.00  0.00     0.074 A 
ATOM     61  C   UNL A   1      37.183  31.793  32.440  1.00  0.00     0.029 A 
ATOM     62  N   UNL A   1      39.266  31.097  32.787  1.00  0.00    -0.354 N 
ATOM     63  N   UNL A   1      41.688  30.653  34.356  1.00  0.00    -0.248 NA
ATOM     64  C   UNL A   1      42.877  30.836  36.356  1.00  0.00     0.031 C 
ATOM     65  C   UNL A   1      37.533  32.091  33.762  1.00  0.00     0.029 A 
ATOM     66  C   UNL A   1      38.825  31.641  33.983  1.00  0.00     0.049 A 
ATOM     67  H   UNL A   1      40.155  30.702  32.640  1.00  0.00     0.167 HD
ATOM     68  C   UNL A   1      40.876  31.246  35.315  1.00  0.00     0.074 A 
ATOM     69  C   UNL A   1      41.651  31.311  36.536  1.00  0.00     0.031 C 
ATOM     70  C   UNL A   1      39.603  31.696  35.193  1.00  0.00     0.037 A 
BRANCH  57  71
ATOM     71  C   UNL A   1      37.253  30.980  29.530  1.00  0.00     0.064 A 
ATOM     72  C   UNL A   1      37.046  32.237  28.940  1.00  0.00     0.173 A 
ATOM     73  C   UNL A   1      36.370  29.944  29.196  1.00  0.00     0.173 A 
ATOM     74  F   UNL A   1      37.855  33.264  29.239  1.00  0.00    -0.203 F 
ATOM     75  C   UNL A   1      35.978  32.453  28.073  1.00  0.00     0.198 A 
ATOM     76  C   UNL A   1      35.318  30.157  28.309  1.00  0.00     0.198 A 
ATOM     77  F   UNL A   1      36.527  28.724  29.731  1.00  0.00    -0.203 F 
ATOM     78  F   UNL A   1      35.770  33.674  27.561  1.00  0.00    -0.200 F 
ATOM     79  C   UNL A   1      35.118  31.412  27.755  1.00  0.00     0.200 A 
ATOM     80  F   UNL A   1      34.492  29.149  27.995  1.00  0.00    -0.200 F 
ATOM     81  F   UNL A   1      34.090  31.622  26.920  1.00  0.00    -0.200 F 
ENDBRANCH  57  71
BRANCH  58  82
ATOM     82  C   UNL A   1      45.265  29.551  35.253  1.00  0.00     0.064 A 
ATOM     83  C   UNL A   1      45.399  28.429  36.081  1.00  0.00     0.173 A 
ATOM     84  C   UNL A   1      46.310  30.484  35.231  1.00  0.00     0.173 A 
ATOM     85  F   UNL A   1      44.413  27.523  36.146  1.00  0.00    -0.203 F 
ATOM     86  C   UNL A   1      46.536  28.251  36.865  1.00  0.00     0.198 A 
ATOM     87  C   UNL A   1      47.455  30.294  36.002  1.00  0.00     0.198 A 
ATOM     88  F   UNL A   1      46.224  31.572  34.452  1.00  0.00    -0.203 F 
ATOM     89  F   UNL A   1      46.631  27.184  37.671  1.00  0.00    -0.200 F 
ATOM     90  C   UNL A   1      47.565  29.179  36.820  1.00  0.00     0.200 A 
ATOM     91  F   UNL A   1      48.452  31.189  35.949  1.00  0.00    -0.200 F 
ATOM     92  F   UNL A   1      48.663  29.003  37.569  1.00  0.00    -0.200 F 
ENDBRANCH  58  82
BRANCH  70  93
ATOM     93  C   UNL A   1      38.957  32.276  36.416  1.00  0.00     0.064 A 
ATOM     94  C   UNL A   1      38.111  31.511  37.231  1.00  0.00     0.173 A 
ATOM     95  C   UNL A   1      39.216  33.601  36.798  1.00  0.00     0.173 A 
ATOM     96  F   UNL A   1      37.823  30.242  36.901  1.00  0.00    -0.203 F 
ATOM     97  C   UNL A   1      37.529  32.057  38.371  1.00  0.00     0.198 A 
ATOM     98  C   UNL A   1      38.651  34.138  37.952  1.00  0.00     0.198 A 
ATOM     99  F   UNL A   1      40.025  34.372  36.056  1.00  0.00    -0.203 F 
ATOM    100  F   UNL A   1      36.691  31.320  39.113  1.00  0.00    -0.200 F 
ATOM    101  C   UNL A   1      37.803  33.368  38.734  1.00  0.00     0.200 A 
ATOM    102  F   UNL A   1      38.924  35.402  38.305  1.00  0.00    -0.200 F 
ATOM    103  F   UNL A   1      37.243  33.893  39.833  1.00  0.00    -0.200 F 
ENDBRANCH  70  93
ENDBRANCH  44  45
ENDBRANCH  37  39
ENDBRANCH  36  37
ENDBRANCH  35  36
ENDBRANCH  34  35
ENDBRANCH  33  34
ENDBRANCH   1  33
TORSDOF 19
ENDMDL
MODEL 2
REMARK VINA RESULT:     -11.3      1.578      7.068
REMARK SMILES CN(CC(=O)OCCOCCOC(=O)c1ccc(-c2c3nc(c(-c4c(F)c(F)c(F)c(F)c4F)c4ccc([nH]4)c(-c4c(F)c(F)c(F)c(F)c4F)c4nc(c(-c5c(F)c(F)c(F)c(F)c5F)c5ccc2[nH]5)C=C4)C=C3)cc1)c1ncc(-c2nnnn2-c2ccccc2)c(-c2ccc(Cl)cc2)n1
REMARK SMILES IDX 8 1 7 2 6 3 4 4 5 5 3 6 2 7 1 8 78 9 79 10 101 11 80 12
REMARK SMILES IDX 93 13 81 14 94 15 95 16 100 17 96 18 99 19 97 20 98 21 82 22
REMARK SMILES IDX 83 23 86 24 84 25 85 26 87 27 88 28 92 29 89 30 91 31 90 32
REMARK SMILES IDX 9 33 10 34 11 35 12 36 13 37 14 38 15 39 16 40 77 41 17 42
REMARK SMILES IDX 76 43 18 44 19 45 20 46 70 47 21 48 75 49 69 50 71 51 22 52
REMARK SMILES IDX 74 53 68 54 67 55 23 57 55 58 35 59 54 60 36 61 39 62 53 63
REMARK SMILES IDX 72 64 37 65 38 66 52 68 73 69 40 70 24 71 25 72 33 73 26 74
REMARK SMILES IDX 27 75 31 76 34 77 28 78 29 79 32 80 30 81 56 82 57 83 65 84
REMARK SMILES IDX 58 85 59 86 63 87 66 88 60 89 61 90 64 91 62 92 41 93 42 94
REMARK SMILES IDX 50 95 43 96 44 97 48 98 51 99 45 100 46 101 49 102 47 103
REMARK H PARENT 71 56 39 67
REMARK Flexibility Score: inf
ROOT
ATOM      1  C   UNL A   1      40.904  20.325  26.398  1.00  0.00     0.202 C 
ENDROOT
BRANCH   1   2
ATOM      2  C   UNL A   1      40.417  21.718  26.817  1.00  0.00     0.261 C 
BRANCH   2   3
ATOM      3  O   UNL A   1      39.632  22.342  25.789  1.00  0.00    -0.462 OA
BRANCH   3   4
ATOM      4  C   UNL A   1      38.557  23.054  26.236  1.00  0.00     0.325 C 
ATOM      5  O   UNL A   1      38.632  24.121  26.838  1.00  0.00    -0.250 OA
BRANCH   4   6
ATOM      6  C   UNL A   1      37.240  22.435  25.789  1.00  0.00     0.241 C 
BRANCH   6   7
ATOM      7  N   UNL A   1      36.506  23.247  24.820  1.00  0.00    -0.333 N 
ATOM      8  C   UNL A   1      36.771  23.063  23.412  1.00  0.00     0.147 C 
BRANCH   7   9
ATOM      9  C   UNL A   1      35.216  23.536  25.204  1.00  0.00     0.226 A 
ATOM     10  N   UNL A   1      34.367  22.508  25.229  1.00  0.00    -0.221 NA
ATOM     11  N   UNL A   1      34.840  24.797  25.485  1.00  0.00    -0.212 NA
ATOM     12  C   UNL A   1      33.094  22.769  25.559  1.00  0.00     0.129 A 
ATOM     13  C   UNL A   1      33.527  25.031  25.777  1.00  0.00     0.087 A 
ATOM     14  C   UNL A   1      32.591  24.015  25.845  1.00  0.00     0.066 A 
BRANCH  13  15
ATOM     15  C   UNL A   1      33.184  26.441  26.025  1.00  0.00     0.001 A 
ATOM     16  C   UNL A   1      33.597  27.449  25.137  1.00  0.00     0.012 A 
ATOM     17  C   UNL A   1      32.395  26.813  27.129  1.00  0.00     0.012 A 
ATOM     18  C   UNL A   1      33.210  28.780  25.330  1.00  0.00     0.021 A 
ATOM     19  C   UNL A   1      32.005  28.141  27.323  1.00  0.00     0.021 A 
ATOM     20  C   UNL A   1      32.411  29.118  26.419  1.00  0.00     0.041 A 
ATOM     21  Cl  UNL A   1      31.919  30.750  26.652  1.00  0.00    -0.084 Cl
ENDBRANCH  13  15
BRANCH  14  22
ATOM     22  C   UNL A   1      31.164  24.156  26.094  1.00  0.00     0.190 A 
ATOM     23  N   UNL A   1      30.495  23.596  27.084  1.00  0.00    -0.108 NA
ATOM     24  N   UNL A   1      30.334  25.112  25.510  1.00  0.00    -0.193 N 
ATOM     25  N   UNL A   1      29.318  24.287  27.195  1.00  0.00    -0.023 NA
ATOM     26  N   UNL A   1      29.245  25.255  26.295  1.00  0.00    -0.040 NA
BRANCH  24  27
ATOM     27  C   UNL A   1      30.513  25.863  24.325  1.00  0.00     0.069 A 
ATOM     28  C   UNL A   1      31.196  25.294  23.243  1.00  0.00     0.028 A 
ATOM     29  C   UNL A   1      30.017  27.171  24.228  1.00  0.00     0.028 A 
ATOM     30  C   UNL A   1      31.352  26.022  22.062  1.00  0.00     0.002 A 
ATOM     31  C   UNL A   1      30.206  27.904  23.056  1.00  0.00     0.002 A 
ATOM     32  C   UNL A   1      30.870  27.328  21.975  1.00  0.00     0.000 A 
ENDBRANCH  24  27
ENDBRANCH  14  22
ENDBRANCH   7   9
ENDBRANCH   6   7
ENDBRANCH   4   6
ENDBRANCH   3   4
ENDBRANCH   2   3
ENDBRANCH   1   2
BRANCH   1  33
ATOM     33  O   UNL A   1      42.177  20.286  25.745  1.00  0.00    -0.374 OA
BRANCH  33  34
ATOM     34  C   UNL A   1      43.145  21.264  26.136  1.00  0.00     0.202 C 
BRANCH  34  35
ATOM     35  C   UNL A   1      43.564  22.243  25.038  1.00  0.00     0.261 C 
BRANCH  35  36
ATOM     36  O   UNL A   1      43.064  23.560  25.312  1.00  0.00    -0.460 OA
BRANCH  36  37
ATOM     37  C   UNL A   1      44.011  24.510  25.431  1.00  0.00     0.338 C 
ATOM     38  O   UNL A   1      44.812  24.864  24.585  1.00  0.00    -0.246 OA
BRANCH  37  39
ATOM     39  C   UNL A   1      43.883  25.153  26.745  1.00  0.00     0.060 A 
ATOM     40  C   UNL A   1      43.054  24.541  27.688  1.00  0.00     0.016 A 
ATOM     41  C   UNL A   1      44.437  26.413  26.987  1.00  0.00     0.016 A 
ATOM     42  C   UNL A   1      42.703  25.231  28.846  1.00  0.00     0.010 A 
ATOM     43  C   UNL A   1      44.093  27.099  28.158  1.00  0.00     0.010 A 
ATOM     44  C   UNL A   1      43.178  26.534  29.064  1.00  0.00    -0.014 A 
BRANCH  44  45
ATOM     45  C   UNL A   1      42.561  27.340  30.148  1.00  0.00     0.031 A 
ATOM     46  C   UNL A   1      43.228  27.395  31.496  1.00  0.00     0.074 A 
ATOM     47  C   UNL A   1      41.460  28.076  29.923  1.00  0.00     0.049 A 
ATOM     48  N   UNL A   1      42.928  28.112  32.549  1.00  0.00    -0.248 NA
ATOM     49  C   UNL A   1      44.384  26.510  31.685  1.00  0.00     0.031 C 
ATOM     50  C   UNL A   1      40.705  28.104  28.673  1.00  0.00     0.029 A 
ATOM     51  N   UNL A   1      40.796  28.954  30.743  1.00  0.00    -0.354 N 
ATOM     52  C   UNL A   1      43.847  27.754  33.527  1.00  0.00     0.074 A 
ATOM     53  C   UNL A   1      44.691  26.725  32.956  1.00  0.00     0.031 C 
ATOM     54  C   UNL A   1      39.683  28.968  28.804  1.00  0.00     0.029 A 
ATOM     55  C   UNL A   1      39.717  29.553  30.145  1.00  0.00     0.049 A 
ATOM     56  H   UNL A   1      41.069  29.136  31.671  1.00  0.00     0.167 HD
ATOM     57  C   UNL A   1      43.993  28.252  34.779  1.00  0.00     0.037 A 
ATOM     58  C   UNL A   1      38.865  30.482  30.618  1.00  0.00     0.037 A 
ATOM     59  C   UNL A   1      43.190  29.309  35.333  1.00  0.00     0.049 A 
ATOM     60  C   UNL A   1      39.076  31.062  31.991  1.00  0.00     0.074 A 
ATOM     61  C   UNL A   1      43.309  29.930  36.565  1.00  0.00     0.029 A 
ATOM     62  N   UNL A   1      42.119  29.907  34.686  1.00  0.00    -0.354 N 
ATOM     63  N   UNL A   1      39.991  30.767  32.883  1.00  0.00    -0.248 NA
ATOM     64  C   UNL A   1      38.149  32.123  32.411  1.00  0.00     0.031 C 
ATOM     65  C   UNL A   1      42.289  30.883  36.676  1.00  0.00     0.029 A 
ATOM     66  C   UNL A   1      41.560  30.880  35.498  1.00  0.00     0.049 A 
ATOM     67  H   UNL A   1      41.804  29.673  33.784  1.00  0.00     0.167 HD
ATOM     68  C   UNL A   1      39.765  31.619  33.957  1.00  0.00     0.074 A 
ATOM     69  C   UNL A   1      38.634  32.451  33.602  1.00  0.00     0.031 C 
ATOM     70  C   UNL A   1      40.437  31.704  35.132  1.00  0.00     0.037 A 
BRANCH  57  71
ATOM     71  C   UNL A   1      45.067  27.653  35.639  1.00  0.00     0.064 A 
ATOM     72  C   UNL A   1      46.372  28.168  35.653  1.00  0.00     0.173 A 
ATOM     73  C   UNL A   1      44.779  26.565  36.476  1.00  0.00     0.173 A 
ATOM     74  F   UNL A   1      46.701  29.198  34.860  1.00  0.00    -0.203 F 
ATOM     75  C   UNL A   1      47.358  27.596  36.453  1.00  0.00     0.198 A 
ATOM     76  C   UNL A   1      45.762  26.012  37.294  1.00  0.00     0.198 A 
ATOM     77  F   UNL A   1      43.546  26.039  36.501  1.00  0.00    -0.203 F 
ATOM     78  F   UNL A   1      48.610  28.071  36.413  1.00  0.00    -0.200 F 
ATOM     79  C   UNL A   1      47.051  26.522  37.276  1.00  0.00     0.200 A 
ATOM     80  F   UNL A   1      45.462  24.980  38.095  1.00  0.00    -0.200 F 
ATOM     81  F   UNL A   1      48.001  25.972  38.045  1.00  0.00    -0.200 F 
ENDBRANCH  57  71
BRANCH  58  82
ATOM     82  C   UNL A   1      37.756  30.956  29.755  1.00  0.00     0.064 A 
ATOM     83  C   UNL A   1      36.639  30.149  29.505  1.00  0.00     0.173 A 
ATOM     84  C   UNL A   1      37.786  32.236  29.184  1.00  0.00     0.173 A 
ATOM     85  F   UNL A   1      36.580  28.911  30.016  1.00  0.00    -0.203 F 
ATOM     86  C   UNL A   1      35.593  30.603  28.705  1.00  0.00     0.198 A 
ATOM     87  C   UNL A   1      36.730  32.696  28.401  1.00  0.00     0.198 A 
ATOM     88  F   UNL A   1      38.836  33.043  29.399  1.00  0.00    -0.203 F 
ATOM     89  F   UNL A   1      34.547  29.803  28.456  1.00  0.00    -0.200 F 
ATOM     90  C   UNL A   1      35.636  31.877  28.160  1.00  0.00     0.200 A 
ATOM     91  F   UNL A   1      36.771  33.931  27.883  1.00  0.00    -0.200 F 
ATOM     92  F   UNL A   1      34.625  32.317  27.397  1.00  0.00    -0.200 F 
ENDBRANCH  58  82
BRANCH  70  93
ATOM     93  C   UNL A   1      39.985  32.747  36.111  1.00  0.00     0.064 A 
ATOM     94  C   UNL A   1      38.943  32.500  37.016  1.00  0.00     0.173 A 
ATOM     95  C   UNL A   1      40.626  33.994  36.170  1.00  0.00     0.173 A 
ATOM     96  F   UNL A   1      38.291  31.328  36.991  1.00  0.00    -0.203 F 
ATOM     97  C   UNL A   1      38.543  33.472  37.929  1.00  0.00     0.198 A 
ATOM     98  C   UNL A   1      40.240  34.955  37.100  1.00  0.00     0.198 A 
ATOM     99  F   UNL A   1      41.633  34.275  35.330  1.00  0.00    -0.203 F 
ATOM    100  F   UNL A   1      37.519  33.230  38.758  1.00  0.00    -0.200 F 
ATOM    101  C   UNL A   1      39.195  34.696  37.974  1.00  0.00     0.200 A 
ATOM    102  F   UNL A   1      40.876  36.134  37.147  1.00  0.00    -0.200 F 
ATOM    103  F   UNL A   1      38.810  35.630  38.855  1.00  0.00    -0.200 F 
ENDBRANCH  70  93
ENDBRANCH  44  45
ENDBRANCH  37  39
ENDBRANCH  36  37
ENDBRANCH  35  36
ENDBRANCH  34  35
ENDBRANCH  33  34
ENDBRANCH   1  33
TORSDOF 19
ENDMDL
MODEL 3
REMARK VINA RESULT:     -11.3      4.423      8.848
REMARK SMILES CN(CC(=O)OCCOCCOC(=O)c1ccc(-c2c3nc(c(-c4c(F)c(F)c(F)c(F)c4F)c4ccc([nH]4)c(-c4c(F)c(F)c(F)c(F)c4F)c4nc(c(-c5c(F)c(F)c(F)c(F)c5F)c5ccc2[nH]5)C=C4)C=C3)cc1)c1ncc(-c2nnnn2-c2ccccc2)c(-c2ccc(Cl)cc2)n1
REMARK SMILES IDX 8 1 7 2 6 3 4 4 5 5 3 6 2 7 1 8 78 9 79 10 101 11 80 12
REMARK SMILES IDX 93 13 81 14 94 15 95 16 100 17 96 18 99 19 97 20 98 21 82 22
REMARK SMILES IDX 83 23 86 24 84 25 85 26 87 27 88 28 92 29 89 30 91 31 90 32
REMARK SMILES IDX 9 33 10 34 11 35 12 36 13 37 14 38 15 39 16 40 77 41 17 42
REMARK SMILES IDX 76 43 18 44 19 45 20 46 70 47 21 48 75 49 69 50 71 51 22 52
REMARK SMILES IDX 74 53 68 54 67 55 23 57 55 58 35 59 54 60 36 61 39 62 53 63
REMARK SMILES IDX 72 64 37 65 38 66 52 68 73 69 40 70 24 71 25 72 33 73 26 74
REMARK SMILES IDX 27 75 31 76 34 77 28 78 29 79 32 80 30 81 56 82 57 83 65 84
REMARK SMILES IDX 58 85 59 86 63 87 66 88 60 89 61 90 64 91 62 92 41 93 42 94
REMARK SMILES IDX 50 95 43 96 44 97 48 98 51 99 45 100 46 101 49 102 47 103
REMARK H PARENT 71 56 39 67
REMARK Flexibility Score: inf
ROOT
ATOM      1  C   UNL A   1      34.746  22.884  24.201  1.00  0.00     0.202 C 
ENDROOT
BRANCH   1   2
ATOM      2  C   UNL A   1      34.000  21.921  25.134  1.00  0.00     0.261 C 
BRANCH   2   3
ATOM      3  O   UNL A   1      33.994  22.389  26.491  1.00  0.00    -0.462 OA
BRANCH   3   4
ATOM      4  C   UNL A   1      32.825  22.189  27.166  1.00  0.00     0.325 C 
ATOM      5  O   UNL A   1      32.688  22.339  28.376  1.00  0.00    -0.250 OA
BRANCH   4   6
ATOM      6  C   UNL A   1      31.671  21.879  26.222  1.00  0.00     0.241 C 
BRANCH   6   7
ATOM      7  N   UNL A   1      30.705  22.970  26.096  1.00  0.00    -0.333 N 
ATOM      8  C   UNL A   1      29.784  23.214  27.181  1.00  0.00     0.147 C 
BRANCH   7   9
ATOM      9  C   UNL A   1      31.182  24.054  25.395  1.00  0.00     0.226 A 
ATOM     10  N   UNL A   1      31.264  23.908  24.072  1.00  0.00    -0.221 NA
ATOM     11  N   UNL A   1      31.585  25.169  26.030  1.00  0.00    -0.212 NA
ATOM     12  C   UNL A   1      31.766  24.934  23.370  1.00  0.00     0.129 A 
ATOM     13  C   UNL A   1      32.128  26.178  25.286  1.00  0.00     0.087 A 
ATOM     14  C   UNL A   1      32.226  26.111  23.909  1.00  0.00     0.066 A 
BRANCH  13  15
ATOM     15  C   UNL A   1      32.590  27.344  26.057  1.00  0.00     0.001 A 
ATOM     16  C   UNL A   1      33.962  27.584  26.246  1.00  0.00     0.012 A 
ATOM     17  C   UNL A   1      31.676  28.273  26.586  1.00  0.00     0.012 A 
ATOM     18  C   UNL A   1      34.405  28.731  26.916  1.00  0.00     0.021 A 
ATOM     19  C   UNL A   1      32.116  29.420  27.253  1.00  0.00     0.021 A 
ATOM     20  C   UNL A   1      33.480  29.646  27.410  1.00  0.00     0.041 A 
ATOM     21  Cl  UNL A   1      34.020  31.064  28.219  1.00  0.00    -0.084 Cl
ENDBRANCH  13  15
BRANCH  14  22
ATOM     22  C   UNL A   1      32.833  27.097  23.027  1.00  0.00     0.190 A 
ATOM     23  N   UNL A   1      34.016  26.993  22.453  1.00  0.00    -0.108 NA
ATOM     24  N   UNL A   1      32.164  28.162  22.426  1.00  0.00    -0.193 N 
ATOM     25  N   UNL A   1      34.028  27.895  21.423  1.00  0.00    -0.023 NA
ATOM     26  N   UNL A   1      32.881  28.555  21.352  1.00  0.00    -0.040 NA
BRANCH  24  27
ATOM     27  C   UNL A   1      30.945  28.784  22.785  1.00  0.00     0.069 A 
ATOM     28  C   UNL A   1      29.732  28.215  22.376  1.00  0.00     0.028 A 
ATOM     29  C   UNL A   1      30.943  29.965  23.541  1.00  0.00     0.028 A 
ATOM     30  C   UNL A   1      28.526  28.811  22.751  1.00  0.00     0.002 A 
ATOM     31  C   UNL A   1      29.734  30.572  23.882  1.00  0.00     0.002 A 
ATOM     32  C   UNL A   1      28.529  29.993  23.490  1.00  0.00     0.000 A 
ENDBRANCH  24  27
ENDBRANCH  14  22
ENDBRANCH   7   9
ENDBRANCH   6   7
ENDBRANCH   4   6
ENDBRANCH   3   4
ENDBRANCH   2   3
ENDBRANCH   1   2
BRANCH   1  33
ATOM     33  O   UNL A   1      36.145  23.036  24.460  1.00  0.00    -0.374 OA
BRANCH  33  34
ATOM     34  C   UNL A   1      37.035  22.115  23.821  1.00  0.00     0.202 C 
BRANCH  34  35
ATOM     35  C   UNL A   1      37.517  20.959  24.698  1.00  0.00     0.261 C 
BRANCH  35  36
ATOM     36  O   UNL A   1      37.964  21.439  25.974  1.00  0.00    -0.460 OA
BRANCH  36  37
ATOM     37  C   UNL A   1      39.302  21.494  26.119  1.00  0.00     0.338 C 
ATOM     38  O   UNL A   1      40.128  20.740  25.637  1.00  0.00    -0.246 OA
BRANCH  37  39
ATOM     39  C   UNL A   1      39.652  22.693  26.892  1.00  0.00     0.060 A 
ATOM     40  C   UNL A   1      39.032  23.894  26.540  1.00  0.00     0.016 A 
ATOM     41  C   UNL A   1      40.686  22.667  27.831  1.00  0.00     0.016 A 
ATOM     42  C   UNL A   1      39.506  25.093  27.067  1.00  0.00     0.010 A 
ATOM     43  C   UNL A   1      41.153  23.873  28.369  1.00  0.00     0.010 A 
ATOM     44  C   UNL A   1      40.603  25.096  27.944  1.00  0.00    -0.014 A 
BRANCH  44  45
ATOM     45  C   UNL A   1      41.260  26.391  28.253  1.00  0.00     0.031 A 
ATOM     46  C   UNL A   1      42.642  26.661  27.723  1.00  0.00     0.074 A 
ATOM     47  C   UNL A   1      40.612  27.350  28.935  1.00  0.00     0.049 A 
ATOM     48  N   UNL A   1      43.360  27.754  27.778  1.00  0.00    -0.248 NA
ATOM     49  C   UNL A   1      43.310  25.540  27.049  1.00  0.00     0.031 C 
ATOM     50  C   UNL A   1      39.279  27.218  29.518  1.00  0.00     0.029 A 
ATOM     51  N   UNL A   1      40.991  28.634  29.238  1.00  0.00    -0.354 N 
ATOM     52  C   UNL A   1      44.567  27.447  27.162  1.00  0.00     0.074 A 
ATOM     53  C   UNL A   1      44.500  26.054  26.775  1.00  0.00     0.031 C 
ATOM     54  C   UNL A   1      38.945  28.381  30.102  1.00  0.00     0.029 A 
ATOM     55  C   UNL A   1      40.039  29.337  29.929  1.00  0.00     0.049 A 
ATOM     56  H   UNL A   1      41.863  29.013  28.983  1.00  0.00     0.167 HD
ATOM     57  C   UNL A   1      45.625  28.257  26.916  1.00  0.00     0.037 A 
ATOM     58  C   UNL A   1      40.041  30.614  30.357  1.00  0.00     0.037 A 
ATOM     59  C   UNL A   1      45.676  29.655  27.252  1.00  0.00     0.049 A 
ATOM     60  C   UNL A   1      41.202  31.513  30.027  1.00  0.00     0.074 A 
ATOM     61  C   UNL A   1      46.674  30.574  26.980  1.00  0.00     0.029 A 
ATOM     62  N   UNL A   1      44.679  30.338  27.933  1.00  0.00    -0.354 N 
ATOM     63  N   UNL A   1      42.309  31.234  29.382  1.00  0.00    -0.248 NA
ATOM     64  C   UNL A   1      41.101  32.913  30.465  1.00  0.00     0.031 C 
ATOM     65  C   UNL A   1      46.295  31.808  27.523  1.00  0.00     0.029 A 
ATOM     66  C   UNL A   1      45.045  31.664  28.101  1.00  0.00     0.049 A 
ATOM     67  H   UNL A   1      43.837  29.939  28.249  1.00  0.00     0.167 HD
ATOM     68  C   UNL A   1      43.023  32.424  29.316  1.00  0.00     0.074 A 
ATOM     69  C   UNL A   1      42.220  33.431  29.977  1.00  0.00     0.031 C 
ATOM     70  C   UNL A   1      44.236  32.659  28.757  1.00  0.00     0.037 A 
BRANCH  57  71
ATOM     71  C   UNL A   1      46.822  27.645  26.249  1.00  0.00     0.064 A 
ATOM     72  C   UNL A   1      46.974  27.658  24.854  1.00  0.00     0.173 A 
ATOM     73  C   UNL A   1      47.839  27.061  27.017  1.00  0.00     0.173 A 
ATOM     74  F   UNL A   1      46.022  28.191  24.075  1.00  0.00    -0.203 F 
ATOM     75  C   UNL A   1      48.089  27.080  24.251  1.00  0.00     0.198 A 
ATOM     76  C   UNL A   1      48.964  26.507  26.412  1.00  0.00     0.198 A 
ATOM     77  F   UNL A   1      47.742  27.027  28.354  1.00  0.00    -0.203 F 
ATOM     78  F   UNL A   1      48.189  27.058  22.915  1.00  0.00    -0.200 F 
ATOM     79  C   UNL A   1      49.084  26.509  25.030  1.00  0.00     0.200 A 
ATOM     80  F   UNL A   1      49.930  25.964  27.166  1.00  0.00    -0.200 F 
ATOM     81  F   UNL A   1      50.156  25.954  24.448  1.00  0.00    -0.200 F 
ENDBRANCH  57  71
BRANCH  58  82
ATOM     82  C   UNL A   1      38.869  31.130  31.107  1.00  0.00     0.064 A 
ATOM     83  C   UNL A   1      37.822  31.787  30.448  1.00  0.00     0.173 A 
ATOM     84  C   UNL A   1      38.768  30.954  32.493  1.00  0.00     0.173 A 
ATOM     85  F   UNL A   1      37.888  31.993  29.125  1.00  0.00    -0.203 F 
ATOM     86  C   UNL A   1      36.717  32.258  31.152  1.00  0.00     0.198 A 
ATOM     87  C   UNL A   1      37.653  31.409  33.194  1.00  0.00     0.198 A 
ATOM     88  F   UNL A   1      39.748  30.330  33.164  1.00  0.00    -0.203 F 
ATOM     89  F   UNL A   1      35.740  32.908  30.506  1.00  0.00    -0.200 F 
ATOM     90  C   UNL A   1      36.630  32.063  32.523  1.00  0.00     0.200 A 
ATOM     91  F   UNL A   1      37.570  31.210  34.516  1.00  0.00    -0.200 F 
ATOM     92  F   UNL A   1      35.563  32.509  33.199  1.00  0.00    -0.200 F 
ENDBRANCH  58  82
BRANCH  70  93
ATOM     93  C   UNL A   1      44.760  34.063  28.811  1.00  0.00     0.064 A 
ATOM     94  C   UNL A   1      44.461  34.997  27.810  1.00  0.00     0.173 A 
ATOM     95  C   UNL A   1      45.539  34.490  29.898  1.00  0.00     0.173 A 
ATOM     96  F   UNL A   1      43.730  34.633  26.745  1.00  0.00    -0.203 F 
ATOM     97  C   UNL A   1      44.942  36.301  27.880  1.00  0.00     0.198 A 
ATOM     98  C   UNL A   1      45.999  35.802  29.977  1.00  0.00     0.198 A 
ATOM     99  F   UNL A   1      45.846  33.637  30.886  1.00  0.00    -0.203 F 
ATOM    100  F   UNL A   1      44.679  37.165  26.891  1.00  0.00    -0.200 F 
ATOM    101  C   UNL A   1      45.706  36.704  28.966  1.00  0.00     0.200 A 
ATOM    102  F   UNL A   1      46.729  36.192  31.032  1.00  0.00    -0.200 F 
ATOM    103  F   UNL A   1      46.168  37.961  29.034  1.00  0.00    -0.200 F 
ENDBRANCH  70  93
ENDBRANCH  44  45
ENDBRANCH  37  39
ENDBRANCH  36  37
ENDBRANCH  35  36
ENDBRANCH  34  35
ENDBRANCH  33  34
ENDBRANCH   1  33
TORSDOF 19
ENDMDL
