MODEL 1
REMARK VINA RESULT:     -11.8      0.000      0.000
REMARK SMILES CCc1ccc2c(c1)C=C(C(=O)OCCOCCOC(=O)c1ccc(-c3c4nc(c(-c5c(F)c(F)c(F)c(F)c5F)c5ccc([nH]5)c(-c5c(F)c(F)c(F)c(F)c5F)c5nc(c(-c6c(F)c(F)c(F)c(F)c6F)c6ccc3[nH]6)C=C5)C=C4)cc1)[C@H](C(F)(F)F)O2
REMARK SMILES IDX 17 1 16 2 15 3 14 4 13 5 11 6 12 7 10 8 3 9 4 10 8 11 5 12
REMARK SMILES IDX 7 13 6 14 9 15 90 16 85 17 2 18 1 19 86 20 87 21 88 22 89 23
REMARK SMILES IDX 18 24 19 25 20 26 21 27 22 28 23 29 84 30 24 31 83 32 25 33
REMARK SMILES IDX 26 34 27 35 77 36 28 37 82 38 76 39 78 40 29 41 81 42 75 43
REMARK SMILES IDX 74 44 30 46 62 47 42 48 61 49 43 50 46 51 60 52 79 53 44 54
REMARK SMILES IDX 45 55 59 57 80 58 47 59 31 60 32 61 40 62 33 63 34 64 38 65
REMARK SMILES IDX 41 66 35 67 36 68 39 69 37 70 63 71 64 72 72 73 65 74 66 75
REMARK SMILES IDX 70 76 73 77 67 78 68 79 71 80 69 81 48 82 49 83 57 84 50 85
REMARK SMILES IDX 51 86 55 87 58 88 52 89 53 90 56 91 54 92
REMARK H PARENT 78 45 46 56
REMARK Flexibility Score: inf
ROOT
ATOM      1  C   UNL A   1      31.224  29.095  24.995  1.00  0.00     0.202 C 
ENDROOT
BRANCH   1   2
ATOM      2  O   UNL A   1      31.073  29.020  23.579  1.00  0.00    -0.374 OA
BRANCH   2   3
ATOM      3  C   UNL A   1      30.590  27.802  23.019  1.00  0.00     0.202 C 
BRANCH   3   4
ATOM      4  C   UNL A   1      29.720  26.924  23.921  1.00  0.00     0.261 C 
BRANCH   4   5
ATOM      5  O   UNL A   1      30.313  25.634  24.136  1.00  0.00    -0.460 OA
BRANCH   5   6
ATOM      6  C   UNL A   1      30.619  25.359  25.427  1.00  0.00     0.338 C 
ATOM      7  O   UNL A   1      30.104  25.855  26.415  1.00  0.00    -0.246 OA
BRANCH   6   8
ATOM      8  C   UNL A   1      31.620  24.283  25.510  1.00  0.00     0.087 C 
ATOM      9  C   UNL A   1      33.101  19.747  24.732  1.00  0.00    -0.047 A 
ATOM     10  C   UNL A   1      34.413  20.228  24.625  1.00  0.00     0.007 A 
ATOM     11  C   UNL A   1      32.067  20.664  25.008  1.00  0.00     0.015 A 
ATOM     12  C   UNL A   1      34.690  21.587  24.783  1.00  0.00     0.047 A 
ATOM     13  C   UNL A   1      32.335  22.029  25.150  1.00  0.00     0.018 A 
ATOM     14  C   UNL A   1      33.657  22.477  25.050  1.00  0.00     0.128 A 
ATOM     15  C   UNL A   1      31.260  23.016  25.252  1.00  0.00     0.027 C 
ATOM     16  O   UNL A   1      33.999  23.801  25.125  1.00  0.00    -0.475 OA
ATOM     17  C   UNL A   1      33.053  24.630  25.851  1.00  0.00     0.316 C 
BRANCH   9  18
ATOM     18  C   UNL A   1      32.733  18.294  24.521  1.00  0.00     0.032 C 
ATOM     19  C   UNL A   1      33.015  17.707  23.143  1.00  0.00     0.009 C 
ENDBRANCH   9  18
BRANCH  17  20
ATOM     20  C   UNL A   1      33.501  26.097  25.730  1.00  0.00     0.430 C 
ATOM     21  F   UNL A   1      32.956  26.855  26.711  1.00  0.00    -0.167 F 
ATOM     22  F   UNL A   1      34.847  26.188  25.897  1.00  0.00    -0.167 F 
ATOM     23  F   UNL A   1      33.213  26.648  24.535  1.00  0.00    -0.167 F 
ENDBRANCH  17  20
ENDBRANCH   6   8
ENDBRANCH   5   6
ENDBRANCH   4   5
ENDBRANCH   3   4
ENDBRANCH   2   3
ENDBRANCH   1   2
BRANCH   1  24
ATOM     24  C   UNL A   1      31.762  30.408  25.577  1.00  0.00     0.261 C 
BRANCH  24  25
ATOM     25  O   UNL A   1      32.671  30.192  26.671  1.00  0.00    -0.460 OA
BRANCH  25  26
ATOM     26  C   UNL A   1      33.247  31.314  27.164  1.00  0.00     0.338 C 
ATOM     27  O   UNL A   1      32.727  32.407  27.330  1.00  0.00    -0.246 OA
BRANCH  26  28
ATOM     28  C   UNL A   1      34.597  31.003  27.662  1.00  0.00     0.060 A 
ATOM     29  C   UNL A   1      34.904  29.663  27.932  1.00  0.00     0.016 A 
ATOM     30  C   UNL A   1      35.519  32.014  27.940  1.00  0.00     0.016 A 
ATOM     31  C   UNL A   1      36.123  29.329  28.517  1.00  0.00     0.010 A 
ATOM     32  C   UNL A   1      36.737  31.680  28.539  1.00  0.00     0.010 A 
ATOM     33  C   UNL A   1      37.030  30.341  28.858  1.00  0.00    -0.014 A 
BRANCH  33  34
ATOM     34  C   UNL A   1      38.220  30.023  29.684  1.00  0.00     0.031 A 
ATOM     35  C   UNL A   1      39.239  29.062  29.143  1.00  0.00     0.074 A 
ATOM     36  C   UNL A   1      38.388  30.583  30.893  1.00  0.00     0.049 A 
ATOM     37  N   UNL A   1      40.301  28.562  29.722  1.00  0.00    -0.248 NA
ATOM     38  C   UNL A   1      39.033  28.598  27.761  1.00  0.00     0.031 C 
ATOM     39  C   UNL A   1      37.494  31.568  31.500  1.00  0.00     0.029 A 
ATOM     40  N   UNL A   1      39.368  30.390  31.835  1.00  0.00    -0.354 N 
ATOM     41  C   UNL A   1      40.883  27.722  28.781  1.00  0.00     0.074 A 
ATOM     42  C   UNL A   1      40.043  27.757  27.602  1.00  0.00     0.031 C 
ATOM     43  C   UNL A   1      37.959  31.882  32.722  1.00  0.00     0.029 A 
ATOM     44  C   UNL A   1      39.158  31.091  32.996  1.00  0.00     0.049 A 
ATOM     45  H   UNL A   1      40.146  29.804  31.692  1.00  0.00     0.167 HD
ATOM     46  C   UNL A   1      42.020  26.995  28.889  1.00  0.00     0.037 A 
ATOM     47  C   UNL A   1      39.842  31.071  34.157  1.00  0.00     0.037 A 
ATOM     48  C   UNL A   1      42.850  26.963  30.063  1.00  0.00     0.049 A 
ATOM     49  C   UNL A   1      41.054  30.183  34.283  1.00  0.00     0.074 A 
ATOM     50  C   UNL A   1      44.024  26.260  30.273  1.00  0.00     0.029 A 
ATOM     51  N   UNL A   1      42.590  27.665  31.231  1.00  0.00    -0.354 N 
ATOM     52  N   UNL A   1      41.603  29.398  33.388  1.00  0.00    -0.248 NA
ATOM     53  C   UNL A   1      41.738  30.176  35.584  1.00  0.00     0.031 C 
ATOM     54  C   UNL A   1      44.448  26.500  31.583  1.00  0.00     0.029 A 
ATOM     55  C   UNL A   1      43.568  27.394  32.173  1.00  0.00     0.049 A 
ATOM     56  H   UNL A   1      41.822  28.266  31.370  1.00  0.00     0.167 HD
ATOM     57  C   UNL A   1      42.714  28.835  34.002  1.00  0.00     0.074 A 
ATOM     58  C   UNL A   1      42.765  29.373  35.346  1.00  0.00     0.031 C 
ATOM     59  C   UNL A   1      43.614  27.955  33.498  1.00  0.00     0.037 A 
BRANCH  46  60
ATOM     60  C   UNL A   1      42.419  26.153  27.712  1.00  0.00     0.064 A 
ATOM     61  C   UNL A   1      43.386  26.586  26.793  1.00  0.00     0.173 A 
ATOM     62  C   UNL A   1      41.855  24.882  27.525  1.00  0.00     0.173 A 
ATOM     63  F   UNL A   1      43.945  27.798  26.920  1.00  0.00    -0.203 F 
ATOM     64  C   UNL A   1      43.757  25.786  25.715  1.00  0.00     0.198 A 
ATOM     65  C   UNL A   1      42.248  24.074  26.461  1.00  0.00     0.198 A 
ATOM     66  F   UNL A   1      40.929  24.420  28.377  1.00  0.00    -0.203 F 
ATOM     67  F   UNL A   1      44.650  26.237  24.824  1.00  0.00    -0.200 F 
ATOM     68  C   UNL A   1      43.194  24.529  25.553  1.00  0.00     0.200 A 
ATOM     69  F   UNL A   1      41.712  22.855  26.315  1.00  0.00    -0.200 F 
ATOM     70  F   UNL A   1      43.557  23.757  24.520  1.00  0.00    -0.200 F 
ENDBRANCH  46  60
BRANCH  47  71
ATOM     71  C   UNL A   1      39.391  31.902  35.304  1.00  0.00     0.064 A 
ATOM     72  C   UNL A   1      38.541  31.376  36.286  1.00  0.00     0.173 A 
ATOM     73  C   UNL A   1      39.776  33.245  35.426  1.00  0.00     0.173 A 
ATOM     74  F   UNL A   1      38.123  30.104  36.199  1.00  0.00    -0.203 F 
ATOM     75  C   UNL A   1      38.077  32.168  37.336  1.00  0.00     0.198 A 
ATOM     76  C   UNL A   1      39.335  34.027  36.490  1.00  0.00     0.198 A 
ATOM     77  F   UNL A   1      40.587  33.798  34.511  1.00  0.00    -0.203 F 
ATOM     78  F   UNL A   1      37.224  31.654  38.233  1.00  0.00    -0.200 F 
ATOM     79  C   UNL A   1      38.478  33.491  37.440  1.00  0.00     0.200 A 
ATOM     80  F   UNL A   1      39.734  35.303  36.594  1.00  0.00    -0.200 F 
ATOM     81  F   UNL A   1      38.031  34.252  38.449  1.00  0.00    -0.200 F 
ENDBRANCH  47  71
BRANCH  59  82
ATOM     82  C   UNL A   1      44.761  27.554  34.381  1.00  0.00     0.064 A 
ATOM     83  C   UNL A   1      45.946  28.299  34.437  1.00  0.00     0.173 A 
ATOM     84  C   UNL A   1      44.644  26.438  35.225  1.00  0.00     0.173 A 
ATOM     85  F   UNL A   1      46.112  29.366  33.639  1.00  0.00    -0.203 F 
ATOM     86  C   UNL A   1      46.983  27.931  35.291  1.00  0.00     0.198 A 
ATOM     87  C   UNL A   1      45.670  26.089  36.099  1.00  0.00     0.198 A 
ATOM     88  F   UNL A   1      43.527  25.696  35.215  1.00  0.00    -0.203 F 
ATOM     89  F   UNL A   1      48.123  28.635  35.300  1.00  0.00    -0.200 F 
ATOM     90  C   UNL A   1      46.840  26.833  36.128  1.00  0.00     0.200 A 
ATOM     91  F   UNL A   1      45.524  25.038  36.916  1.00  0.00    -0.200 F 
ATOM     92  F   UNL A   1      47.833  26.489  36.958  1.00  0.00    -0.200 F 
ENDBRANCH  59  82
ENDBRANCH  33  34
ENDBRANCH  26  28
ENDBRANCH  25  26
ENDBRANCH  24  25
ENDBRANCH   1  24
TORSDOF 16
ENDMDL
MODEL 2
REMARK VINA RESULT:     -11.6      1.606      7.777
REMARK SMILES CCc1ccc2c(c1)C=C(C(=O)OCCOCCOC(=O)c1ccc(-c3c4nc(c(-c5c(F)c(F)c(F)c(F)c5F)c5ccc([nH]5)c(-c5c(F)c(F)c(F)c(F)c5F)c5nc(c(-c6c(F)c(F)c(F)c(F)c6F)c6ccc3[nH]6)C=C5)C=C4)cc1)[C@H](C(F)(F)F)O2
REMARK SMILES IDX 17 1 16 2 15 3 14 4 13 5 11 6 12 7 10 8 3 9 4 10 8 11 5 12
REMARK SMILES IDX 7 13 6 14 9 15 90 16 85 17 2 18 1 19 86 20 87 21 88 22 89 23
REMARK SMILES IDX 18 24 19 25 20 26 21 27 22 28 23 29 84 30 24 31 83 32 25 33
REMARK SMILES IDX 26 34 27 35 77 36 28 37 82 38 76 39 78 40 29 41 81 42 75 43
REMARK SMILES IDX 74 44 30 46 62 47 42 48 61 49 43 50 46 51 60 52 79 53 44 54
REMARK SMILES IDX 45 55 59 57 80 58 47 59 31 60 32 61 40 62 33 63 34 64 38 65
REMARK SMILES IDX 41 66 35 67 36 68 39 69 37 70 63 71 64 72 72 73 65 74 66 75
REMARK SMILES IDX 70 76 73 77 67 78 68 79 71 80 69 81 48 82 49 83 57 84 50 85
REMARK SMILES IDX 51 86 55 87 58 88 52 89 53 90 56 91 54 92
REMARK H PARENT 78 45 46 56
REMARK Flexibility Score: inf
ROOT
ATOM      1  C   UNL A   1      31.377  31.804  26.687  1.00  0.00     0.202 C 
ENDROOT
BRANCH   1   2
ATOM      2  O   UNL A   1      32.073  30.609  27.037  1.00  0.00    -0.374 OA
BRANCH   2   3
ATOM      3  C   UNL A   1      33.076  30.129  26.145  1.00  0.00     0.202 C 
BRANCH   3   4
ATOM      4  C   UNL A   1      32.638  29.096  25.104  1.00  0.00     0.261 C 
BRANCH   4   5
ATOM      5  O   UNL A   1      31.401  28.467  25.471  1.00  0.00    -0.460 OA
BRANCH   5   6
ATOM      6  C   UNL A   1      31.537  27.338  26.209  1.00  0.00     0.338 C 
ATOM      7  O   UNL A   1      31.035  27.121  27.300  1.00  0.00    -0.246 OA
BRANCH   6   8
ATOM      8  C   UNL A   1      32.313  26.324  25.478  1.00  0.00     0.087 C 
ATOM      9  C   UNL A   1      36.031  23.262  25.059  1.00  0.00    -0.047 A 
ATOM     10  C   UNL A   1      35.221  22.436  24.268  1.00  0.00     0.007 A 
ATOM     11  C   UNL A   1      35.494  24.472  25.544  1.00  0.00     0.015 A 
ATOM     12  C   UNL A   1      33.907  22.801  23.971  1.00  0.00     0.047 A 
ATOM     13  C   UNL A   1      34.172  24.834  25.264  1.00  0.00     0.018 A 
ATOM     14  C   UNL A   1      33.392  23.995  24.460  1.00  0.00     0.128 A 
ATOM     15  C   UNL A   1      33.540  25.986  25.906  1.00  0.00     0.027 C 
ATOM     16  O   UNL A   1      32.075  24.250  24.182  1.00  0.00    -0.475 OA
ATOM     17  C   UNL A   1      31.698  25.649  24.272  1.00  0.00     0.316 C 
BRANCH   9  18
ATOM     18  C   UNL A   1      37.445  22.897  25.457  1.00  0.00     0.032 C 
ATOM     19  C   UNL A   1      38.236  23.950  26.225  1.00  0.00     0.009 C 
ENDBRANCH   9  18
BRANCH  17  20
ATOM     20  C   UNL A   1      30.177  25.755  24.069  1.00  0.00     0.430 C 
ATOM     21  F   UNL A   1      29.524  25.740  25.255  1.00  0.00    -0.167 F 
ATOM     22  F   UNL A   1      29.866  26.947  23.492  1.00  0.00    -0.167 F 
ATOM     23  F   UNL A   1      29.673  24.789  23.276  1.00  0.00    -0.167 F 
ENDBRANCH  17  20
ENDBRANCH   6   8
ENDBRANCH   5   6
ENDBRANCH   4   5
ENDBRANCH   3   4
ENDBRANCH   2   3
ENDBRANCH   1   2
BRANCH   1  24
ATOM     24  C   UNL A   1      32.156  33.122  26.774  1.00  0.00     0.261 C 
BRANCH  24  25
ATOM     25  O   UNL A   1      32.825  33.282  28.038  1.00  0.00    -0.460 OA
BRANCH  25  26
ATOM     26  C   UNL A   1      33.975  33.995  27.987  1.00  0.00     0.338 C 
ATOM     27  O   UNL A   1      34.100  35.194  27.794  1.00  0.00    -0.246 OA
BRANCH  26  28
ATOM     28  C   UNL A   1      35.108  33.142  28.385  1.00  0.00     0.060 A 
ATOM     29  C   UNL A   1      34.823  31.867  28.892  1.00  0.00     0.016 A 
ATOM     30  C   UNL A   1      36.421  33.612  28.339  1.00  0.00     0.016 A 
ATOM     31  C   UNL A   1      35.848  31.069  29.393  1.00  0.00     0.010 A 
ATOM     32  C   UNL A   1      37.448  32.816  28.853  1.00  0.00     0.010 A 
ATOM     33  C   UNL A   1      37.162  31.556  29.410  1.00  0.00    -0.014 A 
BRANCH  33  34
ATOM     34  C   UNL A   1      38.217  30.817  30.145  1.00  0.00     0.031 A 
ATOM     35  C   UNL A   1      38.447  31.135  31.594  1.00  0.00     0.074 A 
ATOM     36  C   UNL A   1      38.954  29.877  29.529  1.00  0.00     0.049 A 
ATOM     37  N   UNL A   1      39.371  30.691  32.407  1.00  0.00    -0.248 NA
ATOM     38  C   UNL A   1      37.509  32.086  32.212  1.00  0.00     0.031 C 
ATOM     39  C   UNL A   1      38.786  29.446  28.143  1.00  0.00     0.029 A 
ATOM     40  N   UNL A   1      40.004  29.125  29.994  1.00  0.00    -0.354 N 
ATOM     41  C   UNL A   1      39.131  31.312  33.626  1.00  0.00     0.074 A 
ATOM     42  C   UNL A   1      37.992  32.185  33.441  1.00  0.00     0.031 C 
ATOM     43  C   UNL A   1      39.715  28.514  27.862  1.00  0.00     0.029 A 
ATOM     44  C   UNL A   1      40.563  28.314  29.037  1.00  0.00     0.049 A 
ATOM     45  H   UNL A   1      40.325  29.162  30.923  1.00  0.00     0.167 HD
ATOM     46  C   UNL A   1      39.798  31.160  34.795  1.00  0.00     0.037 A 
ATOM     47  C   UNL A   1      41.654  27.526  29.098  1.00  0.00     0.037 A 
ATOM     48  C   UNL A   1      40.930  30.291  34.972  1.00  0.00     0.049 A 
ATOM     49  C   UNL A   1      42.432  27.443  30.386  1.00  0.00     0.074 A 
ATOM     50  C   UNL A   1      41.674  30.064  36.117  1.00  0.00     0.029 A 
ATOM     51  N   UNL A   1      41.486  29.507  33.972  1.00  0.00    -0.354 N 
ATOM     52  N   UNL A   1      42.195  28.027  31.536  1.00  0.00    -0.248 NA
ATOM     53  C   UNL A   1      43.632  26.594  30.382  1.00  0.00     0.031 C 
ATOM     54  C   UNL A   1      42.708  29.178  35.798  1.00  0.00     0.029 A 
ATOM     55  C   UNL A   1      42.577  28.812  34.467  1.00  0.00     0.049 A 
ATOM     56  H   UNL A   1      41.154  29.453  33.047  1.00  0.00     0.167 HD
ATOM     57  C   UNL A   1      43.191  27.588  32.400  1.00  0.00     0.074 A 
ATOM     58  C   UNL A   1      44.033  26.684  31.642  1.00  0.00     0.031 C 
ATOM     59  C   UNL A   1      43.389  27.901  33.704  1.00  0.00     0.037 A 
BRANCH  46  60
ATOM     60  C   UNL A   1      39.332  31.970  35.969  1.00  0.00     0.064 A 
ATOM     61  C   UNL A   1      38.357  31.489  36.855  1.00  0.00     0.173 A 
ATOM     62  C   UNL A   1      39.896  33.228  36.232  1.00  0.00     0.173 A 
ATOM     63  F   UNL A   1      37.776  30.300  36.639  1.00  0.00    -0.203 F 
ATOM     64  C   UNL A   1      37.947  32.248  37.949  1.00  0.00     0.198 A 
ATOM     65  C   UNL A   1      39.504  33.971  37.342  1.00  0.00     0.198 A 
ATOM     66  F   UNL A   1      40.835  33.732  35.418  1.00  0.00    -0.203 F 
ATOM     67  F   UNL A   1      36.982  31.788  38.757  1.00  0.00    -0.200 F 
ATOM     68  C   UNL A   1      38.525  33.484  38.196  1.00  0.00     0.200 A 
ATOM     69  F   UNL A   1      40.073  35.160  37.585  1.00  0.00    -0.200 F 
ATOM     70  F   UNL A   1      38.135  34.209  39.253  1.00  0.00    -0.200 F 
ENDBRANCH  46  60
BRANCH  47  71
ATOM     71  C   UNL A   1      42.091  26.763  27.899  1.00  0.00     0.064 A 
ATOM     72  C   UNL A   1      42.998  27.315  26.984  1.00  0.00     0.173 A 
ATOM     73  C   UNL A   1      41.592  25.480  27.630  1.00  0.00     0.173 A 
ATOM     74  F   UNL A   1      43.483  28.549  27.183  1.00  0.00    -0.203 F 
ATOM     75  C   UNL A   1      43.371  26.622  25.833  1.00  0.00     0.198 A 
ATOM     76  C   UNL A   1      41.988  24.777  26.495  1.00  0.00     0.198 A 
ATOM     77  F   UNL A   1      40.720  24.907  28.473  1.00  0.00    -0.203 F 
ATOM     78  F   UNL A   1      44.200  27.194  24.948  1.00  0.00    -0.200 F 
ATOM     79  C   UNL A   1      42.870  25.351  25.593  1.00  0.00     0.200 A 
ATOM     80  F   UNL A   1      41.510  23.544  26.272  1.00  0.00    -0.200 F 
ATOM     81  F   UNL A   1      43.229  24.685  24.486  1.00  0.00    -0.200 F 
ENDBRANCH  47  71
BRANCH  59  82
ATOM     82  C   UNL A   1      44.529  27.228  34.414  1.00  0.00     0.064 A 
ATOM     83  C   UNL A   1      44.378  25.980  35.034  1.00  0.00     0.173 A 
ATOM     84  C   UNL A   1      45.802  27.818  34.422  1.00  0.00     0.173 A 
ATOM     85  F   UNL A   1      43.177  25.382  35.066  1.00  0.00    -0.203 F 
ATOM     86  C   UNL A   1      45.458  25.355  35.653  1.00  0.00     0.198 A 
ATOM     87  C   UNL A   1      46.885  27.178  35.016  1.00  0.00     0.198 A 
ATOM     88  F   UNL A   1      46.000  29.008  33.836  1.00  0.00    -0.203 F 
ATOM     89  F   UNL A   1      45.283  24.181  36.275  1.00  0.00    -0.200 F 
ATOM     90  C   UNL A   1      46.711  25.949  35.635  1.00  0.00     0.200 A 
ATOM     91  F   UNL A   1      48.098  27.746  34.985  1.00  0.00    -0.200 F 
ATOM     92  F   UNL A   1      47.751  25.340  36.221  1.00  0.00    -0.200 F 
ENDBRANCH  59  82
ENDBRANCH  33  34
ENDBRANCH  26  28
ENDBRANCH  25  26
ENDBRANCH  24  25
ENDBRANCH   1  24
TORSDOF 16
ENDMDL
MODEL 3
REMARK VINA RESULT:     -11.5      4.653     10.207
REMARK SMILES CCc1ccc2c(c1)C=C(C(=O)OCCOCCOC(=O)c1ccc(-c3c4nc(c(-c5c(F)c(F)c(F)c(F)c5F)c5ccc([nH]5)c(-c5c(F)c(F)c(F)c(F)c5F)c5nc(c(-c6c(F)c(F)c(F)c(F)c6F)c6ccc3[nH]6)C=C5)C=C4)cc1)[C@H](C(F)(F)F)O2
REMARK SMILES IDX 17 1 16 2 15 3 14 4 13 5 11 6 12 7 10 8 3 9 4 10 8 11 5 12
REMARK SMILES IDX 7 13 6 14 9 15 90 16 85 17 2 18 1 19 86 20 87 21 88 22 89 23
REMARK SMILES IDX 18 24 19 25 20 26 21 27 22 28 23 29 84 30 24 31 83 32 25 33
REMARK SMILES IDX 26 34 27 35 77 36 28 37 82 38 76 39 78 40 29 41 81 42 75 43
REMARK SMILES IDX 74 44 30 46 62 47 42 48 61 49 43 50 46 51 60 52 79 53 44 54
REMARK SMILES IDX 45 55 59 57 80 58 47 59 31 60 32 61 40 62 33 63 34 64 38 65
REMARK SMILES IDX 41 66 35 67 36 68 39 69 37 70 63 71 64 72 72 73 65 74 66 75
REMARK SMILES IDX 70 76 73 77 67 78 68 79 71 80 69 81 48 82 49 83 57 84 50 85
REMARK SMILES IDX 51 86 55 87 58 88 52 89 53 90 56 91 54 92
REMARK H PARENT 78 45 46 56
REMARK Flexibility Score: inf
ROOT
ATOM      1  C   UNL A   1      34.480  34.963  27.820  1.00  0.00     0.202 C 
ENDROOT
BRANCH   1   2
ATOM      2  O   UNL A   1      34.038  35.915  28.786  1.00  0.00    -0.374 OA
BRANCH   2   3
ATOM      3  C   UNL A   1      32.849  35.627  29.516  1.00  0.00     0.202 C 
BRANCH   3   4
ATOM      4  C   UNL A   1      32.993  35.447  31.029  1.00  0.00     0.261 C 
BRANCH   4   5
ATOM      5  O   UNL A   1      34.364  35.253  31.411  1.00  0.00    -0.460 OA
BRANCH   5   6
ATOM      6  C   UNL A   1      34.735  33.956  31.545  1.00  0.00     0.338 C 
ATOM      7  O   UNL A   1      34.026  32.978  31.376  1.00  0.00    -0.246 OA
BRANCH   6   8
ATOM      8  C   UNL A   1      36.174  33.852  31.838  1.00  0.00     0.087 C 
ATOM      9  C   UNL A   1      40.832  34.243  30.603  1.00  0.00    -0.047 A 
ATOM     10  C   UNL A   1      41.128  34.541  31.940  1.00  0.00     0.007 A 
ATOM     11  C   UNL A   1      39.494  33.970  30.253  1.00  0.00     0.015 A 
ATOM     12  C   UNL A   1      40.119  34.574  32.904  1.00  0.00     0.047 A 
ATOM     13  C   UNL A   1      38.476  34.018  31.211  1.00  0.00     0.018 A 
ATOM     14  C   UNL A   1      38.805  34.306  32.540  1.00  0.00     0.128 A 
ATOM     15  C   UNL A   1      37.065  33.921  30.837  1.00  0.00     0.027 C 
ATOM     16  O   UNL A   1      37.864  34.423  33.528  1.00  0.00    -0.475 OA
ATOM     17  C   UNL A   1      36.628  33.705  33.274  1.00  0.00     0.316 C 
BRANCH   9  18
ATOM     18  C   UNL A   1      41.874  34.242  29.505  1.00  0.00     0.032 C 
ATOM     19  C   UNL A   1      43.309  33.934  29.920  1.00  0.00     0.009 C 
ENDBRANCH   9  18
BRANCH  17  20
ATOM     20  C   UNL A   1      35.631  34.043  34.396  1.00  0.00     0.430 C 
ATOM     21  F   UNL A   1      35.190  35.319  34.289  1.00  0.00    -0.167 F 
ATOM     22  F   UNL A   1      34.525  33.259  34.288  1.00  0.00    -0.167 F 
ATOM     23  F   UNL A   1      36.131  33.852  35.632  1.00  0.00    -0.167 F 
ENDBRANCH  17  20
ENDBRANCH   6   8
ENDBRANCH   5   6
ENDBRANCH   4   5
ENDBRANCH   3   4
ENDBRANCH   2   3
ENDBRANCH   1   2
BRANCH   1  24
ATOM     24  C   UNL A   1      34.019  33.512  27.999  1.00  0.00     0.261 C 
BRANCH  24  25
ATOM     25  O   UNL A   1      35.116  32.614  28.246  1.00  0.00    -0.460 OA
BRANCH  25  26
ATOM     26  C   UNL A   1      34.818  31.300  28.114  1.00  0.00     0.338 C 
ATOM     27  O   UNL A   1      33.794  30.810  27.664  1.00  0.00    -0.246 OA
BRANCH  26  28
ATOM     28  C   UNL A   1      36.003  30.485  28.431  1.00  0.00     0.060 A 
ATOM     29  C   UNL A   1      36.008  29.778  29.641  1.00  0.00     0.016 A 
ATOM     30  C   UNL A   1      37.124  30.480  27.600  1.00  0.00     0.016 A 
ATOM     31  C   UNL A   1      37.150  29.090  30.044  1.00  0.00     0.010 A 
ATOM     32  C   UNL A   1      38.274  29.800  28.011  1.00  0.00     0.010 A 
ATOM     33  C   UNL A   1      38.302  29.130  29.248  1.00  0.00    -0.014 A 
BRANCH  33  34
ATOM     34  C   UNL A   1      39.584  28.599  29.771  1.00  0.00     0.031 A 
ATOM     35  C   UNL A   1      40.260  29.326  30.898  1.00  0.00     0.074 A 
ATOM     36  C   UNL A   1      40.132  27.489  29.251  1.00  0.00     0.049 A 
ATOM     37  N   UNL A   1      41.427  29.105  31.449  1.00  0.00    -0.248 NA
ATOM     38  C   UNL A   1      39.522  30.456  31.484  1.00  0.00     0.031 C 
ATOM     39  C   UNL A   1      39.543  26.671  28.193  1.00  0.00     0.029 A 
ATOM     40  N   UNL A   1      41.321  26.865  29.539  1.00  0.00    -0.354 N 
ATOM     41  C   UNL A   1      41.565  30.071  32.437  1.00  0.00     0.074 A 
ATOM     42  C   UNL A   1      40.377  30.897  32.394  1.00  0.00     0.031 C 
ATOM     43  C   UNL A   1      40.382  25.660  27.907  1.00  0.00     0.029 A 
ATOM     44  C   UNL A   1      41.581  25.783  28.734  1.00  0.00     0.049 A 
ATOM     45  H   UNL A   1      41.929  27.165  30.253  1.00  0.00     0.167 HD
ATOM     46  C   UNL A   1      42.588  30.247  33.306  1.00  0.00     0.037 A 
ATOM     47  C   UNL A   1      42.677  25.004  28.658  1.00  0.00     0.037 A 
ATOM     48  C   UNL A   1      43.767  29.424  33.344  1.00  0.00     0.049 A 
ATOM     49  C   UNL A   1      43.841  25.276  29.576  1.00  0.00     0.074 A 
ATOM     50  C   UNL A   1      44.860  29.517  34.188  1.00  0.00     0.029 A 
ATOM     51  N   UNL A   1      44.008  28.354  32.494  1.00  0.00    -0.354 N 
ATOM     52  N   UNL A   1      43.963  26.186  30.513  1.00  0.00    -0.248 NA
ATOM     53  C   UNL A   1      45.023  24.415  29.423  1.00  0.00     0.031 C 
ATOM     54  C   UNL A   1      45.783  28.534  33.818  1.00  0.00     0.029 A 
ATOM     55  C   UNL A   1      45.242  27.794  32.778  1.00  0.00     0.049 A 
ATOM     56  H   UNL A   1      43.394  28.041  31.792  1.00  0.00     0.167 HD
ATOM     57  C   UNL A   1      45.213  25.983  31.084  1.00  0.00     0.074 A 
ATOM     58  C   UNL A   1      45.811  24.860  30.391  1.00  0.00     0.031 C 
ATOM     59  C   UNL A   1      45.811  26.663  32.092  1.00  0.00     0.037 A 
BRANCH  46  60
ATOM     60  C   UNL A   1      42.487  31.390  34.274  1.00  0.00     0.064 A 
ATOM     61  C   UNL A   1      43.145  32.607  34.046  1.00  0.00     0.173 A 
ATOM     62  C   UNL A   1      41.691  31.278  35.424  1.00  0.00     0.173 A 
ATOM     63  F   UNL A   1      43.930  32.760  32.969  1.00  0.00    -0.203 F 
ATOM     64  C   UNL A   1      43.029  33.664  34.946  1.00  0.00     0.198 A 
ATOM     65  C   UNL A   1      41.555  32.346  36.307  1.00  0.00     0.198 A 
ATOM     66  F   UNL A   1      41.038  30.136  35.686  1.00  0.00    -0.203 F 
ATOM     67  F   UNL A   1      43.702  34.803  34.731  1.00  0.00    -0.200 F 
ATOM     68  C   UNL A   1      42.229  33.535  36.071  1.00  0.00     0.200 A 
ATOM     69  F   UNL A   1      40.771  32.223  37.388  1.00  0.00    -0.200 F 
ATOM     70  F   UNL A   1      42.111  34.555  36.933  1.00  0.00    -0.200 F 
ENDBRANCH  46  60
BRANCH  47  71
ATOM     71  C   UNL A   1      42.740  23.900  27.663  1.00  0.00     0.064 A 
ATOM     72  C   UNL A   1      42.344  22.600  28.003  1.00  0.00     0.173 A 
ATOM     73  C   UNL A   1      43.225  24.116  26.365  1.00  0.00     0.173 A 
ATOM     74  F   UNL A   1      41.899  22.338  29.242  1.00  0.00    -0.203 F 
ATOM     75  C   UNL A   1      42.448  21.553  27.089  1.00  0.00     0.198 A 
ATOM     76  C   UNL A   1      43.302  23.075  25.443  1.00  0.00     0.198 A 
ATOM     77  F   UNL A   1      43.619  25.342  25.989  1.00  0.00    -0.203 F 
ATOM     78  F   UNL A   1      42.110  20.309  27.457  1.00  0.00    -0.200 F 
ATOM     79  C   UNL A   1      42.923  21.792  25.808  1.00  0.00     0.200 A 
ATOM     80  F   UNL A   1      43.750  23.313  24.202  1.00  0.00    -0.200 F 
ATOM     81  F   UNL A   1      43.024  20.785  24.930  1.00  0.00    -0.200 F 
ENDBRANCH  47  71
BRANCH  59  82
ATOM     82  C   UNL A   1      47.161  26.184  32.547  1.00  0.00     0.064 A 
ATOM     83  C   UNL A   1      48.347  26.746  32.057  1.00  0.00     0.173 A 
ATOM     84  C   UNL A   1      47.261  25.187  33.530  1.00  0.00     0.173 A 
ATOM     85  F   UNL A   1      48.304  27.691  31.105  1.00  0.00    -0.203 F 
ATOM     86  C   UNL A   1      49.588  26.315  32.520  1.00  0.00     0.198 A 
ATOM     87  C   UNL A   1      48.501  24.778  34.012  1.00  0.00     0.198 A 
ATOM     88  F   UNL A   1      46.155  24.623  34.037  1.00  0.00    -0.203 F 
ATOM     89  F   UNL A   1      50.710  26.837  32.009  1.00  0.00    -0.200 F 
ATOM     90  C   UNL A   1      49.662  25.338  33.504  1.00  0.00     0.200 A 
ATOM     91  F   UNL A   1      48.570  23.846  34.972  1.00  0.00    -0.200 F 
ATOM     92  F   UNL A   1      50.857  24.934  33.957  1.00  0.00    -0.200 F 
ENDBRANCH  59  82
ENDBRANCH  33  34
ENDBRANCH  26  28
ENDBRANCH  25  26
ENDBRANCH  24  25
ENDBRANCH   1  24
TORSDOF 16
ENDMDL
