MODEL 1
REMARK VINA RESULT:     -11.9      0.000      0.000
REMARK SMILES Cc1ccc(S(=O)(=O)Nc2cnc(N(C)C)c(C(=O)OCCOCCOC(=O)c3ccc(-c4c5nc(c(-c6c(F)c(F)c(F)c(F)c6F)c6ccc([nH]6)c(-c6c(F)c(F)c(F)c(F)c6F)c6nc(c(-c7c(F)c(F)c(F)c(F)c7F)c7ccc4[nH]7)C=C6)C=C5)cc3)c2)c(C)c1
REMARK SMILES IDX 22 1 21 2 20 3 18 4 19 5 17 6 10 7 11 8 92 9 12 10 13 11
REMARK SMILES IDX 9 12 6 14 7 15 8 16 5 17 1 18 2 19 3 20 95 21 4 22 93 23
REMARK SMILES IDX 94 24 14 25 15 26 16 27 23 28 24 29 25 30 26 31 27 32 28 33
REMARK SMILES IDX 29 34 30 35 91 36 31 37 90 38 32 39 33 40 34 41 84 42 35 43
REMARK SMILES IDX 89 44 83 45 85 46 36 47 88 48 82 49 81 50 37 52 69 53 49 54
REMARK SMILES IDX 68 55 50 56 53 57 67 58 86 59 51 60 52 61 66 63 87 64 54 65
REMARK SMILES IDX 38 66 39 67 47 68 40 69 41 70 45 71 48 72 42 73 43 74 46 75
REMARK SMILES IDX 44 76 70 77 71 78 79 79 72 80 73 81 77 82 80 83 74 84 75 85
REMARK SMILES IDX 78 86 76 87 55 88 56 89 64 90 57 91 58 92 62 93 65 94 59 95
REMARK SMILES IDX 60 96 63 97 61 98
REMARK H PARENT 9 13 85 51 53 62
REMARK Flexibility Score: inf
ROOT
ATOM      1  C   UNL A   1      32.509  29.147  26.445  1.00  0.00     0.202 C 
ENDROOT
BRANCH   1   2
ATOM      2  C   UNL A   1      33.273  29.317  25.129  1.00  0.00     0.261 C 
BRANCH   2   3
ATOM      3  O   UNL A   1      33.011  28.237  24.230  1.00  0.00    -0.460 OA
BRANCH   3   4
ATOM      4  C   UNL A   1      32.174  28.545  23.208  1.00  0.00     0.342 C 
ATOM      5  O   UNL A   1      32.380  29.348  22.315  1.00  0.00    -0.246 OA
BRANCH   4   6
ATOM      6  C   UNL A   1      30.951  27.733  23.331  1.00  0.00     0.104 A 
ATOM      7  C   UNL A   1      30.131  25.669  24.248  1.00  0.00     0.068 A 
ATOM      8  C   UNL A   1      28.868  26.216  24.113  1.00  0.00     0.140 A 
ATOM      9  C   UNL A   1      31.173  26.384  23.696  1.00  0.00     0.048 A 
ATOM     10  N   UNL A   1      28.624  27.447  23.614  1.00  0.00    -0.236 NA
ATOM     11  C   UNL A   1      29.652  28.272  23.283  1.00  0.00     0.142 A 
BRANCH   7  12
ATOM     12  N   UNL A   1      30.266  24.522  25.075  1.00  0.00    -0.278 N 
ATOM     13  H   UNL A   1      29.689  23.756  24.856  1.00  0.00     0.180 HD
BRANCH  12  14
ATOM     14  S   UNL A   1      31.295  24.320  26.380  1.00  0.00     0.262 S 
ATOM     15  O   UNL A   1      30.678  23.323  27.231  1.00  0.00    -0.201 OA
ATOM     16  O   UNL A   1      31.544  25.665  26.856  1.00  0.00    -0.201 OA
BRANCH  14  17
ATOM     17  C   UNL A   1      32.881  23.660  25.865  1.00  0.00     0.090 A 
ATOM     18  C   UNL A   1      36.285  23.000  23.318  1.00  0.00     0.044 C 
ATOM     19  C   UNL A   1      35.140  23.166  24.273  1.00  0.00    -0.051 A 
ATOM     20  C   UNL A   1      35.187  24.121  25.291  1.00  0.00     0.005 A 
ATOM     21  C   UNL A   1      34.024  22.331  24.192  1.00  0.00     0.008 A 
ATOM     22  C   UNL A   1      34.070  24.352  26.103  1.00  0.00     0.023 A 
ATOM     23  C   UNL A   1      32.891  22.552  24.995  1.00  0.00    -0.030 A 
ATOM     24  C   UNL A   1      31.794  21.525  24.943  1.00  0.00     0.046 C 
ENDBRANCH  14  17
ENDBRANCH  12  14
ENDBRANCH   7  12
BRANCH  11  25
ATOM     25  N   UNL A   1      29.273  29.548  22.920  1.00  0.00    -0.362 N 
ATOM     26  C   UNL A   1      28.622  29.745  21.622  1.00  0.00     0.145 C 
ATOM     27  C   UNL A   1      29.404  30.757  23.718  1.00  0.00     0.145 C 
ENDBRANCH  11  25
ENDBRANCH   4   6
ENDBRANCH   3   4
ENDBRANCH   2   3
ENDBRANCH   1   2
BRANCH   1  28
ATOM     28  O   UNL A   1      32.153  30.307  27.191  1.00  0.00    -0.374 OA
BRANCH  28  29
ATOM     29  C   UNL A   1      31.532  31.407  26.528  1.00  0.00     0.202 C 
BRANCH  29  30
ATOM     30  C   UNL A   1      31.781  32.844  27.002  1.00  0.00     0.261 C 
BRANCH  30  31
ATOM     31  O   UNL A   1      33.157  33.237  26.985  1.00  0.00    -0.460 OA
BRANCH  31  32
ATOM     32  C   UNL A   1      33.631  33.602  28.200  1.00  0.00     0.338 C 
ATOM     33  O   UNL A   1      33.061  34.264  29.053  1.00  0.00    -0.246 OA
BRANCH  32  34
ATOM     34  C   UNL A   1      34.908  32.923  28.467  1.00  0.00     0.060 A 
ATOM     35  C   UNL A   1      34.839  31.613  28.955  1.00  0.00     0.016 A 
ATOM     36  C   UNL A   1      36.132  33.581  28.340  1.00  0.00     0.016 A 
ATOM     37  C   UNL A   1      35.994  30.974  29.380  1.00  0.00     0.010 A 
ATOM     38  C   UNL A   1      37.294  32.939  28.777  1.00  0.00     0.010 A 
ATOM     39  C   UNL A   1      37.219  31.652  29.338  1.00  0.00    -0.014 A 
BRANCH  39  40
ATOM     40  C   UNL A   1      38.374  31.042  30.030  1.00  0.00     0.031 A 
ATOM     41  C   UNL A   1      38.618  31.369  31.474  1.00  0.00     0.074 A 
ATOM     42  C   UNL A   1      39.130  30.131  29.396  1.00  0.00     0.049 A 
ATOM     43  N   UNL A   1      39.496  30.865  32.304  1.00  0.00    -0.248 NA
ATOM     44  C   UNL A   1      37.754  32.403  32.065  1.00  0.00     0.031 C 
ATOM     45  C   UNL A   1      38.963  29.729  28.002  1.00  0.00     0.029 A 
ATOM     46  N   UNL A   1      40.175  29.371  29.848  1.00  0.00    -0.354 N 
ATOM     47  C   UNL A   1      39.285  31.514  33.514  1.00  0.00     0.074 A 
ATOM     48  C   UNL A   1      38.231  32.482  33.298  1.00  0.00     0.031 C 
ATOM     49  C   UNL A   1      39.877  28.789  27.709  1.00  0.00     0.029 A 
ATOM     50  C   UNL A   1      40.700  28.541  28.892  1.00  0.00     0.049 A 
ATOM     51  H   UNL A   1      40.518  29.417  30.771  1.00  0.00     0.167 HD
ATOM     52  C   UNL A   1      39.906  31.309  34.700  1.00  0.00     0.037 A 
ATOM     53  C   UNL A   1      41.732  27.681  28.965  1.00  0.00     0.037 A 
ATOM     54  C   UNL A   1      40.967  30.354  34.896  1.00  0.00     0.049 A 
ATOM     55  C   UNL A   1      42.434  27.494  30.282  1.00  0.00     0.074 A 
ATOM     56  C   UNL A   1      41.663  30.059  36.054  1.00  0.00     0.029 A 
ATOM     57  N   UNL A   1      41.495  29.548  33.896  1.00  0.00    -0.354 N 
ATOM     58  N   UNL A   1      42.206  28.081  31.433  1.00  0.00    -0.248 NA
ATOM     59  C   UNL A   1      43.522  26.508  30.315  1.00  0.00     0.031 C 
ATOM     60  C   UNL A   1      42.651  29.116  35.741  1.00  0.00     0.029 A 
ATOM     61  C   UNL A   1      42.526  28.772  34.404  1.00  0.00     0.049 A 
ATOM     62  H   UNL A   1      41.184  29.530  32.962  1.00  0.00     0.167 HD
ATOM     63  C   UNL A   1      43.105  27.525  32.333  1.00  0.00     0.074 A 
ATOM     64  C   UNL A   1      43.868  26.537  31.595  1.00  0.00     0.031 C 
ATOM     65  C   UNL A   1      43.283  27.803  33.650  1.00  0.00     0.037 A 
BRANCH  52  66
ATOM     66  C   UNL A   1      39.470  32.162  35.859  1.00  0.00     0.064 A 
ATOM     67  C   UNL A   1      38.464  31.747  36.748  1.00  0.00     0.173 A 
ATOM     68  C   UNL A   1      40.057  33.416  36.078  1.00  0.00     0.173 A 
ATOM     69  F   UNL A   1      37.857  30.562  36.577  1.00  0.00    -0.203 F 
ATOM     70  C   UNL A   1      38.033  32.575  37.782  1.00  0.00     0.198 A 
ATOM     71  C   UNL A   1      39.648  34.227  37.135  1.00  0.00     0.198 A 
ATOM     72  F   UNL A   1      41.025  33.862  35.264  1.00  0.00    -0.203 F 
ATOM     73  F   UNL A   1      37.024  32.186  38.575  1.00  0.00    -0.200 F 
ATOM     74  C   UNL A   1      38.629  33.812  37.977  1.00  0.00     0.200 A 
ATOM     75  F   UNL A   1      40.233  35.416  37.330  1.00  0.00    -0.200 F 
ATOM     76  F   UNL A   1      38.211  34.609  38.970  1.00  0.00    -0.200 F 
ENDBRANCH  52  66
BRANCH  53  77
ATOM     77  C   UNL A   1      42.140  26.931  27.750  1.00  0.00     0.064 A 
ATOM     78  C   UNL A   1      43.089  27.444  26.859  1.00  0.00     0.173 A 
ATOM     79  C   UNL A   1      41.612  25.658  27.482  1.00  0.00     0.173 A 
ATOM     80  F   UNL A   1      43.610  28.663  27.063  1.00  0.00    -0.203 F 
ATOM     81  C   UNL A   1      43.491  26.716  25.740  1.00  0.00     0.198 A 
ATOM     82  C   UNL A   1      42.035  24.921  26.380  1.00  0.00     0.198 A 
ATOM     83  F   UNL A   1      40.704  25.120  28.310  1.00  0.00    -0.203 F 
ATOM     84  F   UNL A   1      44.380  27.242  24.886  1.00  0.00    -0.200 F 
ATOM     85  C   UNL A   1      42.972  25.452  25.507  1.00  0.00     0.200 A 
ATOM     86  F   UNL A   1      41.545  23.691  26.171  1.00  0.00    -0.200 F 
ATOM     87  F   UNL A   1      43.373  24.745  24.441  1.00  0.00    -0.200 F 
ENDBRANCH  53  77
BRANCH  65  88
ATOM     88  C   UNL A   1      44.327  27.004  34.379  1.00  0.00     0.064 A 
ATOM     89  C   UNL A   1      45.651  27.453  34.502  1.00  0.00     0.173 A 
ATOM     90  C   UNL A   1      43.994  25.777  34.973  1.00  0.00     0.173 A 
ATOM     91  F   UNL A   1      46.026  28.613  33.942  1.00  0.00    -0.203 F 
ATOM     92  C   UNL A   1      46.612  26.682  35.153  1.00  0.00     0.198 A 
ATOM     93  C   UNL A   1      44.949  25.026  35.655  1.00  0.00     0.198 A 
ATOM     94  F   UNL A   1      42.741  25.306  34.895  1.00  0.00    -0.203 F 
ATOM     95  F   UNL A   1      47.885  27.099  35.198  1.00  0.00    -0.200 F 
ATOM     96  C   UNL A   1      46.258  25.473  35.733  1.00  0.00     0.200 A 
ATOM     97  F   UNL A   1      44.601  23.866  36.228  1.00  0.00    -0.200 F 
ATOM     98  F   UNL A   1      47.184  24.732  36.357  1.00  0.00    -0.200 F 
ENDBRANCH  65  88
ENDBRANCH  39  40
ENDBRANCH  32  34
ENDBRANCH  31  32
ENDBRANCH  30  31
ENDBRANCH  29  30
ENDBRANCH  28  29
ENDBRANCH   1  28
TORSDOF 18
ENDMDL
MODEL 2
REMARK VINA RESULT:     -11.8      0.303      1.608
REMARK SMILES Cc1ccc(S(=O)(=O)Nc2cnc(N(C)C)c(C(=O)OCCOCCOC(=O)c3ccc(-c4c5nc(c(-c6c(F)c(F)c(F)c(F)c6F)c6ccc([nH]6)c(-c6c(F)c(F)c(F)c(F)c6F)c6nc(c(-c7c(F)c(F)c(F)c(F)c7F)c7ccc4[nH]7)C=C6)C=C5)cc3)c2)c(C)c1
REMARK SMILES IDX 22 1 21 2 20 3 18 4 19 5 17 6 10 7 11 8 92 9 12 10 13 11
REMARK SMILES IDX 9 12 6 14 7 15 8 16 5 17 1 18 2 19 3 20 95 21 4 22 93 23
REMARK SMILES IDX 94 24 14 25 15 26 16 27 23 28 24 29 25 30 26 31 27 32 28 33
REMARK SMILES IDX 29 34 30 35 91 36 31 37 90 38 32 39 33 40 34 41 84 42 35 43
REMARK SMILES IDX 89 44 83 45 85 46 36 47 88 48 82 49 81 50 37 52 69 53 49 54
REMARK SMILES IDX 68 55 50 56 53 57 67 58 86 59 51 60 52 61 66 63 87 64 54 65
REMARK SMILES IDX 38 66 39 67 47 68 40 69 41 70 45 71 48 72 42 73 43 74 46 75
REMARK SMILES IDX 44 76 70 77 71 78 79 79 72 80 73 81 77 82 80 83 74 84 75 85
REMARK SMILES IDX 78 86 76 87 55 88 56 89 64 90 57 91 58 92 62 93 65 94 59 95
REMARK SMILES IDX 60 96 63 97 61 98
REMARK H PARENT 9 13 85 51 53 62
REMARK Flexibility Score: inf
ROOT
ATOM      1  C   UNL A   1      32.887  29.272  25.941  1.00  0.00     0.202 C 
ENDROOT
BRANCH   1   2
ATOM      2  C   UNL A   1      33.894  28.805  24.885  1.00  0.00     0.261 C 
BRANCH   2   3
ATOM      3  O   UNL A   1      33.324  27.823  24.019  1.00  0.00    -0.460 OA
BRANCH   3   4
ATOM      4  C   UNL A   1      32.440  28.314  23.114  1.00  0.00     0.342 C 
ATOM      5  O   UNL A   1      32.649  29.192  22.296  1.00  0.00    -0.246 OA
BRANCH   4   6
ATOM      6  C   UNL A   1      31.161  27.600  23.260  1.00  0.00     0.104 A 
ATOM      7  C   UNL A   1      30.190  25.627  24.231  1.00  0.00     0.068 A 
ATOM      8  C   UNL A   1      28.972  26.264  24.085  1.00  0.00     0.140 A 
ATOM      9  C   UNL A   1      31.281  26.247  23.659  1.00  0.00     0.048 A 
ATOM     10  N   UNL A   1      28.820  27.497  23.555  1.00  0.00    -0.236 NA
ATOM     11  C   UNL A   1      29.905  28.234  23.202  1.00  0.00     0.142 A 
BRANCH   7  12
ATOM     12  N   UNL A   1      30.243  24.494  25.086  1.00  0.00    -0.278 N 
ATOM     13  H   UNL A   1      29.623  23.760  24.874  1.00  0.00     0.180 HD
BRANCH  12  14
ATOM     14  S   UNL A   1      31.237  24.261  26.412  1.00  0.00     0.262 S 
ATOM     15  O   UNL A   1      30.610  23.228  27.212  1.00  0.00    -0.201 OA
ATOM     16  O   UNL A   1      31.455  25.591  26.939  1.00  0.00    -0.201 OA
BRANCH  14  17
ATOM     17  C   UNL A   1      32.845  23.636  25.920  1.00  0.00     0.090 A 
ATOM     18  C   UNL A   1      36.252  22.964  23.381  1.00  0.00     0.044 C 
ATOM     19  C   UNL A   1      35.109  23.140  24.337  1.00  0.00    -0.051 A 
ATOM     20  C   UNL A   1      35.125  24.157  25.295  1.00  0.00     0.005 A 
ATOM     21  C   UNL A   1      34.028  22.256  24.319  1.00  0.00     0.008 A 
ATOM     22  C   UNL A   1      34.006  24.390  26.103  1.00  0.00     0.023 A 
ATOM     23  C   UNL A   1      32.894  22.479  25.119  1.00  0.00    -0.030 A 
ATOM     24  C   UNL A   1      31.840  21.406  25.141  1.00  0.00     0.046 C 
ENDBRANCH  14  17
ENDBRANCH  12  14
ENDBRANCH   7  12
BRANCH  11  25
ATOM     25  N   UNL A   1      29.622  29.525  22.808  1.00  0.00    -0.362 N 
ATOM     26  C   UNL A   1      29.578  30.577  23.827  1.00  0.00     0.145 C 
ATOM     27  C   UNL A   1      29.400  29.994  21.448  1.00  0.00     0.145 C 
ENDBRANCH  11  25
ENDBRANCH   4   6
ENDBRANCH   3   4
ENDBRANCH   2   3
ENDBRANCH   1   2
BRANCH   1  28
ATOM     28  O   UNL A   1      32.958  30.613  26.418  1.00  0.00    -0.374 OA
BRANCH  28  29
ATOM     29  C   UNL A   1      31.758  31.300  26.767  1.00  0.00     0.202 C 
BRANCH  29  30
ATOM     30  C   UNL A   1      31.765  32.816  26.992  1.00  0.00     0.261 C 
BRANCH  30  31
ATOM     31  O   UNL A   1      33.073  33.399  27.019  1.00  0.00    -0.460 OA
BRANCH  31  32
ATOM     32  C   UNL A   1      33.504  33.702  28.266  1.00  0.00     0.338 C 
ATOM     33  O   UNL A   1      32.904  34.316  29.133  1.00  0.00    -0.246 OA
BRANCH  32  34
ATOM     34  C   UNL A   1      34.776  33.015  28.539  1.00  0.00     0.060 A 
ATOM     35  C   UNL A   1      34.697  31.738  29.106  1.00  0.00     0.016 A 
ATOM     36  C   UNL A   1      36.007  33.640  28.341  1.00  0.00     0.016 A 
ATOM     37  C   UNL A   1      35.852  31.103  29.537  1.00  0.00     0.010 A 
ATOM     38  C   UNL A   1      37.170  33.003  28.783  1.00  0.00     0.010 A 
ATOM     39  C   UNL A   1      37.087  31.753  29.422  1.00  0.00    -0.014 A 
BRANCH  39  40
ATOM     40  C   UNL A   1      38.250  31.162  30.118  1.00  0.00     0.031 A 
ATOM     41  C   UNL A   1      38.506  31.525  31.552  1.00  0.00     0.074 A 
ATOM     42  C   UNL A   1      39.002  30.238  29.500  1.00  0.00     0.049 A 
ATOM     43  N   UNL A   1      39.392  31.043  32.386  1.00  0.00    -0.248 NA
ATOM     44  C   UNL A   1      37.645  32.571  32.125  1.00  0.00     0.031 C 
ATOM     45  C   UNL A   1      38.824  29.802  28.117  1.00  0.00     0.029 A 
ATOM     46  N   UNL A   1      40.053  29.492  29.961  1.00  0.00    -0.354 N 
ATOM     47  C   UNL A   1      39.190  31.720  33.582  1.00  0.00     0.074 A 
ATOM     48  C   UNL A   1      38.132  32.680  33.352  1.00  0.00     0.031 C 
ATOM     49  C   UNL A   1      39.738  28.857  27.839  1.00  0.00     0.029 A 
ATOM     50  C   UNL A   1      40.572  28.640  29.020  1.00  0.00     0.049 A 
ATOM     51  H   UNL A   1      40.404  29.561  30.879  1.00  0.00     0.167 HD
ATOM     52  C   UNL A   1      39.822  31.545  34.767  1.00  0.00     0.037 A 
ATOM     53  C   UNL A   1      41.606  27.784  29.105  1.00  0.00     0.037 A 
ATOM     54  C   UNL A   1      40.887  30.598  34.976  1.00  0.00     0.049 A 
ATOM     55  C   UNL A   1      42.321  27.631  30.420  1.00  0.00     0.074 A 
ATOM     56  C   UNL A   1      41.595  30.332  36.135  1.00  0.00     0.029 A 
ATOM     57  N   UNL A   1      41.409  29.769  33.991  1.00  0.00    -0.354 N 
ATOM     58  N   UNL A   1      42.102  28.245  31.558  1.00  0.00    -0.248 NA
ATOM     59  C   UNL A   1      43.411  26.648  30.467  1.00  0.00     0.031 C 
ATOM     60  C   UNL A   1      42.581  29.384  35.836  1.00  0.00     0.029 A 
ATOM     61  C   UNL A   1      42.446  29.008  34.508  1.00  0.00     0.049 A 
ATOM     62  H   UNL A   1      41.089  29.727  33.061  1.00  0.00     0.167 HD
ATOM     63  C   UNL A   1      43.010  27.712  32.463  1.00  0.00     0.074 A 
ATOM     64  C   UNL A   1      43.768  26.709  31.743  1.00  0.00     0.031 C 
ATOM     65  C   UNL A   1      43.199  28.022  33.771  1.00  0.00     0.037 A 
BRANCH  52  66
ATOM     66  C   UNL A   1      39.394  32.425  35.909  1.00  0.00     0.064 A 
ATOM     67  C   UNL A   1      39.958  33.693  36.119  1.00  0.00     0.173 A 
ATOM     68  C   UNL A   1      38.416  31.988  36.814  1.00  0.00     0.173 A 
ATOM     69  F   UNL A   1      40.910  34.156  35.293  1.00  0.00    -0.203 F 
ATOM     70  C   UNL A   1      39.591  34.471  37.216  1.00  0.00     0.198 A 
ATOM     71  C   UNL A   1      38.025  32.783  37.889  1.00  0.00     0.198 A 
ATOM     72  F   UNL A   1      37.839  30.787  36.660  1.00  0.00    -0.203 F 
ATOM     73  F   UNL A   1      40.193  35.649  37.433  1.00  0.00    -0.200 F 
ATOM     74  C   UNL A   1      38.621  34.016  38.096  1.00  0.00     0.200 A 
ATOM     75  F   UNL A   1      37.079  32.348  38.732  1.00  0.00    -0.200 F 
ATOM     76  F   UNL A   1      38.271  34.763  39.153  1.00  0.00    -0.200 F 
ENDBRANCH  52  66
BRANCH  53  77
ATOM     77  C   UNL A   1      42.006  27.006  27.905  1.00  0.00     0.064 A 
ATOM     78  C   UNL A   1      41.464  25.742  27.640  1.00  0.00     0.173 A 
ATOM     79  C   UNL A   1      42.913  27.536  26.974  1.00  0.00     0.173 A 
ATOM     80  F   UNL A   1      40.606  25.185  28.508  1.00  0.00    -0.203 F 
ATOM     81  C   UNL A   1      41.819  25.035  26.493  1.00  0.00     0.198 A 
ATOM     82  C   UNL A   1      43.244  26.841  25.815  1.00  0.00     0.198 A 
ATOM     83  F   UNL A   1      43.455  28.746  27.180  1.00  0.00    -0.203 F 
ATOM     84  F   UNL A   1      41.308  23.815  26.276  1.00  0.00    -0.200 F 
ATOM     85  C   UNL A   1      42.700  25.589  25.576  1.00  0.00     0.200 A 
ATOM     86  F   UNL A   1      44.081  27.390  24.923  1.00  0.00    -0.200 F 
ATOM     87  F   UNL A   1      43.026  24.916  24.464  1.00  0.00    -0.200 F 
ENDBRANCH  53  77
BRANCH  65  88
ATOM     88  C   UNL A   1      44.251  27.244  34.510  1.00  0.00     0.064 A 
ATOM     89  C   UNL A   1      45.571  27.706  34.625  1.00  0.00     0.173 A 
ATOM     90  C   UNL A   1      43.930  26.022  35.122  1.00  0.00     0.173 A 
ATOM     91  F   UNL A   1      45.934  28.862  34.048  1.00  0.00    -0.203 F 
ATOM     92  C   UNL A   1      46.540  26.954  35.285  1.00  0.00     0.198 A 
ATOM     93  C   UNL A   1      44.893  25.290  35.813  1.00  0.00     0.198 A 
ATOM     94  F   UNL A   1      42.681  25.538  35.053  1.00  0.00    -0.203 F 
ATOM     95  F   UNL A   1      47.809  27.383  35.322  1.00  0.00    -0.200 F 
ATOM     96  C   UNL A   1      46.198  25.751  35.883  1.00  0.00     0.200 A 
ATOM     97  F   UNL A   1      44.557  24.135  36.403  1.00  0.00    -0.200 F 
ATOM     98  F   UNL A   1      47.132  25.026  36.516  1.00  0.00    -0.200 F 
ENDBRANCH  65  88
ENDBRANCH  39  40
ENDBRANCH  32  34
ENDBRANCH  31  32
ENDBRANCH  30  31
ENDBRANCH  29  30
ENDBRANCH  28  29
ENDBRANCH   1  28
TORSDOF 18
ENDMDL
MODEL 3
REMARK VINA RESULT:     -11.7      1.685      4.173
REMARK SMILES Cc1ccc(S(=O)(=O)Nc2cnc(N(C)C)c(C(=O)OCCOCCOC(=O)c3ccc(-c4c5nc(c(-c6c(F)c(F)c(F)c(F)c6F)c6ccc([nH]6)c(-c6c(F)c(F)c(F)c(F)c6F)c6nc(c(-c7c(F)c(F)c(F)c(F)c7F)c7ccc4[nH]7)C=C6)C=C5)cc3)c2)c(C)c1
REMARK SMILES IDX 22 1 21 2 20 3 18 4 19 5 17 6 10 7 11 8 92 9 12 10 13 11
REMARK SMILES IDX 9 12 6 14 7 15 8 16 5 17 1 18 2 19 3 20 95 21 4 22 93 23
REMARK SMILES IDX 94 24 14 25 15 26 16 27 23 28 24 29 25 30 26 31 27 32 28 33
REMARK SMILES IDX 29 34 30 35 91 36 31 37 90 38 32 39 33 40 34 41 84 42 35 43
REMARK SMILES IDX 89 44 83 45 85 46 36 47 88 48 82 49 81 50 37 52 69 53 49 54
REMARK SMILES IDX 68 55 50 56 53 57 67 58 86 59 51 60 52 61 66 63 87 64 54 65
REMARK SMILES IDX 38 66 39 67 47 68 40 69 41 70 45 71 48 72 42 73 43 74 46 75
REMARK SMILES IDX 44 76 70 77 71 78 79 79 72 80 73 81 77 82 80 83 74 84 75 85
REMARK SMILES IDX 78 86 76 87 55 88 56 89 64 90 57 91 58 92 62 93 65 94 59 95
REMARK SMILES IDX 60 96 63 97 61 98
REMARK H PARENT 9 13 85 51 53 62
REMARK Flexibility Score: inf
ROOT
ATOM      1  C   UNL A   1      31.566  26.307  26.548  1.00  0.00     0.202 C 
ENDROOT
BRANCH   1   2
ATOM      2  C   UNL A   1      30.651  25.094  26.353  1.00  0.00     0.261 C 
BRANCH   2   3
ATOM      3  O   UNL A   1      31.315  23.878  26.702  1.00  0.00    -0.460 OA
BRANCH   3   4
ATOM      4  C   UNL A   1      30.809  22.769  26.108  1.00  0.00     0.342 C 
ATOM      5  O   UNL A   1      29.853  22.114  26.484  1.00  0.00    -0.246 OA
BRANCH   4   6
ATOM      6  C   UNL A   1      31.598  22.471  24.901  1.00  0.00     0.104 A 
ATOM      7  C   UNL A   1      32.250  23.403  22.784  1.00  0.00     0.068 A 
ATOM      8  C   UNL A   1      33.257  22.455  22.779  1.00  0.00     0.140 A 
ATOM      9  C   UNL A   1      31.312  23.298  23.789  1.00  0.00     0.048 A 
ATOM     10  N   UNL A   1      33.449  21.548  23.761  1.00  0.00    -0.236 NA
ATOM     11  C   UNL A   1      32.685  21.575  24.883  1.00  0.00     0.142 A 
BRANCH   7  12
ATOM     12  N   UNL A   1      32.359  24.485  21.870  1.00  0.00    -0.278 N 
ATOM     13  H   UNL A   1      31.998  24.331  20.968  1.00  0.00     0.180 HD
BRANCH  12  14
ATOM     14  S   UNL A   1      33.031  25.992  22.148  1.00  0.00     0.262 S 
ATOM     15  O   UNL A   1      33.368  26.532  20.847  1.00  0.00    -0.201 OA
ATOM     16  O   UNL A   1      34.049  25.756  23.150  1.00  0.00    -0.201 OA
BRANCH  14  17
ATOM     17  C   UNL A   1      31.839  27.112  22.886  1.00  0.00     0.090 A 
ATOM     18  C   UNL A   1      28.809  30.161  23.051  1.00  0.00     0.044 C 
ATOM     19  C   UNL A   1      29.862  29.094  23.095  1.00  0.00    -0.051 A 
ATOM     20  C   UNL A   1      29.513  27.742  23.118  1.00  0.00     0.005 A 
ATOM     21  C   UNL A   1      31.214  29.436  23.165  1.00  0.00     0.008 A 
ATOM     22  C   UNL A   1      30.499  26.751  23.039  1.00  0.00     0.023 A 
ATOM     23  C   UNL A   1      32.217  28.455  23.081  1.00  0.00    -0.030 A 
ATOM     24  C   UNL A   1      33.638  28.895  23.305  1.00  0.00     0.046 C 
ENDBRANCH  14  17
ENDBRANCH  12  14
ENDBRANCH   7  12
BRANCH  11  25
ATOM     25  N   UNL A   1      33.073  20.689  25.867  1.00  0.00    -0.362 N 
ATOM     26  C   UNL A   1      33.772  21.210  27.045  1.00  0.00     0.145 C 
ATOM     27  C   UNL A   1      32.821  19.257  25.900  1.00  0.00     0.145 C 
ENDBRANCH  11  25
ENDBRANCH   4   6
ENDBRANCH   3   4
ENDBRANCH   2   3
ENDBRANCH   1   2
BRANCH   1  28
ATOM     28  O   UNL A   1      31.038  27.478  27.165  1.00  0.00    -0.374 OA
BRANCH  28  29
ATOM     29  C   UNL A   1      31.925  28.516  27.579  1.00  0.00     0.202 C 
BRANCH  29  30
ATOM     30  C   UNL A   1      31.890  29.888  26.897  1.00  0.00     0.261 C 
BRANCH  30  31
ATOM     31  O   UNL A   1      33.175  30.378  26.498  1.00  0.00    -0.460 OA
BRANCH  31  32
ATOM     32  C   UNL A   1      33.646  31.371  27.288  1.00  0.00     0.338 C 
ATOM     33  O   UNL A   1      33.017  32.299  27.772  1.00  0.00    -0.246 OA
BRANCH  32  34
ATOM     34  C   UNL A   1      35.039  31.094  27.668  1.00  0.00     0.060 A 
ATOM     35  C   UNL A   1      35.412  29.750  27.772  1.00  0.00     0.016 A 
ATOM     36  C   UNL A   1      35.926  32.116  28.010  1.00  0.00     0.016 A 
ATOM     37  C   UNL A   1      36.658  29.417  28.281  1.00  0.00     0.010 A 
ATOM     38  C   UNL A   1      37.178  31.780  28.531  1.00  0.00     0.010 A 
ATOM     39  C   UNL A   1      37.527  30.430  28.708  1.00  0.00    -0.014 A 
BRANCH  39  40
ATOM     40  C   UNL A   1      38.728  30.036  29.475  1.00  0.00     0.031 A 
ATOM     41  C   UNL A   1      38.898  30.540  30.878  1.00  0.00     0.074 A 
ATOM     42  C   UNL A   1      39.599  29.158  28.952  1.00  0.00     0.049 A 
ATOM     43  N   UNL A   1      39.808  30.234  31.768  1.00  0.00    -0.248 NA
ATOM     44  C   UNL A   1      37.907  31.523  31.344  1.00  0.00     0.031 C 
ATOM     45  C   UNL A   1      39.512  28.593  27.607  1.00  0.00     0.029 A 
ATOM     46  N   UNL A   1      40.714  28.578  29.495  1.00  0.00    -0.354 N 
ATOM     47  C   UNL A   1      39.495  30.977  32.898  1.00  0.00     0.074 A 
ATOM     48  C   UNL A   1      38.342  31.787  32.567  1.00  0.00     0.031 C 
ATOM     49  C   UNL A   1      40.536  27.741  27.429  1.00  0.00     0.029 A 
ATOM     50  C   UNL A   1      41.354  27.718  28.640  1.00  0.00     0.049 A 
ATOM     51  H   UNL A   1      41.026  28.761  30.411  1.00  0.00     0.167 HD
ATOM     52  C   UNL A   1      40.107  30.973  34.106  1.00  0.00     0.037 A 
ATOM     53  C   UNL A   1      42.476  26.998  28.818  1.00  0.00     0.037 A 
ATOM     54  C   UNL A   1      41.266  30.176  34.416  1.00  0.00     0.049 A 
ATOM     55  C   UNL A   1      43.164  27.036  30.155  1.00  0.00     0.074 A 
ATOM     56  C   UNL A   1      41.964  30.089  35.607  1.00  0.00     0.029 A 
ATOM     57  N   UNL A   1      41.908  29.336  33.515  1.00  0.00    -0.354 N 
ATOM     58  N   UNL A   1      42.842  27.710  31.233  1.00  0.00    -0.248 NA
ATOM     59  C   UNL A   1      44.356  26.193  30.307  1.00  0.00     0.031 C 
ATOM     60  C   UNL A   1      43.061  29.241  35.409  1.00  0.00     0.029 A 
ATOM     61  C   UNL A   1      43.009  28.745  34.115  1.00  0.00     0.049 A 
ATOM     62  H   UNL A   1      41.623  29.183  32.585  1.00  0.00     0.167 HD
ATOM     63  C   UNL A   1      43.777  27.362  32.198  1.00  0.00     0.074 A 
ATOM     64  C   UNL A   1      44.666  26.398  31.580  1.00  0.00     0.031 C 
ATOM     65  C   UNL A   1      43.891  27.797  33.479  1.00  0.00     0.037 A 
BRANCH  52  66
ATOM     66  C   UNL A   1      39.548  31.887  35.162  1.00  0.00     0.064 A 
ATOM     67  C   UNL A   1      39.920  33.239  35.245  1.00  0.00     0.173 A 
ATOM     68  C   UNL A   1      38.636  31.403  36.111  1.00  0.00     0.173 A 
ATOM     69  F   UNL A   1      40.801  33.753  34.373  1.00  0.00    -0.203 F 
ATOM     70  C   UNL A   1      39.436  34.056  36.265  1.00  0.00     0.198 A 
ATOM     71  C   UNL A   1      38.126  32.232  37.107  1.00  0.00     0.198 A 
ATOM     72  F   UNL A   1      38.240  30.121  36.077  1.00  0.00    -0.203 F 
ATOM     73  F   UNL A   1      39.860  35.324  36.364  1.00  0.00    -0.200 F 
ATOM     74  C   UNL A   1      38.536  33.553  37.191  1.00  0.00     0.200 A 
ATOM     75  F   UNL A   1      37.247  31.747  37.994  1.00  0.00    -0.200 F 
ATOM     76  F   UNL A   1      38.074  34.338  38.174  1.00  0.00    -0.200 F 
ENDBRANCH  52  66
BRANCH  53  77
ATOM     77  C   UNL A   1      42.997  26.176  27.696  1.00  0.00     0.064 A 
ATOM     78  C   UNL A   1      42.535  24.875  27.467  1.00  0.00     0.173 A 
ATOM     79  C   UNL A   1      43.944  26.700  26.802  1.00  0.00     0.173 A 
ATOM     80  F   UNL A   1      41.642  24.324  28.304  1.00  0.00    -0.203 F 
ATOM     81  C   UNL A   1      43.004  24.125  26.390  1.00  0.00     0.198 A 
ATOM     82  C   UNL A   1      44.390  25.960  25.711  1.00  0.00     0.198 A 
ATOM     83  F   UNL A   1      44.413  27.946  26.975  1.00  0.00    -0.203 F 
ATOM     84  F   UNL A   1      42.567  22.871  26.210  1.00  0.00    -0.200 F 
ATOM     85  C   UNL A   1      43.923  24.671  25.508  1.00  0.00     0.200 A 
ATOM     86  F   UNL A   1      45.263  26.501  24.850  1.00  0.00    -0.200 F 
ATOM     87  F   UNL A   1      44.360  23.956  24.462  1.00  0.00    -0.200 F 
ENDBRANCH  53  77
BRANCH  65  88
ATOM     88  C   UNL A   1      45.002  27.208  34.302  1.00  0.00     0.064 A 
ATOM     89  C   UNL A   1      46.287  27.772  34.323  1.00  0.00     0.173 A 
ATOM     90  C   UNL A   1      44.774  26.069  35.090  1.00  0.00     0.173 A 
ATOM     91  F   UNL A   1      46.562  28.853  33.579  1.00  0.00    -0.203 F 
ATOM     92  C   UNL A   1      47.313  27.191  35.066  1.00  0.00     0.198 A 
ATOM     93  C   UNL A   1      45.792  25.513  35.861  1.00  0.00     0.198 A 
ATOM     94  F   UNL A   1      43.562  25.496  35.116  1.00  0.00    -0.203 F 
ATOM     95  F   UNL A   1      48.548  27.708  35.016  1.00  0.00    -0.200 F 
ATOM     96  C   UNL A   1      47.062  26.067  35.838  1.00  0.00     0.200 A 
ATOM     97  F   UNL A   1      45.544  24.436  36.618  1.00  0.00    -0.200 F 
ATOM     98  F   UNL A   1      48.050  25.508  36.550  1.00  0.00    -0.200 F 
ENDBRANCH  65  88
ENDBRANCH  39  40
ENDBRANCH  32  34
ENDBRANCH  31  32
ENDBRANCH  30  31
ENDBRANCH  29  30
ENDBRANCH  28  29
ENDBRANCH   1  28
TORSDOF 18
ENDMDL
