MODEL 1
REMARK VINA RESULT:     -12.2      0.000      0.000
REMARK SMILES COc1cc(Cl)c2c(c1)C=C(C(=O)OCCOCCOC(=O)c1ccc(-c3c4nc(c(-c5c(F)c(F)c(F)c(F)c5F)c5ccc([nH]5)c(-c5c(F)c(F)c(F)c(F)c5F)c5nc(c(-c6c(F)c(F)c(F)c(F)c6F)c6ccc3[nH]6)C=C5)C=C4)cc1)[C@@H](C(F)(F)F)O2
REMARK SMILES IDX 18 1 17 2 16 3 15 4 14 5 12 6 13 7 11 8 3 9 4 10 9 11 5 12
REMARK SMILES IDX 8 13 6 14 7 15 10 16 91 17 86 18 2 19 1 20 87 21 88 22 89 23
REMARK SMILES IDX 90 24 19 25 20 26 21 27 22 28 23 29 24 30 85 31 25 32 84 33
REMARK SMILES IDX 26 34 27 35 28 36 78 37 29 38 83 39 77 40 79 41 30 42 82 43
REMARK SMILES IDX 76 44 75 45 31 47 63 48 43 49 62 50 44 51 47 52 61 53 80 54
REMARK SMILES IDX 45 55 46 56 60 58 81 59 48 60 32 61 33 62 41 63 34 64 35 65
REMARK SMILES IDX 39 66 42 67 36 68 37 69 40 70 38 71 64 72 65 73 73 74 66 75
REMARK SMILES IDX 67 76 71 77 74 78 68 79 69 80 72 81 70 82 49 83 50 84 58 85
REMARK SMILES IDX 51 86 52 87 56 88 59 89 53 90 54 91 57 92 55 93
REMARK H PARENT 79 46 47 57
REMARK Flexibility Score: inf
ROOT
ATOM      1  C   UNL A   1      31.606  29.053  25.103  1.00  0.00     0.202 C 
ENDROOT
BRANCH   1   2
ATOM      2  O   UNL A   1      30.729  28.962  23.979  1.00  0.00    -0.374 OA
BRANCH   2   3
ATOM      3  C   UNL A   1      30.410  27.661  23.494  1.00  0.00     0.202 C 
BRANCH   3   4
ATOM      4  C   UNL A   1      31.181  27.197  22.255  1.00  0.00     0.261 C 
BRANCH   4   5
ATOM      5  O   UNL A   1      31.391  25.776  22.267  1.00  0.00    -0.460 OA
BRANCH   5   6
ATOM      6  C   UNL A   1      32.602  25.384  21.807  1.00  0.00     0.338 C 
ATOM      7  O   UNL A   1      33.226  25.874  20.879  1.00  0.00    -0.246 OA
BRANCH   6   8
ATOM      8  C   UNL A   1      33.146  24.318  22.668  1.00  0.00     0.087 C 
ATOM      9  C   UNL A   1      32.644  19.824  24.292  1.00  0.00     0.121 A 
ATOM     10  C   UNL A   1      33.618  20.048  25.262  1.00  0.00     0.070 A 
ATOM     11  C   UNL A   1      32.346  20.813  23.359  1.00  0.00     0.058 A 
ATOM     12  C   UNL A   1      34.281  21.279  25.300  1.00  0.00     0.087 A 
ATOM     13  C   UNL A   1      32.982  22.058  23.422  1.00  0.00     0.022 A 
ATOM     14  Cl  UNL A   1      35.482  21.519  26.522  1.00  0.00    -0.080 Cl
ATOM     15  C   UNL A   1      33.969  22.293  24.383  1.00  0.00     0.146 A 
ATOM     16  C   UNL A   1      32.572  23.118  22.524  1.00  0.00     0.027 C 
ATOM     17  O   UNL A   1      34.659  23.473  24.460  1.00  0.00    -0.474 OA
ATOM     18  C   UNL A   1      34.246  24.607  23.649  1.00  0.00     0.316 C 
BRANCH   9  19
ATOM     19  O   UNL A   1      31.978  18.638  24.153  1.00  0.00    -0.497 OA
ATOM     20  C   UNL A   1      32.442  17.629  25.047  1.00  0.00     0.278 C 
ENDBRANCH   9  19
BRANCH  18  21
ATOM     21  C   UNL A   1      33.910  25.776  24.589  1.00  0.00     0.430 C 
ATOM     22  F   UNL A   1      34.740  25.799  25.659  1.00  0.00    -0.167 F 
ATOM     23  F   UNL A   1      34.047  26.973  23.972  1.00  0.00    -0.167 F 
ATOM     24  F   UNL A   1      32.644  25.703  25.056  1.00  0.00    -0.167 F 
ENDBRANCH  18  21
ENDBRANCH   6   8
ENDBRANCH   5   6
ENDBRANCH   4   5
ENDBRANCH   3   4
ENDBRANCH   2   3
ENDBRANCH   1   2
BRANCH   1  25
ATOM     25  C   UNL A   1      31.748  30.435  25.753  1.00  0.00     0.261 C 
BRANCH  25  26
ATOM     26  O   UNL A   1      32.541  30.379  26.956  1.00  0.00    -0.460 OA
BRANCH  26  27
ATOM     27  C   UNL A   1      33.234  31.507  27.239  1.00  0.00     0.338 C 
ATOM     28  O   UNL A   1      32.818  32.656  27.255  1.00  0.00    -0.246 OA
BRANCH  27  29
ATOM     29  C   UNL A   1      34.583  31.156  27.710  1.00  0.00     0.060 A 
ATOM     30  C   UNL A   1      34.852  29.812  27.996  1.00  0.00     0.016 A 
ATOM     31  C   UNL A   1      35.529  32.146  27.977  1.00  0.00     0.016 A 
ATOM     32  C   UNL A   1      36.061  29.455  28.587  1.00  0.00     0.010 A 
ATOM     33  C   UNL A   1      36.735  31.789  28.587  1.00  0.00     0.010 A 
ATOM     34  C   UNL A   1      36.990  30.448  28.924  1.00  0.00    -0.014 A 
BRANCH  34  35
ATOM     35  C   UNL A   1      38.155  30.098  29.768  1.00  0.00     0.031 A 
ATOM     36  C   UNL A   1      39.197  29.165  29.219  1.00  0.00     0.074 A 
ATOM     37  C   UNL A   1      38.296  30.627  30.996  1.00  0.00     0.049 A 
ATOM     38  N   UNL A   1      40.289  28.715  29.783  1.00  0.00    -0.248 NA
ATOM     39  C   UNL A   1      38.984  28.679  27.845  1.00  0.00     0.031 C 
ATOM     40  C   UNL A   1      37.377  31.580  31.612  1.00  0.00     0.029 A 
ATOM     41  N   UNL A   1      39.272  30.436  31.940  1.00  0.00    -0.354 N 
ATOM     42  C   UNL A   1      40.897  27.906  28.831  1.00  0.00     0.074 A 
ATOM     43  C   UNL A   1      40.039  27.897  27.667  1.00  0.00     0.031 C 
ATOM     44  C   UNL A   1      37.828  31.885  32.841  1.00  0.00     0.029 A 
ATOM     45  C   UNL A   1      39.052  31.130  33.104  1.00  0.00     0.049 A 
ATOM     46  H   UNL A   1      40.054  29.856  31.799  1.00  0.00     0.167 HD
ATOM     47  C   UNL A   1      42.072  27.242  28.921  1.00  0.00     0.037 A 
ATOM     48  C   UNL A   1      39.755  31.141  34.253  1.00  0.00     0.037 A 
ATOM     49  C   UNL A   1      42.916  27.239  30.086  1.00  0.00     0.049 A 
ATOM     50  C   UNL A   1      41.008  30.312  34.362  1.00  0.00     0.074 A 
ATOM     51  C   UNL A   1      44.126  26.595  30.273  1.00  0.00     0.029 A 
ATOM     52  N   UNL A   1      42.631  27.909  31.266  1.00  0.00    -0.354 N 
ATOM     53  N   UNL A   1      41.585  29.563  33.455  1.00  0.00    -0.248 NA
ATOM     54  C   UNL A   1      41.706  30.327  35.657  1.00  0.00     0.031 C 
ATOM     55  C   UNL A   1      44.551  26.838  31.582  1.00  0.00     0.029 A 
ATOM     56  C   UNL A   1      43.630  27.673  32.196  1.00  0.00     0.049 A 
ATOM     57  H   UNL A   1      41.836  28.469  31.421  1.00  0.00     0.167 HD
ATOM     58  C   UNL A   1      42.725  29.043  34.055  1.00  0.00     0.074 A 
ATOM     59  C   UNL A   1      42.762  29.565  35.404  1.00  0.00     0.031 C 
ATOM     60  C   UNL A   1      43.657  28.209  33.532  1.00  0.00     0.037 A 
BRANCH  47  61
ATOM     61  C   UNL A   1      42.517  26.451  27.727  1.00  0.00     0.064 A 
ATOM     62  C   UNL A   1      43.420  26.983  26.794  1.00  0.00     0.173 A 
ATOM     63  C   UNL A   1      42.088  25.127  27.548  1.00  0.00     0.173 A 
ATOM     64  F   UNL A   1      43.849  28.248  26.916  1.00  0.00    -0.203 F 
ATOM     65  C   UNL A   1      43.867  26.221  25.719  1.00  0.00     0.198 A 
ATOM     66  C   UNL A   1      42.556  24.361  26.485  1.00  0.00     0.198 A 
ATOM     67  F   UNL A   1      41.227  24.573  28.415  1.00  0.00    -0.203 F 
ATOM     68  F   UNL A   1      44.709  26.758  24.823  1.00  0.00    -0.200 F 
ATOM     69  C   UNL A   1      43.443  24.909  25.570  1.00  0.00     0.200 A 
ATOM     70  F   UNL A   1      42.154  23.090  26.348  1.00  0.00    -0.200 F 
ATOM     71  F   UNL A   1      43.888  24.173  24.542  1.00  0.00    -0.200 F 
ENDBRANCH  47  61
BRANCH  48  72
ATOM     72  C   UNL A   1      39.289  31.972  35.393  1.00  0.00     0.064 A 
ATOM     73  C   UNL A   1      39.668  33.316  35.505  1.00  0.00     0.173 A 
ATOM     74  C   UNL A   1      38.454  31.442  36.387  1.00  0.00     0.173 A 
ATOM     75  F   UNL A   1      40.487  33.858  34.592  1.00  0.00    -0.203 F 
ATOM     76  C   UNL A   1      39.233  34.098  36.572  1.00  0.00     0.198 A 
ATOM     77  C   UNL A   1      38.000  32.232  37.441  1.00  0.00     0.198 A 
ATOM     78  F   UNL A   1      38.067  30.160  36.327  1.00  0.00    -0.203 F 
ATOM     79  F   UNL A   1      39.636  35.372  36.674  1.00  0.00    -0.200 F 
ATOM     80  C   UNL A   1      38.393  33.558  37.536  1.00  0.00     0.200 A 
ATOM     81  F   UNL A   1      37.182  31.708  38.365  1.00  0.00    -0.200 F 
ATOM     82  F   UNL A   1      37.970  34.314  38.558  1.00  0.00    -0.200 F 
ENDBRANCH  48  72
BRANCH  60  83
ATOM     83  C   UNL A   1      44.815  27.822  34.403  1.00  0.00     0.064 A 
ATOM     84  C   UNL A   1      44.789  26.656  35.182  1.00  0.00     0.173 A 
ATOM     85  C   UNL A   1      45.996  28.579  34.390  1.00  0.00     0.173 A 
ATOM     86  F   UNL A   1      43.679  25.905  35.236  1.00  0.00    -0.203 F 
ATOM     87  C   UNL A   1      45.902  26.268  35.923  1.00  0.00     0.198 A 
ATOM     88  C   UNL A   1      47.115  28.175  35.112  1.00  0.00     0.198 A 
ATOM     89  F   UNL A   1      46.074  29.699  33.654  1.00  0.00    -0.203 F 
ATOM     90  F   UNL A   1      45.847  25.164  36.682  1.00  0.00    -0.200 F 
ATOM     91  C   UNL A   1      47.067  27.021  35.879  1.00  0.00     0.200 A 
ATOM     92  F   UNL A   1      48.244  28.894  35.056  1.00  0.00    -0.200 F 
ATOM     93  F   UNL A   1      48.143  26.634  36.578  1.00  0.00    -0.200 F 
ENDBRANCH  60  83
ENDBRANCH  34  35
ENDBRANCH  27  29
ENDBRANCH  26  27
ENDBRANCH  25  26
ENDBRANCH   1  25
TORSDOF 16
ENDMDL
MODEL 2
REMARK VINA RESULT:     -12.0      0.371      7.328
REMARK SMILES COc1cc(Cl)c2c(c1)C=C(C(=O)OCCOCCOC(=O)c1ccc(-c3c4nc(c(-c5c(F)c(F)c(F)c(F)c5F)c5ccc([nH]5)c(-c5c(F)c(F)c(F)c(F)c5F)c5nc(c(-c6c(F)c(F)c(F)c(F)c6F)c6ccc3[nH]6)C=C5)C=C4)cc1)[C@@H](C(F)(F)F)O2
REMARK SMILES IDX 18 1 17 2 16 3 15 4 14 5 12 6 13 7 11 8 3 9 4 10 9 11 5 12
REMARK SMILES IDX 8 13 6 14 7 15 10 16 91 17 86 18 2 19 1 20 87 21 88 22 89 23
REMARK SMILES IDX 90 24 19 25 20 26 21 27 22 28 23 29 24 30 85 31 25 32 84 33
REMARK SMILES IDX 26 34 27 35 28 36 78 37 29 38 83 39 77 40 79 41 30 42 82 43
REMARK SMILES IDX 76 44 75 45 31 47 63 48 43 49 62 50 44 51 47 52 61 53 80 54
REMARK SMILES IDX 45 55 46 56 60 58 81 59 48 60 32 61 33 62 41 63 34 64 35 65
REMARK SMILES IDX 39 66 42 67 36 68 37 69 40 70 38 71 64 72 65 73 73 74 66 75
REMARK SMILES IDX 67 76 71 77 74 78 68 79 69 80 72 81 70 82 49 83 50 84 58 85
REMARK SMILES IDX 51 86 52 87 56 88 59 89 53 90 54 91 57 92 55 93
REMARK H PARENT 79 46 47 57
REMARK Flexibility Score: inf
ROOT
ATOM      1  C   UNL A   1      31.475  29.055  25.351  1.00  0.00     0.202 C 
ENDROOT
BRANCH   1   2
ATOM      2  O   UNL A   1      30.767  28.962  24.114  1.00  0.00    -0.374 OA
BRANCH   2   3
ATOM      3  C   UNL A   1      30.466  27.659  23.621  1.00  0.00     0.202 C 
BRANCH   3   4
ATOM      4  C   UNL A   1      31.176  27.249  22.329  1.00  0.00     0.261 C 
BRANCH   4   5
ATOM      5  O   UNL A   1      31.413  25.833  22.286  1.00  0.00    -0.460 OA
BRANCH   5   6
ATOM      6  C   UNL A   1      32.646  25.484  21.846  1.00  0.00     0.338 C 
ATOM      7  O   UNL A   1      33.282  26.016  20.951  1.00  0.00    -0.246 OA
BRANCH   6   8
ATOM      8  C   UNL A   1      33.192  24.404  22.689  1.00  0.00     0.087 C 
ATOM      9  C   UNL A   1      32.736  19.863  24.189  1.00  0.00     0.121 A 
ATOM     10  C   UNL A   1      33.690  20.077  25.180  1.00  0.00     0.070 A 
ATOM     11  C   UNL A   1      32.437  20.871  23.277  1.00  0.00     0.058 A 
ATOM     12  C   UNL A   1      34.333  21.316  25.261  1.00  0.00     0.087 A 
ATOM     13  C   UNL A   1      33.053  22.123  23.382  1.00  0.00     0.022 A 
ATOM     14  Cl  UNL A   1      35.509  21.543  26.508  1.00  0.00    -0.080 Cl
ATOM     15  C   UNL A   1      34.020  22.348  24.365  1.00  0.00     0.146 A 
ATOM     16  C   UNL A   1      32.640  23.200  22.504  1.00  0.00     0.027 C 
ATOM     17  O   UNL A   1      34.689  23.537  24.483  1.00  0.00    -0.474 OA
ATOM     18  C   UNL A   1      34.271  24.685  23.695  1.00  0.00     0.316 C 
BRANCH   9  19
ATOM     19  O   UNL A   1      32.091  18.670  24.008  1.00  0.00    -0.497 OA
ATOM     20  C   UNL A   1      32.530  17.969  22.847  1.00  0.00     0.278 C 
ENDBRANCH   9  19
BRANCH  18  21
ATOM     21  C   UNL A   1      33.902  25.824  24.659  1.00  0.00     0.430 C 
ATOM     22  F   UNL A   1      34.014  27.032  24.059  1.00  0.00    -0.167 F 
ATOM     23  F   UNL A   1      32.620  25.725  25.086  1.00  0.00    -0.167 F 
ATOM     24  F   UNL A   1      34.693  25.837  25.755  1.00  0.00    -0.167 F 
ENDBRANCH  18  21
ENDBRANCH   6   8
ENDBRANCH   5   6
ENDBRANCH   4   5
ENDBRANCH   3   4
ENDBRANCH   2   3
ENDBRANCH   1   2
BRANCH   1  25
ATOM     25  C   UNL A   1      31.881  30.463  25.805  1.00  0.00     0.261 C 
BRANCH  25  26
ATOM     26  O   UNL A   1      32.540  30.440  27.088  1.00  0.00    -0.460 OA
BRANCH  26  27
ATOM     27  C   UNL A   1      33.295  31.528  27.364  1.00  0.00     0.338 C 
ATOM     28  O   UNL A   1      32.932  32.694  27.427  1.00  0.00    -0.246 OA
BRANCH  27  29
ATOM     29  C   UNL A   1      34.647  31.107  27.763  1.00  0.00     0.060 A 
ATOM     30  C   UNL A   1      34.867  29.746  28.009  1.00  0.00     0.016 A 
ATOM     31  C   UNL A   1      35.649  32.048  28.003  1.00  0.00     0.016 A 
ATOM     32  C   UNL A   1      36.085  29.322  28.534  1.00  0.00     0.010 A 
ATOM     33  C   UNL A   1      36.866  31.623  28.547  1.00  0.00     0.010 A 
ATOM     34  C   UNL A   1      37.074  30.265  28.844  1.00  0.00    -0.014 A 
BRANCH  34  35
ATOM     35  C   UNL A   1      38.260  29.844  29.624  1.00  0.00     0.031 A 
ATOM     36  C   UNL A   1      38.464  30.411  31.001  1.00  0.00     0.074 A 
ATOM     37  C   UNL A   1      39.127  28.946  29.124  1.00  0.00     0.049 A 
ATOM     38  N   UNL A   1      39.432  30.193  31.854  1.00  0.00    -0.248 NA
ATOM     39  C   UNL A   1      37.433  31.345  31.485  1.00  0.00     0.031 C 
ATOM     40  C   UNL A   1      39.005  28.293  27.823  1.00  0.00     0.029 A 
ATOM     41  N   UNL A   1      40.281  28.432  29.656  1.00  0.00    -0.354 N 
ATOM     42  C   UNL A   1      39.122  30.950  32.976  1.00  0.00     0.074 A 
ATOM     43  C   UNL A   1      37.896  31.660  32.687  1.00  0.00     0.031 C 
ATOM     44  C   UNL A   1      40.051  27.467  27.653  1.00  0.00     0.029 A 
ATOM     45  C   UNL A   1      40.927  27.554  28.821  1.00  0.00     0.049 A 
ATOM     46  H   UNL A   1      40.616  28.668  30.551  1.00  0.00     0.167 HD
ATOM     47  C   UNL A   1      39.795  31.032  34.146  1.00  0.00     0.037 A 
ATOM     48  C   UNL A   1      42.098  26.907  28.979  1.00  0.00     0.037 A 
ATOM     49  C   UNL A   1      41.024  30.336  34.426  1.00  0.00     0.049 A 
ATOM     50  C   UNL A   1      42.880  27.096  30.253  1.00  0.00     0.074 A 
ATOM     51  C   UNL A   1      41.782  30.358  35.583  1.00  0.00     0.029 A 
ATOM     52  N   UNL A   1      41.676  29.501  33.533  1.00  0.00    -0.354 N 
ATOM     53  N   UNL A   1      42.573  27.799  31.316  1.00  0.00    -0.248 NA
ATOM     54  C   UNL A   1      44.173  26.402  30.349  1.00  0.00     0.031 C 
ATOM     55  C   UNL A   1      42.918  29.571  35.374  1.00  0.00     0.029 A 
ATOM     56  C   UNL A   1      42.843  29.020  34.104  1.00  0.00     0.049 A 
ATOM     57  H   UNL A   1      41.358  29.282  32.627  1.00  0.00     0.167 HD
ATOM     58  C   UNL A   1      43.615  27.611  32.214  1.00  0.00     0.074 A 
ATOM     59  C   UNL A   1      44.563  26.723  31.575  1.00  0.00     0.031 C 
ATOM     60  C   UNL A   1      43.771  28.128  33.458  1.00  0.00     0.037 A 
BRANCH  47  61
ATOM     61  C   UNL A   1      39.225  31.913  35.217  1.00  0.00     0.064 A 
ATOM     62  C   UNL A   1      38.454  31.386  36.263  1.00  0.00     0.173 A 
ATOM     63  C   UNL A   1      39.506  33.288  35.233  1.00  0.00     0.173 A 
ATOM     64  F   UNL A   1      38.149  30.080  36.285  1.00  0.00    -0.203 F 
ATOM     65  C   UNL A   1      37.974  32.205  37.281  1.00  0.00     0.198 A 
ATOM     66  C   UNL A   1      39.044  34.099  36.265  1.00  0.00     0.198 A 
ATOM     67  F   UNL A   1      40.241  33.840  34.256  1.00  0.00    -0.203 F 
ATOM     68  F   UNL A   1      37.215  31.685  38.256  1.00  0.00    -0.200 F 
ATOM     69  C   UNL A   1      38.277  33.559  37.287  1.00  0.00     0.200 A 
ATOM     70  F   UNL A   1      39.346  35.406  36.276  1.00  0.00    -0.200 F 
ATOM     71  F   UNL A   1      37.827  34.343  38.276  1.00  0.00    -0.200 F 
ENDBRANCH  47  61
BRANCH  48  72
ATOM     72  C   UNL A   1      42.599  26.017  27.902  1.00  0.00     0.064 A 
ATOM     73  C   UNL A   1      43.478  26.496  26.922  1.00  0.00     0.173 A 
ATOM     74  C   UNL A   1      42.215  24.669  27.834  1.00  0.00     0.173 A 
ATOM     75  F   UNL A   1      43.852  27.784  26.933  1.00  0.00    -0.203 F 
ATOM     76  C   UNL A   1      43.951  25.663  25.911  1.00  0.00     0.198 A 
ATOM     77  C   UNL A   1      42.707  23.831  26.835  1.00  0.00     0.198 A 
ATOM     78  F   UNL A   1      41.372  24.163  28.746  1.00  0.00    -0.203 F 
ATOM     79  F   UNL A   1      44.764  26.155  24.967  1.00  0.00    -0.200 F 
ATOM     80  C   UNL A   1      43.571  24.330  25.872  1.00  0.00     0.200 A 
ATOM     81  F   UNL A   1      42.344  22.541  26.807  1.00  0.00    -0.200 F 
ATOM     82  F   UNL A   1      44.032  23.528  24.902  1.00  0.00    -0.200 F 
ENDBRANCH  48  72
BRANCH  60  83
ATOM     83  C   UNL A   1      44.994  27.732  34.230  1.00  0.00     0.064 A 
ATOM     84  C   UNL A   1      46.162  28.508  34.200  1.00  0.00     0.173 A 
ATOM     85  C   UNL A   1      44.967  26.615  35.079  1.00  0.00     0.173 A 
ATOM     86  F   UNL A   1      46.241  29.579  33.397  1.00  0.00    -0.203 F 
ATOM     87  C   UNL A   1      47.262  28.172  34.985  1.00  0.00     0.198 A 
ATOM     88  C   UNL A   1      46.058  26.297  35.881  1.00  0.00     0.198 A 
ATOM     89  F   UNL A   1      43.869  25.846  35.150  1.00  0.00    -0.203 F 
ATOM     90  F   UNL A   1      48.378  28.911  34.921  1.00  0.00    -0.200 F 
ATOM     91  C   UNL A   1      47.206  27.074  35.833  1.00  0.00     0.200 A 
ATOM     92  F   UNL A   1      45.997  25.246  36.710  1.00  0.00    -0.200 F 
ATOM     93  F   UNL A   1      48.259  26.765  36.602  1.00  0.00    -0.200 F 
ENDBRANCH  60  83
ENDBRANCH  34  35
ENDBRANCH  27  29
ENDBRANCH  26  27
ENDBRANCH  25  26
ENDBRANCH   1  25
TORSDOF 16
ENDMDL
MODEL 3
REMARK VINA RESULT:     -11.9      2.571      8.269
REMARK SMILES COc1cc(Cl)c2c(c1)C=C(C(=O)OCCOCCOC(=O)c1ccc(-c3c4nc(c(-c5c(F)c(F)c(F)c(F)c5F)c5ccc([nH]5)c(-c5c(F)c(F)c(F)c(F)c5F)c5nc(c(-c6c(F)c(F)c(F)c(F)c6F)c6ccc3[nH]6)C=C5)C=C4)cc1)[C@@H](C(F)(F)F)O2
REMARK SMILES IDX 18 1 17 2 16 3 15 4 14 5 12 6 13 7 11 8 3 9 4 10 9 11 5 12
REMARK SMILES IDX 8 13 6 14 7 15 10 16 91 17 86 18 2 19 1 20 87 21 88 22 89 23
REMARK SMILES IDX 90 24 19 25 20 26 21 27 22 28 23 29 24 30 85 31 25 32 84 33
REMARK SMILES IDX 26 34 27 35 28 36 78 37 29 38 83 39 77 40 79 41 30 42 82 43
REMARK SMILES IDX 76 44 75 45 31 47 63 48 43 49 62 50 44 51 47 52 61 53 80 54
REMARK SMILES IDX 45 55 46 56 60 58 81 59 48 60 32 61 33 62 41 63 34 64 35 65
REMARK SMILES IDX 39 66 42 67 36 68 37 69 40 70 38 71 64 72 65 73 73 74 66 75
REMARK SMILES IDX 67 76 71 77 74 78 68 79 69 80 72 81 70 82 49 83 50 84 58 85
REMARK SMILES IDX 51 86 52 87 56 88 59 89 53 90 54 91 57 92 55 93
REMARK H PARENT 79 46 47 57
REMARK Flexibility Score: inf
ROOT
ATOM      1  C   UNL A   1      31.773  30.748  26.526  1.00  0.00     0.202 C 
ENDROOT
BRANCH   1   2
ATOM      2  O   UNL A   1      32.626  29.983  25.673  1.00  0.00    -0.374 OA
BRANCH   2   3
ATOM      3  C   UNL A   1      33.589  29.134  26.292  1.00  0.00     0.202 C 
BRANCH   3   4
ATOM      4  C   UNL A   1      33.879  27.812  25.577  1.00  0.00     0.261 C 
BRANCH   4   5
ATOM      5  O   UNL A   1      33.599  27.902  24.171  1.00  0.00    -0.460 OA
BRANCH   5   6
ATOM      6  C   UNL A   1      32.898  26.857  23.671  1.00  0.00     0.338 C 
ATOM      7  O   UNL A   1      33.310  25.725  23.475  1.00  0.00    -0.246 OA
BRANCH   6   8
ATOM      8  C   UNL A   1      31.487  27.243  23.486  1.00  0.00     0.087 C 
ATOM      9  C   UNL A   1      28.408  30.672  22.126  1.00  0.00     0.121 A 
ATOM     10  C   UNL A   1      27.343  29.951  22.660  1.00  0.00     0.070 A 
ATOM     11  C   UNL A   1      29.692  30.132  22.134  1.00  0.00     0.058 A 
ATOM     12  C   UNL A   1      27.576  28.690  23.218  1.00  0.00     0.087 A 
ATOM     13  C   UNL A   1      29.930  28.888  22.727  1.00  0.00     0.022 A 
ATOM     14  Cl  UNL A   1      26.229  27.828  23.874  1.00  0.00    -0.080 Cl
ATOM     15  C   UNL A   1      28.870  28.149  23.258  1.00  0.00     0.146 A 
ATOM     16  C   UNL A   1      31.290  28.397  22.839  1.00  0.00     0.027 C 
ATOM     17  O   UNL A   1      29.038  26.906  23.805  1.00  0.00    -0.474 OA
ATOM     18  C   UNL A   1      30.378  26.386  24.027  1.00  0.00     0.316 C 
BRANCH   9  19
ATOM     19  O   UNL A   1      28.266  31.890  21.521  1.00  0.00    -0.497 OA
ATOM     20  C   UNL A   1      28.596  32.980  22.378  1.00  0.00     0.278 C 
ENDBRANCH   9  19
BRANCH  18  21
ATOM     21  C   UNL A   1      30.538  26.087  25.526  1.00  0.00     0.430 C 
ATOM     22  F   UNL A   1      29.387  25.608  26.057  1.00  0.00    -0.167 F 
ATOM     23  F   UNL A   1      31.485  25.147  25.753  1.00  0.00    -0.167 F 
ATOM     24  F   UNL A   1      30.883  27.189  26.229  1.00  0.00    -0.167 F 
ENDBRANCH  18  21
ENDBRANCH   6   8
ENDBRANCH   5   6
ENDBRANCH   4   5
ENDBRANCH   3   4
ENDBRANCH   2   3
ENDBRANCH   1   2
BRANCH   1  25
ATOM     25  C   UNL A   1      32.120  32.233  26.690  1.00  0.00     0.261 C 
BRANCH  25  26
ATOM     26  O   UNL A   1      32.767  32.493  27.952  1.00  0.00    -0.460 OA
BRANCH  26  27
ATOM     27  C   UNL A   1      33.833  33.324  27.889  1.00  0.00     0.338 C 
ATOM     28  O   UNL A   1      33.828  34.534  27.717  1.00  0.00    -0.246 OA
BRANCH  27  29
ATOM     29  C   UNL A   1      35.059  32.588  28.233  1.00  0.00     0.060 A 
ATOM     30  C   UNL A   1      34.933  31.256  28.647  1.00  0.00     0.016 A 
ATOM     31  C   UNL A   1      36.298  33.230  28.261  1.00  0.00     0.016 A 
ATOM     32  C   UNL A   1      36.045  30.568  29.127  1.00  0.00     0.010 A 
ATOM     33  C   UNL A   1      37.410  32.544  28.759  1.00  0.00     0.010 A 
ATOM     34  C   UNL A   1      37.279  31.224  29.225  1.00  0.00    -0.014 A 
BRANCH  34  35
ATOM     35  C   UNL A   1      38.390  30.576  29.959  1.00  0.00     0.031 A 
ATOM     36  C   UNL A   1      38.654  30.980  31.381  1.00  0.00     0.074 A 
ATOM     37  C   UNL A   1      39.133  29.621  29.374  1.00  0.00     0.049 A 
ATOM     38  N   UNL A   1      39.576  30.555  32.207  1.00  0.00    -0.248 NA
ATOM     39  C   UNL A   1      37.754  31.995  31.953  1.00  0.00     0.031 C 
ATOM     40  C   UNL A   1      38.937  29.114  28.018  1.00  0.00     0.029 A 
ATOM     41  N   UNL A   1      40.202  28.908  29.852  1.00  0.00    -0.354 N 
ATOM     42  C   UNL A   1      39.360  31.240  33.396  1.00  0.00     0.074 A 
ATOM     43  C   UNL A   1      38.243  32.132  33.178  1.00  0.00     0.031 C 
ATOM     44  C   UNL A   1      39.864  28.174  27.768  1.00  0.00     0.029 A 
ATOM     45  C   UNL A   1      40.733  28.033  28.937  1.00  0.00     0.049 A 
ATOM     46  H   UNL A   1      40.557  29.013  30.764  1.00  0.00     0.167 HD
ATOM     47  C   UNL A   1      40.027  31.121  34.567  1.00  0.00     0.037 A 
ATOM     48  C   UNL A   1      41.805  27.223  29.031  1.00  0.00     0.037 A 
ATOM     49  C   UNL A   1      41.147  30.244  34.777  1.00  0.00     0.049 A 
ATOM     50  C   UNL A   1      42.593  27.185  30.314  1.00  0.00     0.074 A 
ATOM     51  C   UNL A   1      41.890  30.055  35.929  1.00  0.00     0.029 A 
ATOM     52  N   UNL A   1      41.690  29.415  33.808  1.00  0.00    -0.354 N 
ATOM     53  N   UNL A   1      42.373  27.821  31.439  1.00  0.00    -0.248 NA
ATOM     54  C   UNL A   1      43.780  26.317  30.341  1.00  0.00     0.031 C 
ATOM     55  C   UNL A   1      42.912  29.145  35.644  1.00  0.00     0.029 A 
ATOM     56  C   UNL A   1      42.776  28.730  34.328  1.00  0.00     0.049 A 
ATOM     57  H   UNL A   1      41.355  29.326  32.887  1.00  0.00     0.167 HD
ATOM     58  C   UNL A   1      43.371  27.412  32.313  1.00  0.00     0.074 A 
ATOM     59  C   UNL A   1      44.197  26.467  31.591  1.00  0.00     0.031 C 
ATOM     60  C   UNL A   1      43.582  27.786  33.599  1.00  0.00     0.037 A 
BRANCH  47  61
ATOM     61  C   UNL A   1      39.570  31.968  35.717  1.00  0.00     0.064 A 
ATOM     62  C   UNL A   1      40.118  33.238  35.952  1.00  0.00     0.173 A 
ATOM     63  C   UNL A   1      38.530  31.534  36.554  1.00  0.00     0.173 A 
ATOM     64  F   UNL A   1      41.122  33.691  35.186  1.00  0.00    -0.203 F 
ATOM     65  C   UNL A   1      39.649  34.038  36.990  1.00  0.00     0.198 A 
ATOM     66  C   UNL A   1      38.049  32.347  37.576  1.00  0.00     0.198 A 
ATOM     67  F   UNL A   1      37.972  30.329  36.369  1.00  0.00    -0.203 F 
ATOM     68  F   UNL A   1      40.207  35.237  37.214  1.00  0.00    -0.200 F 
ATOM     69  C   UNL A   1      38.609  33.596  37.795  1.00  0.00     0.200 A 
ATOM     70  F   UNL A   1      37.037  31.924  38.347  1.00  0.00    -0.200 F 
ATOM     71  F   UNL A   1      38.150  34.375  38.785  1.00  0.00    -0.200 F 
ENDBRANCH  47  61
BRANCH  48  72
ATOM     72  C   UNL A   1      42.192  26.377  27.874  1.00  0.00     0.064 A 
ATOM     73  C   UNL A   1      41.595  25.127  27.665  1.00  0.00     0.173 A 
ATOM     74  C   UNL A   1      43.160  26.802  26.952  1.00  0.00     0.173 A 
ATOM     75  F   UNL A   1      40.683  24.668  28.535  1.00  0.00    -0.203 F 
ATOM     76  C   UNL A   1      41.955  24.331  26.580  1.00  0.00     0.198 A 
ATOM     77  C   UNL A   1      43.502  26.015  25.854  1.00  0.00     0.198 A 
ATOM     78  F   UNL A   1      43.764  27.988  27.111  1.00  0.00    -0.203 F 
ATOM     79  F   UNL A   1      41.393  23.125  26.421  1.00  0.00    -0.200 F 
ATOM     80  C   UNL A   1      42.903  24.778  25.671  1.00  0.00     0.200 A 
ATOM     81  F   UNL A   1      44.412  26.456  24.975  1.00  0.00    -0.200 F 
ATOM     82  F   UNL A   1      43.243  24.014  24.624  1.00  0.00    -0.200 F 
ENDBRANCH  48  72
BRANCH  60  83
ATOM     83  C   UNL A   1      44.734  27.159  34.328  1.00  0.00     0.064 A 
ATOM     84  C   UNL A   1      44.639  25.874  34.881  1.00  0.00     0.173 A 
ATOM     85  C   UNL A   1      45.973  27.814  34.395  1.00  0.00     0.173 A 
ATOM     86  F   UNL A   1      43.473  25.211  34.852  1.00  0.00    -0.203 F 
ATOM     87  C   UNL A   1      45.740  25.272  35.484  1.00  0.00     0.198 A 
ATOM     88  C   UNL A   1      47.079  27.200  34.975  1.00  0.00     0.198 A 
ATOM     89  F   UNL A   1      46.117  29.042  33.872  1.00  0.00    -0.203 F 
ATOM     90  F   UNL A   1      45.621  24.054  36.030  1.00  0.00    -0.200 F 
ATOM     91  C   UNL A   1      46.962  25.931  35.520  1.00  0.00     0.200 A 
ATOM     92  F   UNL A   1      48.261  27.831  34.996  1.00  0.00    -0.200 F 
ATOM     93  F   UNL A   1      48.025  25.342  36.083  1.00  0.00    -0.200 F 
ENDBRANCH  60  83
ENDBRANCH  34  35
ENDBRANCH  27  29
ENDBRANCH  26  27
ENDBRANCH  25  26
ENDBRANCH   1  25
TORSDOF 16
ENDMDL
