MODEL 1
REMARK VINA RESULT:     -12.3      0.000      0.000
REMARK SMILES CS(=O)(=O)c1ccc(/C=C(/C(=O)OCCOCCOC(=O)c2ccc(-c3c4nc(c(-c5c(F)c(F)c(F)c(F)c5F)c5ccc([nH]5)c(-c5c(F)c(F)c(F)c(F)c5F)c5nc(c(-c6c(F)c(F)c(F)c(F)c6F)c6ccc3[nH]6)C=C5)C=C4)cc2)c2ccccc2)cc1
REMARK SMILES IDX 16 1 15 2 14 3 13 4 11 5 12 6 10 7 9 8 8 9 5 10 6 11 92 12
REMARK SMILES IDX 7 13 91 14 2 15 1 16 3 17 4 18 85 19 86 20 90 21 87 22 89 23
REMARK SMILES IDX 88 24 17 25 18 26 19 27 20 28 21 29 22 30 23 31 84 32 24 33
REMARK SMILES IDX 83 34 25 35 26 36 27 37 77 38 28 39 82 40 76 41 78 42 29 43
REMARK SMILES IDX 81 44 75 45 74 46 30 48 62 49 42 50 61 51 43 52 46 53 60 54
REMARK SMILES IDX 79 55 44 56 45 57 59 59 80 60 47 61 31 62 32 63 40 64 33 65
REMARK SMILES IDX 34 66 38 67 41 68 35 69 36 70 39 71 37 72 63 73 64 74 72 75
REMARK SMILES IDX 65 76 66 77 70 78 73 79 67 80 68 81 71 82 69 83 48 84 49 85
REMARK SMILES IDX 57 86 50 87 51 88 55 89 58 90 52 91 53 92 56 93 54 94
REMARK H PARENT 78 47 46 58
REMARK Flexibility Score: inf
ROOT
ATOM      1  O   UNL A   1      32.729  29.327  23.853  1.00  0.00    -0.374 OA
ENDROOT
BRANCH   1   2
ATOM      2  C   UNL A   1      32.828  28.113  23.114  1.00  0.00     0.202 C 
BRANCH   2   3
ATOM      3  C   UNL A   1      33.134  26.818  23.872  1.00  0.00     0.261 C 
BRANCH   3   4
ATOM      4  O   UNL A   1      32.321  25.719  23.428  1.00  0.00    -0.460 OA
BRANCH   4   5
ATOM      5  C   UNL A   1      32.965  24.847  22.609  1.00  0.00     0.338 C 
ATOM      6  O   UNL A   1      33.352  25.096  21.474  1.00  0.00    -0.246 OA
BRANCH   5   7
ATOM      7  C   UNL A   1      33.273  23.546  23.287  1.00  0.00     0.067 C 
ATOM      8  C   UNL A   1      32.372  22.534  23.276  1.00  0.00     0.024 C 
BRANCH   8   9
ATOM      9  C   UNL A   1      32.587  21.117  23.667  1.00  0.00    -0.025 A 
ATOM     10  C   UNL A   1      33.344  18.432  24.059  1.00  0.00     0.067 A 
ATOM     11  C   UNL A   1      33.663  19.387  25.017  1.00  0.00     0.021 A 
ATOM     12  C   UNL A   1      32.556  18.783  22.960  1.00  0.00     0.021 A 
ATOM     13  C   UNL A   1      33.250  20.711  24.834  1.00  0.00     0.009 A 
ATOM     14  C   UNL A   1      32.178  20.117  22.770  1.00  0.00     0.009 A 
BRANCH  10  15
ATOM     15  S   UNL A   1      33.985  16.777  24.150  1.00  0.00     0.175 S 
ATOM     16  C   UNL A   1      32.829  15.832  25.109  1.00  0.00     0.163 C 
ATOM     17  O   UNL A   1      35.209  16.849  24.927  1.00  0.00    -0.224 OA
ATOM     18  O   UNL A   1      33.981  16.258  22.797  1.00  0.00    -0.224 OA
ENDBRANCH  10  15
ENDBRANCH   8   9
BRANCH   7  19
ATOM     19  C   UNL A   1      34.627  23.441  23.866  1.00  0.00    -0.011 A 
ATOM     20  C   UNL A   1      34.846  23.846  25.193  1.00  0.00     0.009 A 
ATOM     21  C   UNL A   1      35.694  22.921  23.126  1.00  0.00     0.009 A 
ATOM     22  C   UNL A   1      36.105  23.720  25.776  1.00  0.00     0.001 A 
ATOM     23  C   UNL A   1      36.952  22.786  23.717  1.00  0.00     0.001 A 
ATOM     24  C   UNL A   1      37.156  23.185  25.038  1.00  0.00     0.000 A 
ENDBRANCH   7  19
ENDBRANCH   5   7
ENDBRANCH   4   5
ENDBRANCH   3   4
ENDBRANCH   2   3
ENDBRANCH   1   2
BRANCH   1  25
ATOM     25  C   UNL A   1      31.567  29.528  24.653  1.00  0.00     0.202 C 
BRANCH  25  26
ATOM     26  C   UNL A   1      31.702  30.282  25.982  1.00  0.00     0.261 C 
BRANCH  26  27
ATOM     27  O   UNL A   1      33.007  30.173  26.569  1.00  0.00    -0.460 OA
BRANCH  27  28
ATOM     28  C   UNL A   1      33.463  31.311  27.146  1.00  0.00     0.338 C 
ATOM     29  O   UNL A   1      32.869  32.369  27.286  1.00  0.00    -0.246 OA
BRANCH  28  30
ATOM     30  C   UNL A   1      34.761  31.036  27.779  1.00  0.00     0.060 A 
ATOM     31  C   UNL A   1      35.023  29.725  28.202  1.00  0.00     0.016 A 
ATOM     32  C   UNL A   1      35.697  32.051  27.977  1.00  0.00     0.016 A 
ATOM     33  C   UNL A   1      36.229  29.423  28.828  1.00  0.00     0.010 A 
ATOM     34  C   UNL A   1      36.896  31.751  28.624  1.00  0.00     0.010 A 
ATOM     35  C   UNL A   1      37.162  30.440  29.063  1.00  0.00    -0.014 A 
BRANCH  35  36
ATOM     36  C   UNL A   1      38.379  30.166  29.858  1.00  0.00     0.031 A 
ATOM     37  C   UNL A   1      39.418  29.237  29.302  1.00  0.00     0.074 A 
ATOM     38  C   UNL A   1      38.541  30.728  31.068  1.00  0.00     0.049 A 
ATOM     39  N   UNL A   1      40.498  28.766  29.867  1.00  0.00    -0.248 NA
ATOM     40  C   UNL A   1      39.204  28.775  27.922  1.00  0.00     0.031 C 
ATOM     41  C   UNL A   1      37.623  31.684  31.682  1.00  0.00     0.029 A 
ATOM     42  N   UNL A   1      39.531  30.558  32.002  1.00  0.00    -0.354 N 
ATOM     43  C   UNL A   1      41.091  27.945  28.918  1.00  0.00     0.074 A 
ATOM     44  C   UNL A   1      40.235  27.959  27.751  1.00  0.00     0.031 C 
ATOM     45  C   UNL A   1      38.084  32.005  32.903  1.00  0.00     0.029 A 
ATOM     46  C   UNL A   1      39.301  31.241  33.170  1.00  0.00     0.049 A 
ATOM     47  H   UNL A   1      40.329  30.001  31.850  1.00  0.00     0.167 HD
ATOM     48  C   UNL A   1      42.248  27.249  29.014  1.00  0.00     0.037 A 
ATOM     49  C   UNL A   1      39.979  31.217  34.334  1.00  0.00     0.037 A 
ATOM     50  C   UNL A   1      43.085  27.236  30.185  1.00  0.00     0.049 A 
ATOM     51  C   UNL A   1      41.200  30.344  34.456  1.00  0.00     0.074 A 
ATOM     52  C   UNL A   1      44.289  26.582  30.379  1.00  0.00     0.029 A 
ATOM     53  N   UNL A   1      42.795  27.899  31.369  1.00  0.00    -0.354 N 
ATOM     54  N   UNL A   1      41.774  29.590  33.549  1.00  0.00    -0.248 NA
ATOM     55  C   UNL A   1      41.864  30.310  35.768  1.00  0.00     0.031 C 
ATOM     56  C   UNL A   1      44.693  26.794  31.700  1.00  0.00     0.029 A 
ATOM     57  C   UNL A   1      43.775  27.633  32.312  1.00  0.00     0.049 A 
ATOM     58  H   UNL A   1      42.009  28.473  31.517  1.00  0.00     0.167 HD
ATOM     59  C   UNL A   1      42.875  29.014  34.169  1.00  0.00     0.074 A 
ATOM     60  C   UNL A   1      42.899  29.517  35.527  1.00  0.00     0.031 C 
ATOM     61  C   UNL A   1      43.783  28.143  33.661  1.00  0.00     0.037 A 
BRANCH  48  62
ATOM     62  C   UNL A   1      42.654  26.415  27.834  1.00  0.00     0.064 A 
ATOM     63  C   UNL A   1      42.171  25.110  27.648  1.00  0.00     0.173 A 
ATOM     64  C   UNL A   1      43.524  26.934  26.863  1.00  0.00     0.173 A 
ATOM     65  F   UNL A   1      41.347  24.560  28.552  1.00  0.00    -0.203 F 
ATOM     66  C   UNL A   1      42.569  24.346  26.553  1.00  0.00     0.198 A 
ATOM     67  C   UNL A   1      43.893  26.181  25.751  1.00  0.00     0.198 A 
ATOM     68  F   UNL A   1      44.012  28.177  26.987  1.00  0.00    -0.203 F 
ATOM     69  F   UNL A   1      42.138  23.084  26.426  1.00  0.00    -0.200 F 
ATOM     70  C   UNL A   1      43.424  24.885  25.604  1.00  0.00     0.200 A 
ATOM     71  F   UNL A   1      44.709  26.707  24.827  1.00  0.00    -0.200 F 
ATOM     72  F   UNL A   1      43.803  24.150  24.548  1.00  0.00    -0.200 F 
ENDBRANCH  48  62
BRANCH  49  73
ATOM     73  C   UNL A   1      39.502  32.026  35.487  1.00  0.00     0.064 A 
ATOM     74  C   UNL A   1      39.989  33.321  35.710  1.00  0.00     0.173 A 
ATOM     75  C   UNL A   1      38.556  31.521  36.393  1.00  0.00     0.173 A 
ATOM     76  F   UNL A   1      40.912  33.838  34.886  1.00  0.00    -0.203 F 
ATOM     77  C   UNL A   1      39.561  34.074  36.801  1.00  0.00     0.198 A 
ATOM     78  C   UNL A   1      38.106  32.286  37.467  1.00  0.00     0.198 A 
ATOM     79  F   UNL A   1      38.059  30.285  36.228  1.00  0.00    -0.203 F 
ATOM     80  F   UNL A   1      40.076  35.292  37.014  1.00  0.00    -0.200 F 
ATOM     81  C   UNL A   1      38.614  33.559  37.674  1.00  0.00     0.200 A 
ATOM     82  F   UNL A   1      37.180  31.790  38.300  1.00  0.00    -0.200 F 
ATOM     83  F   UNL A   1      38.197  34.287  38.719  1.00  0.00    -0.200 F 
ENDBRANCH  49  73
BRANCH  61  84
ATOM     84  C   UNL A   1      44.892  27.690  34.568  1.00  0.00     0.064 A 
ATOM     85  C   UNL A   1      44.790  26.510  35.319  1.00  0.00     0.173 A 
ATOM     86  C   UNL A   1      46.096  28.410  34.634  1.00  0.00     0.173 A 
ATOM     87  F   UNL A   1      43.655  25.796  35.304  1.00  0.00    -0.203 F 
ATOM     88  C   UNL A   1      45.847  26.076  36.115  1.00  0.00     0.198 A 
ATOM     89  C   UNL A   1      47.162  27.955  35.405  1.00  0.00     0.198 A 
ATOM     90  F   UNL A   1      46.247  29.541  33.930  1.00  0.00    -0.203 F 
ATOM     91  F   UNL A   1      45.714  24.966  36.855  1.00  0.00    -0.200 F 
ATOM     92  C   UNL A   1      47.035  26.792  36.149  1.00  0.00     0.200 A 
ATOM     93  F   UNL A   1      48.313  28.640  35.424  1.00  0.00    -0.200 F 
ATOM     94  F   UNL A   1      48.057  26.362  36.901  1.00  0.00    -0.200 F 
ENDBRANCH  61  84
ENDBRANCH  35  36
ENDBRANCH  28  30
ENDBRANCH  27  28
ENDBRANCH  26  27
ENDBRANCH  25  26
ENDBRANCH   1  25
TORSDOF 17
ENDMDL
MODEL 2
REMARK VINA RESULT:     -12.3      4.651     10.206
REMARK SMILES CS(=O)(=O)c1ccc(/C=C(/C(=O)OCCOCCOC(=O)c2ccc(-c3c4nc(c(-c5c(F)c(F)c(F)c(F)c5F)c5ccc([nH]5)c(-c5c(F)c(F)c(F)c(F)c5F)c5nc(c(-c6c(F)c(F)c(F)c(F)c6F)c6ccc3[nH]6)C=C5)C=C4)cc2)c2ccccc2)cc1
REMARK SMILES IDX 16 1 15 2 14 3 13 4 11 5 12 6 10 7 9 8 8 9 5 10 6 11 92 12
REMARK SMILES IDX 7 13 91 14 2 15 1 16 3 17 4 18 85 19 86 20 90 21 87 22 89 23
REMARK SMILES IDX 88 24 17 25 18 26 19 27 20 28 21 29 22 30 23 31 84 32 24 33
REMARK SMILES IDX 83 34 25 35 26 36 27 37 77 38 28 39 82 40 76 41 78 42 29 43
REMARK SMILES IDX 81 44 75 45 74 46 30 48 62 49 42 50 61 51 43 52 46 53 60 54
REMARK SMILES IDX 79 55 44 56 45 57 59 59 80 60 47 61 31 62 32 63 40 64 33 65
REMARK SMILES IDX 34 66 38 67 41 68 35 69 36 70 39 71 37 72 63 73 64 74 72 75
REMARK SMILES IDX 65 76 66 77 70 78 73 79 67 80 68 81 71 82 69 83 48 84 49 85
REMARK SMILES IDX 57 86 50 87 51 88 55 89 58 90 52 91 53 92 56 93 54 94
REMARK H PARENT 78 47 46 58
REMARK Flexibility Score: inf
ROOT
ATOM      1  O   UNL A   1      35.036  20.597  25.601  1.00  0.00    -0.374 OA
ENDROOT
BRANCH   1   2
ATOM      2  C   UNL A   1      34.265  21.567  24.898  1.00  0.00     0.202 C 
BRANCH   2   3
ATOM      3  C   UNL A   1      33.650  22.725  25.690  1.00  0.00     0.261 C 
BRANCH   3   4
ATOM      4  O   UNL A   1      32.298  23.004  25.290  1.00  0.00    -0.460 OA
BRANCH   4   5
ATOM      5  C   UNL A   1      31.651  23.888  26.094  1.00  0.00     0.338 C 
ATOM      6  O   UNL A   1      31.402  23.714  27.280  1.00  0.00    -0.246 OA
BRANCH   5   7
ATOM      7  C   UNL A   1      31.368  25.188  25.403  1.00  0.00     0.067 C 
ATOM      8  C   UNL A   1      30.555  25.227  24.319  1.00  0.00     0.024 C 
BRANCH   8   9
ATOM      9  C   UNL A   1      29.966  26.424  23.664  1.00  0.00    -0.025 A 
ATOM     10  C   UNL A   1      28.835  28.881  22.879  1.00  0.00     0.067 A 
ATOM     11  C   UNL A   1      30.156  28.594  22.556  1.00  0.00     0.021 A 
ATOM     12  C   UNL A   1      28.039  27.910  23.493  1.00  0.00     0.021 A 
ATOM     13  C   UNL A   1      30.699  27.356  22.916  1.00  0.00     0.009 A 
ATOM     14  C   UNL A   1      28.604  26.688  23.878  1.00  0.00     0.009 A 
BRANCH  10  15
ATOM     15  S   UNL A   1      28.141  30.494  22.602  1.00  0.00     0.175 S 
ATOM     16  C   UNL A   1      29.246  31.663  23.352  1.00  0.00     0.163 C 
ATOM     17  O   UNL A   1      26.903  30.547  23.359  1.00  0.00    -0.224 OA
ATOM     18  O   UNL A   1      28.158  30.711  21.170  1.00  0.00    -0.224 OA
ENDBRANCH  10  15
ENDBRANCH   8   9
BRANCH   7  19
ATOM     19  C   UNL A   1      31.956  26.383  26.039  1.00  0.00    -0.011 A 
ATOM     20  C   UNL A   1      33.299  26.711  25.787  1.00  0.00     0.009 A 
ATOM     21  C   UNL A   1      31.195  27.213  26.869  1.00  0.00     0.009 A 
ATOM     22  C   UNL A   1      33.868  27.855  26.343  1.00  0.00     0.001 A 
ATOM     23  C   UNL A   1      31.765  28.364  27.416  1.00  0.00     0.001 A 
ATOM     24  C   UNL A   1      33.097  28.683  27.152  1.00  0.00     0.000 A 
ENDBRANCH   7  19
ENDBRANCH   5   7
ENDBRANCH   4   5
ENDBRANCH   3   4
ENDBRANCH   2   3
ENDBRANCH   1   2
BRANCH   1  25
ATOM     25  C   UNL A   1      36.205  20.086  24.965  1.00  0.00     0.202 C 
BRANCH  25  26
ATOM     26  C   UNL A   1      37.358  21.047  24.651  1.00  0.00     0.261 C 
BRANCH  26  27
ATOM     27  O   UNL A   1      37.795  21.804  25.788  1.00  0.00    -0.460 OA
BRANCH  27  28
ATOM     28  C   UNL A   1      39.051  21.517  26.208  1.00  0.00     0.338 C 
ATOM     29  O   UNL A   1      39.657  20.463  26.091  1.00  0.00    -0.246 OA
BRANCH  28  30
ATOM     30  C   UNL A   1      39.691  22.756  26.678  1.00  0.00     0.060 A 
ATOM     31  C   UNL A   1      39.259  23.970  26.125  1.00  0.00     0.016 A 
ATOM     32  C   UNL A   1      40.712  22.725  27.627  1.00  0.00     0.016 A 
ATOM     33  C   UNL A   1      39.851  25.165  26.523  1.00  0.00     0.010 A 
ATOM     34  C   UNL A   1      41.319  23.922  28.009  1.00  0.00     0.010 A 
ATOM     35  C   UNL A   1      40.901  25.144  27.449  1.00  0.00    -0.014 A 
BRANCH  35  36
ATOM     36  C   UNL A   1      41.638  26.386  27.768  1.00  0.00     0.031 A 
ATOM     37  C   UNL A   1      40.942  27.470  28.536  1.00  0.00     0.074 A 
ATOM     38  C   UNL A   1      42.909  26.546  27.359  1.00  0.00     0.049 A 
ATOM     39  N   UNL A   1      41.351  28.678  28.825  1.00  0.00    -0.248 NA
ATOM     40  C   UNL A   1      39.600  27.147  29.043  1.00  0.00     0.031 C 
ATOM     41  C   UNL A   1      43.699  25.541  26.652  1.00  0.00     0.029 A 
ATOM     42  N   UNL A   1      43.748  27.626  27.464  1.00  0.00    -0.354 N 
ATOM     43  C   UNL A   1      40.315  29.264  29.539  1.00  0.00     0.074 A 
ATOM     44  C   UNL A   1      39.248  28.289  29.615  1.00  0.00     0.031 C 
ATOM     45  C   UNL A   1      44.907  26.057  26.371  1.00  0.00     0.029 A 
ATOM     46  C   UNL A   1      44.954  27.442  26.836  1.00  0.00     0.049 A 
ATOM     47  H   UNL A   1      43.509  28.452  27.945  1.00  0.00     0.167 HD
ATOM     48  C   UNL A   1      40.267  30.501  30.086  1.00  0.00     0.037 A 
ATOM     49  C   UNL A   1      45.963  28.311  26.628  1.00  0.00     0.037 A 
ATOM     50  C   UNL A   1      41.332  31.464  29.993  1.00  0.00     0.049 A 
ATOM     51  C   UNL A   1      45.838  29.720  27.146  1.00  0.00     0.074 A 
ATOM     52  C   UNL A   1      41.393  32.739  30.529  1.00  0.00     0.029 A 
ATOM     53  N   UNL A   1      42.520  31.263  29.305  1.00  0.00    -0.354 N 
ATOM     54  N   UNL A   1      44.871  30.263  27.844  1.00  0.00    -0.248 NA
ATOM     55  C   UNL A   1      46.942  30.641  26.837  1.00  0.00     0.031 C 
ATOM     56  C   UNL A   1      42.589  33.332  30.110  1.00  0.00     0.029 A 
ATOM     57  C   UNL A   1      43.302  32.406  29.365  1.00  0.00     0.049 A 
ATOM     58  H   UNL A   1      42.771  30.431  28.842  1.00  0.00     0.167 HD
ATOM     59  C   UNL A   1      45.257  31.577  28.079  1.00  0.00     0.074 A 
ATOM     60  C   UNL A   1      46.556  31.745  27.461  1.00  0.00     0.031 C 
ATOM     61  C   UNL A   1      44.594  32.556  28.743  1.00  0.00     0.037 A 
BRANCH  48  62
ATOM     62  C   UNL A   1      39.005  30.895  30.798  1.00  0.00     0.064 A 
ATOM     63  C   UNL A   1      37.915  31.459  30.116  1.00  0.00     0.173 A 
ATOM     64  C   UNL A   1      38.875  30.687  32.179  1.00  0.00     0.173 A 
ATOM     65  F   UNL A   1      37.991  31.692  28.797  1.00  0.00    -0.203 F 
ATOM     66  C   UNL A   1      36.757  31.830  30.795  1.00  0.00     0.198 A 
ATOM     67  C   UNL A   1      37.703  31.027  32.850  1.00  0.00     0.198 A 
ATOM     68  F   UNL A   1      39.883  30.146  32.880  1.00  0.00    -0.203 F 
ATOM     69  F   UNL A   1      35.752  32.418  30.132  1.00  0.00    -0.200 F 
ATOM     70  C   UNL A   1      36.651  31.607  32.160  1.00  0.00     0.200 A 
ATOM     71  F   UNL A   1      37.596  30.798  34.166  1.00  0.00    -0.200 F 
ATOM     72  F   UNL A   1      35.533  31.961  32.812  1.00  0.00    -0.200 F 
ENDBRANCH  48  62
BRANCH  49  73
ATOM     73  C   UNL A   1      47.169  27.880  25.872  1.00  0.00     0.064 A 
ATOM     74  C   UNL A   1      48.342  27.504  26.540  1.00  0.00     0.173 A 
ATOM     75  C   UNL A   1      47.177  27.843  24.469  1.00  0.00     0.173 A 
ATOM     76  F   UNL A   1      48.391  27.547  27.879  1.00  0.00    -0.203 F 
ATOM     77  C   UNL A   1      49.481  27.121  25.835  1.00  0.00     0.198 A 
ATOM     78  C   UNL A   1      48.307  27.430  23.766  1.00  0.00     0.198 A 
ATOM     79  F   UNL A   1      46.082  28.196  23.780  1.00  0.00    -0.203 F 
ATOM     80  F   UNL A   1      50.602  26.808  26.498  1.00  0.00    -0.200 F 
ATOM     81  C   UNL A   1      49.460  27.077  24.448  1.00  0.00     0.200 A 
ATOM     82  F   UNL A   1      48.278  27.375  22.427  1.00  0.00    -0.200 F 
ATOM     83  F   UNL A   1      50.554  26.701  23.772  1.00  0.00    -0.200 F 
ENDBRANCH  49  73
BRANCH  61  84
ATOM     84  C   UNL A   1      45.267  33.895  28.855  1.00  0.00     0.064 A 
ATOM     85  C   UNL A   1      46.169  34.179  29.890  1.00  0.00     0.173 A 
ATOM     86  C   UNL A   1      45.056  34.882  27.878  1.00  0.00     0.173 A 
ATOM     87  F   UNL A   1      46.393  33.277  30.857  1.00  0.00    -0.203 F 
ATOM     88  C   UNL A   1      46.825  35.406  29.951  1.00  0.00     0.198 A 
ATOM     89  C   UNL A   1      45.738  36.094  27.925  1.00  0.00     0.198 A 
ATOM     90  F   UNL A   1      44.207  34.658  26.864  1.00  0.00    -0.203 F 
ATOM     91  F   UNL A   1      47.654  35.671  30.970  1.00  0.00    -0.200 F 
ATOM     92  C   UNL A   1      46.617  36.358  28.964  1.00  0.00     0.200 A 
ATOM     93  F   UNL A   1      45.547  37.005  26.960  1.00  0.00    -0.200 F 
ATOM     94  F   UNL A   1      47.263  37.531  29.015  1.00  0.00    -0.200 F 
ENDBRANCH  61  84
ENDBRANCH  35  36
ENDBRANCH  28  30
ENDBRANCH  27  28
ENDBRANCH  26  27
ENDBRANCH  25  26
ENDBRANCH   1  25
TORSDOF 17
ENDMDL
MODEL 3
REMARK VINA RESULT:     -11.9      4.867     10.519
REMARK SMILES CS(=O)(=O)c1ccc(/C=C(/C(=O)OCCOCCOC(=O)c2ccc(-c3c4nc(c(-c5c(F)c(F)c(F)c(F)c5F)c5ccc([nH]5)c(-c5c(F)c(F)c(F)c(F)c5F)c5nc(c(-c6c(F)c(F)c(F)c(F)c6F)c6ccc3[nH]6)C=C5)C=C4)cc2)c2ccccc2)cc1
REMARK SMILES IDX 16 1 15 2 14 3 13 4 11 5 12 6 10 7 9 8 8 9 5 10 6 11 92 12
REMARK SMILES IDX 7 13 91 14 2 15 1 16 3 17 4 18 85 19 86 20 90 21 87 22 89 23
REMARK SMILES IDX 88 24 17 25 18 26 19 27 20 28 21 29 22 30 23 31 84 32 24 33
REMARK SMILES IDX 83 34 25 35 26 36 27 37 77 38 28 39 82 40 76 41 78 42 29 43
REMARK SMILES IDX 81 44 75 45 74 46 30 48 62 49 42 50 61 51 43 52 46 53 60 54
REMARK SMILES IDX 79 55 44 56 45 57 59 59 80 60 47 61 31 62 32 63 40 64 33 65
REMARK SMILES IDX 34 66 38 67 41 68 35 69 36 70 39 71 37 72 63 73 64 74 72 75
REMARK SMILES IDX 65 76 66 77 70 78 73 79 67 80 68 81 71 82 69 83 48 84 49 85
REMARK SMILES IDX 57 86 50 87 51 88 55 89 58 90 52 91 53 92 56 93 54 94
REMARK H PARENT 78 47 46 58
REMARK Flexibility Score: inf
ROOT
ATOM      1  O   UNL A   1      36.686  21.249  24.794  1.00  0.00    -0.374 OA
ENDROOT
BRANCH   1   2
ATOM      2  C   UNL A   1      36.328  22.462  24.139  1.00  0.00     0.202 C 
BRANCH   2   3
ATOM      3  C   UNL A   1      36.037  23.698  24.995  1.00  0.00     0.261 C 
BRANCH   3   4
ATOM      4  O   UNL A   1      35.014  24.530  24.425  1.00  0.00    -0.460 OA
BRANCH   4   5
ATOM      5  C   UNL A   1      33.937  24.720  25.231  1.00  0.00     0.338 C 
ATOM      6  O   UNL A   1      33.689  24.078  26.243  1.00  0.00    -0.246 OA
BRANCH   5   7
ATOM      7  C   UNL A   1      33.117  25.906  24.819  1.00  0.00     0.067 C 
ATOM      8  C   UNL A   1      32.427  25.894  23.653  1.00  0.00     0.024 C 
BRANCH   8   9
ATOM      9  C   UNL A   1      31.382  26.849  23.201  1.00  0.00    -0.025 A 
ATOM     10  C   UNL A   1      29.369  28.782  22.822  1.00  0.00     0.067 A 
ATOM     11  C   UNL A   1      30.663  29.036  22.383  1.00  0.00     0.021 A 
ATOM     12  C   UNL A   1      29.044  27.530  23.350  1.00  0.00     0.021 A 
ATOM     13  C   UNL A   1      31.648  28.056  22.540  1.00  0.00     0.009 A 
ATOM     14  C   UNL A   1      30.047  26.569  23.533  1.00  0.00     0.009 A 
BRANCH  10  15
ATOM     15  S   UNL A   1      28.119  30.045  22.807  1.00  0.00     0.175 S 
ATOM     16  C   UNL A   1      27.999  30.628  21.135  1.00  0.00     0.163 C 
ATOM     17  O   UNL A   1      28.636  31.148  23.596  1.00  0.00    -0.224 OA
ATOM     18  O   UNL A   1      26.870  29.394  23.149  1.00  0.00    -0.224 OA
ENDBRANCH  10  15
ENDBRANCH   8   9
BRANCH   7  19
ATOM     19  C   UNL A   1      33.057  27.005  25.803  1.00  0.00    -0.011 A 
ATOM     20  C   UNL A   1      34.069  27.980  25.812  1.00  0.00     0.009 A 
ATOM     21  C   UNL A   1      32.000  27.111  26.712  1.00  0.00     0.009 A 
ATOM     22  C   UNL A   1      34.017  29.050  26.703  1.00  0.00     0.001 A 
ATOM     23  C   UNL A   1      31.945  28.190  27.596  1.00  0.00     0.001 A 
ATOM     24  C   UNL A   1      32.951  29.157  27.590  1.00  0.00     0.000 A 
ENDBRANCH   7  19
ENDBRANCH   5   7
ENDBRANCH   4   5
ENDBRANCH   3   4
ENDBRANCH   2   3
ENDBRANCH   1   2
BRANCH   1  25
ATOM     25  C   UNL A   1      37.897  21.229  25.545  1.00  0.00     0.202 C 
BRANCH  25  26
ATOM     26  C   UNL A   1      38.885  20.075  25.328  1.00  0.00     0.261 C 
BRANCH  26  27
ATOM     27  O   UNL A   1      39.681  19.782  26.486  1.00  0.00    -0.460 OA
BRANCH  27  28
ATOM     28  C   UNL A   1      41.006  19.644  26.238  1.00  0.00     0.338 C 
ATOM     29  O   UNL A   1      41.578  18.690  25.734  1.00  0.00    -0.246 OA
BRANCH  28  30
ATOM     30  C   UNL A   1      41.674  20.929  26.495  1.00  0.00     0.060 A 
ATOM     31  C   UNL A   1      41.976  21.260  27.824  1.00  0.00     0.016 A 
ATOM     32  C   UNL A   1      41.978  21.805  25.453  1.00  0.00     0.016 A 
ATOM     33  C   UNL A   1      42.586  22.476  28.117  1.00  0.00     0.010 A 
ATOM     34  C   UNL A   1      42.571  23.033  25.751  1.00  0.00     0.010 A 
ATOM     35  C   UNL A   1      42.866  23.378  27.083  1.00  0.00    -0.014 A 
BRANCH  35  36
ATOM     36  C   UNL A   1      43.376  24.732  27.394  1.00  0.00     0.031 A 
ATOM     37  C   UNL A   1      42.435  25.750  27.966  1.00  0.00     0.074 A 
ATOM     38  C   UNL A   1      44.659  25.046  27.151  1.00  0.00     0.049 A 
ATOM     39  N   UNL A   1      42.632  27.021  28.206  1.00  0.00    -0.248 NA
ATOM     40  C   UNL A   1      41.088  25.271  28.310  1.00  0.00     0.031 C 
ATOM     41  C   UNL A   1      45.672  24.122  26.647  1.00  0.00     0.029 A 
ATOM     42  N   UNL A   1      45.322  26.240  27.279  1.00  0.00    -0.354 N 
ATOM     43  C   UNL A   1      41.434  27.496  28.720  1.00  0.00     0.074 A 
ATOM     44  C   UNL A   1      40.506  26.385  28.731  1.00  0.00     0.031 C 
ATOM     45  C   UNL A   1      46.828  24.788  26.491  1.00  0.00     0.029 A 
ATOM     46  C   UNL A   1      46.622  26.192  26.840  1.00  0.00     0.049 A 
ATOM     47  H   UNL A   1      44.908  27.052  27.652  1.00  0.00     0.167 HD
ATOM     48  C   UNL A   1      41.141  28.746  29.149  1.00  0.00     0.037 A 
ATOM     49  C   UNL A   1      47.525  27.182  26.700  1.00  0.00     0.037 A 
ATOM     50  C   UNL A   1      42.070  29.844  29.123  1.00  0.00     0.049 A 
ATOM     51  C   UNL A   1      47.138  28.589  27.076  1.00  0.00     0.074 A 
ATOM     52  C   UNL A   1      41.881  31.146  29.554  1.00  0.00     0.029 A 
ATOM     53  N   UNL A   1      43.363  29.773  28.623  1.00  0.00    -0.354 N 
ATOM     54  N   UNL A   1      46.015  29.031  27.588  1.00  0.00    -0.248 NA
ATOM     55  C   UNL A   1      48.143  29.637  26.845  1.00  0.00     0.031 C 
ATOM     56  C   UNL A   1      43.035  31.877  29.254  1.00  0.00     0.029 A 
ATOM     57  C   UNL A   1      43.968  31.017  28.694  1.00  0.00     0.049 A 
ATOM     58  H   UNL A   1      43.787  28.957  28.270  1.00  0.00     0.167 HD
ATOM     59  C   UNL A   1      46.183  30.398  27.762  1.00  0.00     0.074 A 
ATOM     60  C   UNL A   1      47.525  30.712  27.315  1.00  0.00     0.031 C 
ATOM     61  C   UNL A   1      45.305  31.312  28.245  1.00  0.00     0.037 A 
BRANCH  48  62
ATOM     62  C   UNL A   1      39.747  28.999  29.646  1.00  0.00     0.064 A 
ATOM     63  C   UNL A   1      38.714  29.400  28.783  1.00  0.00     0.173 A 
ATOM     64  C   UNL A   1      39.432  28.817  31.001  1.00  0.00     0.173 A 
ATOM     65  F   UNL A   1      38.963  29.600  27.480  1.00  0.00    -0.203 F 
ATOM     66  C   UNL A   1      37.430  29.642  29.264  1.00  0.00     0.198 A 
ATOM     67  C   UNL A   1      38.139  29.027  31.474  1.00  0.00     0.198 A 
ATOM     68  F   UNL A   1      40.379  28.430  31.869  1.00  0.00    -0.203 F 
ATOM     69  F   UNL A   1      36.475  30.077  28.431  1.00  0.00    -0.200 F 
ATOM     70  C   UNL A   1      37.143  29.449  30.607  1.00  0.00     0.200 A 
ATOM     71  F   UNL A   1      37.860  28.827  32.769  1.00  0.00    -0.200 F 
ATOM     72  F   UNL A   1      35.905  29.678  31.068  1.00  0.00    -0.200 F 
ENDBRANCH  48  62
BRANCH  49  73
ATOM     73  C   UNL A   1      48.875  26.882  26.156  1.00  0.00     0.064 A 
ATOM     74  C   UNL A   1      49.933  26.530  27.005  1.00  0.00     0.173 A 
ATOM     75  C   UNL A   1      49.140  26.948  24.778  1.00  0.00     0.173 A 
ATOM     76  F   UNL A   1      49.737  26.477  28.330  1.00  0.00    -0.203 F 
ATOM     77  C   UNL A   1      51.206  26.269  26.500  1.00  0.00     0.198 A 
ATOM     78  C   UNL A   1      50.405  26.657  24.273  1.00  0.00     0.198 A 
ATOM     79  F   UNL A   1      48.163  27.283  23.922  1.00  0.00    -0.203 F 
ATOM     80  F   UNL A   1      52.209  25.977  27.339  1.00  0.00    -0.200 F 
ATOM     81  C   UNL A   1      51.439  26.326  25.134  1.00  0.00     0.200 A 
ATOM     82  F   UNL A   1      50.622  26.699  22.951  1.00  0.00    -0.200 F 
ATOM     83  F   UNL A   1      52.661  26.068  24.649  1.00  0.00    -0.200 F 
ENDBRANCH  49  73
BRANCH  61  84
ATOM     84  C   UNL A   1      45.770  32.739  28.335  1.00  0.00     0.064 A 
ATOM     85  C   UNL A   1      46.463  33.216  29.457  1.00  0.00     0.173 A 
ATOM     86  C   UNL A   1      45.576  33.619  27.258  1.00  0.00     0.173 A 
ATOM     87  F   UNL A   1      46.658  32.419  30.518  1.00  0.00    -0.203 F 
ATOM     88  C   UNL A   1      46.933  34.525  29.504  1.00  0.00     0.198 A 
ATOM     89  C   UNL A   1      46.076  34.918  27.296  1.00  0.00     0.198 A 
ATOM     90  F   UNL A   1      44.925  33.212  26.160  1.00  0.00    -0.203 F 
ATOM     91  F   UNL A   1      47.559  34.972  30.602  1.00  0.00    -0.200 F 
ATOM     92  C   UNL A   1      46.749  35.372  28.421  1.00  0.00     0.200 A 
ATOM     93  F   UNL A   1      45.911  35.728  26.242  1.00  0.00    -0.200 F 
ATOM     94  F   UNL A   1      47.218  36.626  28.461  1.00  0.00    -0.200 F 
ENDBRANCH  61  84
ENDBRANCH  35  36
ENDBRANCH  28  30
ENDBRANCH  27  28
ENDBRANCH  26  27
ENDBRANCH  25  26
ENDBRANCH   1  25
TORSDOF 17
ENDMDL
