MODEL 1
REMARK VINA RESULT:     -12.6      0.000      0.000
REMARK SMILES CCc1ccc(Oc2ncnc(N3CCC(C(=O)OCCOCCOC(=O)c4ccc(-c5c6nc(c(-c7c(F)c(F)c(F)c(F)c7F)c7ccc([nH]7)c(-c7c(F)c(F)c(F)c(F)c7F)c7nc(c(-c8c(F)c(F)c(F)c(F)c8F)c8ccc5[nH]8)C=C7)C=C6)cc4)CC3)c2[N+](=O)[O-])cc1
REMARK SMILES IDX 21 1 20 2 19 3 17 4 18 5 16 6 13 7 14 8 92 9 15 10 91 11
REMARK SMILES IDX 12 12 8 13 9 14 93 15 10 16 11 17 7 18 6 19 3 20 4 21 98 22
REMARK SMILES IDX 5 23 97 24 2 25 1 26 94 27 95 28 96 29 22 30 23 31 24 32
REMARK SMILES IDX 25 33 26 34 27 35 28 36 29 37 90 38 30 39 89 40 31 41 32 42
REMARK SMILES IDX 33 43 83 44 34 45 88 46 82 47 84 48 35 49 87 50 81 51 80 52
REMARK SMILES IDX 36 54 68 55 48 56 67 57 49 58 52 59 66 60 85 61 50 62 51 63
REMARK SMILES IDX 65 65 86 66 53 67 37 68 38 69 46 70 39 71 40 72 44 73 47 74
REMARK SMILES IDX 41 75 42 76 45 77 43 78 69 79 70 80 78 81 71 82 72 83 76 84
REMARK SMILES IDX 79 85 73 86 74 87 77 88 75 89 54 90 55 91 63 92 56 93 57 94
REMARK SMILES IDX 61 95 64 96 58 97 59 98 62 99 60 100
REMARK H PARENT 84 53 52 64
REMARK Flexibility Score: inf
ROOT
ATOM      1  C   UNL A   1      40.823  20.796  27.048  1.00  0.00     0.202 C 
ENDROOT
BRANCH   1   2
ATOM      2  C   UNL A   1      39.765  21.888  26.870  1.00  0.00     0.261 C 
BRANCH   2   3
ATOM      3  O   UNL A   1      39.224  21.888  25.540  1.00  0.00    -0.463 OA
BRANCH   3   4
ATOM      4  C   UNL A   1      38.047  21.232  25.386  1.00  0.00     0.309 C 
ATOM      5  O   UNL A   1      37.929  20.071  25.011  1.00  0.00    -0.252 OA
BRANCH   4   6
ATOM      6  C   UNL A   1      36.846  22.100  25.687  1.00  0.00     0.103 C 
ATOM      7  N   UNL A   1      34.244  23.168  25.288  1.00  0.00    -0.351 N 
ATOM      8  C   UNL A   1      35.384  24.069  25.148  1.00  0.00     0.119 C 
ATOM      9  C   UNL A   1      34.385  22.011  26.161  1.00  0.00     0.119 C 
ATOM     10  C   UNL A   1      36.622  23.281  24.734  1.00  0.00     0.037 C 
ATOM     11  C   UNL A   1      35.607  21.208  25.735  1.00  0.00     0.037 C 
BRANCH   7  12
ATOM     12  C   UNL A   1      33.068  23.509  24.664  1.00  0.00     0.215 A 
ATOM     13  C   UNL A   1      30.938  24.527  24.449  1.00  0.00     0.305 A 
ATOM     14  N   UNL A   1      30.796  24.073  23.188  1.00  0.00    -0.195 NA
ATOM     15  C   UNL A   1      32.032  24.225  25.233  1.00  0.00     0.373 A 
ATOM     16  C   UNL A   1      31.822  23.364  22.716  1.00  0.00     0.228 A 
ATOM     17  N   UNL A   1      32.955  23.092  23.380  1.00  0.00    -0.212 NA
BRANCH  13  18
ATOM     18  O   UNL A   1      29.888  25.296  24.887  1.00  0.00    -0.434 OA
BRANCH  18  19
ATOM     19  C   UNL A   1      29.647  26.491  24.240  1.00  0.00     0.129 A 
ATOM     20  C   UNL A   1      28.880  28.913  23.039  1.00  0.00    -0.048 A 
ATOM     21  C   UNL A   1      27.936  27.903  23.270  1.00  0.00     0.007 A 
ATOM     22  C   UNL A   1      30.217  28.681  23.381  1.00  0.00     0.007 A 
ATOM     23  C   UNL A   1      28.317  26.703  23.872  1.00  0.00     0.047 A 
ATOM     24  C   UNL A   1      30.605  27.470  23.957  1.00  0.00     0.047 A 
BRANCH  20  25
ATOM     25  C   UNL A   1      28.460  30.233  22.443  1.00  0.00     0.032 C 
ATOM     26  C   UNL A   1      27.979  31.216  23.502  1.00  0.00     0.009 C 
ENDBRANCH  20  25
ENDBRANCH  18  19
ENDBRANCH  13  18
BRANCH  15  27
ATOM     27  N   UNL A   1      32.116  24.742  26.561  1.00  0.00     0.072 N 
ATOM     28  O   UNL A   1      31.682  24.035  27.481  1.00  0.00    -0.258 OA
ATOM     29  O   UNL A   1      32.596  25.876  26.694  1.00  0.00    -0.258 OA
ENDBRANCH  15  27
ENDBRANCH   7  12
ENDBRANCH   4   6
ENDBRANCH   3   4
ENDBRANCH   2   3
ENDBRANCH   1   2
BRANCH   1  30
ATOM     30  O   UNL A   1      41.700  20.577  25.945  1.00  0.00    -0.374 OA
BRANCH  30  31
ATOM     31  C   UNL A   1      43.076  20.911  26.119  1.00  0.00     0.202 C 
BRANCH  31  32
ATOM     32  C   UNL A   1      43.718  21.761  25.015  1.00  0.00     0.261 C 
BRANCH  32  33
ATOM     33  O   UNL A   1      43.010  22.996  24.794  1.00  0.00    -0.460 OA
BRANCH  33  34
ATOM     34  C   UNL A   1      43.735  24.116  25.011  1.00  0.00     0.338 C 
ATOM     35  O   UNL A   1      44.800  24.426  24.491  1.00  0.00    -0.246 OA
BRANCH  34  36
ATOM     36  C   UNL A   1      42.985  25.054  25.866  1.00  0.00     0.060 A 
ATOM     37  C   UNL A   1      43.319  26.414  25.797  1.00  0.00     0.016 A 
ATOM     38  C   UNL A   1      42.044  24.600  26.792  1.00  0.00     0.016 A 
ATOM     39  C   UNL A   1      42.751  27.321  26.690  1.00  0.00     0.010 A 
ATOM     40  C   UNL A   1      41.485  25.509  27.696  1.00  0.00     0.010 A 
ATOM     41  C   UNL A   1      41.864  26.864  27.673  1.00  0.00    -0.014 A 
BRANCH  41  42
ATOM     42  C   UNL A   1      41.465  27.754  28.790  1.00  0.00     0.031 A 
ATOM     43  C   UNL A   1      42.233  27.673  30.080  1.00  0.00     0.074 A 
ATOM     44  C   UNL A   1      40.432  28.606  28.667  1.00  0.00     0.049 A 
ATOM     45  N   UNL A   1      41.984  28.239  31.234  1.00  0.00    -0.248 NA
ATOM     46  C   UNL A   1      43.445  26.837  30.070  1.00  0.00     0.031 C 
ATOM     47  C   UNL A   1      39.649  28.816  27.452  1.00  0.00     0.029 A 
ATOM     48  N   UNL A   1      39.850  29.436  29.592  1.00  0.00    -0.354 N 
ATOM     49  C   UNL A   1      42.987  27.802  32.091  1.00  0.00     0.074 A 
ATOM     50  C   UNL A   1      43.848  26.925  31.330  1.00  0.00     0.031 C 
ATOM     51  C   UNL A   1      38.670  29.701  27.713  1.00  0.00     0.029 A 
ATOM     52  C   UNL A   1      38.733  30.083  29.123  1.00  0.00     0.049 A 
ATOM     53  H   UNL A   1      40.200  29.558  30.505  1.00  0.00     0.167 HD
ATOM     54  C   UNL A   1      43.168  28.108  33.396  1.00  0.00     0.037 A 
ATOM     55  C   UNL A   1      37.843  30.860  29.772  1.00  0.00     0.037 A 
ATOM     56  C   UNL A   1      42.325  29.003  34.142  1.00  0.00     0.049 A 
ATOM     57  C   UNL A   1      38.034  31.130  31.244  1.00  0.00     0.074 A 
ATOM     58  C   UNL A   1      42.448  29.404  35.460  1.00  0.00     0.029 A 
ATOM     59  N   UNL A   1      41.200  29.632  33.633  1.00  0.00    -0.354 N 
ATOM     60  N   UNL A   1      38.994  30.734  32.043  1.00  0.00    -0.248 NA
ATOM     61  C   UNL A   1      37.010  31.953  31.908  1.00  0.00     0.031 C 
ATOM     62  C   UNL A   1      41.370  30.240  35.763  1.00  0.00     0.029 A 
ATOM     63  C   UNL A   1      40.604  30.399  34.619  1.00  0.00     0.049 A 
ATOM     64  H   UNL A   1      40.873  29.546  32.708  1.00  0.00     0.167 HD
ATOM     65  C   UNL A   1      38.716  31.291  33.284  1.00  0.00     0.074 A 
ATOM     66  C   UNL A   1      37.495  32.054  33.138  1.00  0.00     0.031 C 
ATOM     67  C   UNL A   1      39.411  31.183  34.443  1.00  0.00     0.037 A 
BRANCH  54  68
ATOM     68  C   UNL A   1      44.302  27.450  34.122  1.00  0.00     0.064 A 
ATOM     69  C   UNL A   1      44.199  26.146  34.627  1.00  0.00     0.173 A 
ATOM     70  C   UNL A   1      45.535  28.109  34.245  1.00  0.00     0.173 A 
ATOM     71  F   UNL A   1      43.037  25.480  34.544  1.00  0.00    -0.203 F 
ATOM     72  C   UNL A   1      45.287  25.530  35.241  1.00  0.00     0.198 A 
ATOM     73  C   UNL A   1      46.627  27.482  34.836  1.00  0.00     0.198 A 
ATOM     74  F   UNL A   1      45.684  29.356  33.775  1.00  0.00    -0.203 F 
ATOM     75  F   UNL A   1      45.160  24.294  35.741  1.00  0.00    -0.200 F 
ATOM     76  C   UNL A   1      46.502  26.194  35.335  1.00  0.00     0.200 A 
ATOM     77  F   UNL A   1      47.802  28.120  34.917  1.00  0.00    -0.200 F 
ATOM     78  F   UNL A   1      47.553  25.593  35.910  1.00  0.00    -0.200 F 
ENDBRANCH  54  68
BRANCH  55  79
ATOM     79  C   UNL A   1      36.666  31.417  29.054  1.00  0.00     0.064 A 
ATOM     80  C   UNL A   1      36.598  32.778  28.724  1.00  0.00     0.173 A 
ATOM     81  C   UNL A   1      35.562  30.614  28.732  1.00  0.00     0.173 A 
ATOM     82  F   UNL A   1      37.616  33.593  29.038  1.00  0.00    -0.203 F 
ATOM     83  C   UNL A   1      35.461  33.319  28.126  1.00  0.00     0.198 A 
ATOM     84  C   UNL A   1      34.439  31.149  28.107  1.00  0.00     0.198 A 
ATOM     85  F   UNL A   1      35.573  29.305  29.030  1.00  0.00    -0.203 F 
ATOM     86  F   UNL A   1      35.400  34.634  27.878  1.00  0.00    -0.200 F 
ATOM     87  C   UNL A   1      34.384  32.503  27.815  1.00  0.00     0.200 A 
ATOM     88  F   UNL A   1      33.403  30.355  27.799  1.00  0.00    -0.200 F 
ATOM     89  F   UNL A   1      33.289  33.025  27.247  1.00  0.00    -0.200 F 
ENDBRANCH  55  79
BRANCH  67  90
ATOM     90  C   UNL A   1      38.918  31.959  35.628  1.00  0.00     0.064 A 
ATOM     91  C   UNL A   1      38.164  31.356  36.644  1.00  0.00     0.173 A 
ATOM     92  C   UNL A   1      39.274  33.308  35.783  1.00  0.00     0.173 A 
ATOM     93  F   UNL A   1      37.789  30.073  36.535  1.00  0.00    -0.203 F 
ATOM     94  C   UNL A   1      37.773  32.080  37.769  1.00  0.00     0.198 A 
ATOM     95  C   UNL A   1      38.904  34.021  36.921  1.00  0.00     0.198 A 
ATOM     96  F   UNL A   1      40.002  33.928  34.841  1.00  0.00    -0.203 F 
ATOM     97  F   UNL A   1      37.027  31.492  38.714  1.00  0.00    -0.200 F 
ATOM     98  C   UNL A   1      38.152  33.407  37.911  1.00  0.00     0.200 A 
ATOM     99  F   UNL A   1      39.284  35.298  37.061  1.00  0.00    -0.200 F 
ATOM    100  F   UNL A   1      37.790  34.095  39.001  1.00  0.00    -0.200 F 
ENDBRANCH  67  90
ENDBRANCH  41  42
ENDBRANCH  34  36
ENDBRANCH  33  34
ENDBRANCH  32  33
ENDBRANCH  31  32
ENDBRANCH  30  31
ENDBRANCH   1  30
TORSDOF 19
ENDMDL
MODEL 2
REMARK VINA RESULT:     -12.3      1.119      2.088
REMARK SMILES CCc1ccc(Oc2ncnc(N3CCC(C(=O)OCCOCCOC(=O)c4ccc(-c5c6nc(c(-c7c(F)c(F)c(F)c(F)c7F)c7ccc([nH]7)c(-c7c(F)c(F)c(F)c(F)c7F)c7nc(c(-c8c(F)c(F)c(F)c(F)c8F)c8ccc5[nH]8)C=C7)C=C6)cc4)CC3)c2[N+](=O)[O-])cc1
REMARK SMILES IDX 21 1 20 2 19 3 17 4 18 5 16 6 13 7 14 8 92 9 15 10 91 11
REMARK SMILES IDX 12 12 8 13 9 14 93 15 10 16 11 17 7 18 6 19 3 20 4 21 98 22
REMARK SMILES IDX 5 23 97 24 2 25 1 26 94 27 95 28 96 29 22 30 23 31 24 32
REMARK SMILES IDX 25 33 26 34 27 35 28 36 29 37 90 38 30 39 89 40 31 41 32 42
REMARK SMILES IDX 33 43 83 44 34 45 88 46 82 47 84 48 35 49 87 50 81 51 80 52
REMARK SMILES IDX 36 54 68 55 48 56 67 57 49 58 52 59 66 60 85 61 50 62 51 63
REMARK SMILES IDX 65 65 86 66 53 67 37 68 38 69 46 70 39 71 40 72 44 73 47 74
REMARK SMILES IDX 41 75 42 76 45 77 43 78 69 79 70 80 78 81 71 82 72 83 76 84
REMARK SMILES IDX 79 85 73 86 74 87 77 88 75 89 54 90 55 91 63 92 56 93 57 94
REMARK SMILES IDX 61 95 64 96 58 97 59 98 62 99 60 100
REMARK H PARENT 84 53 52 64
REMARK Flexibility Score: inf
ROOT
ATOM      1  C   UNL A   1      42.741  19.188  26.103  1.00  0.00     0.202 C 
ENDROOT
BRANCH   1   2
ATOM      2  C   UNL A   1      41.214  19.275  26.124  1.00  0.00     0.261 C 
BRANCH   2   3
ATOM      3  O   UNL A   1      40.746  20.500  25.537  1.00  0.00    -0.463 OA
BRANCH   3   4
ATOM      4  C   UNL A   1      40.034  21.310  26.361  1.00  0.00     0.309 C 
ATOM      5  O   UNL A   1      40.332  21.580  27.518  1.00  0.00    -0.252 OA
BRANCH   4   6
ATOM      6  C   UNL A   1      38.772  21.838  25.717  1.00  0.00     0.103 C 
ATOM      7  N   UNL A   1      36.049  22.644  25.609  1.00  0.00    -0.351 N 
ATOM      8  C   UNL A   1      36.447  21.468  24.841  1.00  0.00     0.119 C 
ATOM      9  C   UNL A   1      37.057  23.660  25.882  1.00  0.00     0.119 C 
ATOM     10  C   UNL A   1      37.657  20.807  25.492  1.00  0.00     0.037 C 
ATOM     11  C   UNL A   1      38.257  23.008  26.555  1.00  0.00     0.037 C 
BRANCH   7  12
ATOM     12  C   UNL A   1      34.725  22.777  25.953  1.00  0.00     0.215 A 
ATOM     13  C   UNL A   1      32.431  23.263  25.613  1.00  0.00     0.305 A 
ATOM     14  N   UNL A   1      32.126  22.944  26.886  1.00  0.00    -0.195 NA
ATOM     15  C   UNL A   1      33.721  23.241  25.126  1.00  0.00     0.373 A 
ATOM     16  C   UNL A   1      33.151  22.534  27.635  1.00  0.00     0.228 A 
ATOM     17  N   UNL A   1      34.420  22.406  27.219  1.00  0.00    -0.212 NA
BRANCH  13  18
ATOM     18  O   UNL A   1      31.346  23.631  24.855  1.00  0.00    -0.434 OA
BRANCH  18  19
ATOM     19  C   UNL A   1      31.140  24.978  24.631  1.00  0.00     0.129 A 
ATOM     20  C   UNL A   1      30.962  27.768  24.348  1.00  0.00    -0.048 A 
ATOM     21  C   UNL A   1      31.474  27.203  25.523  1.00  0.00     0.007 A 
ATOM     22  C   UNL A   1      30.505  26.919  23.332  1.00  0.00     0.007 A 
ATOM     23  C   UNL A   1      31.567  25.818  25.661  1.00  0.00     0.047 A 
ATOM     24  C   UNL A   1      30.573  25.532  23.480  1.00  0.00     0.047 A 
BRANCH  20  25
ATOM     25  C   UNL A   1      30.914  29.265  24.173  1.00  0.00     0.032 C 
ATOM     26  C   UNL A   1      31.421  30.004  25.404  1.00  0.00     0.009 C 
ENDBRANCH  20  25
ENDBRANCH  18  19
ENDBRANCH  13  18
BRANCH  15  27
ATOM     27  N   UNL A   1      33.969  23.590  23.764  1.00  0.00     0.072 N 
ATOM     28  O   UNL A   1      34.416  24.723  23.534  1.00  0.00    -0.258 OA
ATOM     29  O   UNL A   1      33.695  22.740  22.906  1.00  0.00    -0.258 OA
ENDBRANCH  15  27
ENDBRANCH   7  12
ENDBRANCH   4   6
ENDBRANCH   3   4
ENDBRANCH   2   3
ENDBRANCH   1   2
BRANCH   1  30
ATOM     30  O   UNL A   1      43.384  19.593  24.896  1.00  0.00    -0.374 OA
BRANCH  30  31
ATOM     31  C   UNL A   1      44.332  20.656  24.976  1.00  0.00     0.202 C 
BRANCH  31  32
ATOM     32  C   UNL A   1      43.982  21.814  25.918  1.00  0.00     0.261 C 
BRANCH  32  33
ATOM     33  O   UNL A   1      43.121  22.786  25.294  1.00  0.00    -0.460 OA
BRANCH  33  34
ATOM     34  C   UNL A   1      43.665  24.014  25.137  1.00  0.00     0.338 C 
ATOM     35  O   UNL A   1      44.532  24.348  24.338  1.00  0.00    -0.246 OA
BRANCH  34  36
ATOM     36  C   UNL A   1      42.950  25.000  25.967  1.00  0.00     0.060 A 
ATOM     37  C   UNL A   1      43.409  26.325  25.950  1.00  0.00     0.016 A 
ATOM     38  C   UNL A   1      41.916  24.617  26.822  1.00  0.00     0.016 A 
ATOM     39  C   UNL A   1      42.869  27.264  26.828  1.00  0.00     0.010 A 
ATOM     40  C   UNL A   1      41.385  25.557  27.711  1.00  0.00     0.010 A 
ATOM     41  C   UNL A   1      41.885  26.872  27.744  1.00  0.00    -0.014 A 
BRANCH  41  42
ATOM     42  C   UNL A   1      41.497  27.775  28.855  1.00  0.00     0.031 A 
ATOM     43  C   UNL A   1      42.276  27.705  30.140  1.00  0.00     0.074 A 
ATOM     44  C   UNL A   1      40.466  28.629  28.731  1.00  0.00     0.049 A 
ATOM     45  N   UNL A   1      42.038  28.282  31.290  1.00  0.00    -0.248 NA
ATOM     46  C   UNL A   1      43.484  26.864  30.128  1.00  0.00     0.031 C 
ATOM     47  C   UNL A   1      39.674  28.829  27.521  1.00  0.00     0.029 A 
ATOM     48  N   UNL A   1      39.894  29.471  29.653  1.00  0.00    -0.354 N 
ATOM     49  C   UNL A   1      43.046  27.851  32.143  1.00  0.00     0.074 A 
ATOM     50  C   UNL A   1      43.898  26.964  31.384  1.00  0.00     0.031 C 
ATOM     51  C   UNL A   1      38.700  29.720  27.780  1.00  0.00     0.029 A 
ATOM     52  C   UNL A   1      38.776  30.116  29.187  1.00  0.00     0.049 A 
ATOM     53  H   UNL A   1      40.252  29.600  30.561  1.00  0.00     0.167 HD
ATOM     54  C   UNL A   1      43.238  28.169  33.443  1.00  0.00     0.037 A 
ATOM     55  C   UNL A   1      37.894  30.903  29.835  1.00  0.00     0.037 A 
ATOM     56  C   UNL A   1      42.404  29.075  34.187  1.00  0.00     0.049 A 
ATOM     57  C   UNL A   1      38.097  31.187  31.302  1.00  0.00     0.074 A 
ATOM     58  C   UNL A   1      42.540  29.489  35.500  1.00  0.00     0.029 A 
ATOM     59  N   UNL A   1      41.277  29.702  33.681  1.00  0.00    -0.354 N 
ATOM     60  N   UNL A   1      39.063  30.795  32.097  1.00  0.00    -0.248 NA
ATOM     61  C   UNL A   1      37.081  32.020  31.966  1.00  0.00     0.031 C 
ATOM     62  C   UNL A   1      41.466  30.331  35.803  1.00  0.00     0.029 A 
ATOM     63  C   UNL A   1      40.692  30.481  34.664  1.00  0.00     0.049 A 
ATOM     64  H   UNL A   1      40.943  29.608  32.759  1.00  0.00     0.167 HD
ATOM     65  C   UNL A   1      38.796  31.366  33.335  1.00  0.00     0.074 A 
ATOM     66  C   UNL A   1      37.577  32.131  33.191  1.00  0.00     0.031 C 
ATOM     67  C   UNL A   1      39.500  31.268  34.489  1.00  0.00     0.037 A 
BRANCH  54  68
ATOM     68  C   UNL A   1      44.376  27.515  34.167  1.00  0.00     0.064 A 
ATOM     69  C   UNL A   1      45.635  28.123  34.270  1.00  0.00     0.173 A 
ATOM     70  C   UNL A   1      44.178  26.294  34.830  1.00  0.00     0.173 A 
ATOM     71  F   UNL A   1      45.877  29.285  33.642  1.00  0.00    -0.203 F 
ATOM     72  C   UNL A   1      46.658  27.527  35.002  1.00  0.00     0.198 A 
ATOM     73  C   UNL A   1      45.194  25.713  35.581  1.00  0.00     0.198 A 
ATOM     74  F   UNL A   1      42.990  25.674  34.763  1.00  0.00    -0.203 F 
ATOM     75  F   UNL A   1      47.862  28.112  35.066  1.00  0.00    -0.200 F 
ATOM     76  C   UNL A   1      46.434  26.329  35.665  1.00  0.00     0.200 A 
ATOM     77  F   UNL A   1      44.973  24.562  36.230  1.00  0.00    -0.200 F 
ATOM     78  F   UNL A   1      47.415  25.766  36.384  1.00  0.00    -0.200 F 
ENDBRANCH  54  68
BRANCH  55  79
ATOM     79  C   UNL A   1      36.713  31.457  29.120  1.00  0.00     0.064 A 
ATOM     80  C   UNL A   1      36.639  32.818  28.794  1.00  0.00     0.173 A 
ATOM     81  C   UNL A   1      35.612  30.649  28.798  1.00  0.00     0.173 A 
ATOM     82  F   UNL A   1      37.653  33.637  29.108  1.00  0.00    -0.203 F 
ATOM     83  C   UNL A   1      35.498  33.355  28.200  1.00  0.00     0.198 A 
ATOM     84  C   UNL A   1      34.485  31.181  28.177  1.00  0.00     0.198 A 
ATOM     85  F   UNL A   1      35.629  29.340  29.093  1.00  0.00    -0.203 F 
ATOM     86  F   UNL A   1      35.430  34.671  27.955  1.00  0.00    -0.200 F 
ATOM     87  C   UNL A   1      34.424  32.536  27.889  1.00  0.00     0.200 A 
ATOM     88  F   UNL A   1      33.452  30.384  27.869  1.00  0.00    -0.200 F 
ATOM     89  F   UNL A   1      33.325  33.055  27.324  1.00  0.00    -0.200 F 
ENDBRANCH  55  79
BRANCH  67  90
ATOM     90  C   UNL A   1      39.018  32.057  35.670  1.00  0.00     0.064 A 
ATOM     91  C   UNL A   1      38.244  31.474  36.683  1.00  0.00     0.173 A 
ATOM     92  C   UNL A   1      39.407  33.397  35.826  1.00  0.00     0.173 A 
ATOM     93  F   UNL A   1      37.837  30.200  36.572  1.00  0.00    -0.203 F 
ATOM     94  C   UNL A   1      37.864  32.209  37.803  1.00  0.00     0.198 A 
ATOM     95  C   UNL A   1      39.049  34.120  36.961  1.00  0.00     0.198 A 
ATOM     96  F   UNL A   1      40.156  33.997  34.889  1.00  0.00    -0.203 F 
ATOM     97  F   UNL A   1      37.098  31.641  38.745  1.00  0.00    -0.200 F 
ATOM     98  C   UNL A   1      38.275  33.527  37.946  1.00  0.00     0.200 A 
ATOM     99  F   UNL A   1      39.460  35.387  37.102  1.00  0.00    -0.200 F 
ATOM    100  F   UNL A   1      37.923  34.225  39.034  1.00  0.00    -0.200 F 
ENDBRANCH  67  90
ENDBRANCH  41  42
ENDBRANCH  34  36
ENDBRANCH  33  34
ENDBRANCH  32  33
ENDBRANCH  31  32
ENDBRANCH  30  31
ENDBRANCH   1  30
TORSDOF 19
ENDMDL
MODEL 3
REMARK VINA RESULT:     -11.8      5.055     10.667
REMARK SMILES CCc1ccc(Oc2ncnc(N3CCC(C(=O)OCCOCCOC(=O)c4ccc(-c5c6nc(c(-c7c(F)c(F)c(F)c(F)c7F)c7ccc([nH]7)c(-c7c(F)c(F)c(F)c(F)c7F)c7nc(c(-c8c(F)c(F)c(F)c(F)c8F)c8ccc5[nH]8)C=C7)C=C6)cc4)CC3)c2[N+](=O)[O-])cc1
REMARK SMILES IDX 21 1 20 2 19 3 17 4 18 5 16 6 13 7 14 8 92 9 15 10 91 11
REMARK SMILES IDX 12 12 8 13 9 14 93 15 10 16 11 17 7 18 6 19 3 20 4 21 98 22
REMARK SMILES IDX 5 23 97 24 2 25 1 26 94 27 95 28 96 29 22 30 23 31 24 32
REMARK SMILES IDX 25 33 26 34 27 35 28 36 29 37 90 38 30 39 89 40 31 41 32 42
REMARK SMILES IDX 33 43 83 44 34 45 88 46 82 47 84 48 35 49 87 50 81 51 80 52
REMARK SMILES IDX 36 54 68 55 48 56 67 57 49 58 52 59 66 60 85 61 50 62 51 63
REMARK SMILES IDX 65 65 86 66 53 67 37 68 38 69 46 70 39 71 40 72 44 73 47 74
REMARK SMILES IDX 41 75 42 76 45 77 43 78 69 79 70 80 78 81 71 82 72 83 76 84
REMARK SMILES IDX 79 85 73 86 74 87 77 88 75 89 54 90 55 91 63 92 56 93 57 94
REMARK SMILES IDX 61 95 64 96 58 97 59 98 62 99 60 100
REMARK H PARENT 84 53 52 64
REMARK Flexibility Score: inf
ROOT
ATOM      1  C   UNL A   1      33.248  35.350  30.626  1.00  0.00     0.202 C 
ENDROOT
BRANCH   1   2
ATOM      2  C   UNL A   1      34.187  34.642  29.647  1.00  0.00     0.261 C 
BRANCH   2   3
ATOM      3  O   UNL A   1      33.681  33.352  29.268  1.00  0.00    -0.463 OA
BRANCH   3   4
ATOM      4  C   UNL A   1      34.329  32.747  28.241  1.00  0.00     0.309 C 
ATOM      5  O   UNL A   1      35.272  33.224  27.621  1.00  0.00    -0.252 OA
BRANCH   4   6
ATOM      6  C   UNL A   1      33.738  31.401  27.885  1.00  0.00     0.103 C 
ATOM      7  N   UNL A   1      33.108  29.202  26.201  1.00  0.00    -0.351 N 
ATOM      8  C   UNL A   1      32.007  30.020  26.702  1.00  0.00     0.119 C 
ATOM      9  C   UNL A   1      34.329  29.134  26.992  1.00  0.00     0.119 C 
ATOM     10  C   UNL A   1      32.498  31.435  26.983  1.00  0.00     0.037 C 
ATOM     11  C   UNL A   1      34.836  30.546  27.254  1.00  0.00     0.037 C 
BRANCH   7  12
ATOM     12  C   UNL A   1      32.901  28.465  25.060  1.00  0.00     0.215 A 
ATOM     13  C   UNL A   1      32.157  26.621  23.769  1.00  0.00     0.305 A 
ATOM     14  N   UNL A   1      32.586  27.188  22.625  1.00  0.00    -0.195 NA
ATOM     15  C   UNL A   1      32.341  27.202  25.007  1.00  0.00     0.373 A 
ATOM     16  C   UNL A   1      33.143  28.393  22.757  1.00  0.00     0.228 A 
ATOM     17  N   UNL A   1      33.288  29.064  23.909  1.00  0.00    -0.212 NA
BRANCH  13  18
ATOM     18  O   UNL A   1      31.542  25.406  23.594  1.00  0.00    -0.434 OA
BRANCH  18  19
ATOM     19  C   UNL A   1      32.253  24.267  23.915  1.00  0.00     0.129 A 
ATOM     20  C   UNL A   1      33.949  22.118  24.547  1.00  0.00    -0.048 A 
ATOM     21  C   UNL A   1      34.383  23.138  23.691  1.00  0.00     0.007 A 
ATOM     22  C   UNL A   1      32.644  22.166  25.051  1.00  0.00     0.007 A 
ATOM     23  C   UNL A   1      33.542  24.209  23.382  1.00  0.00     0.047 A 
ATOM     24  C   UNL A   1      31.792  23.222  24.721  1.00  0.00     0.047 A 
BRANCH  20  25
ATOM     25  C   UNL A   1      34.875  20.991  24.928  1.00  0.00     0.032 C 
ATOM     26  C   UNL A   1      34.277  19.624  24.621  1.00  0.00     0.009 C 
ENDBRANCH  20  25
ENDBRANCH  18  19
ENDBRANCH  13  18
BRANCH  15  27
ATOM     27  N   UNL A   1      31.859  26.544  26.178  1.00  0.00     0.072 N 
ATOM     28  O   UNL A   1      32.662  25.852  26.819  1.00  0.00    -0.258 OA
ATOM     29  O   UNL A   1      30.660  26.692  26.453  1.00  0.00    -0.258 OA
ENDBRANCH  15  27
ENDBRANCH   7  12
ENDBRANCH   4   6
ENDBRANCH   3   4
ENDBRANCH   2   3
ENDBRANCH   1   2
BRANCH   1  30
ATOM     30  O   UNL A   1      33.417  35.036  32.007  1.00  0.00    -0.374 OA
BRANCH  30  31
ATOM     31  C   UNL A   1      34.691  35.294  32.593  1.00  0.00     0.202 C 
BRANCH  31  32
ATOM     32  C   UNL A   1      35.281  34.179  33.467  1.00  0.00     0.261 C 
BRANCH  32  33
ATOM     33  O   UNL A   1      36.176  33.324  32.731  1.00  0.00    -0.460 OA
BRANCH  33  34
ATOM     34  C   UNL A   1      35.606  32.215  32.208  1.00  0.00     0.338 C 
ATOM     35  O   UNL A   1      34.409  31.969  32.111  1.00  0.00    -0.246 OA
BRANCH  34  36
ATOM     36  C   UNL A   1      36.630  31.358  31.585  1.00  0.00     0.060 A 
ATOM     37  C   UNL A   1      37.567  30.741  32.426  1.00  0.00     0.016 A 
ATOM     38  C   UNL A   1      36.735  31.241  30.198  1.00  0.00     0.016 A 
ATOM     39  C   UNL A   1      38.646  30.046  31.882  1.00  0.00     0.010 A 
ATOM     40  C   UNL A   1      37.825  30.555  29.654  1.00  0.00     0.010 A 
ATOM     41  C   UNL A   1      38.803  29.988  30.492  1.00  0.00    -0.014 A 
BRANCH  41  42
ATOM     42  C   UNL A   1      40.073  29.494  29.904  1.00  0.00     0.031 A 
ATOM     43  C   UNL A   1      41.211  30.463  29.742  1.00  0.00     0.074 A 
ATOM     44  C   UNL A   1      40.207  28.216  29.509  1.00  0.00     0.049 A 
ATOM     45  N   UNL A   1      42.357  30.307  29.128  1.00  0.00    -0.248 NA
ATOM     46  C   UNL A   1      41.032  31.792  30.350  1.00  0.00     0.031 C 
ATOM     47  C   UNL A   1      39.199  27.172  29.667  1.00  0.00     0.029 A 
ATOM     48  N   UNL A   1      41.247  27.589  28.868  1.00  0.00    -0.354 N 
ATOM     49  C   UNL A   1      43.018  31.523  29.250  1.00  0.00     0.074 A 
ATOM     50  C   UNL A   1      42.150  32.409  29.992  1.00  0.00     0.031 C 
ATOM     51  C   UNL A   1      39.659  26.035  29.113  1.00  0.00     0.029 A 
ATOM     52  C   UNL A   1      40.975  26.287  28.525  1.00  0.00     0.049 A 
ATOM     53  H   UNL A   1      42.106  28.030  28.674  1.00  0.00     0.167 HD
ATOM     54  C   UNL A   1      44.239  31.864  28.780  1.00  0.00     0.037 A 
ATOM     55  C   UNL A   1      41.690  25.417  27.786  1.00  0.00     0.037 A 
ATOM     56  C   UNL A   1      45.111  30.971  28.065  1.00  0.00     0.049 A 
ATOM     57  C   UNL A   1      43.020  25.848  27.219  1.00  0.00     0.074 A 
ATOM     58  C   UNL A   1      46.384  31.214  27.580  1.00  0.00     0.029 A 
ATOM     59  N   UNL A   1      44.795  29.664  27.731  1.00  0.00    -0.354 N 
ATOM     60  N   UNL A   1      43.649  26.990  27.355  1.00  0.00    -0.248 NA
ATOM     61  C   UNL A   1      43.738  24.869  26.387  1.00  0.00     0.031 C 
ATOM     62  C   UNL A   1      46.820  30.068  26.911  1.00  0.00     0.029 A 
ATOM     63  C   UNL A   1      45.840  29.095  27.023  1.00  0.00     0.049 A 
ATOM     64  H   UNL A   1      43.954  29.207  27.964  1.00  0.00     0.167 HD
ATOM     65  C   UNL A   1      44.848  26.851  26.668  1.00  0.00     0.074 A 
ATOM     66  C   UNL A   1      44.862  25.515  26.112  1.00  0.00     0.031 C 
ATOM     67  C   UNL A   1      45.851  27.749  26.513  1.00  0.00     0.037 A 
BRANCH  54  68
ATOM     68  C   UNL A   1      44.705  33.273  28.990  1.00  0.00     0.064 A 
ATOM     69  C   UNL A   1      44.403  34.295  28.080  1.00  0.00     0.173 A 
ATOM     70  C   UNL A   1      45.399  33.617  30.160  1.00  0.00     0.173 A 
ATOM     71  F   UNL A   1      43.752  34.014  26.940  1.00  0.00    -0.203 F 
ATOM     72  C   UNL A   1      44.789  35.610  28.328  1.00  0.00     0.198 A 
ATOM     73  C   UNL A   1      45.762  34.935  30.417  1.00  0.00     0.198 A 
ATOM     74  F   UNL A   1      45.708  32.675  31.063  1.00  0.00    -0.203 F 
ATOM     75  F   UNL A   1      44.514  36.568  27.432  1.00  0.00    -0.200 F 
ATOM     76  C   UNL A   1      45.459  35.930  29.500  1.00  0.00     0.200 A 
ATOM     77  F   UNL A   1      46.398  35.245  31.555  1.00  0.00    -0.200 F 
ATOM     78  F   UNL A   1      45.814  37.199  29.746  1.00  0.00    -0.200 F 
ENDBRANCH  54  68
BRANCH  55  79
ATOM     79  C   UNL A   1      41.159  24.057  27.502  1.00  0.00     0.064 A 
ATOM     80  C   UNL A   1      41.773  22.916  28.035  1.00  0.00     0.173 A 
ATOM     81  C   UNL A   1      40.062  23.867  26.649  1.00  0.00     0.173 A 
ATOM     82  F   UNL A   1      42.844  23.043  28.833  1.00  0.00    -0.203 F 
ATOM     83  C   UNL A   1      41.329  21.636  27.703  1.00  0.00     0.198 A 
ATOM     84  C   UNL A   1      39.600  22.590  26.342  1.00  0.00     0.198 A 
ATOM     85  F   UNL A   1      39.440  24.926  26.107  1.00  0.00    -0.203 F 
ATOM     86  F   UNL A   1      41.973  20.562  28.179  1.00  0.00    -0.200 F 
ATOM     87  C   UNL A   1      40.241  21.475  26.860  1.00  0.00     0.200 A 
ATOM     88  F   UNL A   1      38.541  22.438  25.534  1.00  0.00    -0.200 F 
ATOM     89  F   UNL A   1      39.819  20.245  26.536  1.00  0.00    -0.200 F 
ENDBRANCH  55  79
BRANCH  67  90
ATOM     90  C   UNL A   1      47.079  27.305  25.776  1.00  0.00     0.064 A 
ATOM     91  C   UNL A   1      47.265  27.583  24.415  1.00  0.00     0.173 A 
ATOM     92  C   UNL A   1      48.119  26.660  26.465  1.00  0.00     0.173 A 
ATOM     93  F   UNL A   1      46.296  28.186  23.710  1.00  0.00    -0.203 F 
ATOM     94  C   UNL A   1      48.443  27.219  23.766  1.00  0.00     0.198 A 
ATOM     95  C   UNL A   1      49.305  26.322  25.820  1.00  0.00     0.198 A 
ATOM     96  F   UNL A   1      47.992  26.380  27.771  1.00  0.00    -0.203 F 
ATOM     97  F   UNL A   1      48.588  27.466  22.457  1.00  0.00    -0.200 F 
ATOM     98  C   UNL A   1      49.465  26.599  24.471  1.00  0.00     0.200 A 
ATOM     99  F   UNL A   1      50.296  25.737  26.508  1.00  0.00    -0.200 F 
ATOM    100  F   UNL A   1      50.604  26.266  23.849  1.00  0.00    -0.200 F 
ENDBRANCH  67  90
ENDBRANCH  41  42
ENDBRANCH  34  36
ENDBRANCH  33  34
ENDBRANCH  32  33
ENDBRANCH  31  32
ENDBRANCH  30  31
ENDBRANCH   1  30
TORSDOF 19
ENDMDL
