MODEL 1
REMARK VINA RESULT:     -11.6      0.000      0.000
REMARK SMILES O=C(OCCOCCOC(=O)c1csc(C[NH2+][C@H]2CCSc3ccc(F)cc32)c1)c1ccc(-c2c3nc(c(-c4c(F)c(F)c(F)c(F)c4F)c4ccc([nH]4)c(-c4c(F)c(F)c(F)c(F)c4F)c4nc(c(-c5c(F)c(F)c(F)c(F)c5F)c5ccc2[nH]5)C=C4)C=C3)cc1
REMARK SMILES IDX 7 1 6 2 5 3 4 4 3 5 2 6 1 7 30 8 31 9 92 10 32 11 91 12
REMARK SMILES IDX 33 13 34 14 35 15 85 16 36 17 90 18 84 19 86 20 37 21 89 22
REMARK SMILES IDX 83 23 82 24 38 26 70 27 50 28 69 29 51 30 54 31 68 32 87 33
REMARK SMILES IDX 52 34 53 35 67 37 88 38 55 39 39 40 40 41 48 42 41 43 42 44
REMARK SMILES IDX 46 45 49 46 43 47 44 48 47 49 45 50 71 51 72 52 80 53 73 54
REMARK SMILES IDX 74 55 78 56 81 57 75 58 76 59 79 60 77 61 56 62 57 63 65 64
REMARK SMILES IDX 58 65 59 66 63 67 66 68 60 69 61 70 64 71 62 72 8 73 9 74
REMARK SMILES IDX 10 75 11 76 12 77 13 78 29 79 14 80 15 81 16 82 17 83 18 86
REMARK SMILES IDX 19 87 28 88 20 89 22 90 27 91 21 92 23 93 25 94 24 95 26 96
REMARK H PARENT 86 25 54 36 17 84 17 85
REMARK Flexibility Score: inf
ROOT
ATOM      1  C   UNL A   1      43.620  19.443  25.632  1.00  0.00     0.202 C 
ENDROOT
BRANCH   1   2
ATOM      2  O   UNL A   1      43.534  20.726  25.000  1.00  0.00    -0.374 OA
BRANCH   2   3
ATOM      3  C   UNL A   1      44.775  21.252  24.530  1.00  0.00     0.202 C 
BRANCH   3   4
ATOM      4  C   UNL A   1      44.592  22.603  23.839  1.00  0.00     0.261 C 
BRANCH   4   5
ATOM      5  O   UNL A   1      43.855  23.505  24.682  1.00  0.00    -0.460 OA
BRANCH   5   6
ATOM      6  C   UNL A   1      44.162  24.728  25.162  1.00  0.00     0.338 C 
ATOM      7  O   UNL A   1      45.089  25.324  24.611  1.00  0.00    -0.246 OA
BRANCH   6   8
ATOM      8  C   UNL A   1      43.501  25.423  26.323  1.00  0.00     0.060 A 
ATOM      9  C   UNL A   1      43.917  26.751  26.558  1.00  0.00     0.016 A 
ATOM     10  C   UNL A   1      42.567  24.887  27.213  1.00  0.00     0.016 A 
ATOM     11  C   UNL A   1      43.438  27.500  27.640  1.00  0.00     0.010 A 
ATOM     12  C   UNL A   1      42.075  25.631  28.295  1.00  0.00     0.010 A 
ATOM     13  C   UNL A   1      42.516  26.936  28.519  1.00  0.00    -0.014 A 
BRANCH  13  14
ATOM     14  C   UNL A   1      41.992  27.702  29.668  1.00  0.00     0.031 A 
ATOM     15  C   UNL A   1      40.760  28.542  29.525  1.00  0.00     0.074 A 
ATOM     16  C   UNL A   1      42.656  27.664  30.835  1.00  0.00     0.049 A 
ATOM     17  N   UNL A   1      40.151  29.271  30.426  1.00  0.00    -0.248 NA
ATOM     18  C   UNL A   1      40.131  28.570  28.197  1.00  0.00     0.031 C 
ATOM     19  C   UNL A   1      43.876  26.897  31.084  1.00  0.00     0.029 A 
ATOM     20  N   UNL A   1      42.404  28.297  32.024  1.00  0.00    -0.354 N 
ATOM     21  C   UNL A   1      39.053  29.824  29.784  1.00  0.00     0.074 A 
ATOM     22  C   UNL A   1      39.099  29.379  28.406  1.00  0.00     0.031 C 
ATOM     23  C   UNL A   1      44.277  27.115  32.347  1.00  0.00     0.029 A 
ATOM     24  C   UNL A   1      43.344  28.038  32.988  1.00  0.00     0.049 A 
ATOM     25  H   UNL A   1      41.625  28.880  32.171  1.00  0.00     0.167 HD
ATOM     26  C   UNL A   1      38.086  30.616  30.304  1.00  0.00     0.037 A 
ATOM     27  C   UNL A   1      43.442  28.500  34.247  1.00  0.00     0.037 A 
ATOM     28  C   UNL A   1      38.049  31.074  31.667  1.00  0.00     0.049 A 
ATOM     29  C   UNL A   1      42.395  29.431  34.781  1.00  0.00     0.074 A 
ATOM     30  C   UNL A   1      37.083  31.838  32.298  1.00  0.00     0.029 A 
ATOM     31  N   UNL A   1      39.037  30.822  32.607  1.00  0.00    -0.354 N 
ATOM     32  N   UNL A   1      41.327  29.898  34.184  1.00  0.00    -0.248 NA
ATOM     33  C   UNL A   1      42.567  29.896  36.164  1.00  0.00     0.031 C 
ATOM     34  C   UNL A   1      37.500  32.069  33.616  1.00  0.00     0.029 A 
ATOM     35  C   UNL A   1      38.716  31.434  33.807  1.00  0.00     0.049 A 
ATOM     36  H   UNL A   1      39.848  30.286  32.444  1.00  0.00     0.167 HD
ATOM     37  C   UNL A   1      40.688  30.698  35.119  1.00  0.00     0.074 A 
ATOM     38  C   UNL A   1      41.492  30.659  36.324  1.00  0.00     0.031 C 
ATOM     39  C   UNL A   1      39.533  31.393  34.990  1.00  0.00     0.037 A 
BRANCH  26  40
ATOM     40  C   UNL A   1      36.975  31.023  29.391  1.00  0.00     0.064 A 
ATOM     41  C   UNL A   1      35.938  30.132  29.079  1.00  0.00     0.173 A 
ATOM     42  C   UNL A   1      36.926  32.315  28.850  1.00  0.00     0.173 A 
ATOM     43  F   UNL A   1      35.953  28.882  29.566  1.00  0.00    -0.203 F 
ATOM     44  C   UNL A   1      34.892  30.519  28.246  1.00  0.00     0.198 A 
ATOM     45  C   UNL A   1      35.873  32.701  28.026  1.00  0.00     0.198 A 
ATOM     46  F   UNL A   1      37.897  33.198  29.120  1.00  0.00    -0.203 F 
ATOM     47  F   UNL A   1      33.922  29.646  27.941  1.00  0.00    -0.200 F 
ATOM     48  C   UNL A   1      34.859  31.803  27.722  1.00  0.00     0.200 A 
ATOM     49  F   UNL A   1      35.840  33.941  27.518  1.00  0.00    -0.200 F 
ATOM     50  F   UNL A   1      33.852  32.173  26.918  1.00  0.00    -0.200 F 
ENDBRANCH  26  40
BRANCH  27  51
ATOM     51  C   UNL A   1      44.581  28.067  35.084  1.00  0.00     0.064 A 
ATOM     52  C   UNL A   1      44.514  26.882  35.827  1.00  0.00     0.173 A 
ATOM     53  C   UNL A   1      45.773  28.803  35.115  1.00  0.00     0.173 A 
ATOM     54  F   UNL A   1      43.386  26.157  35.830  1.00  0.00    -0.203 F 
ATOM     55  C   UNL A   1      45.606  26.444  36.571  1.00  0.00     0.198 A 
ATOM     56  C   UNL A   1      46.867  28.360  35.855  1.00  0.00     0.198 A 
ATOM     57  F   UNL A   1      45.876  29.942  34.416  1.00  0.00    -0.203 F 
ATOM     58  F   UNL A   1      45.521  25.311  37.280  1.00  0.00    -0.200 F 
ATOM     59  C   UNL A   1      46.782  27.180  36.580  1.00  0.00     0.200 A 
ATOM     60  F   UNL A   1      48.003  29.070  35.858  1.00  0.00    -0.200 F 
ATOM     61  F   UNL A   1      47.836  26.754  37.291  1.00  0.00    -0.200 F 
ENDBRANCH  27  51
BRANCH  39  62
ATOM     62  C   UNL A   1      39.067  32.158  36.187  1.00  0.00     0.064 A 
ATOM     63  C   UNL A   1      39.446  33.493  36.386  1.00  0.00     0.173 A 
ATOM     64  C   UNL A   1      38.213  31.562  37.125  1.00  0.00     0.173 A 
ATOM     65  F   UNL A   1      40.276  34.095  35.521  1.00  0.00    -0.203 F 
ATOM     66  C   UNL A   1      38.990  34.204  37.492  1.00  0.00     0.198 A 
ATOM     67  C   UNL A   1      37.751  32.280  38.223  1.00  0.00     0.198 A 
ATOM     68  F   UNL A   1      37.829  30.286  36.974  1.00  0.00    -0.203 F 
ATOM     69  F   UNL A   1      39.380  35.472  37.678  1.00  0.00    -0.200 F 
ATOM     70  C   UNL A   1      38.140  33.599  38.407  1.00  0.00     0.200 A 
ATOM     71  F   UNL A   1      36.932  31.695  39.109  1.00  0.00    -0.200 F 
ATOM     72  F   UNL A   1      37.704  34.286  39.472  1.00  0.00    -0.200 F 
ENDBRANCH  39  62
ENDBRANCH  13  14
ENDBRANCH   6   8
ENDBRANCH   5   6
ENDBRANCH   4   5
ENDBRANCH   3   4
ENDBRANCH   2   3
ENDBRANCH   1   2
BRANCH   1  73
ATOM     73  C   UNL A   1      42.420  19.220  26.560  1.00  0.00     0.261 C 
BRANCH  73  74
ATOM     74  O   UNL A   1      41.302  20.000  26.110  1.00  0.00    -0.460 OA
BRANCH  74  75
ATOM     75  C   UNL A   1      40.948  21.039  26.920  1.00  0.00     0.339 C 
ATOM     76  O   UNL A   1      41.605  21.455  27.866  1.00  0.00    -0.246 OA
BRANCH  75  77
ATOM     77  C   UNL A   1      39.763  21.725  26.421  1.00  0.00     0.071 A 
ATOM     78  C   UNL A   1      39.403  23.016  26.755  1.00  0.00     0.081 A 
ATOM     79  C   UNL A   1      38.773  21.121  25.576  1.00  0.00     0.037 A 
ATOM     80  S   UNL A   1      37.906  23.478  26.073  1.00  0.00    -0.142 S 
ATOM     81  C   UNL A   1      37.662  21.921  25.397  1.00  0.00     0.060 A 
BRANCH  81  82
ATOM     82  C   UNL A   1      36.362  21.568  24.732  1.00  0.00     0.308 C 
BRANCH  82  83
ATOM     83  N   UNL A   1      35.518  20.834  25.674  1.00  0.00    -0.336 N 
ATOM     84  H   UNL A   1      35.709  21.180  26.614  1.00  0.00     0.347 HD
ATOM     85  H   UNL A   1      35.747  19.845  25.569  1.00  0.00     0.347 HD
BRANCH  83  86
ATOM     86  C   UNL A   1      34.079  20.974  25.410  1.00  0.00     0.215 C 
ATOM     87  C   UNL A   1      33.836  22.421  24.946  1.00  0.00     0.081 C 
ATOM     88  C   UNL A   1      33.586  19.924  24.420  1.00  0.00     0.026 A 
ATOM     89  C   UNL A   1      32.370  22.674  24.661  1.00  0.00     0.081 C 
ATOM     90  C   UNL A   1      32.609  20.194  23.441  1.00  0.00     0.017 A 
ATOM     91  C   UNL A   1      34.069  18.601  24.520  1.00  0.00     0.050 A 
ATOM     92  S   UNL A   1      31.847  21.787  23.175  1.00  0.00    -0.125 SA
ATOM     93  C   UNL A   1      32.178  19.168  22.577  1.00  0.00     0.018 A 
ATOM     94  C   UNL A   1      33.623  17.601  23.663  1.00  0.00     0.123 A 
ATOM     95  C   UNL A   1      32.683  17.873  22.688  1.00  0.00     0.040 A 
ATOM     96  F   UNL A   1      34.106  16.359  23.790  1.00  0.00    -0.207 F 
ENDBRANCH  83  86
ENDBRANCH  82  83
ENDBRANCH  81  82
ENDBRANCH  75  77
ENDBRANCH  74  75
ENDBRANCH  73  74
ENDBRANCH   1  73
TORSDOF 17
ENDMDL
MODEL 2
REMARK VINA RESULT:     -11.5      5.200      9.851
REMARK SMILES O=C(OCCOCCOC(=O)c1csc(C[NH2+][C@H]2CCSc3ccc(F)cc32)c1)c1ccc(-c2c3nc(c(-c4c(F)c(F)c(F)c(F)c4F)c4ccc([nH]4)c(-c4c(F)c(F)c(F)c(F)c4F)c4nc(c(-c5c(F)c(F)c(F)c(F)c5F)c5ccc2[nH]5)C=C4)C=C3)cc1
REMARK SMILES IDX 7 1 6 2 5 3 4 4 3 5 2 6 1 7 30 8 31 9 92 10 32 11 91 12
REMARK SMILES IDX 33 13 34 14 35 15 85 16 36 17 90 18 84 19 86 20 37 21 89 22
REMARK SMILES IDX 83 23 82 24 38 26 70 27 50 28 69 29 51 30 54 31 68 32 87 33
REMARK SMILES IDX 52 34 53 35 67 37 88 38 55 39 39 40 40 41 48 42 41 43 42 44
REMARK SMILES IDX 46 45 49 46 43 47 44 48 47 49 45 50 71 51 72 52 80 53 73 54
REMARK SMILES IDX 74 55 78 56 81 57 75 58 76 59 79 60 77 61 56 62 57 63 65 64
REMARK SMILES IDX 58 65 59 66 63 67 66 68 60 69 61 70 64 71 62 72 8 73 9 74
REMARK SMILES IDX 10 75 11 76 12 77 13 78 29 79 14 80 15 81 16 82 17 83 18 86
REMARK SMILES IDX 19 87 28 88 20 89 22 90 27 91 21 92 23 93 25 94 24 95 26 96
REMARK H PARENT 86 25 54 36 17 84 17 85
REMARK Flexibility Score: inf
ROOT
ATOM      1  C   UNL A   1      41.538  21.614  26.178  1.00  0.00     0.202 C 
ENDROOT
BRANCH   1   2
ATOM      2  O   UNL A   1      41.579  20.262  25.709  1.00  0.00    -0.374 OA
BRANCH   2   3
ATOM      3  C   UNL A   1      42.206  19.333  26.594  1.00  0.00     0.202 C 
BRANCH   3   4
ATOM      4  C   UNL A   1      43.050  18.310  25.836  1.00  0.00     0.261 C 
BRANCH   4   5
ATOM      5  O   UNL A   1      43.554  18.878  24.614  1.00  0.00    -0.460 OA
BRANCH   5   6
ATOM      6  C   UNL A   1      44.658  19.612  24.361  1.00  0.00     0.338 C 
ATOM      7  O   UNL A   1      45.599  19.030  23.818  1.00  0.00    -0.246 OA
BRANCH   6   8
ATOM      8  C   UNL A   1      44.862  21.064  24.704  1.00  0.00     0.060 A 
ATOM      9  C   UNL A   1      45.256  21.329  26.034  1.00  0.00     0.016 A 
ATOM     10  C   UNL A   1      44.658  22.169  23.874  1.00  0.00     0.016 A 
ATOM     11  C   UNL A   1      45.421  22.633  26.514  1.00  0.00     0.010 A 
ATOM     12  C   UNL A   1      44.828  23.479  24.343  1.00  0.00     0.010 A 
ATOM     13  C   UNL A   1      45.200  23.718  25.667  1.00  0.00    -0.014 A 
BRANCH  13  14
ATOM     14  C   UNL A   1      45.368  25.105  26.146  1.00  0.00     0.031 A 
ATOM     15  C   UNL A   1      46.717  25.755  26.140  1.00  0.00     0.074 A 
ATOM     16  C   UNL A   1      44.298  25.765  26.620  1.00  0.00     0.049 A 
ATOM     17  N   UNL A   1      47.050  26.965  26.511  1.00  0.00    -0.248 NA
ATOM     18  C   UNL A   1      47.840  24.939  25.657  1.00  0.00     0.031 C 
ATOM     19  C   UNL A   1      42.940  25.225  26.692  1.00  0.00     0.029 A 
ATOM     20  N   UNL A   1      44.190  27.026  27.144  1.00  0.00    -0.354 N 
ATOM     21  C   UNL A   1      48.414  27.067  26.283  1.00  0.00     0.074 A 
ATOM     22  C   UNL A   1      48.857  25.783  25.778  1.00  0.00     0.031 C 
ATOM     23  C   UNL A   1      42.135  26.147  27.244  1.00  0.00     0.029 A 
ATOM     24  C   UNL A   1      42.923  27.334  27.564  1.00  0.00     0.049 A 
ATOM     25  H   UNL A   1      44.949  27.649  27.211  1.00  0.00     0.167 HD
ATOM     26  C   UNL A   1      49.218  28.142  26.463  1.00  0.00     0.037 A 
ATOM     27  C   UNL A   1      42.452  28.451  28.150  1.00  0.00     0.037 A 
ATOM     28  C   UNL A   1      48.783  29.411  26.983  1.00  0.00     0.049 A 
ATOM     29  C   UNL A   1      43.377  29.604  28.402  1.00  0.00     0.074 A 
ATOM     30  C   UNL A   1      49.514  30.573  27.153  1.00  0.00     0.029 A 
ATOM     31  N   UNL A   1      47.499  29.676  27.433  1.00  0.00    -0.354 N 
ATOM     32  N   UNL A   1      44.652  29.712  28.125  1.00  0.00    -0.248 NA
ATOM     33  C   UNL A   1      42.794  30.790  29.044  1.00  0.00     0.031 C 
ATOM     34  C   UNL A   1      48.677  31.536  27.730  1.00  0.00     0.029 A 
ATOM     35  C   UNL A   1      47.421  30.977  27.902  1.00  0.00     0.049 A 
ATOM     36  H   UNL A   1      46.752  29.034  27.420  1.00  0.00     0.167 HD
ATOM     37  C   UNL A   1      45.025  30.980  28.542  1.00  0.00     0.074 A 
ATOM     38  C   UNL A   1      43.841  31.605  29.098  1.00  0.00     0.031 C 
ATOM     39  C   UNL A   1      46.239  31.576  28.461  1.00  0.00     0.037 A 
BRANCH  26  40
ATOM     40  C   UNL A   1      50.654  27.990  26.076  1.00  0.00     0.064 A 
ATOM     41  C   UNL A   1      51.629  27.690  27.037  1.00  0.00     0.173 A 
ATOM     42  C   UNL A   1      51.055  28.113  24.739  1.00  0.00     0.173 A 
ATOM     43  F   UNL A   1      51.290  27.577  28.330  1.00  0.00    -0.203 F 
ATOM     44  C   UNL A   1      52.963  27.527  26.673  1.00  0.00     0.198 A 
ATOM     45  C   UNL A   1      52.387  27.939  24.377  1.00  0.00     0.198 A 
ATOM     46  F   UNL A   1      50.155  28.401  23.787  1.00  0.00    -0.203 F 
ATOM     47  F   UNL A   1      53.884  27.263  27.609  1.00  0.00    -0.200 F 
ATOM     48  C   UNL A   1      53.340  27.650  25.344  1.00  0.00     0.200 A 
ATOM     49  F   UNL A   1      52.753  28.058  23.093  1.00  0.00    -0.200 F 
ATOM     50  F   UNL A   1      54.625  27.495  24.995  1.00  0.00    -0.200 F 
ENDBRANCH  26  40
BRANCH  27  51
ATOM     51  C   UNL A   1      41.023  28.518  28.522  1.00  0.00     0.064 A 
ATOM     52  C   UNL A   1      40.597  28.131  29.799  1.00  0.00     0.173 A 
ATOM     53  C   UNL A   1      40.068  29.019  27.627  1.00  0.00     0.173 A 
ATOM     54  F   UNL A   1      41.480  27.637  30.678  1.00  0.00    -0.203 F 
ATOM     55  C   UNL A   1      39.260  28.246  30.169  1.00  0.00     0.198 A 
ATOM     56  C   UNL A   1      38.733  29.140  28.002  1.00  0.00     0.198 A 
ATOM     57  F   UNL A   1      40.439  29.400  26.396  1.00  0.00    -0.203 F 
ATOM     58  F   UNL A   1      38.871  27.866  31.393  1.00  0.00    -0.200 F 
ATOM     59  C   UNL A   1      38.331  28.755  29.273  1.00  0.00     0.200 A 
ATOM     60  F   UNL A   1      37.838  29.636  27.137  1.00  0.00    -0.200 F 
ATOM     61  F   UNL A   1      37.045  28.874  29.634  1.00  0.00    -0.200 F 
ENDBRANCH  27  51
BRANCH  39  62
ATOM     62  C   UNL A   1      46.341  32.975  28.977  1.00  0.00     0.064 A 
ATOM     63  C   UNL A   1      46.084  34.074  28.145  1.00  0.00     0.173 A 
ATOM     64  C   UNL A   1      46.669  33.218  30.318  1.00  0.00     0.173 A 
ATOM     65  F   UNL A   1      45.785  33.886  26.852  1.00  0.00    -0.203 F 
ATOM     66  C   UNL A   1      46.160  35.373  28.640  1.00  0.00     0.198 A 
ATOM     67  C   UNL A   1      46.733  34.517  30.811  1.00  0.00     0.198 A 
ATOM     68  F   UNL A   1      46.925  32.194  31.146  1.00  0.00    -0.203 F 
ATOM     69  F   UNL A   1      45.934  36.412  27.826  1.00  0.00    -0.200 F 
ATOM     70  C   UNL A   1      46.481  35.593  29.973  1.00  0.00     0.200 A 
ATOM     71  F   UNL A   1      47.045  34.730  32.097  1.00  0.00    -0.200 F 
ATOM     72  F   UNL A   1      46.555  36.845  30.446  1.00  0.00    -0.200 F 
ENDBRANCH  39  62
ENDBRANCH  13  14
ENDBRANCH   6   8
ENDBRANCH   5   6
ENDBRANCH   4   5
ENDBRANCH   3   4
ENDBRANCH   2   3
ENDBRANCH   1   2
BRANCH   1  73
ATOM     73  C   UNL A   1      40.225  21.886  26.922  1.00  0.00     0.261 C 
BRANCH  73  74
ATOM     74  O   UNL A   1      39.134  21.927  25.989  1.00  0.00    -0.460 OA
BRANCH  74  75
ATOM     75  C   UNL A   1      38.294  22.994  26.114  1.00  0.00     0.339 C 
ATOM     76  O   UNL A   1      38.626  24.119  26.466  1.00  0.00    -0.246 OA
BRANCH  75  77
ATOM     77  C   UNL A   1      36.963  22.689  25.605  1.00  0.00     0.071 A 
ATOM     78  C   UNL A   1      36.386  21.435  25.619  1.00  0.00     0.081 A 
ATOM     79  C   UNL A   1      36.108  23.638  24.952  1.00  0.00     0.037 A 
ATOM     80  S   UNL A   1      34.858  21.407  24.854  1.00  0.00    -0.142 S 
ATOM     81  C   UNL A   1      34.984  23.057  24.402  1.00  0.00     0.060 A 
BRANCH  81  82
ATOM     82  C   UNL A   1      33.959  23.686  23.503  1.00  0.00     0.308 C 
BRANCH  82  83
ATOM     83  N   UNL A   1      34.084  25.142  23.566  1.00  0.00    -0.336 N 
ATOM     84  H   UNL A   1      34.552  25.461  22.717  1.00  0.00     0.347 HD
ATOM     85  H   UNL A   1      34.617  25.358  24.409  1.00  0.00     0.347 HD
BRANCH  83  86
ATOM     86  C   UNL A   1      32.797  25.842  23.678  1.00  0.00     0.215 C 
ATOM     87  C   UNL A   1      31.687  24.790  23.508  1.00  0.00     0.081 C 
ATOM     88  C   UNL A   1      32.698  26.628  24.981  1.00  0.00     0.026 A 
ATOM     89  C   UNL A   1      30.310  25.417  23.593  1.00  0.00     0.081 C 
ATOM     90  C   UNL A   1      31.503  26.742  25.719  1.00  0.00     0.017 A 
ATOM     91  C   UNL A   1      33.828  27.335  25.448  1.00  0.00     0.050 A 
ATOM     92  S   UNL A   1      29.959  25.957  25.281  1.00  0.00    -0.125 SA
ATOM     93  C   UNL A   1      31.476  27.509  26.900  1.00  0.00     0.018 A 
ATOM     94  C   UNL A   1      33.777  28.095  26.611  1.00  0.00     0.123 A 
ATOM     95  C   UNL A   1      32.611  28.185  27.345  1.00  0.00     0.040 A 
ATOM     96  F   UNL A   1      34.870  28.751  27.020  1.00  0.00    -0.207 F 
ENDBRANCH  83  86
ENDBRANCH  82  83
ENDBRANCH  81  82
ENDBRANCH  75  77
ENDBRANCH  74  75
ENDBRANCH  73  74
ENDBRANCH   1  73
TORSDOF 17
ENDMDL
MODEL 3
REMARK VINA RESULT:     -11.2      0.841      7.323
REMARK SMILES O=C(OCCOCCOC(=O)c1csc(C[NH2+][C@H]2CCSc3ccc(F)cc32)c1)c1ccc(-c2c3nc(c(-c4c(F)c(F)c(F)c(F)c4F)c4ccc([nH]4)c(-c4c(F)c(F)c(F)c(F)c4F)c4nc(c(-c5c(F)c(F)c(F)c(F)c5F)c5ccc2[nH]5)C=C4)C=C3)cc1
REMARK SMILES IDX 7 1 6 2 5 3 4 4 3 5 2 6 1 7 30 8 31 9 92 10 32 11 91 12
REMARK SMILES IDX 33 13 34 14 35 15 85 16 36 17 90 18 84 19 86 20 37 21 89 22
REMARK SMILES IDX 83 23 82 24 38 26 70 27 50 28 69 29 51 30 54 31 68 32 87 33
REMARK SMILES IDX 52 34 53 35 67 37 88 38 55 39 39 40 40 41 48 42 41 43 42 44
REMARK SMILES IDX 46 45 49 46 43 47 44 48 47 49 45 50 71 51 72 52 80 53 73 54
REMARK SMILES IDX 74 55 78 56 81 57 75 58 76 59 79 60 77 61 56 62 57 63 65 64
REMARK SMILES IDX 58 65 59 66 63 67 66 68 60 69 61 70 64 71 62 72 8 73 9 74
REMARK SMILES IDX 10 75 11 76 12 77 13 78 29 79 14 80 15 81 16 82 17 83 18 86
REMARK SMILES IDX 19 87 28 88 20 89 22 90 27 91 21 92 23 93 25 94 24 95 26 96
REMARK H PARENT 86 25 54 36 17 84 17 85
REMARK Flexibility Score: inf
ROOT
ATOM      1  C   UNL A   1      43.487  19.445  25.237  1.00  0.00     0.202 C 
ENDROOT
BRANCH   1   2
ATOM      2  O   UNL A   1      43.706  20.829  24.941  1.00  0.00    -0.374 OA
BRANCH   2   3
ATOM      3  C   UNL A   1      45.010  21.143  24.451  1.00  0.00     0.202 C 
BRANCH   3   4
ATOM      4  C   UNL A   1      45.055  22.527  23.806  1.00  0.00     0.261 C 
BRANCH   4   5
ATOM      5  O   UNL A   1      44.299  23.471  24.584  1.00  0.00    -0.460 OA
BRANCH   5   6
ATOM      6  C   UNL A   1      44.640  24.662  25.118  1.00  0.00     0.338 C 
ATOM      7  O   UNL A   1      45.617  25.233  24.626  1.00  0.00    -0.246 OA
BRANCH   6   8
ATOM      8  C   UNL A   1      43.964  25.349  26.275  1.00  0.00     0.060 A 
ATOM      9  C   UNL A   1      44.314  26.702  26.473  1.00  0.00     0.016 A 
ATOM     10  C   UNL A   1      43.075  24.786  27.194  1.00  0.00     0.016 A 
ATOM     11  C   UNL A   1      43.815  27.450  27.546  1.00  0.00     0.010 A 
ATOM     12  C   UNL A   1      42.563  25.528  28.267  1.00  0.00     0.010 A 
ATOM     13  C   UNL A   1      42.938  26.860  28.454  1.00  0.00    -0.014 A 
BRANCH  13  14
ATOM     14  C   UNL A   1      42.394  27.624  29.595  1.00  0.00     0.031 A 
ATOM     15  C   UNL A   1      43.029  27.530  30.948  1.00  0.00     0.074 A 
ATOM     16  C   UNL A   1      41.298  28.379  29.410  1.00  0.00     0.049 A 
ATOM     17  N   UNL A   1      42.695  28.136  32.059  1.00  0.00    -0.248 NA
ATOM     18  C   UNL A   1      44.190  26.636  31.070  1.00  0.00     0.031 C 
ATOM     19  C   UNL A   1      40.584  28.530  28.143  1.00  0.00     0.029 A 
ATOM     20  N   UNL A   1      40.587  29.146  30.295  1.00  0.00    -0.354 N 
ATOM     21  C   UNL A   1      43.618  27.719  33.007  1.00  0.00     0.074 A 
ATOM     22  C   UNL A   1      44.503  26.778  32.352  1.00  0.00     0.031 C 
ATOM     23  C   UNL A   1      39.524  29.333  28.334  1.00  0.00     0.029 A 
ATOM     24  C   UNL A   1      39.487  29.744  29.735  1.00  0.00     0.049 A 
ATOM     25  H   UNL A   1      40.840  29.257  31.240  1.00  0.00     0.167 HD
ATOM     26  C   UNL A   1      43.725  28.104  34.301  1.00  0.00     0.037 A 
ATOM     27  C   UNL A   1      38.551  30.532  30.295  1.00  0.00     0.037 A 
ATOM     28  C   UNL A   1      42.834  29.024  34.957  1.00  0.00     0.049 A 
ATOM     29  C   UNL A   1      38.652  30.889  31.747  1.00  0.00     0.074 A 
ATOM     30  C   UNL A   1      42.893  29.511  36.251  1.00  0.00     0.029 A 
ATOM     31  N   UNL A   1      41.709  29.582  34.370  1.00  0.00    -0.354 N 
ATOM     32  N   UNL A   1      39.564  30.539  32.620  1.00  0.00    -0.248 NA
ATOM     33  C   UNL A   1      37.595  31.753  32.290  1.00  0.00     0.031 C 
ATOM     34  C   UNL A   1      41.788  30.347  36.454  1.00  0.00     0.029 A 
ATOM     35  C   UNL A   1      41.053  30.392  35.280  1.00  0.00     0.049 A 
ATOM     36  H   UNL A   1      41.421  29.425  33.441  1.00  0.00     0.167 HD
ATOM     37  C   UNL A   1      39.204  31.151  33.811  1.00  0.00     0.074 A 
ATOM     38  C   UNL A   1      37.985  31.891  33.552  1.00  0.00     0.031 C 
ATOM     39  C   UNL A   1      39.836  31.110  35.008  1.00  0.00     0.037 A 
BRANCH  26  40
ATOM     40  C   UNL A   1      44.862  27.536  35.088  1.00  0.00     0.064 A 
ATOM     41  C   UNL A   1      46.047  28.263  35.264  1.00  0.00     0.173 A 
ATOM     42  C   UNL A   1      44.759  26.277  35.695  1.00  0.00     0.173 A 
ATOM     43  F   UNL A   1      46.192  29.467  34.690  1.00  0.00    -0.203 F 
ATOM     44  C   UNL A   1      47.097  27.744  36.015  1.00  0.00     0.198 A 
ATOM     45  C   UNL A   1      45.807  25.766  36.454  1.00  0.00     0.198 A 
ATOM     46  F   UNL A   1      43.644  25.546  35.551  1.00  0.00    -0.203 F 
ATOM     47  F   UNL A   1      48.232  28.444  36.154  1.00  0.00    -0.200 F 
ATOM     48  C   UNL A   1      46.976  26.497  36.611  1.00  0.00     0.200 A 
ATOM     49  F   UNL A   1      45.691  24.561  37.030  1.00  0.00    -0.200 F 
ATOM     50  F   UNL A   1      47.989  25.998  37.333  1.00  0.00    -0.200 F 
ENDBRANCH  26  40
BRANCH  27  51
ATOM     51  C   UNL A   1      37.445  31.039  29.456  1.00  0.00     0.064 A 
ATOM     52  C   UNL A   1      36.406  30.191  29.051  1.00  0.00     0.173 A 
ATOM     53  C   UNL A   1      37.380  32.389  29.087  1.00  0.00     0.173 A 
ATOM     54  F   UNL A   1      36.439  28.891  29.376  1.00  0.00    -0.203 F 
ATOM     55  C   UNL A   1      35.335  30.680  28.308  1.00  0.00     0.198 A 
ATOM     56  C   UNL A   1      36.306  32.878  28.349  1.00  0.00     0.198 A 
ATOM     57  F   UNL A   1      38.356  33.232  29.456  1.00  0.00    -0.203 F 
ATOM     58  F   UNL A   1      34.354  29.852  27.926  1.00  0.00    -0.200 F 
ATOM     59  C   UNL A   1      35.283  32.023  27.962  1.00  0.00     0.200 A 
ATOM     60  F   UNL A   1      36.256  34.175  28.020  1.00  0.00    -0.200 F 
ATOM     61  F   UNL A   1      34.248  32.494  27.253  1.00  0.00    -0.200 F 
ENDBRANCH  27  51
BRANCH  39  62
ATOM     62  C   UNL A   1      39.223  31.894  36.123  1.00  0.00     0.064 A 
ATOM     63  C   UNL A   1      38.258  31.324  36.965  1.00  0.00     0.173 A 
ATOM     64  C   UNL A   1      39.626  33.214  36.371  1.00  0.00     0.173 A 
ATOM     65  F   UNL A   1      37.833  30.071  36.752  1.00  0.00    -0.203 F 
ATOM     66  C   UNL A   1      37.709  32.055  38.014  1.00  0.00     0.198 A 
ATOM     67  C   UNL A   1      39.082  33.937  37.427  1.00  0.00     0.198 A 
ATOM     68  F   UNL A   1      40.545  33.798  35.587  1.00  0.00    -0.203 F 
ATOM     69  F   UNL A   1      36.771  31.502  38.795  1.00  0.00    -0.200 F 
ATOM     70  C   UNL A   1      38.124  33.359  38.247  1.00  0.00     0.200 A 
ATOM     71  F   UNL A   1      39.481  35.198  37.651  1.00  0.00    -0.200 F 
ATOM     72  F   UNL A   1      37.593  34.061  39.257  1.00  0.00    -0.200 F 
ENDBRANCH  39  62
ENDBRANCH  13  14
ENDBRANCH   6   8
ENDBRANCH   5   6
ENDBRANCH   4   5
ENDBRANCH   3   4
ENDBRANCH   2   3
ENDBRANCH   1   2
BRANCH   1  73
ATOM     73  C   UNL A   1      42.349  19.286  26.253  1.00  0.00     0.261 C 
BRANCH  73  74
ATOM     74  O   UNL A   1      41.309  20.237  25.974  1.00  0.00    -0.460 OA
BRANCH  74  75
ATOM     75  C   UNL A   1      40.742  20.824  27.067  1.00  0.00     0.339 C 
ATOM     76  O   UNL A   1      41.080  20.633  28.228  1.00  0.00    -0.246 OA
BRANCH  75  77
ATOM     77  C   UNL A   1      39.789  21.858  26.683  1.00  0.00     0.071 A 
ATOM     78  C   UNL A   1      39.789  23.148  27.176  1.00  0.00     0.081 A 
ATOM     79  C   UNL A   1      38.678  21.648  25.800  1.00  0.00     0.037 A 
ATOM     80  S   UNL A   1      38.476  24.073  26.593  1.00  0.00    -0.142 S 
ATOM     81  C   UNL A   1      37.825  22.731  25.745  1.00  0.00     0.060 A 
BRANCH  81  82
ATOM     82  C   UNL A   1      36.482  22.822  25.079  1.00  0.00     0.308 C 
BRANCH  82  83
ATOM     83  N   UNL A   1      35.430  22.618  26.075  1.00  0.00    -0.336 N 
ATOM     84  H   UNL A   1      35.722  23.063  26.946  1.00  0.00     0.347 HD
ATOM     85  H   UNL A   1      35.307  21.610  26.175  1.00  0.00     0.347 HD
BRANCH  83  86
ATOM     86  C   UNL A   1      34.128  23.176  25.682  1.00  0.00     0.215 C 
ATOM     87  C   UNL A   1      34.366  24.631  25.242  1.00  0.00     0.081 C 
ATOM     88  C   UNL A   1      33.451  22.319  24.617  1.00  0.00     0.026 A 
ATOM     89  C   UNL A   1      33.074  25.304  24.828  1.00  0.00     0.081 C 
ATOM     90  C   UNL A   1      32.698  22.865  23.559  1.00  0.00     0.017 A 
ATOM     91  C   UNL A   1      33.515  20.912  24.720  1.00  0.00     0.050 A 
ATOM     92  S   UNL A   1      32.465  24.613  23.273  1.00  0.00    -0.125 SA
ATOM     93  C   UNL A   1      32.074  22.013  22.627  1.00  0.00     0.018 A 
ATOM     94  C   UNL A   1      32.883  20.090  23.795  1.00  0.00     0.123 A 
ATOM     95  C   UNL A   1      32.165  20.627  22.745  1.00  0.00     0.040 A 
ATOM     96  F   UNL A   1      32.967  18.760  23.928  1.00  0.00    -0.207 F 
ENDBRANCH  83  86
ENDBRANCH  82  83
ENDBRANCH  81  82
ENDBRANCH  75  77
ENDBRANCH  74  75
ENDBRANCH  73  74
ENDBRANCH   1  73
TORSDOF 17
ENDMDL
