MODEL 1
REMARK VINA RESULT:     -12.3      0.000      0.000
REMARK SMILES O=C(COc1nc(Nc2ccc(Cl)cc2Cl)nc2c1C[N@H+](Cc1ccccc1)CC2)OCCOCCOC(=O)c1ccc(-c2c3nc(c(-c4c(F)c(F)c(F)c(F)c4F)c4ccc([nH]4)c(-c4c(F)c(F)c(F)c(F)c4F)c4nc(c(-c5c(F)c(F)c(F)c(F)c5F)c5ccc2[nH]5)C=C4)C=C3)cc1
REMARK SMILES IDX 33 1 32 2 31 3 2 4 1 5 3 6 4 7 5 8 6 9 19 10 7 11 18 12
REMARK SMILES IDX 20 13 17 14 30 15 21 16 29 17 8 19 9 21 10 22 15 23 11 24
REMARK SMILES IDX 14 25 16 26 12 27 13 28 22 29 23 30 24 31 28 32 25 33 27 34
REMARK SMILES IDX 26 35 34 36 35 37 36 38 37 39 38 40 39 41 40 42 41 43 102 44
REMARK SMILES IDX 42 45 101 46 43 47 44 48 45 49 95 50 46 51 100 52 94 53
REMARK SMILES IDX 96 54 47 55 99 56 93 57 92 58 48 60 80 61 60 62 79 63 61 64
REMARK SMILES IDX 64 65 78 66 97 67 62 68 63 69 77 71 98 72 65 73 49 74 50 75
REMARK SMILES IDX 58 76 51 77 52 78 56 79 59 80 53 81 54 82 57 83 55 84 81 85
REMARK SMILES IDX 82 86 90 87 83 88 84 89 88 90 91 91 85 92 86 93 89 94 87 95
REMARK SMILES IDX 66 96 67 97 75 98 68 99 69 100 73 101 76 102 70 103 71 104
REMARK SMILES IDX 74 105 72 106
REMARK H PARENT 21 18 8 20 96 59 64 70
REMARK Flexibility Score: inf
ROOT
ATOM      1  C   UNL A   1      34.617  23.149  26.042  1.00  0.00     0.202 C 
ENDROOT
BRANCH   1   2
ATOM      2  C   UNL A   1      34.048  22.410  27.253  1.00  0.00     0.261 C 
BRANCH   2   3
ATOM      3  O   UNL A   1      32.615  22.364  27.283  1.00  0.00    -0.461 OA
BRANCH   3   4
ATOM      4  C   UNL A   1      31.819  23.457  27.172  1.00  0.00     0.344 C 
ATOM      5  O   UNL A   1      32.136  24.504  27.740  1.00  0.00    -0.248 OA
BRANCH   4   6
ATOM      6  C   UNL A   1      30.461  23.329  26.480  1.00  0.00     0.353 C 
BRANCH   6   7
ATOM      7  O   UNL A   1      30.115  24.235  25.454  1.00  0.00    -0.465 OA
BRANCH   7   8
ATOM      8  C   UNL A   1      30.999  24.076  24.417  1.00  0.00     0.228 A 
ATOM      9  N   UNL A   1      31.035  22.889  23.823  1.00  0.00    -0.177 NA
ATOM     10  C   UNL A   1      31.793  25.131  24.099  1.00  0.00     0.090 A 
ATOM     11  C   UNL A   1      31.979  22.689  22.906  1.00  0.00     0.230 A 
ATOM     12  C   UNL A   1      32.743  24.865  23.145  1.00  0.00     0.064 A 
ATOM     13  C   UNL A   1      31.531  26.470  24.687  1.00  0.00     0.307 C 
ATOM     14  N   UNL A   1      32.879  23.636  22.568  1.00  0.00    -0.217 NA
ATOM     15  C   UNL A   1      33.717  25.970  22.812  1.00  0.00     0.118 C 
ATOM     16  N   UNL A   1      32.601  27.442  24.491  1.00  0.00    -0.327 N 
ATOM     17  C   UNL A   1      33.140  27.375  23.126  1.00  0.00     0.269 C 
ATOM     18  H   UNL A   1      33.392  27.204  25.091  1.00  0.00     0.348 HD
BRANCH  11  19
ATOM     19  N   UNL A   1      32.078  21.398  22.378  1.00  0.00    -0.323 N 
ATOM     20  H   UNL A   1      31.913  21.292  21.413  1.00  0.00     0.170 HD
BRANCH  19  21
ATOM     21  C   UNL A   1      32.395  20.231  23.110  1.00  0.00     0.060 A 
ATOM     22  C   UNL A   1      32.664  20.345  24.485  1.00  0.00     0.029 A 
ATOM     23  C   UNL A   1      32.307  18.926  22.568  1.00  0.00     0.066 A 
ATOM     24  C   UNL A   1      32.826  19.207  25.290  1.00  0.00     0.023 A 
ATOM     25  C   UNL A   1      32.479  17.790  23.369  1.00  0.00     0.043 A 
ATOM     26  Cl  UNL A   1      32.052  18.654  20.875  1.00  0.00    -0.082 Cl
ATOM     27  C   UNL A   1      32.727  17.937  24.728  1.00  0.00     0.042 A 
ATOM     28  Cl  UNL A   1      32.908  16.540  25.719  1.00  0.00    -0.084 Cl
ENDBRANCH  19  21
ENDBRANCH  11  19
BRANCH  16  29
ATOM     29  C   UNL A   1      32.172  28.788  24.932  1.00  0.00     0.299 C 
BRANCH  29  30
ATOM     30  C   UNL A   1      33.011  29.462  26.004  1.00  0.00     0.006 A 
ATOM     31  C   UNL A   1      34.218  28.882  26.417  1.00  0.00     0.009 A 
ATOM     32  C   UNL A   1      32.621  30.678  26.597  1.00  0.00     0.009 A 
ATOM     33  C   UNL A   1      35.037  29.525  27.348  1.00  0.00     0.001 A 
ATOM     34  C   UNL A   1      33.459  31.340  27.496  1.00  0.00     0.001 A 
ATOM     35  C   UNL A   1      34.670  30.764  27.867  1.00  0.00     0.000 A 
ENDBRANCH  29  30
ENDBRANCH  16  29
ENDBRANCH   7   8
ENDBRANCH   6   7
ENDBRANCH   4   6
ENDBRANCH   3   4
ENDBRANCH   2   3
ENDBRANCH   1   2
BRANCH   1  36
ATOM     36  O   UNL A   1      35.616  22.519  25.247  1.00  0.00    -0.374 OA
BRANCH  36  37
ATOM     37  C   UNL A   1      36.051  21.204  25.608  1.00  0.00     0.202 C 
BRANCH  37  38
ATOM     38  C   UNL A   1      37.304  20.621  24.957  1.00  0.00     0.261 C 
BRANCH  38  39
ATOM     39  O   UNL A   1      38.420  21.513  25.058  1.00  0.00    -0.460 OA
BRANCH  39  40
ATOM     40  C   UNL A   1      39.317  21.171  26.007  1.00  0.00     0.338 C 
ATOM     41  O   UNL A   1      39.878  20.090  26.147  1.00  0.00    -0.246 OA
BRANCH  40  42
ATOM     42  C   UNL A   1      39.721  22.371  26.752  1.00  0.00     0.060 A 
ATOM     43  C   UNL A   1      39.081  23.577  26.426  1.00  0.00     0.016 A 
ATOM     44  C   UNL A   1      40.744  22.333  27.700  1.00  0.00     0.016 A 
ATOM     45  C   UNL A   1      39.530  24.769  26.973  1.00  0.00     0.010 A 
ATOM     46  C   UNL A   1      41.212  23.532  28.232  1.00  0.00     0.010 A 
ATOM     47  C   UNL A   1      40.647  24.752  27.815  1.00  0.00    -0.014 A 
BRANCH  47  48
ATOM     48  C   UNL A   1      41.401  26.004  28.020  1.00  0.00     0.031 A 
ATOM     49  C   UNL A   1      40.720  27.108  28.782  1.00  0.00     0.074 A 
ATOM     50  C   UNL A   1      42.664  26.135  27.587  1.00  0.00     0.049 A 
ATOM     51  N   UNL A   1      41.113  28.334  29.003  1.00  0.00    -0.248 NA
ATOM     52  C   UNL A   1      39.411  26.782  29.382  1.00  0.00     0.031 C 
ATOM     53  C   UNL A   1      43.443  25.094  26.920  1.00  0.00     0.029 A 
ATOM     54  N   UNL A   1      43.511  27.210  27.645  1.00  0.00    -0.354 N 
ATOM     55  C   UNL A   1      40.104  28.921  29.756  1.00  0.00     0.074 A 
ATOM     56  C   UNL A   1      39.067  27.934  29.935  1.00  0.00     0.031 C 
ATOM     57  C   UNL A   1      44.655  25.589  26.617  1.00  0.00     0.029 A 
ATOM     58  C   UNL A   1      44.716  26.990  27.029  1.00  0.00     0.049 A 
ATOM     59  H   UNL A   1      43.277  28.058  28.086  1.00  0.00     0.167 HD
ATOM     60  C   UNL A   1      40.062  30.173  30.262  1.00  0.00     0.037 A 
ATOM     61  C   UNL A   1      45.732  27.844  26.800  1.00  0.00     0.037 A 
ATOM     62  C   UNL A   1      41.104  31.145  30.080  1.00  0.00     0.049 A 
ATOM     63  C   UNL A   1      45.602  29.269  27.279  1.00  0.00     0.074 A 
ATOM     64  C   UNL A   1      41.153  32.453  30.526  1.00  0.00     0.029 A 
ATOM     65  N   UNL A   1      42.288  30.906  29.398  1.00  0.00    -0.354 N 
ATOM     66  N   UNL A   1      44.638  29.833  27.966  1.00  0.00    -0.248 NA
ATOM     67  C   UNL A   1      46.708  30.177  26.945  1.00  0.00     0.031 C 
ATOM     68  C   UNL A   1      42.349  33.019  30.078  1.00  0.00     0.029 A 
ATOM     69  C   UNL A   1      43.069  32.049  29.399  1.00  0.00     0.049 A 
ATOM     70  H   UNL A   1      42.536  30.052  28.977  1.00  0.00     0.167 HD
ATOM     71  C   UNL A   1      45.029  31.150  28.168  1.00  0.00     0.074 A 
ATOM     72  C   UNL A   1      46.335  31.292  27.557  1.00  0.00     0.031 C 
ATOM     73  C   UNL A   1      44.369  32.158  28.790  1.00  0.00     0.037 A 
BRANCH  60  74
ATOM     74  C   UNL A   1      38.854  30.573  31.056  1.00  0.00     0.064 A 
ATOM     75  C   UNL A   1      38.836  30.480  32.455  1.00  0.00     0.173 A 
ATOM     76  C   UNL A   1      37.740  31.139  30.419  1.00  0.00     0.173 A 
ATOM     77  F   UNL A   1      39.867  29.925  33.108  1.00  0.00    -0.203 F 
ATOM     78  C   UNL A   1      37.748  30.945  33.189  1.00  0.00     0.198 A 
ATOM     79  C   UNL A   1      36.664  31.626  31.157  1.00  0.00     0.198 A 
ATOM     80  F   UNL A   1      37.707  31.245  29.082  1.00  0.00    -0.203 F 
ATOM     81  F   UNL A   1      37.743  30.831  34.524  1.00  0.00    -0.200 F 
ATOM     82  C   UNL A   1      36.670  31.531  32.541  1.00  0.00     0.200 A 
ATOM     83  F   UNL A   1      35.630  32.203  30.530  1.00  0.00    -0.200 F 
ATOM     84  F   UNL A   1      35.637  32.007  33.250  1.00  0.00    -0.200 F 
ENDBRANCH  60  74
BRANCH  61  85
ATOM     85  C   UNL A   1      46.946  27.395  26.069  1.00  0.00     0.064 A 
ATOM     86  C   UNL A   1      48.029  26.827  26.754  1.00  0.00     0.173 A 
ATOM     87  C   UNL A   1      47.070  27.563  24.682  1.00  0.00     0.173 A 
ATOM     88  F   UNL A   1      47.970  26.669  28.085  1.00  0.00    -0.203 F 
ATOM     89  C   UNL A   1      49.199  26.472  26.087  1.00  0.00     0.198 A 
ATOM     90  C   UNL A   1      48.227  27.177  24.009  1.00  0.00     0.198 A 
ATOM     91  F   UNL A   1      46.067  28.107  23.977  1.00  0.00    -0.203 F 
ATOM     92  F   UNL A   1      50.241  25.991  26.777  1.00  0.00    -0.200 F 
ATOM     93  C   UNL A   1      49.296  26.642  24.713  1.00  0.00     0.200 A 
ATOM     94  F   UNL A   1      48.313  27.333  22.682  1.00  0.00    -0.200 F 
ATOM     95  F   UNL A   1      50.423  26.305  24.073  1.00  0.00    -0.200 F 
ENDBRANCH  61  85
BRANCH  73  96
ATOM     96  C   UNL A   1      45.060  33.490  28.861  1.00  0.00     0.064 A 
ATOM     97  C   UNL A   1      44.845  34.479  27.890  1.00  0.00     0.173 A 
ATOM     98  C   UNL A   1      45.919  33.791  29.929  1.00  0.00     0.173 A 
ATOM     99  F   UNL A   1      44.040  34.237  26.845  1.00  0.00    -0.203 F 
ATOM    100  C   UNL A   1      45.495  35.708  27.966  1.00  0.00     0.198 A 
ATOM    101  C   UNL A   1      46.537  35.034  30.022  1.00  0.00     0.198 A 
ATOM    102  F   UNL A   1      46.147  32.885  30.892  1.00  0.00    -0.203 F 
ATOM    103  F   UNL A   1      45.323  36.614  26.995  1.00  0.00    -0.200 F 
ATOM    104  C   UNL A   1      46.334  35.987  29.034  1.00  0.00     0.200 A 
ATOM    105  F   UNL A   1      47.331  35.310  31.065  1.00  0.00    -0.200 F 
ATOM    106  F   UNL A   1      46.955  37.172  29.108  1.00  0.00    -0.200 F 
ENDBRANCH  73  96
ENDBRANCH  47  48
ENDBRANCH  40  42
ENDBRANCH  39  40
ENDBRANCH  38  39
ENDBRANCH  37  38
ENDBRANCH  36  37
ENDBRANCH   1  36
TORSDOF 20
ENDMDL
MODEL 2
REMARK VINA RESULT:     -11.2      5.437      9.596
REMARK SMILES O=C(COc1nc(Nc2ccc(Cl)cc2Cl)nc2c1C[N@H+](Cc1ccccc1)CC2)OCCOCCOC(=O)c1ccc(-c2c3nc(c(-c4c(F)c(F)c(F)c(F)c4F)c4ccc([nH]4)c(-c4c(F)c(F)c(F)c(F)c4F)c4nc(c(-c5c(F)c(F)c(F)c(F)c5F)c5ccc2[nH]5)C=C4)C=C3)cc1
REMARK SMILES IDX 33 1 32 2 31 3 2 4 1 5 3 6 4 7 5 8 6 9 19 10 7 11 18 12
REMARK SMILES IDX 20 13 17 14 30 15 21 16 29 17 8 19 9 21 10 22 15 23 11 24
REMARK SMILES IDX 14 25 16 26 12 27 13 28 22 29 23 30 24 31 28 32 25 33 27 34
REMARK SMILES IDX 26 35 34 36 35 37 36 38 37 39 38 40 39 41 40 42 41 43 102 44
REMARK SMILES IDX 42 45 101 46 43 47 44 48 45 49 95 50 46 51 100 52 94 53
REMARK SMILES IDX 96 54 47 55 99 56 93 57 92 58 48 60 80 61 60 62 79 63 61 64
REMARK SMILES IDX 64 65 78 66 97 67 62 68 63 69 77 71 98 72 65 73 49 74 50 75
REMARK SMILES IDX 58 76 51 77 52 78 56 79 59 80 53 81 54 82 57 83 55 84 81 85
REMARK SMILES IDX 82 86 90 87 83 88 84 89 88 90 91 91 85 92 86 93 89 94 87 95
REMARK SMILES IDX 66 96 67 97 75 98 68 99 69 100 73 101 76 102 70 103 71 104
REMARK SMILES IDX 74 105 72 106
REMARK H PARENT 21 18 8 20 96 59 64 70
REMARK Flexibility Score: inf
ROOT
ATOM      1  C   UNL A   1      34.409  31.981  28.245  1.00  0.00     0.202 C 
ENDROOT
BRANCH   1   2
ATOM      2  C   UNL A   1      33.258  31.175  27.643  1.00  0.00     0.261 C 
BRANCH   2   3
ATOM      3  O   UNL A   1      33.632  30.394  26.500  1.00  0.00    -0.461 OA
BRANCH   3   4
ATOM      4  C   UNL A   1      32.747  29.877  25.612  1.00  0.00     0.344 C 
ATOM      5  O   UNL A   1      31.652  30.419  25.456  1.00  0.00    -0.248 OA
BRANCH   4   6
ATOM      6  C   UNL A   1      33.056  28.538  24.939  1.00  0.00     0.353 C 
BRANCH   6   7
ATOM      7  O   UNL A   1      32.980  27.347  25.694  1.00  0.00    -0.465 OA
BRANCH   7   8
ATOM      8  C   UNL A   1      32.066  26.514  25.101  1.00  0.00     0.228 A 
ATOM      9  N   UNL A   1      31.192  27.063  24.265  1.00  0.00    -0.177 NA
ATOM     10  C   UNL A   1      32.103  25.199  25.437  1.00  0.00     0.090 A 
ATOM     11  C   UNL A   1      30.224  26.283  23.790  1.00  0.00     0.230 A 
ATOM     12  C   UNL A   1      31.082  24.445  24.914  1.00  0.00     0.064 A 
ATOM     13  C   UNL A   1      33.244  24.657  26.219  1.00  0.00     0.307 C 
ATOM     14  N   UNL A   1      30.108  24.981  24.122  1.00  0.00    -0.217 NA
ATOM     15  C   UNL A   1      31.012  22.994  25.323  1.00  0.00     0.118 C 
ATOM     16  N   UNL A   1      33.036  23.313  26.750  1.00  0.00    -0.327 N 
ATOM     17  C   UNL A   1      32.395  22.440  25.758  1.00  0.00     0.269 C 
ATOM     18  H   UNL A   1      32.373  23.352  27.524  1.00  0.00     0.348 HD
BRANCH  11  19
ATOM     19  N   UNL A   1      29.244  26.905  23.009  1.00  0.00    -0.323 N 
ATOM     20  H   UNL A   1      28.647  26.321  22.488  1.00  0.00     0.170 HD
BRANCH  19  21
ATOM     21  C   UNL A   1      29.037  28.299  22.903  1.00  0.00     0.060 A 
ATOM     22  C   UNL A   1      30.073  29.102  22.395  1.00  0.00     0.029 A 
ATOM     23  C   UNL A   1      27.786  28.919  23.137  1.00  0.00     0.066 A 
ATOM     24  C   UNL A   1      29.869  30.462  22.119  1.00  0.00     0.023 A 
ATOM     25  C   UNL A   1      27.584  30.279  22.872  1.00  0.00     0.043 A 
ATOM     26  Cl  UNL A   1      26.452  28.054  23.828  1.00  0.00    -0.082 Cl
ATOM     27  C   UNL A   1      28.625  31.041  22.354  1.00  0.00     0.042 A 
ATOM     28  Cl  UNL A   1      28.369  32.707  21.999  1.00  0.00    -0.084 Cl
ENDBRANCH  19  21
ENDBRANCH  11  19
BRANCH  16  29
ATOM     29  C   UNL A   1      34.286  22.784  27.338  1.00  0.00     0.299 C 
BRANCH  29  30
ATOM     30  C   UNL A   1      35.396  22.404  26.373  1.00  0.00     0.006 A 
ATOM     31  C   UNL A   1      36.419  23.319  26.088  1.00  0.00     0.009 A 
ATOM     32  C   UNL A   1      35.445  21.139  25.758  1.00  0.00     0.009 A 
ATOM     33  C   UNL A   1      37.486  22.960  25.261  1.00  0.00     0.001 A 
ATOM     34  C   UNL A   1      36.532  20.767  24.965  1.00  0.00     0.001 A 
ATOM     35  C   UNL A   1      37.555  21.678  24.721  1.00  0.00     0.000 A 
ENDBRANCH  29  30
ENDBRANCH  16  29
ENDBRANCH   7   8
ENDBRANCH   6   7
ENDBRANCH   4   6
ENDBRANCH   3   4
ENDBRANCH   2   3
ENDBRANCH   1   2
BRANCH   1  36
ATOM     36  O   UNL A   1      34.798  33.205  27.631  1.00  0.00    -0.374 OA
BRANCH  36  37
ATOM     37  C   UNL A   1      34.630  34.424  28.365  1.00  0.00     0.202 C 
BRANCH  37  38
ATOM     38  C   UNL A   1      33.381  34.619  29.223  1.00  0.00     0.261 C 
BRANCH  38  39
ATOM     39  O   UNL A   1      33.546  35.685  30.166  1.00  0.00    -0.460 OA
BRANCH  39  40
ATOM     40  C   UNL A   1      33.055  35.417  31.394  1.00  0.00     0.338 C 
ATOM     41  O   UNL A   1      31.883  35.441  31.750  1.00  0.00    -0.246 OA
BRANCH  40  42
ATOM     42  C   UNL A   1      34.123  34.857  32.234  1.00  0.00     0.060 A 
ATOM     43  C   UNL A   1      35.370  35.500  32.204  1.00  0.00     0.016 A 
ATOM     44  C   UNL A   1      33.930  33.695  32.983  1.00  0.00     0.016 A 
ATOM     45  C   UNL A   1      36.460  34.928  32.843  1.00  0.00     0.010 A 
ATOM     46  C   UNL A   1      35.028  33.106  33.604  1.00  0.00     0.010 A 
ATOM     47  C   UNL A   1      36.303  33.689  33.475  1.00  0.00    -0.014 A 
BRANCH  47  48
ATOM     48  C   UNL A   1      37.502  32.870  33.738  1.00  0.00     0.031 A 
ATOM     49  C   UNL A   1      38.232  33.103  35.033  1.00  0.00     0.074 A 
ATOM     50  C   UNL A   1      37.897  31.918  32.879  1.00  0.00     0.049 A 
ATOM     51  N   UNL A   1      39.363  32.602  35.454  1.00  0.00    -0.248 NA
ATOM     52  C   UNL A   1      37.595  34.031  35.988  1.00  0.00     0.031 C 
ATOM     53  C   UNL A   1      37.207  31.554  31.644  1.00  0.00     0.029 A 
ATOM     54  N   UNL A   1      38.985  31.087  32.921  1.00  0.00    -0.354 N 
ATOM     55  C   UNL A   1      39.573  33.155  36.710  1.00  0.00     0.074 A 
ATOM     56  C   UNL A   1      38.473  34.051  36.979  1.00  0.00     0.031 C 
ATOM     57  C   UNL A   1      37.899  30.575  31.035  1.00  0.00     0.029 A 
ATOM     58  C   UNL A   1      39.099  30.282  31.816  1.00  0.00     0.049 A 
ATOM     59  H   UNL A   1      39.622  31.069  33.670  1.00  0.00     0.167 HD
ATOM     60  C   UNL A   1      40.592  32.920  37.566  1.00  0.00     0.037 A 
ATOM     61  C   UNL A   1      40.086  29.433  31.471  1.00  0.00     0.037 A 
ATOM     62  C   UNL A   1      41.678  32.021  37.288  1.00  0.00     0.049 A 
ATOM     63  C   UNL A   1      41.267  29.280  32.398  1.00  0.00     0.074 A 
ATOM     64  C   UNL A   1      42.778  31.729  38.072  1.00  0.00     0.029 A 
ATOM     65  N   UNL A   1      41.793  31.265  36.131  1.00  0.00    -0.354 N 
ATOM     66  N   UNL A   1      41.481  29.824  33.572  1.00  0.00    -0.248 NA
ATOM     67  C   UNL A   1      42.348  28.394  31.944  1.00  0.00     0.031 C 
ATOM     68  C   UNL A   1      43.581  30.825  37.372  1.00  0.00     0.029 A 
ATOM     69  C   UNL A   1      42.955  30.515  36.175  1.00  0.00     0.049 A 
ATOM     70  H   UNL A   1      41.145  31.262  35.391  1.00  0.00     0.167 HD
ATOM     71  C   UNL A   1      42.703  29.328  34.008  1.00  0.00     0.074 A 
ATOM     72  C   UNL A   1      43.168  28.416  32.984  1.00  0.00     0.031 C 
ATOM     73  C   UNL A   1      43.389  29.608  35.145  1.00  0.00     0.037 A 
BRANCH  60  74
ATOM     74  C   UNL A   1      40.591  33.642  38.881  1.00  0.00     0.064 A 
ATOM     75  C   UNL A   1      39.848  33.171  39.973  1.00  0.00     0.173 A 
ATOM     76  C   UNL A   1      41.411  34.764  39.076  1.00  0.00     0.173 A 
ATOM     77  F   UNL A   1      39.031  32.116  39.829  1.00  0.00    -0.203 F 
ATOM     78  C   UNL A   1      39.931  33.792  41.216  1.00  0.00     0.198 A 
ATOM     79  C   UNL A   1      41.511  35.367  40.327  1.00  0.00     0.198 A 
ATOM     80  F   UNL A   1      42.136  35.256  38.061  1.00  0.00    -0.203 F 
ATOM     81  F   UNL A   1      39.199  33.336  42.242  1.00  0.00    -0.200 F 
ATOM     82  C   UNL A   1      40.773  34.880  41.396  1.00  0.00     0.200 A 
ATOM     83  F   UNL A   1      42.333  36.410  40.502  1.00  0.00    -0.200 F 
ATOM     84  F   UNL A   1      40.876  35.458  42.600  1.00  0.00    -0.200 F 
ENDBRANCH  60  74
BRANCH  61  85
ATOM     85  C   UNL A   1      40.021  28.680  30.191  1.00  0.00     0.064 A 
ATOM     86  C   UNL A   1      39.413  27.418  30.129  1.00  0.00     0.173 A 
ATOM     87  C   UNL A   1      40.603  29.180  29.017  1.00  0.00     0.173 A 
ATOM     88  F   UNL A   1      38.865  26.884  31.231  1.00  0.00    -0.203 F 
ATOM     89  C   UNL A   1      39.413  26.674  28.951  1.00  0.00     0.198 A 
ATOM     90  C   UNL A   1      40.574  28.450  27.830  1.00  0.00     0.198 A 
ATOM     91  F   UNL A   1      41.204  30.379  29.021  1.00  0.00    -0.203 F 
ATOM     92  F   UNL A   1      38.881  25.445  28.938  1.00  0.00    -0.200 F 
ATOM     93  C   UNL A   1      39.990  27.193  27.801  1.00  0.00     0.200 A 
ATOM     94  F   UNL A   1      41.122  28.959  26.719  1.00  0.00    -0.200 F 
ATOM     95  F   UNL A   1      39.994  26.475  26.670  1.00  0.00    -0.200 F 
ENDBRANCH  61  85
BRANCH  73  96
ATOM     96  C   UNL A   1      44.698  28.900  35.347  1.00  0.00     0.064 A 
ATOM     97  C   UNL A   1      45.902  29.436  34.869  1.00  0.00     0.173 A 
ATOM     98  C   UNL A   1      44.751  27.691  36.056  1.00  0.00     0.173 A 
ATOM     99  F   UNL A   1      45.903  30.586  34.177  1.00  0.00    -0.203 F 
ATOM    100  C   UNL A   1      47.108  28.768  35.061  1.00  0.00     0.198 A 
ATOM    101  C   UNL A   1      45.964  27.044  36.279  1.00  0.00     0.198 A 
ATOM    102  F   UNL A   1      43.630  27.143  36.548  1.00  0.00    -0.203 F 
ATOM    103  F   UNL A   1      48.238  29.267  34.541  1.00  0.00    -0.200 F 
ATOM    104  C   UNL A   1      47.139  27.577  35.771  1.00  0.00     0.200 A 
ATOM    105  F   UNL A   1      45.995  25.905  36.984  1.00  0.00    -0.200 F 
ATOM    106  F   UNL A   1      48.302  26.938  35.958  1.00  0.00    -0.200 F 
ENDBRANCH  73  96
ENDBRANCH  47  48
ENDBRANCH  40  42
ENDBRANCH  39  40
ENDBRANCH  38  39
ENDBRANCH  37  38
ENDBRANCH  36  37
ENDBRANCH   1  36
TORSDOF 20
ENDMDL
MODEL 3
REMARK VINA RESULT:     -10.9      4.286      9.645
REMARK SMILES O=C(COc1nc(Nc2ccc(Cl)cc2Cl)nc2c1C[N@H+](Cc1ccccc1)CC2)OCCOCCOC(=O)c1ccc(-c2c3nc(c(-c4c(F)c(F)c(F)c(F)c4F)c4ccc([nH]4)c(-c4c(F)c(F)c(F)c(F)c4F)c4nc(c(-c5c(F)c(F)c(F)c(F)c5F)c5ccc2[nH]5)C=C4)C=C3)cc1
REMARK SMILES IDX 33 1 32 2 31 3 2 4 1 5 3 6 4 7 5 8 6 9 19 10 7 11 18 12
REMARK SMILES IDX 20 13 17 14 30 15 21 16 29 17 8 19 9 21 10 22 15 23 11 24
REMARK SMILES IDX 14 25 16 26 12 27 13 28 22 29 23 30 24 31 28 32 25 33 27 34
REMARK SMILES IDX 26 35 34 36 35 37 36 38 37 39 38 40 39 41 40 42 41 43 102 44
REMARK SMILES IDX 42 45 101 46 43 47 44 48 45 49 95 50 46 51 100 52 94 53
REMARK SMILES IDX 96 54 47 55 99 56 93 57 92 58 48 60 80 61 60 62 79 63 61 64
REMARK SMILES IDX 64 65 78 66 97 67 62 68 63 69 77 71 98 72 65 73 49 74 50 75
REMARK SMILES IDX 58 76 51 77 52 78 56 79 59 80 53 81 54 82 57 83 55 84 81 85
REMARK SMILES IDX 82 86 90 87 83 88 84 89 88 90 91 91 85 92 86 93 89 94 87 95
REMARK SMILES IDX 66 96 67 97 75 98 68 99 69 100 73 101 76 102 70 103 71 104
REMARK SMILES IDX 74 105 72 106
REMARK H PARENT 21 18 8 20 96 59 64 70
REMARK Flexibility Score: inf
ROOT
ATOM      1  C   UNL A   1      41.380  20.550  26.504  1.00  0.00     0.202 C 
ENDROOT
BRANCH   1   2
ATOM      2  C   UNL A   1      40.579  21.673  27.163  1.00  0.00     0.261 C 
BRANCH   2   3
ATOM      3  O   UNL A   1      39.356  21.988  26.484  1.00  0.00    -0.461 OA
BRANCH   3   4
ATOM      4  C   UNL A   1      38.774  23.213  26.499  1.00  0.00     0.344 C 
ATOM      5  O   UNL A   1      39.451  24.207  26.763  1.00  0.00    -0.248 OA
BRANCH   4   6
ATOM      6  C   UNL A   1      37.255  23.324  26.348  1.00  0.00     0.353 C 
BRANCH   6   7
ATOM      7  O   UNL A   1      36.656  23.014  25.108  1.00  0.00    -0.465 OA
BRANCH   7   8
ATOM      8  C   UNL A   1      35.318  23.308  25.186  1.00  0.00     0.228 A 
ATOM      9  N   UNL A   1      34.984  24.579  25.376  1.00  0.00    -0.177 NA
ATOM     10  C   UNL A   1      34.440  22.276  25.096  1.00  0.00     0.090 A 
ATOM     11  C   UNL A   1      33.697  24.851  25.582  1.00  0.00     0.230 A 
ATOM     12  C   UNL A   1      33.130  22.619  25.313  1.00  0.00     0.064 A 
ATOM     13  C   UNL A   1      34.908  20.929  24.681  1.00  0.00     0.307 C 
ATOM     14  N   UNL A   1      32.744  23.897  25.601  1.00  0.00    -0.217 NA
ATOM     15  C   UNL A   1      32.114  21.503  25.318  1.00  0.00     0.118 C 
ATOM     16  N   UNL A   1      33.940  19.856  24.888  1.00  0.00    -0.327 N 
ATOM     17  C   UNL A   1      32.587  20.275  24.497  1.00  0.00     0.269 C 
ATOM     18  H   UNL A   1      33.867  19.652  25.886  1.00  0.00     0.348 HD
BRANCH  11  19
ATOM     19  N   UNL A   1      33.379  26.176  25.900  1.00  0.00    -0.323 N 
ATOM     20  H   UNL A   1      33.681  26.513  26.774  1.00  0.00     0.170 HD
BRANCH  19  21
ATOM     21  C   UNL A   1      32.661  27.071  25.075  1.00  0.00     0.060 A 
ATOM     22  C   UNL A   1      33.375  27.901  24.193  1.00  0.00     0.029 A 
ATOM     23  C   UNL A   1      31.250  27.074  24.974  1.00  0.00     0.066 A 
ATOM     24  C   UNL A   1      32.711  28.690  23.242  1.00  0.00     0.023 A 
ATOM     25  C   UNL A   1      30.585  27.869  24.032  1.00  0.00     0.043 A 
ATOM     26  Cl  UNL A   1      30.254  26.149  26.052  1.00  0.00    -0.082 Cl
ATOM     27  C   UNL A   1      31.321  28.665  23.163  1.00  0.00     0.042 A 
ATOM     28  Cl  UNL A   1      30.508  29.621  21.984  1.00  0.00    -0.084 Cl
ENDBRANCH  19  21
ENDBRANCH  11  19
BRANCH  16  29
ATOM     29  C   UNL A   1      34.412  18.598  24.270  1.00  0.00     0.299 C 
BRANCH  29  30
ATOM     30  C   UNL A   1      33.850  17.302  24.826  1.00  0.00     0.006 A 
ATOM     31  C   UNL A   1      32.553  17.272  25.356  1.00  0.00     0.009 A 
ATOM     32  C   UNL A   1      34.591  16.105  24.814  1.00  0.00     0.009 A 
ATOM     33  C   UNL A   1      31.994  16.074  25.805  1.00  0.00     0.001 A 
ATOM     34  C   UNL A   1      34.017  14.901  25.224  1.00  0.00     0.001 A 
ATOM     35  C   UNL A   1      32.715  14.885  25.715  1.00  0.00     0.000 A 
ENDBRANCH  29  30
ENDBRANCH  16  29
ENDBRANCH   7   8
ENDBRANCH   6   7
ENDBRANCH   4   6
ENDBRANCH   3   4
ENDBRANCH   2   3
ENDBRANCH   1   2
BRANCH   1  36
ATOM     36  O   UNL A   1      42.476  20.880  25.658  1.00  0.00    -0.374 OA
BRANCH  36  37
ATOM     37  C   UNL A   1      42.702  22.257  25.333  1.00  0.00     0.202 C 
BRANCH  37  38
ATOM     38  C   UNL A   1      44.127  22.808  25.341  1.00  0.00     0.261 C 
BRANCH  38  39
ATOM     39  O   UNL A   1      44.299  23.823  26.336  1.00  0.00    -0.460 OA
BRANCH  39  40
ATOM     40  C   UNL A   1      44.539  25.053  25.835  1.00  0.00     0.338 C 
ATOM     41  O   UNL A   1      45.213  25.339  24.853  1.00  0.00    -0.246 OA
BRANCH  40  42
ATOM     42  C   UNL A   1      43.677  26.033  26.512  1.00  0.00     0.060 A 
ATOM     43  C   UNL A   1      44.218  27.304  26.756  1.00  0.00     0.016 A 
ATOM     44  C   UNL A   1      42.397  25.697  26.954  1.00  0.00     0.016 A 
ATOM     45  C   UNL A   1      43.519  28.216  27.533  1.00  0.00     0.010 A 
ATOM     46  C   UNL A   1      41.705  26.602  27.754  1.00  0.00     0.010 A 
ATOM     47  C   UNL A   1      42.297  27.832  28.097  1.00  0.00    -0.014 A 
BRANCH  47  48
ATOM     48  C   UNL A   1      41.788  28.580  29.263  1.00  0.00     0.031 A 
ATOM     49  C   UNL A   1      42.580  28.497  30.540  1.00  0.00     0.074 A 
ATOM     50  C   UNL A   1      40.689  29.345  29.174  1.00  0.00     0.049 A 
ATOM     51  N   UNL A   1      42.297  28.964  31.727  1.00  0.00    -0.248 NA
ATOM     52  C   UNL A   1      43.874  27.792  30.466  1.00  0.00     0.031 C 
ATOM     53  C   UNL A   1      39.905  29.562  27.961  1.00  0.00     0.029 A 
ATOM     54  N   UNL A   1      40.044  30.078  30.134  1.00  0.00    -0.354 N 
ATOM     55  C   UNL A   1      43.368  28.604  32.535  1.00  0.00     0.074 A 
ATOM     56  C   UNL A   1      44.296  27.858  31.719  1.00  0.00     0.031 C 
ATOM     57  C   UNL A   1      38.870  30.369  28.254  1.00  0.00     0.029 A 
ATOM     58  C   UNL A   1      38.898  30.682  29.681  1.00  0.00     0.049 A 
ATOM     59  H   UNL A   1      40.370  30.162  31.059  1.00  0.00     0.167 HD
ATOM     60  C   UNL A   1      43.558  28.887  33.843  1.00  0.00     0.037 A 
ATOM     61  C   UNL A   1      37.969  31.379  30.362  1.00  0.00     0.037 A 
ATOM     62  C   UNL A   1      42.628  29.636  34.643  1.00  0.00     0.049 A 
ATOM     63  C   UNL A   1      38.156  31.579  31.846  1.00  0.00     0.074 A 
ATOM     64  C   UNL A   1      42.708  29.957  35.985  1.00  0.00     0.029 A 
ATOM     65  N   UNL A   1      41.447  30.183  34.165  1.00  0.00    -0.354 N 
ATOM     66  N   UNL A   1      39.153  31.215  32.617  1.00  0.00    -0.248 NA
ATOM     67  C   UNL A   1      37.081  32.287  32.554  1.00  0.00     0.031 C 
ATOM     68  C   UNL A   1      41.555  30.666  36.330  1.00  0.00     0.029 A 
ATOM     69  C   UNL A   1      40.781  30.831  35.191  1.00  0.00     0.049 A 
ATOM     70  H   UNL A   1      41.130  30.122  33.235  1.00  0.00     0.167 HD
ATOM     71  C   UNL A   1      38.839  31.670  33.891  1.00  0.00     0.074 A 
ATOM     72  C   UNL A   1      37.573  32.364  33.782  1.00  0.00     0.031 C 
ATOM     73  C   UNL A   1      39.526  31.521  35.052  1.00  0.00     0.037 A 
BRANCH  60  74
ATOM     74  C   UNL A   1      44.812  28.388  34.497  1.00  0.00     0.064 A 
ATOM     75  C   UNL A   1      45.962  29.187  34.576  1.00  0.00     0.173 A 
ATOM     76  C   UNL A   1      44.834  27.137  35.130  1.00  0.00     0.173 A 
ATOM     77  F   UNL A   1      45.999  30.382  33.967  1.00  0.00    -0.203 F 
ATOM     78  C   UNL A   1      47.088  28.753  35.271  1.00  0.00     0.198 A 
ATOM     79  C   UNL A   1      45.952  26.717  35.846  1.00  0.00     0.198 A 
ATOM     80  F   UNL A   1      43.761  26.335  35.079  1.00  0.00    -0.203 F 
ATOM     81  F   UNL A   1      48.183  29.524  35.320  1.00  0.00    -0.200 F 
ATOM     82  C   UNL A   1      47.076  27.526  35.918  1.00  0.00     0.200 A 
ATOM     83  F   UNL A   1      45.935  25.537  36.480  1.00  0.00    -0.200 F 
ATOM     84  F   UNL A   1      48.149  27.122  36.613  1.00  0.00    -0.200 F 
ENDBRANCH  60  74
BRANCH  61  85
ATOM     85  C   UNL A   1      36.771  31.919  29.667  1.00  0.00     0.064 A 
ATOM     86  C   UNL A   1      35.735  31.069  29.254  1.00  0.00     0.173 A 
ATOM     87  C   UNL A   1      36.655  33.283  29.360  1.00  0.00     0.173 A 
ATOM     88  F   UNL A   1      35.812  29.752  29.499  1.00  0.00    -0.203 F 
ATOM     89  C   UNL A   1      34.645  31.556  28.537  1.00  0.00     0.198 A 
ATOM     90  C   UNL A   1      35.547  33.775  28.673  1.00  0.00     0.198 A 
ATOM     91  F   UNL A   1      37.618  34.140  29.727  1.00  0.00    -0.203 F 
ATOM     92  F   UNL A   1      33.703  30.711  28.099  1.00  0.00    -0.200 F 
ATOM     93  C   UNL A   1      34.549  32.910  28.251  1.00  0.00     0.200 A 
ATOM     94  F   UNL A   1      35.453  35.085  28.409  1.00  0.00    -0.200 F 
ATOM     95  F   UNL A   1      33.502  33.377  27.557  1.00  0.00    -0.200 F 
ENDBRANCH  61  85
BRANCH  73  96
ATOM     96  C   UNL A   1      38.932  32.140  36.284  1.00  0.00     0.064 A 
ATOM     97  C   UNL A   1      38.056  31.424  37.114  1.00  0.00     0.173 A 
ATOM     98  C   UNL A   1      39.269  33.450  36.657  1.00  0.00     0.173 A 
ATOM     99  F   UNL A   1      37.696  30.172  36.796  1.00  0.00    -0.203 F 
ATOM    100  C   UNL A   1      37.510  32.012  38.252  1.00  0.00     0.198 A 
ATOM    101  C   UNL A   1      38.751  34.020  37.816  1.00  0.00     0.198 A 
ATOM    102  F   UNL A   1      40.115  34.172  35.906  1.00  0.00    -0.203 F 
ATOM    103  F   UNL A   1      36.627  31.331  38.995  1.00  0.00    -0.200 F 
ATOM    104  C   UNL A   1      37.863  33.305  38.605  1.00  0.00     0.200 A 
ATOM    105  F   UNL A   1      39.110  35.262  38.168  1.00  0.00    -0.200 F 
ATOM    106  F   UNL A   1      37.340  33.867  39.704  1.00  0.00    -0.200 F 
ENDBRANCH  73  96
ENDBRANCH  47  48
ENDBRANCH  40  42
ENDBRANCH  39  40
ENDBRANCH  38  39
ENDBRANCH  37  38
ENDBRANCH  36  37
ENDBRANCH   1  36
TORSDOF 20
ENDMDL
