MODEL 1
REMARK VINA RESULT:     -11.2      0.000      0.000
REMARK SMILES CCSc1cccc(-c2ccc([C@@H](C)C(=O)OCCOCCOC(=O)c3ccc(-c4c5nc(c(-c6c(F)c(F)c(F)c(F)c6F)c6ccc([nH]6)c(-c6c(F)c(F)c(F)c(F)c6F)c6nc(c(-c7c(F)c(F)c(F)c(F)c7F)c7ccc4[nH]7)C=C6)C=C5)cc3)cc2)c1
REMARK SMILES IDX 19 1 18 2 17 3 15 4 16 5 13 6 14 7 12 8 9 9 10 10 90 11
REMARK SMILES IDX 11 12 89 13 8 14 4 15 5 16 91 17 6 18 7 19 3 20 2 21 1 22
REMARK SMILES IDX 20 23 21 24 22 25 23 26 24 27 25 28 26 29 27 30 88 31 28 32
REMARK SMILES IDX 87 33 29 34 30 35 31 36 81 37 32 38 86 39 80 40 82 41 33 42
REMARK SMILES IDX 85 43 79 44 78 45 34 47 66 48 46 49 65 50 47 51 50 52 64 53
REMARK SMILES IDX 83 54 48 55 49 56 63 58 84 59 51 60 35 61 36 62 44 63 37 64
REMARK SMILES IDX 38 65 42 66 45 67 39 68 40 69 43 70 41 71 67 72 68 73 76 74
REMARK SMILES IDX 69 75 70 76 74 77 77 78 71 79 72 80 75 81 73 82 52 83 53 84
REMARK SMILES IDX 61 85 54 86 55 87 59 88 62 89 56 90 57 91 60 92 58 93
REMARK H PARENT 82 46 50 57
REMARK Flexibility Score: inf
ROOT
ATOM      1  C   UNL A   1      31.656  27.939  24.044  1.00  0.00     0.202 C 
ENDROOT
BRANCH   1   2
ATOM      2  C   UNL A   1      32.439  27.224  22.939  1.00  0.00     0.261 C 
BRANCH   2   3
ATOM      3  O   UNL A   1      32.053  25.841  22.841  1.00  0.00    -0.463 OA
BRANCH   3   4
ATOM      4  C   UNL A   1      32.815  25.070  22.021  1.00  0.00     0.313 C 
ATOM      5  O   UNL A   1      33.111  25.371  20.868  1.00  0.00    -0.252 OA
BRANCH   4   6
ATOM      6  C   UNL A   1      33.239  23.746  22.636  1.00  0.00     0.126 C 
ATOM      7  C   UNL A   1      32.068  23.158  23.420  1.00  0.00     0.025 C 
BRANCH   6   8
ATOM      8  C   UNL A   1      34.535  23.713  23.440  1.00  0.00    -0.034 A 
ATOM      9  C   UNL A   1      36.913  23.391  24.981  1.00  0.00    -0.018 A 
ATOM     10  C   UNL A   1      35.820  24.122  25.471  1.00  0.00     0.009 A 
ATOM     11  C   UNL A   1      36.810  22.862  23.686  1.00  0.00     0.009 A 
ATOM     12  C   UNL A   1      34.648  24.280  24.717  1.00  0.00     0.005 A 
ATOM     13  C   UNL A   1      35.643  23.021  22.927  1.00  0.00     0.005 A 
BRANCH   9  14
ATOM     14  C   UNL A   1      38.112  23.146  25.805  1.00  0.00    -0.017 A 
ATOM     15  C   UNL A   1      39.911  21.667  26.562  1.00  0.00     0.008 A 
ATOM     16  C   UNL A   1      40.357  22.651  27.445  1.00  0.00     0.015 A 
ATOM     17  C   UNL A   1      38.789  21.914  25.760  1.00  0.00     0.023 A 
ATOM     18  C   UNL A   1      39.698  23.878  27.512  1.00  0.00     0.002 A 
ATOM     19  C   UNL A   1      38.590  24.122  26.697  1.00  0.00     0.009 A 
BRANCH  15  20
ATOM     20  S   UNL A   1      40.709  20.073  26.535  1.00  0.00    -0.126 SA
BRANCH  20  21
ATOM     21  C   UNL A   1      42.431  20.562  26.175  1.00  0.00     0.071 C 
ATOM     22  C   UNL A   1      43.271  19.403  25.667  1.00  0.00     0.016 C 
ENDBRANCH  20  21
ENDBRANCH  15  20
ENDBRANCH   9  14
ENDBRANCH   6   8
ENDBRANCH   4   6
ENDBRANCH   3   4
ENDBRANCH   2   3
ENDBRANCH   1   2
BRANCH   1  23
ATOM     23  O   UNL A   1      31.858  29.348  24.136  1.00  0.00    -0.374 OA
BRANCH  23  24
ATOM     24  C   UNL A   1      31.180  30.035  25.190  1.00  0.00     0.202 C 
BRANCH  24  25
ATOM     25  C   UNL A   1      31.851  29.984  26.567  1.00  0.00     0.261 C 
BRANCH  25  26
ATOM     26  O   UNL A   1      33.249  30.323  26.499  1.00  0.00    -0.460 OA
BRANCH  26  27
ATOM     27  C   UNL A   1      33.622  31.396  27.232  1.00  0.00     0.338 C 
ATOM     28  O   UNL A   1      32.950  32.379  27.514  1.00  0.00    -0.246 OA
BRANCH  27  29
ATOM     29  C   UNL A   1      34.948  31.152  27.826  1.00  0.00     0.060 A 
ATOM     30  C   UNL A   1      35.214  29.870  28.324  1.00  0.00     0.016 A 
ATOM     31  C   UNL A   1      35.895  32.171  27.946  1.00  0.00     0.016 A 
ATOM     32  C   UNL A   1      36.421  29.607  28.969  1.00  0.00     0.010 A 
ATOM     33  C   UNL A   1      37.100  31.908  28.605  1.00  0.00     0.010 A 
ATOM     34  C   UNL A   1      37.361  30.632  29.137  1.00  0.00    -0.014 A 
BRANCH  34  35
ATOM     35  C   UNL A   1      38.575  30.396  29.955  1.00  0.00     0.031 A 
ATOM     36  C   UNL A   1      39.689  29.559  29.397  1.00  0.00     0.074 A 
ATOM     37  C   UNL A   1      38.682  30.929  31.186  1.00  0.00     0.049 A 
ATOM     38  N   UNL A   1      40.802  29.171  29.968  1.00  0.00    -0.248 NA
ATOM     39  C   UNL A   1      39.531  29.098  28.009  1.00  0.00     0.031 C 
ATOM     40  C   UNL A   1      37.688  31.793  31.818  1.00  0.00     0.029 A 
ATOM     41  N   UNL A   1      39.673  30.807  32.128  1.00  0.00    -0.354 N 
ATOM     42  C   UNL A   1      41.473  28.417  29.013  1.00  0.00     0.074 A 
ATOM     43  C   UNL A   1      40.633  28.385  27.834  1.00  0.00     0.031 C 
ATOM     44  C   UNL A   1      38.111  32.108  33.055  1.00  0.00     0.029 A 
ATOM     45  C   UNL A   1      39.385  31.438  33.312  1.00  0.00     0.049 A 
ATOM     46  H   UNL A   1      40.511  30.314  31.968  1.00  0.00     0.167 HD
ATOM     47  C   UNL A   1      42.681  27.815  29.112  1.00  0.00     0.037 A 
ATOM     48  C   UNL A   1      40.057  31.447  34.479  1.00  0.00     0.037 A 
ATOM     49  C   UNL A   1      43.515  27.851  30.284  1.00  0.00     0.049 A 
ATOM     50  C   UNL A   1      41.355  30.690  34.592  1.00  0.00     0.074 A 
ATOM     51  C   UNL A   1      44.773  27.304  30.467  1.00  0.00     0.029 A 
ATOM     52  N   UNL A   1      43.167  28.460  31.481  1.00  0.00    -0.354 N 
ATOM     53  N   UNL A   1      41.997  30.007  33.677  1.00  0.00    -0.248 NA
ATOM     54  C   UNL A   1      42.017  30.700  35.905  1.00  0.00     0.031 C 
ATOM     55  C   UNL A   1      45.164  27.536  31.790  1.00  0.00     0.029 A 
ATOM     56  C   UNL A   1      44.169  28.268  32.418  1.00  0.00     0.049 A 
ATOM     57  H   UNL A   1      42.331  28.955  31.641  1.00  0.00     0.167 HD
ATOM     58  C   UNL A   1      43.143  29.522  34.293  1.00  0.00     0.074 A 
ATOM     59  C   UNL A   1      43.118  30.002  35.659  1.00  0.00     0.031 C 
ATOM     60  C   UNL A   1      44.127  28.747  33.776  1.00  0.00     0.037 A 
BRANCH  47  61
ATOM     61  C   UNL A   1      43.170  27.040  27.926  1.00  0.00     0.064 A 
ATOM     62  C   UNL A   1      43.801  27.669  26.842  1.00  0.00     0.173 A 
ATOM     63  C   UNL A   1      43.050  25.642  27.895  1.00  0.00     0.173 A 
ATOM     64  F   UNL A   1      43.929  29.004  26.820  1.00  0.00    -0.203 F 
ATOM     65  C   UNL A   1      44.278  26.929  25.764  1.00  0.00     0.198 A 
ATOM     66  C   UNL A   1      43.550  24.903  26.826  1.00  0.00     0.198 A 
ATOM     67  F   UNL A   1      42.458  24.992  28.908  1.00  0.00    -0.203 F 
ATOM     68  F   UNL A   1      44.845  27.554  24.723  1.00  0.00    -0.200 F 
ATOM     69  C   UNL A   1      44.158  25.547  25.760  1.00  0.00     0.200 A 
ATOM     70  F   UNL A   1      43.442  23.567  26.828  1.00  0.00    -0.200 F 
ATOM     71  F   UNL A   1      44.625  24.835  24.724  1.00  0.00    -0.200 F 
ENDBRANCH  47  61
BRANCH  48  72
ATOM     72  C   UNL A   1      39.497  32.167  35.652  1.00  0.00     0.064 A 
ATOM     73  C   UNL A   1      38.610  31.536  36.533  1.00  0.00     0.173 A 
ATOM     74  C   UNL A   1      39.826  33.507  35.903  1.00  0.00     0.173 A 
ATOM     75  F   UNL A   1      38.243  30.264  36.317  1.00  0.00    -0.203 F 
ATOM     76  C   UNL A   1      38.060  32.223  37.614  1.00  0.00     0.198 A 
ATOM     77  C   UNL A   1      39.297  34.185  37.000  1.00  0.00     0.198 A 
ATOM     78  F   UNL A   1      40.668  34.158  35.087  1.00  0.00    -0.203 F 
ATOM     79  F   UNL A   1      37.179  31.610  38.416  1.00  0.00    -0.200 F 
ATOM     80  C   UNL A   1      38.408  33.545  37.850  1.00  0.00     0.200 A 
ATOM     81  F   UNL A   1      39.644  35.458  37.229  1.00  0.00    -0.200 F 
ATOM     82  F   UNL A   1      37.881  34.204  38.890  1.00  0.00    -0.200 F 
ENDBRANCH  48  72
BRANCH  60  83
ATOM     83  C   UNL A   1      45.265  28.376  34.682  1.00  0.00     0.064 A 
ATOM     84  C   UNL A   1      46.386  29.204  34.822  1.00  0.00     0.173 A 
ATOM     85  C   UNL A   1      45.207  27.209  35.459  1.00  0.00     0.173 A 
ATOM     86  F   UNL A   1      46.494  30.323  34.090  1.00  0.00    -0.203 F 
ATOM     87  C   UNL A   1      47.419  28.870  35.695  1.00  0.00     0.198 A 
ATOM     88  C   UNL A   1      46.229  26.891  36.349  1.00  0.00     0.198 A 
ATOM     89  F   UNL A   1      44.152  26.385  35.366  1.00  0.00    -0.203 F 
ATOM     90  F   UNL A   1      48.500  29.657  35.785  1.00  0.00    -0.200 F 
ATOM     91  C   UNL A   1      47.336  27.718  36.463  1.00  0.00     0.200 A 
ATOM     92  F   UNL A   1      46.141  25.784  37.100  1.00  0.00    -0.200 F 
ATOM     93  F   UNL A   1      48.325  27.403  37.310  1.00  0.00    -0.200 F 
ENDBRANCH  60  83
ENDBRANCH  34  35
ENDBRANCH  27  29
ENDBRANCH  26  27
ENDBRANCH  25  26
ENDBRANCH  24  25
ENDBRANCH  23  24
ENDBRANCH   1  23
TORSDOF 18
ENDMDL
MODEL 2
REMARK VINA RESULT:     -11.0      4.341     10.049
REMARK SMILES CCSc1cccc(-c2ccc([C@@H](C)C(=O)OCCOCCOC(=O)c3ccc(-c4c5nc(c(-c6c(F)c(F)c(F)c(F)c6F)c6ccc([nH]6)c(-c6c(F)c(F)c(F)c(F)c6F)c6nc(c(-c7c(F)c(F)c(F)c(F)c7F)c7ccc4[nH]7)C=C6)C=C5)cc3)cc2)c1
REMARK SMILES IDX 19 1 18 2 17 3 15 4 16 5 13 6 14 7 12 8 9 9 10 10 90 11
REMARK SMILES IDX 11 12 89 13 8 14 4 15 5 16 91 17 6 18 7 19 3 20 2 21 1 22
REMARK SMILES IDX 20 23 21 24 22 25 23 26 24 27 25 28 26 29 27 30 88 31 28 32
REMARK SMILES IDX 87 33 29 34 30 35 31 36 81 37 32 38 86 39 80 40 82 41 33 42
REMARK SMILES IDX 85 43 79 44 78 45 34 47 66 48 46 49 65 50 47 51 50 52 64 53
REMARK SMILES IDX 83 54 48 55 49 56 63 58 84 59 51 60 35 61 36 62 44 63 37 64
REMARK SMILES IDX 38 65 42 66 45 67 39 68 40 69 43 70 41 71 67 72 68 73 76 74
REMARK SMILES IDX 69 75 70 76 74 77 77 78 71 79 72 80 75 81 73 82 52 83 53 84
REMARK SMILES IDX 61 85 54 86 55 87 59 88 62 89 56 90 57 91 60 92 58 93
REMARK H PARENT 82 46 50 57
REMARK Flexibility Score: inf
ROOT
ATOM      1  C   UNL A   1      34.294  21.879  24.344  1.00  0.00     0.202 C 
ENDROOT
BRANCH   1   2
ATOM      2  C   UNL A   1      32.810  21.815  23.973  1.00  0.00     0.261 C 
BRANCH   2   3
ATOM      3  O   UNL A   1      32.368  23.052  23.383  1.00  0.00    -0.463 OA
BRANCH   3   4
ATOM      4  C   UNL A   1      31.365  23.695  24.037  1.00  0.00     0.313 C 
ATOM      5  O   UNL A   1      30.305  24.031  23.517  1.00  0.00    -0.252 OA
BRANCH   4   6
ATOM      6  C   UNL A   1      31.684  24.024  25.487  1.00  0.00     0.126 C 
ATOM      7  C   UNL A   1      30.498  23.630  26.365  1.00  0.00     0.025 C 
BRANCH   6   8
ATOM      8  C   UNL A   1      32.186  25.428  25.808  1.00  0.00    -0.034 A 
ATOM      9  C   UNL A   1      33.273  27.944  26.599  1.00  0.00    -0.018 A 
ATOM     10  C   UNL A   1      31.925  27.628  26.826  1.00  0.00     0.009 A 
ATOM     11  C   UNL A   1      34.056  26.992  25.929  1.00  0.00     0.009 A 
ATOM     12  C   UNL A   1      31.388  26.391  26.440  1.00  0.00     0.005 A 
ATOM     13  C   UNL A   1      33.523  25.757  25.538  1.00  0.00     0.005 A 
BRANCH   9  14
ATOM     14  C   UNL A   1      33.865  29.205  27.082  1.00  0.00    -0.017 A 
ATOM     15  C   UNL A   1      33.667  31.593  27.595  1.00  0.00     0.008 A 
ATOM     16  C   UNL A   1      35.021  31.639  27.928  1.00  0.00     0.015 A 
ATOM     17  C   UNL A   1      33.102  30.384  27.164  1.00  0.00     0.023 A 
ATOM     18  C   UNL A   1      35.798  30.485  27.849  1.00  0.00     0.002 A 
ATOM     19  C   UNL A   1      35.224  29.281  27.433  1.00  0.00     0.009 A 
BRANCH  15  20
ATOM     20  S   UNL A   1      32.695  33.086  27.626  1.00  0.00    -0.126 SA
BRANCH  20  21
ATOM     21  C   UNL A   1      33.912  34.270  28.296  1.00  0.00     0.071 C 
ATOM     22  C   UNL A   1      33.652  34.610  29.753  1.00  0.00     0.016 C 
ENDBRANCH  20  21
ENDBRANCH  15  20
ENDBRANCH   9  14
ENDBRANCH   6   8
ENDBRANCH   4   6
ENDBRANCH   3   4
ENDBRANCH   2   3
ENDBRANCH   1   2
BRANCH   1  23
ATOM     23  O   UNL A   1      35.105  22.717  23.522  1.00  0.00    -0.374 OA
BRANCH  23  24
ATOM     24  C   UNL A   1      36.521  22.623  23.693  1.00  0.00     0.202 C 
BRANCH  24  25
ATOM     25  C   UNL A   1      37.021  21.432  24.519  1.00  0.00     0.261 C 
BRANCH  25  26
ATOM     26  O   UNL A   1      37.483  21.836  25.821  1.00  0.00    -0.460 OA
BRANCH  26  27
ATOM     27  C   UNL A   1      38.778  21.556  26.089  1.00  0.00     0.338 C 
ATOM     28  O   UNL A   1      39.394  20.533  25.818  1.00  0.00    -0.246 OA
BRANCH  27  29
ATOM     29  C   UNL A   1      39.444  22.756  26.624  1.00  0.00     0.060 A 
ATOM     30  C   UNL A   1      39.039  24.002  26.127  1.00  0.00     0.016 A 
ATOM     31  C   UNL A   1      40.482  22.665  27.553  1.00  0.00     0.016 A 
ATOM     32  C   UNL A   1      39.690  25.163  26.538  1.00  0.00     0.010 A 
ATOM     33  C   UNL A   1      41.143  23.831  27.954  1.00  0.00     0.010 A 
ATOM     34  C   UNL A   1      40.765  25.083  27.434  1.00  0.00    -0.014 A 
BRANCH  34  35
ATOM     35  C   UNL A   1      41.556  26.295  27.752  1.00  0.00     0.031 A 
ATOM     36  C   UNL A   1      40.936  27.384  28.581  1.00  0.00     0.074 A 
ATOM     37  C   UNL A   1      42.819  26.422  27.307  1.00  0.00     0.049 A 
ATOM     38  N   UNL A   1      41.424  28.552  28.914  1.00  0.00    -0.248 NA
ATOM     39  C   UNL A   1      39.588  27.120  29.106  1.00  0.00     0.031 C 
ATOM     40  C   UNL A   1      43.543  25.417  26.533  1.00  0.00     0.029 A 
ATOM     41  N   UNL A   1      43.710  27.459  27.434  1.00  0.00    -0.354 N 
ATOM     42  C   UNL A   1      40.442  29.165  29.683  1.00  0.00     0.074 A 
ATOM     43  C   UNL A   1      39.323  28.249  29.748  1.00  0.00     0.031 C 
ATOM     44  C   UNL A   1      44.763  25.895  26.234  1.00  0.00     0.029 A 
ATOM     45  C   UNL A   1      44.891  27.251  26.765  1.00  0.00     0.049 A 
ATOM     46  H   UNL A   1      43.520  28.272  27.955  1.00  0.00     0.167 HD
ATOM     47  C   UNL A   1      40.476  30.378  30.282  1.00  0.00     0.037 A 
ATOM     48  C   UNL A   1      45.939  28.075  26.576  1.00  0.00     0.037 A 
ATOM     49  C   UNL A   1      41.591  31.287  30.217  1.00  0.00     0.049 A 
ATOM     50  C   UNL A   1      45.913  29.456  27.176  1.00  0.00     0.074 A 
ATOM     51  C   UNL A   1      41.735  32.521  30.824  1.00  0.00     0.029 A 
ATOM     52  N   UNL A   1      42.750  31.062  29.490  1.00  0.00    -0.354 N 
ATOM     53  N   UNL A   1      44.996  30.017  27.926  1.00  0.00    -0.248 NA
ATOM     54  C   UNL A   1      47.067  30.324  26.895  1.00  0.00     0.031 C 
ATOM     55  C   UNL A   1      42.958  33.068  30.422  1.00  0.00     0.029 A 
ATOM     56  C   UNL A   1      43.597  32.152  29.601  1.00  0.00     0.049 A 
ATOM     57  H   UNL A   1      42.943  30.248  28.971  1.00  0.00     0.167 HD
ATOM     58  C   UNL A   1      45.466  31.289  28.221  1.00  0.00     0.074 A 
ATOM     59  C   UNL A   1      46.760  31.416  27.582  1.00  0.00     0.031 C 
ATOM     60  C   UNL A   1      44.879  32.266  28.954  1.00  0.00     0.037 A 
BRANCH  47  61
ATOM     61  C   UNL A   1      39.261  30.811  31.046  1.00  0.00     0.064 A 
ATOM     62  C   UNL A   1      39.074  30.466  32.392  1.00  0.00     0.173 A 
ATOM     63  C   UNL A   1      38.294  31.624  30.435  1.00  0.00     0.173 A 
ATOM     64  F   UNL A   1      39.964  29.680  33.016  1.00  0.00    -0.203 F 
ATOM     65  C   UNL A   1      37.954  30.903  33.094  1.00  0.00     0.198 A 
ATOM     66  C   UNL A   1      37.188  32.081  31.147  1.00  0.00     0.198 A 
ATOM     67  F   UNL A   1      38.429  31.986  29.150  1.00  0.00    -0.203 F 
ATOM     68  F   UNL A   1      37.777  30.532  34.370  1.00  0.00    -0.200 F 
ATOM     69  C   UNL A   1      37.017  31.715  32.473  1.00  0.00     0.200 A 
ATOM     70  F   UNL A   1      36.288  32.874  30.549  1.00  0.00    -0.200 F 
ATOM     71  F   UNL A   1      35.943  32.143  33.153  1.00  0.00    -0.200 F 
ENDBRANCH  47  61
BRANCH  48  72
ATOM     72  C   UNL A   1      47.091  27.631  25.749  1.00  0.00     0.064 A 
ATOM     73  C   UNL A   1      47.089  27.793  24.357  1.00  0.00     0.173 A 
ATOM     74  C   UNL A   1      48.210  27.020  26.334  1.00  0.00     0.173 A 
ATOM     75  F   UNL A   1      46.029  28.346  23.750  1.00  0.00    -0.203 F 
ATOM     76  C   UNL A   1      48.156  27.346  23.580  1.00  0.00     0.198 A 
ATOM     77  C   UNL A   1      49.288  26.598  25.558  1.00  0.00     0.198 A 
ATOM     78  F   UNL A   1      48.260  26.837  27.661  1.00  0.00    -0.203 F 
ATOM     79  F   UNL A   1      48.109  27.473  22.247  1.00  0.00    -0.200 F 
ATOM     80  C   UNL A   1      49.257  26.755  24.181  1.00  0.00     0.200 A 
ATOM     81  F   UNL A   1      50.353  26.036  26.145  1.00  0.00    -0.200 F 
ATOM     82  F   UNL A   1      50.283  26.328  23.433  1.00  0.00    -0.200 F 
ENDBRANCH  48  72
BRANCH  60  83
ATOM     83  C   UNL A   1      45.631  33.555  29.117  1.00  0.00     0.064 A 
ATOM     84  C   UNL A   1      46.568  33.730  30.144  1.00  0.00     0.173 A 
ATOM     85  C   UNL A   1      45.451  34.606  28.204  1.00  0.00     0.173 A 
ATOM     86  F   UNL A   1      46.763  32.761  31.050  1.00  0.00    -0.203 F 
ATOM     87  C   UNL A   1      47.287  34.917  30.263  1.00  0.00     0.198 A 
ATOM     88  C   UNL A   1      46.191  35.781  28.310  1.00  0.00     0.198 A 
ATOM     89  F   UNL A   1      44.570  34.487  27.199  1.00  0.00    -0.203 F 
ATOM     90  F   UNL A   1      48.151  35.077  31.275  1.00  0.00    -0.200 F 
ATOM     91  C   UNL A   1      47.104  35.937  29.341  1.00  0.00     0.200 A 
ATOM     92  F   UNL A   1      46.022  36.761  27.411  1.00  0.00    -0.200 F 
ATOM     93  F   UNL A   1      47.805  37.074  29.450  1.00  0.00    -0.200 F 
ENDBRANCH  60  83
ENDBRANCH  34  35
ENDBRANCH  27  29
ENDBRANCH  26  27
ENDBRANCH  25  26
ENDBRANCH  24  25
ENDBRANCH  23  24
ENDBRANCH   1  23
TORSDOF 18
ENDMDL
MODEL 3
REMARK VINA RESULT:     -10.8      3.894      9.569
REMARK SMILES CCSc1cccc(-c2ccc([C@@H](C)C(=O)OCCOCCOC(=O)c3ccc(-c4c5nc(c(-c6c(F)c(F)c(F)c(F)c6F)c6ccc([nH]6)c(-c6c(F)c(F)c(F)c(F)c6F)c6nc(c(-c7c(F)c(F)c(F)c(F)c7F)c7ccc4[nH]7)C=C6)C=C5)cc3)cc2)c1
REMARK SMILES IDX 19 1 18 2 17 3 15 4 16 5 13 6 14 7 12 8 9 9 10 10 90 11
REMARK SMILES IDX 11 12 89 13 8 14 4 15 5 16 91 17 6 18 7 19 3 20 2 21 1 22
REMARK SMILES IDX 20 23 21 24 22 25 23 26 24 27 25 28 26 29 27 30 88 31 28 32
REMARK SMILES IDX 87 33 29 34 30 35 31 36 81 37 32 38 86 39 80 40 82 41 33 42
REMARK SMILES IDX 85 43 79 44 78 45 34 47 66 48 46 49 65 50 47 51 50 52 64 53
REMARK SMILES IDX 83 54 48 55 49 56 63 58 84 59 51 60 35 61 36 62 44 63 37 64
REMARK SMILES IDX 38 65 42 66 45 67 39 68 40 69 43 70 41 71 67 72 68 73 76 74
REMARK SMILES IDX 69 75 70 76 74 77 77 78 71 79 72 80 75 81 73 82 52 83 53 84
REMARK SMILES IDX 61 85 54 86 55 87 59 88 62 89 56 90 57 91 60 92 58 93
REMARK H PARENT 82 46 50 57
REMARK Flexibility Score: inf
ROOT
ATOM      1  C   UNL A   1      34.779  34.885  27.714  1.00  0.00     0.202 C 
ENDROOT
BRANCH   1   2
ATOM      2  C   UNL A   1      35.684  34.085  28.654  1.00  0.00     0.261 C 
BRANCH   2   3
ATOM      3  O   UNL A   1      35.844  32.732  28.194  1.00  0.00    -0.463 OA
BRANCH   3   4
ATOM      4  C   UNL A   1      35.098  31.795  28.837  1.00  0.00     0.313 C 
ATOM      5  O   UNL A   1      34.403  32.022  29.823  1.00  0.00    -0.252 OA
BRANCH   4   6
ATOM      6  C   UNL A   1      35.236  30.394  28.262  1.00  0.00     0.126 C 
ATOM      7  C   UNL A   1      36.670  30.188  27.777  1.00  0.00     0.025 C 
BRANCH   6   8
ATOM      8  C   UNL A   1      34.215  29.943  27.222  1.00  0.00    -0.034 A 
ATOM      9  C   UNL A   1      32.142  29.047  25.479  1.00  0.00    -0.018 A 
ATOM     10  C   UNL A   1      33.332  28.318  25.634  1.00  0.00     0.009 A 
ATOM     11  C   UNL A   1      32.030  30.257  26.181  1.00  0.00     0.009 A 
ATOM     12  C   UNL A   1      34.352  28.755  26.492  1.00  0.00     0.005 A 
ATOM     13  C   UNL A   1      33.048  30.700  27.035  1.00  0.00     0.005 A 
BRANCH   9  14
ATOM     14  C   UNL A   1      31.031  28.548  24.649  1.00  0.00    -0.017 A 
ATOM     15  C   UNL A   1      29.239  28.942  23.026  1.00  0.00     0.008 A 
ATOM     16  C   UNL A   1      28.849  27.605  23.123  1.00  0.00     0.015 A 
ATOM     17  C   UNL A   1      30.314  29.405  23.795  1.00  0.00     0.023 A 
ATOM     18  C   UNL A   1      29.540  26.737  23.968  1.00  0.00     0.002 A 
ATOM     19  C   UNL A   1      30.621  27.205  24.720  1.00  0.00     0.009 A 
BRANCH  15  20
ATOM     20  S   UNL A   1      28.306  30.064  22.004  1.00  0.00    -0.126 SA
BRANCH  20  21
ATOM     21  C   UNL A   1      28.073  31.460  23.156  1.00  0.00     0.071 C 
ATOM     22  C   UNL A   1      28.403  32.800  22.523  1.00  0.00     0.016 C 
ENDBRANCH  20  21
ENDBRANCH  15  20
ENDBRANCH   9  14
ENDBRANCH   6   8
ENDBRANCH   4   6
ENDBRANCH   3   4
ENDBRANCH   2   3
ENDBRANCH   1   2
BRANCH   1  23
ATOM     23  O   UNL A   1      33.930  35.848  28.337  1.00  0.00    -0.374 OA
BRANCH  23  24
ATOM     24  C   UNL A   1      32.974  35.360  29.280  1.00  0.00     0.202 C 
BRANCH  24  25
ATOM     25  C   UNL A   1      32.535  36.350  30.366  1.00  0.00     0.261 C 
BRANCH  25  26
ATOM     26  O   UNL A   1      32.151  35.681  31.582  1.00  0.00    -0.460 OA
BRANCH  26  27
ATOM     27  C   UNL A   1      32.852  36.032  32.683  1.00  0.00     0.338 C 
ATOM     28  O   UNL A   1      32.515  36.808  33.568  1.00  0.00    -0.246 OA
BRANCH  27  29
ATOM     29  C   UNL A   1      34.063  35.199  32.785  1.00  0.00     0.060 A 
ATOM     30  C   UNL A   1      33.912  33.884  33.246  1.00  0.00     0.016 A 
ATOM     31  C   UNL A   1      35.329  35.708  32.491  1.00  0.00     0.016 A 
ATOM     32  C   UNL A   1      35.033  33.079  33.439  1.00  0.00     0.010 A 
ATOM     33  C   UNL A   1      36.454  34.903  32.698  1.00  0.00     0.010 A 
ATOM     34  C   UNL A   1      36.313  33.592  33.192  1.00  0.00    -0.014 A 
BRANCH  34  35
ATOM     35  C   UNL A   1      37.511  32.793  33.543  1.00  0.00     0.031 A 
ATOM     36  C   UNL A   1      38.239  33.077  34.826  1.00  0.00     0.074 A 
ATOM     37  C   UNL A   1      37.945  31.818  32.724  1.00  0.00     0.049 A 
ATOM     38  N   UNL A   1      39.343  32.548  35.288  1.00  0.00    -0.248 NA
ATOM     39  C   UNL A   1      37.640  34.092  35.706  1.00  0.00     0.031 C 
ATOM     40  C   UNL A   1      37.300  31.420  31.475  1.00  0.00     0.029 A 
ATOM     41  N   UNL A   1      39.041  30.996  32.816  1.00  0.00    -0.354 N 
ATOM     42  C   UNL A   1      39.575  33.168  36.510  1.00  0.00     0.074 A 
ATOM     43  C   UNL A   1      38.509  34.127  36.706  1.00  0.00     0.031 C 
ATOM     44  C   UNL A   1      38.024  30.441  30.904  1.00  0.00     0.029 A 
ATOM     45  C   UNL A   1      39.200  30.172  31.730  1.00  0.00     0.049 A 
ATOM     46  H   UNL A   1      39.652  30.997  33.588  1.00  0.00     0.167 HD
ATOM     47  C   UNL A   1      40.583  32.950  37.387  1.00  0.00     0.037 A 
ATOM     48  C   UNL A   1      40.199  29.322  31.423  1.00  0.00     0.037 A 
ATOM     49  C   UNL A   1      41.640  31.994  37.191  1.00  0.00     0.049 A 
ATOM     50  C   UNL A   1      41.358  29.166  32.373  1.00  0.00     0.074 A 
ATOM     51  C   UNL A   1      42.684  31.673  38.041  1.00  0.00     0.029 A 
ATOM     52  N   UNL A   1      41.795  31.211  36.056  1.00  0.00    -0.354 N 
ATOM     53  N   UNL A   1      41.554  29.731  33.539  1.00  0.00    -0.248 NA
ATOM     54  C   UNL A   1      42.438  28.258  31.960  1.00  0.00     0.031 C 
ATOM     55  C   UNL A   1      43.500  30.736  37.399  1.00  0.00     0.029 A 
ATOM     56  C   UNL A   1      42.939  30.438  36.168  1.00  0.00     0.049 A 
ATOM     57  H   UNL A   1      41.183  31.207  35.285  1.00  0.00     0.167 HD
ATOM     58  C   UNL A   1      42.765  29.238  34.006  1.00  0.00     0.074 A 
ATOM     59  C   UNL A   1      43.254  28.313  33.004  1.00  0.00     0.031 C 
ATOM     60  C   UNL A   1      43.416  29.526  35.159  1.00  0.00     0.037 A 
BRANCH  47  61
ATOM     61  C   UNL A   1      40.608  33.778  38.637  1.00  0.00     0.064 A 
ATOM     62  C   UNL A   1      41.383  34.943  38.734  1.00  0.00     0.173 A 
ATOM     63  C   UNL A   1      39.807  33.428  39.734  1.00  0.00     0.173 A 
ATOM     64  F   UNL A   1      42.175  35.312  37.716  1.00  0.00    -0.203 F 
ATOM     65  C   UNL A   1      41.370  35.717  39.891  1.00  0.00     0.198 A 
ATOM     66  C   UNL A   1      39.776  34.217  40.881  1.00  0.00     0.198 A 
ATOM     67  F   UNL A   1      39.044  32.325  39.689  1.00  0.00    -0.203 F 
ATOM     68  F   UNL A   1      42.145  36.806  39.976  1.00  0.00    -0.200 F 
ATOM     69  C   UNL A   1      40.562  35.357  40.960  1.00  0.00     0.200 A 
ATOM     70  F   UNL A   1      38.987  33.874  41.908  1.00  0.00    -0.200 F 
ATOM     71  F   UNL A   1      40.543  36.108  42.070  1.00  0.00    -0.200 F 
ENDBRANCH  47  61
BRANCH  48  72
ATOM     72  C   UNL A   1      40.170  28.576  30.138  1.00  0.00     0.064 A 
ATOM     73  C   UNL A   1      40.764  29.101  28.983  1.00  0.00     0.173 A 
ATOM     74  C   UNL A   1      39.531  27.332  30.037  1.00  0.00     0.173 A 
ATOM     75  F   UNL A   1      41.362  30.301  29.024  1.00  0.00    -0.203 F 
ATOM     76  C   UNL A   1      40.707  28.416  27.770  1.00  0.00     0.198 A 
ATOM     77  C   UNL A   1      39.498  26.635  28.830  1.00  0.00     0.198 A 
ATOM     78  F   UNL A   1      38.943  26.788  31.112  1.00  0.00    -0.203 F 
ATOM     79  F   UNL A   1      41.245  28.960  26.671  1.00  0.00    -0.200 F 
ATOM     80  C   UNL A   1      40.080  27.181  27.697  1.00  0.00     0.200 A 
ATOM     81  F   UNL A   1      38.899  25.439  28.767  1.00  0.00    -0.200 F 
ATOM     82  F   UNL A   1      40.027  26.522  26.531  1.00  0.00    -0.200 F 
ENDBRANCH  48  72
BRANCH  60  83
ATOM     83  C   UNL A   1      44.721  28.828  35.410  1.00  0.00     0.064 A 
ATOM     84  C   UNL A   1      45.943  29.414  35.053  1.00  0.00     0.173 A 
ATOM     85  C   UNL A   1      44.752  27.587  36.063  1.00  0.00     0.173 A 
ATOM     86  F   UNL A   1      45.964  30.593  34.413  1.00  0.00    -0.203 F 
ATOM     87  C   UNL A   1      47.150  28.775  35.325  1.00  0.00     0.198 A 
ATOM     88  C   UNL A   1      45.961  26.963  36.357  1.00  0.00     0.198 A 
ATOM     89  F   UNL A   1      43.610  26.986  36.430  1.00  0.00    -0.203 F 
ATOM     90  F   UNL A   1      48.305  29.336  34.941  1.00  0.00    -0.200 F 
ATOM     91  C   UNL A   1      47.159  27.554  35.984  1.00  0.00     0.200 A 
ATOM     92  F   UNL A   1      45.969  25.789  37.004  1.00  0.00    -0.200 F 
ATOM     93  F   UNL A   1      48.322  26.946  36.255  1.00  0.00    -0.200 F 
ENDBRANCH  60  83
ENDBRANCH  34  35
ENDBRANCH  27  29
ENDBRANCH  26  27
ENDBRANCH  25  26
ENDBRANCH  24  25
ENDBRANCH  23  24
ENDBRANCH   1  23
TORSDOF 18
ENDMDL
