MODEL 1
REMARK VINA RESULT:     -11.2      0.000      0.000
REMARK SMILES COc1ccc([C@@H]2[NH2+][C@H](C(=O)OCCOCCOC(=O)c3ccc(-c4c5nc(c(-c6c(F)c(F)c(F)c(F)c6F)c6ccc([nH]6)c(-c6c(F)c(F)c(F)c(F)c6F)c6nc(c(-c7c(F)c(F)c(F)c(F)c7F)c7ccc4[nH]7)C=C6)C=C5)cc3)CS2)cc1Cn1nc(C)c(Br)c1C
REMARK SMILES IDX 14 1 13 2 12 3 10 4 11 5 9 6 7 7 8 8 85 9 84 12 6 13 3 14
REMARK SMILES IDX 4 15 87 16 5 17 86 18 2 19 1 20 88 21 89 22 90 23 95 24
REMARK SMILES IDX 91 25 93 26 96 27 92 28 94 29 15 30 16 31 17 32 18 33 19 34
REMARK SMILES IDX 20 35 21 36 22 37 83 38 23 39 82 40 24 41 25 42 26 43 76 44
REMARK SMILES IDX 27 45 81 46 75 47 77 48 28 49 80 50 74 51 73 52 29 54 61 55
REMARK SMILES IDX 41 56 60 57 42 58 45 59 59 60 78 61 43 62 44 63 58 65 79 66
REMARK SMILES IDX 46 67 30 68 31 69 39 70 32 71 33 72 37 73 40 74 34 75 35 76
REMARK SMILES IDX 38 77 36 78 62 79 63 80 71 81 64 82 65 83 69 84 72 85 66 86
REMARK SMILES IDX 67 87 70 88 68 89 47 90 48 91 56 92 49 93 50 94 54 95 57 96
REMARK SMILES IDX 51 97 52 98 55 99 53 100
REMARK H PARENT 8 10 8 11 77 53 45 64
REMARK Flexibility Score: inf
ROOT
ATOM      1  C   UNL A   1      34.859  29.201  27.855  1.00  0.00     0.202 C 
ENDROOT
BRANCH   1   2
ATOM      2  C   UNL A   1      34.548  29.059  26.365  1.00  0.00     0.261 C 
BRANCH   2   3
ATOM      3  O   UNL A   1      33.340  28.359  26.060  1.00  0.00    -0.459 OA
BRANCH   3   4
ATOM      4  C   UNL A   1      32.308  29.121  25.609  1.00  0.00     0.365 C 
ATOM      5  O   UNL A   1      31.574  29.798  26.321  1.00  0.00    -0.245 OA
BRANCH   4   6
ATOM      6  C   UNL A   1      32.167  29.100  24.085  1.00  0.00     0.304 C 
ATOM      7  C   UNL A   1      31.692  26.924  23.163  1.00  0.00     0.274 C 
ATOM      8  N   UNL A   1      32.749  27.898  23.431  1.00  0.00    -0.319 N 
ATOM      9  S   UNL A   1      30.163  27.815  22.835  1.00  0.00    -0.087 SA
ATOM     10  H   UNL A   1      33.190  28.169  22.553  1.00  0.00     0.348 HD
ATOM     11  H   UNL A   1      33.444  27.480  24.048  1.00  0.00     0.348 HD
ATOM     12  C   UNL A   1      30.703  29.310  23.687  1.00  0.00     0.153 C 
BRANCH   7  13
ATOM     13  C   UNL A   1      31.557  25.824  24.200  1.00  0.00     0.021 A 
ATOM     14  C   UNL A   1      31.178  24.000  26.286  1.00  0.00     0.123 A 
ATOM     15  C   UNL A   1      30.075  24.526  25.616  1.00  0.00     0.047 A 
ATOM     16  C   UNL A   1      32.491  24.270  25.879  1.00  0.00     0.016 A 
ATOM     17  C   UNL A   1      30.264  25.424  24.573  1.00  0.00     0.015 A 
ATOM     18  C   UNL A   1      32.657  25.215  24.850  1.00  0.00     0.020 A 
BRANCH  14  19
ATOM     19  O   UNL A   1      30.917  23.196  27.359  1.00  0.00    -0.496 OA
ATOM     20  C   UNL A   1      29.536  22.833  27.408  1.00  0.00     0.278 C 
ENDBRANCH  14  19
BRANCH  16  21
ATOM     21  C   UNL A   1      33.664  23.673  26.629  1.00  0.00     0.184 C 
BRANCH  21  22
ATOM     22  N   UNL A   1      34.369  22.580  25.952  1.00  0.00    -0.264 N 
ATOM     23  N   UNL A   1      33.663  21.470  25.605  1.00  0.00    -0.177 NA
ATOM     24  C   UNL A   1      35.729  22.425  25.774  1.00  0.00     0.050 A 
ATOM     25  C   UNL A   1      34.587  20.601  25.172  1.00  0.00     0.074 A 
ATOM     26  C   UNL A   1      35.879  21.153  25.270  1.00  0.00     0.061 A 
ATOM     27  C   UNL A   1      36.745  23.469  26.061  1.00  0.00     0.067 C 
ATOM     28  C   UNL A   1      34.184  19.271  24.649  1.00  0.00     0.070 C 
ATOM     29  Br  UNL A   1      37.464  20.296  24.757  1.00  0.00    -0.047 Br
ENDBRANCH  21  22
ENDBRANCH  16  21
ENDBRANCH   7  13
ENDBRANCH   4   6
ENDBRANCH   3   4
ENDBRANCH   2   3
ENDBRANCH   1   2
BRANCH   1  30
ATOM     30  O   UNL A   1      34.654  30.475  28.448  1.00  0.00    -0.374 OA
BRANCH  30  31
ATOM     31  C   UNL A   1      34.393  31.568  27.570  1.00  0.00     0.202 C 
BRANCH  31  32
ATOM     32  C   UNL A   1      33.193  32.477  27.885  1.00  0.00     0.261 C 
BRANCH  32  33
ATOM     33  O   UNL A   1      33.396  33.877  27.601  1.00  0.00    -0.460 OA
BRANCH  33  34
ATOM     34  C   UNL A   1      33.340  34.685  28.691  1.00  0.00     0.338 C 
ATOM     35  O   UNL A   1      32.425  35.428  29.008  1.00  0.00    -0.246 OA
BRANCH  34  36
ATOM     36  C   UNL A   1      34.524  34.540  29.560  1.00  0.00     0.060 A 
ATOM     37  C   UNL A   1      35.790  34.577  28.964  1.00  0.00     0.016 A 
ATOM     38  C   UNL A   1      34.381  34.114  30.880  1.00  0.00     0.016 A 
ATOM     39  C   UNL A   1      36.911  34.121  29.666  1.00  0.00     0.010 A 
ATOM     40  C   UNL A   1      35.508  33.662  31.582  1.00  0.00     0.010 A 
ATOM     41  C   UNL A   1      36.772  33.613  30.964  1.00  0.00    -0.014 A 
BRANCH  41  42
ATOM     42  C   UNL A   1      37.900  32.890  31.620  1.00  0.00     0.031 A 
ATOM     43  C   UNL A   1      38.438  31.630  30.991  1.00  0.00     0.074 A 
ATOM     44  C   UNL A   1      38.454  33.332  32.763  1.00  0.00     0.049 A 
ATOM     45  N   UNL A   1      39.369  30.815  31.425  1.00  0.00    -0.248 NA
ATOM     46  C   UNL A   1      37.864  31.245  29.693  1.00  0.00     0.031 C 
ATOM     47  C   UNL A   1      38.095  34.562  33.457  1.00  0.00     0.029 A 
ATOM     48  N   UNL A   1      39.415  32.763  33.566  1.00  0.00    -0.354 N 
ATOM     49  C   UNL A   1      39.510  29.843  30.444  1.00  0.00     0.074 A 
ATOM     50  C   UNL A   1      38.524  30.128  29.423  1.00  0.00     0.031 C 
ATOM     51  C   UNL A   1      38.744  34.609  34.632  1.00  0.00     0.029 A 
ATOM     52  C   UNL A   1      39.579  33.418  34.761  1.00  0.00     0.049 A 
ATOM     53  H   UNL A   1      39.933  31.966  33.310  1.00  0.00     0.167 HD
ATOM     54  C   UNL A   1      40.405  28.829  30.376  1.00  0.00     0.037 A 
ATOM     55  C   UNL A   1      40.297  33.084  35.851  1.00  0.00     0.037 A 
ATOM     56  C   UNL A   1      41.399  28.541  31.376  1.00  0.00     0.049 A 
ATOM     57  C   UNL A   1      41.192  31.877  35.818  1.00  0.00     0.074 A 
ATOM     58  C   UNL A   1      42.396  27.579  31.354  1.00  0.00     0.029 A 
ATOM     59  N   UNL A   1      41.515  29.206  32.587  1.00  0.00    -0.354 N 
ATOM     60  N   UNL A   1      41.367  31.005  34.857  1.00  0.00    -0.248 NA
ATOM     61  C   UNL A   1      42.019  31.631  37.009  1.00  0.00     0.031 C 
ATOM     62  C   UNL A   1      43.086  27.633  32.572  1.00  0.00     0.029 A 
ATOM     63  C   UNL A   1      42.544  28.653  33.334  1.00  0.00     0.049 A 
ATOM     64  H   UNL A   1      40.949  29.959  32.874  1.00  0.00     0.167 HD
ATOM     65  C   UNL A   1      42.360  30.142  35.301  1.00  0.00     0.074 A 
ATOM     66  C   UNL A   1      42.737  30.584  36.627  1.00  0.00     0.031 C 
ATOM     67  C   UNL A   1      42.922  29.094  34.652  1.00  0.00     0.037 A 
BRANCH  54  68
ATOM     68  C   UNL A   1      40.361  27.956  29.158  1.00  0.00     0.064 A 
ATOM     69  C   UNL A   1      41.086  28.282  28.001  1.00  0.00     0.173 A 
ATOM     70  C   UNL A   1      39.621  26.765  29.159  1.00  0.00     0.173 A 
ATOM     71  F   UNL A   1      41.802  29.414  27.950  1.00  0.00    -0.203 F 
ATOM     72  C   UNL A   1      41.049  27.459  26.879  1.00  0.00     0.198 A 
ATOM     73  C   UNL A   1      39.605  25.933  28.042  1.00  0.00     0.198 A 
ATOM     74  F   UNL A   1      38.918  26.407  30.243  1.00  0.00    -0.203 F 
ATOM     75  F   UNL A   1      41.717  27.809  25.771  1.00  0.00    -0.200 F 
ATOM     76  C   UNL A   1      40.313  26.284  26.903  1.00  0.00     0.200 A 
ATOM     77  F   UNL A   1      38.903  24.792  28.069  1.00  0.00    -0.200 F 
ATOM     78  F   UNL A   1      40.283  25.490  25.822  1.00  0.00    -0.200 F 
ENDBRANCH  54  68
BRANCH  55  79
ATOM     79  C   UNL A   1      40.186  33.908  37.080  1.00  0.00     0.064 A 
ATOM     80  C   UNL A   1      39.219  33.637  38.055  1.00  0.00     0.173 A 
ATOM     81  C   UNL A   1      41.045  34.996  37.289  1.00  0.00     0.173 A 
ATOM     82  F   UNL A   1      38.361  32.622  37.883  1.00  0.00    -0.203 F 
ATOM     83  C   UNL A   1      39.104  34.437  39.191  1.00  0.00     0.198 A 
ATOM     84  C   UNL A   1      40.942  35.783  38.433  1.00  0.00     0.198 A 
ATOM     85  F   UNL A   1      41.988  35.295  36.383  1.00  0.00    -0.203 F 
ATOM     86  F   UNL A   1      38.146  34.183  40.092  1.00  0.00    -0.200 F 
ATOM     87  C   UNL A   1      39.967  35.507  39.380  1.00  0.00     0.200 A 
ATOM     88  F   UNL A   1      41.784  36.810  38.616  1.00  0.00    -0.200 F 
ATOM     89  F   UNL A   1      39.855  36.276  40.471  1.00  0.00    -0.200 F 
ENDBRANCH  55  79
BRANCH  67  90
ATOM     90  C   UNL A   1      44.046  28.381  35.345  1.00  0.00     0.064 A 
ATOM     91  C   UNL A   1      45.379  28.786  35.197  1.00  0.00     0.173 A 
ATOM     92  C   UNL A   1      43.781  27.282  36.177  1.00  0.00     0.173 A 
ATOM     93  F   UNL A   1      45.686  29.818  34.397  1.00  0.00    -0.203 F 
ATOM     94  C   UNL A   1      46.411  28.101  35.836  1.00  0.00     0.198 A 
ATOM     95  C   UNL A   1      44.811  26.616  36.835  1.00  0.00     0.198 A 
ATOM     96  F   UNL A   1      42.522  26.855  36.355  1.00  0.00    -0.203 F 
ATOM     97  F   UNL A   1      47.683  28.475  35.642  1.00  0.00    -0.200 F 
ATOM     98  C   UNL A   1      46.125  27.020  36.658  1.00  0.00     0.200 A 
ATOM     99  F   UNL A   1      44.534  25.576  37.635  1.00  0.00    -0.200 F 
ATOM    100  F   UNL A   1      47.119  26.362  37.270  1.00  0.00    -0.200 F 
ENDBRANCH  67  90
ENDBRANCH  41  42
ENDBRANCH  34  36
ENDBRANCH  33  34
ENDBRANCH  32  33
ENDBRANCH  31  32
ENDBRANCH  30  31
ENDBRANCH   1  30
TORSDOF 18
ENDMDL
MODEL 2
REMARK VINA RESULT:     -11.2      0.647      7.077
REMARK SMILES COc1ccc([C@@H]2[NH2+][C@H](C(=O)OCCOCCOC(=O)c3ccc(-c4c5nc(c(-c6c(F)c(F)c(F)c(F)c6F)c6ccc([nH]6)c(-c6c(F)c(F)c(F)c(F)c6F)c6nc(c(-c7c(F)c(F)c(F)c(F)c7F)c7ccc4[nH]7)C=C6)C=C5)cc3)CS2)cc1Cn1nc(C)c(Br)c1C
REMARK SMILES IDX 14 1 13 2 12 3 10 4 11 5 9 6 7 7 8 8 85 9 84 12 6 13 3 14
REMARK SMILES IDX 4 15 87 16 5 17 86 18 2 19 1 20 88 21 89 22 90 23 95 24
REMARK SMILES IDX 91 25 93 26 96 27 92 28 94 29 15 30 16 31 17 32 18 33 19 34
REMARK SMILES IDX 20 35 21 36 22 37 83 38 23 39 82 40 24 41 25 42 26 43 76 44
REMARK SMILES IDX 27 45 81 46 75 47 77 48 28 49 80 50 74 51 73 52 29 54 61 55
REMARK SMILES IDX 41 56 60 57 42 58 45 59 59 60 78 61 43 62 44 63 58 65 79 66
REMARK SMILES IDX 46 67 30 68 31 69 39 70 32 71 33 72 37 73 40 74 34 75 35 76
REMARK SMILES IDX 38 77 36 78 62 79 63 80 71 81 64 82 65 83 69 84 72 85 66 86
REMARK SMILES IDX 67 87 70 88 68 89 47 90 48 91 56 92 49 93 50 94 54 95 57 96
REMARK SMILES IDX 51 97 52 98 55 99 53 100
REMARK H PARENT 8 10 8 11 77 53 45 64
REMARK Flexibility Score: inf
ROOT
ATOM      1  C   UNL A   1      34.677  29.316  27.663  1.00  0.00     0.202 C 
ENDROOT
BRANCH   1   2
ATOM      2  C   UNL A   1      34.462  29.166  26.158  1.00  0.00     0.261 C 
BRANCH   2   3
ATOM      3  O   UNL A   1      33.379  28.313  25.781  1.00  0.00    -0.459 OA
BRANCH   3   4
ATOM      4  C   UNL A   1      32.217  28.935  25.446  1.00  0.00     0.365 C 
ATOM      5  O   UNL A   1      31.455  29.471  26.244  1.00  0.00    -0.245 OA
BRANCH   4   6
ATOM      6  C   UNL A   1      31.959  28.955  23.937  1.00  0.00     0.304 C 
ATOM      7  C   UNL A   1      31.059  26.899  23.059  1.00  0.00     0.274 C 
ATOM      8  N   UNL A   1      32.281  27.680  23.243  1.00  0.00    -0.319 N 
ATOM      9  S   UNL A   1      29.680  28.035  22.848  1.00  0.00    -0.087 SA
ATOM     10  H   UNL A   1      32.693  27.884  22.332  1.00  0.00     0.348 HD
ATOM     11  H   UNL A   1      32.942  27.146  23.805  1.00  0.00     0.348 HD
ATOM     12  C   UNL A   1      30.525  29.409  23.653  1.00  0.00     0.153 C 
BRANCH   7  13
ATOM     13  C   UNL A   1      30.823  25.824  24.105  1.00  0.00     0.021 A 
ATOM     14  C   UNL A   1      30.548  24.016  26.220  1.00  0.00     0.123 A 
ATOM     15  C   UNL A   1      29.954  25.274  26.302  1.00  0.00     0.047 A 
ATOM     16  C   UNL A   1      31.195  23.576  25.058  1.00  0.00     0.016 A 
ATOM     17  C   UNL A   1      30.083  26.169  25.247  1.00  0.00     0.015 A 
ATOM     18  C   UNL A   1      31.350  24.514  24.021  1.00  0.00     0.020 A 
BRANCH  14  19
ATOM     19  O   UNL A   1      30.460  23.223  27.329  1.00  0.00    -0.496 OA
ATOM     20  C   UNL A   1      29.166  22.627  27.436  1.00  0.00     0.278 C 
ENDBRANCH  14  19
BRANCH  16  21
ATOM     21  C   UNL A   1      31.823  22.198  25.006  1.00  0.00     0.184 C 
BRANCH  21  22
ATOM     22  N   UNL A   1      33.275  22.148  25.199  1.00  0.00    -0.264 N 
ATOM     23  N   UNL A   1      33.932  23.304  25.482  1.00  0.00    -0.177 NA
ATOM     24  C   UNL A   1      34.132  21.095  24.944  1.00  0.00     0.050 A 
ATOM     25  C   UNL A   1      35.232  22.979  25.433  1.00  0.00     0.074 A 
ATOM     26  C   UNL A   1      35.395  21.622  25.094  1.00  0.00     0.061 A 
ATOM     27  C   UNL A   1      33.702  19.713  24.616  1.00  0.00     0.067 C 
ATOM     28  C   UNL A   1      36.274  23.989  25.745  1.00  0.00     0.070 C 
ATOM     29  Br  UNL A   1      37.039  20.737  24.935  1.00  0.00    -0.047 Br
ENDBRANCH  21  22
ENDBRANCH  16  21
ENDBRANCH   7  13
ENDBRANCH   4   6
ENDBRANCH   3   4
ENDBRANCH   2   3
ENDBRANCH   1   2
BRANCH   1  30
ATOM     30  O   UNL A   1      34.415  30.588  28.239  1.00  0.00    -0.374 OA
BRANCH  30  31
ATOM     31  C   UNL A   1      33.984  31.625  27.361  1.00  0.00     0.202 C 
BRANCH  31  32
ATOM     32  C   UNL A   1      32.914  32.605  27.869  1.00  0.00     0.261 C 
BRANCH  32  33
ATOM     33  O   UNL A   1      33.153  33.991  27.549  1.00  0.00    -0.460 OA
BRANCH  33  34
ATOM     34  C   UNL A   1      33.215  34.815  28.627  1.00  0.00     0.338 C 
ATOM     35  O   UNL A   1      32.405  35.670  28.945  1.00  0.00    -0.246 OA
BRANCH  34  36
ATOM     36  C   UNL A   1      34.384  34.535  29.482  1.00  0.00     0.060 A 
ATOM     37  C   UNL A   1      35.656  34.581  28.898  1.00  0.00     0.016 A 
ATOM     38  C   UNL A   1      34.214  33.983  30.752  1.00  0.00     0.016 A 
ATOM     39  C   UNL A   1      36.752  34.012  29.555  1.00  0.00     0.010 A 
ATOM     40  C   UNL A   1      35.316  33.417  31.408  1.00  0.00     0.010 A 
ATOM     41  C   UNL A   1      36.583  33.381  30.794  1.00  0.00    -0.014 A 
BRANCH  41  42
ATOM     42  C   UNL A   1      37.675  32.550  31.378  1.00  0.00     0.031 A 
ATOM     43  C   UNL A   1      38.327  32.983  32.667  1.00  0.00     0.074 A 
ATOM     44  C   UNL A   1      38.099  31.420  30.785  1.00  0.00     0.049 A 
ATOM     45  N   UNL A   1      39.332  32.444  33.313  1.00  0.00    -0.248 NA
ATOM     46  C   UNL A   1      37.761  34.171  33.324  1.00  0.00     0.031 C 
ATOM     47  C   UNL A   1      37.530  30.834  29.578  1.00  0.00     0.029 A 
ATOM     48  N   UNL A   1      39.144  30.584  31.103  1.00  0.00    -0.354 N 
ATOM     49  C   UNL A   1      39.499  33.207  34.461  1.00  0.00     0.074 A 
ATOM     50  C   UNL A   1      38.538  34.287  34.392  1.00  0.00     0.031 C 
ATOM     51  C   UNL A   1      38.292  29.796  29.194  1.00  0.00     0.029 A 
ATOM     52  C   UNL A   1      39.391  29.636  30.142  1.00  0.00     0.049 A 
ATOM     53  H   UNL A   1      39.663  30.658  31.936  1.00  0.00     0.167 HD
ATOM     54  C   UNL A   1      40.345  33.005  35.499  1.00  0.00     0.037 A 
ATOM     55  C   UNL A   1      40.403  28.756  30.020  1.00  0.00     0.037 A 
ATOM     56  C   UNL A   1      41.297  31.930  35.588  1.00  0.00     0.049 A 
ATOM     57  C   UNL A   1      41.421  28.627  31.118  1.00  0.00     0.074 A 
ATOM     58  C   UNL A   1      42.142  31.606  36.637  1.00  0.00     0.029 A 
ATOM     59  N   UNL A   1      41.540  31.008  34.582  1.00  0.00    -0.354 N 
ATOM     60  N   UNL A   1      41.526  29.310  32.231  1.00  0.00    -0.248 NA
ATOM     61  C   UNL A   1      42.440  27.578  30.960  1.00  0.00     0.031 C 
ATOM     62  C   UNL A   1      42.928  30.515  36.247  1.00  0.00     0.029 A 
ATOM     63  C   UNL A   1      42.546  30.136  34.972  1.00  0.00     0.049 A 
ATOM     64  H   UNL A   1      41.069  30.977  33.718  1.00  0.00     0.167 HD
ATOM     65  C   UNL A   1      42.581  28.740  32.930  1.00  0.00     0.074 A 
ATOM     66  C   UNL A   1      43.098  27.666  32.107  1.00  0.00     0.031 C 
ATOM     67  C   UNL A   1      43.059  29.066  34.155  1.00  0.00     0.037 A 
BRANCH  54  68
ATOM     68  C   UNL A   1      40.267  33.970  36.645  1.00  0.00     0.064 A 
ATOM     69  C   UNL A   1      41.076  35.117  36.686  1.00  0.00     0.173 A 
ATOM     70  C   UNL A   1      39.353  33.768  37.688  1.00  0.00     0.173 A 
ATOM     71  F   UNL A   1      41.970  35.349  35.715  1.00  0.00    -0.203 F 
ATOM     72  C   UNL A   1      40.989  36.013  37.747  1.00  0.00     0.198 A 
ATOM     73  C   UNL A   1      39.254  34.680  38.737  1.00  0.00     0.198 A 
ATOM     74  F   UNL A   1      38.555  32.691  37.689  1.00  0.00    -0.203 F 
ATOM     75  F   UNL A   1      41.796  37.082  37.787  1.00  0.00    -0.200 F 
ATOM     76  C   UNL A   1      40.075  35.797  38.768  1.00  0.00     0.200 A 
ATOM     77  F   UNL A   1      38.364  34.476  39.717  1.00  0.00    -0.200 F 
ATOM     78  F   UNL A   1      39.990  36.665  39.786  1.00  0.00    -0.200 F 
ENDBRANCH  54  68
BRANCH  55  79
ATOM     79  C   UNL A   1      40.509  27.929  28.792  1.00  0.00     0.064 A 
ATOM     80  C   UNL A   1      41.263  28.350  27.691  1.00  0.00     0.173 A 
ATOM     81  C   UNL A   1      39.837  26.701  28.699  1.00  0.00     0.173 A 
ATOM     82  F   UNL A   1      41.901  29.529  27.728  1.00  0.00    -0.203 F 
ATOM     83  C   UNL A   1      41.330  27.579  26.532  1.00  0.00     0.198 A 
ATOM     84  C   UNL A   1      39.920  25.923  27.547  1.00  0.00     0.198 A 
ATOM     85  F   UNL A   1      39.102  26.255  29.729  1.00  0.00    -0.203 F 
ATOM     86  F   UNL A   1      42.027  28.021  25.476  1.00  0.00    -0.200 F 
ATOM     87  C   UNL A   1      40.661  26.365  26.463  1.00  0.00     0.200 A 
ATOM     88  F   UNL A   1      39.280  24.747  27.488  1.00  0.00    -0.200 F 
ATOM     89  F   UNL A   1      40.725  25.626  25.347  1.00  0.00    -0.200 F 
ENDBRANCH  55  79
BRANCH  67  90
ATOM     90  C   UNL A   1      44.165  28.218  34.709  1.00  0.00     0.064 A 
ATOM     91  C   UNL A   1      45.513  28.559  34.538  1.00  0.00     0.173 A 
ATOM     92  C   UNL A   1      43.869  27.051  35.431  1.00  0.00     0.173 A 
ATOM     93  F   UNL A   1      45.849  29.653  33.838  1.00  0.00    -0.203 F 
ATOM     94  C   UNL A   1      46.527  27.750  35.047  1.00  0.00     0.198 A 
ATOM     95  C   UNL A   1      44.883  26.258  35.961  1.00  0.00     0.198 A 
ATOM     96  F   UNL A   1      42.594  26.681  35.625  1.00  0.00    -0.203 F 
ATOM     97  F   UNL A   1      47.810  28.069  34.829  1.00  0.00    -0.200 F 
ATOM     98  C   UNL A   1      46.210  26.603  35.762  1.00  0.00     0.200 A 
ATOM     99  F   UNL A   1      44.576  25.155  36.657  1.00  0.00    -0.200 F 
ATOM    100  F   UNL A   1      47.187  25.825  36.249  1.00  0.00    -0.200 F 
ENDBRANCH  67  90
ENDBRANCH  41  42
ENDBRANCH  34  36
ENDBRANCH  33  34
ENDBRANCH  32  33
ENDBRANCH  31  32
ENDBRANCH  30  31
ENDBRANCH   1  30
TORSDOF 18
ENDMDL
MODEL 3
REMARK VINA RESULT:     -11.0      5.208      9.067
REMARK SMILES COc1ccc([C@@H]2[NH2+][C@H](C(=O)OCCOCCOC(=O)c3ccc(-c4c5nc(c(-c6c(F)c(F)c(F)c(F)c6F)c6ccc([nH]6)c(-c6c(F)c(F)c(F)c(F)c6F)c6nc(c(-c7c(F)c(F)c(F)c(F)c7F)c7ccc4[nH]7)C=C6)C=C5)cc3)CS2)cc1Cn1nc(C)c(Br)c1C
REMARK SMILES IDX 14 1 13 2 12 3 10 4 11 5 9 6 7 7 8 8 85 9 84 12 6 13 3 14
REMARK SMILES IDX 4 15 87 16 5 17 86 18 2 19 1 20 88 21 89 22 90 23 95 24
REMARK SMILES IDX 91 25 93 26 96 27 92 28 94 29 15 30 16 31 17 32 18 33 19 34
REMARK SMILES IDX 20 35 21 36 22 37 83 38 23 39 82 40 24 41 25 42 26 43 76 44
REMARK SMILES IDX 27 45 81 46 75 47 77 48 28 49 80 50 74 51 73 52 29 54 61 55
REMARK SMILES IDX 41 56 60 57 42 58 45 59 59 60 78 61 43 62 44 63 58 65 79 66
REMARK SMILES IDX 46 67 30 68 31 69 39 70 32 71 33 72 37 73 40 74 34 75 35 76
REMARK SMILES IDX 38 77 36 78 62 79 63 80 71 81 64 82 65 83 69 84 72 85 66 86
REMARK SMILES IDX 67 87 70 88 68 89 47 90 48 91 56 92 49 93 50 94 54 95 57 96
REMARK SMILES IDX 51 97 52 98 55 99 53 100
REMARK H PARENT 8 10 8 11 77 53 45 64
REMARK Flexibility Score: inf
ROOT
ATOM      1  C   UNL A   1      37.284  22.537  24.967  1.00  0.00     0.202 C 
ENDROOT
BRANCH   1   2
ATOM      2  C   UNL A   1      36.250  22.563  23.842  1.00  0.00     0.261 C 
BRANCH   2   3
ATOM      3  O   UNL A   1      35.173  23.484  24.028  1.00  0.00    -0.459 OA
BRANCH   3   4
ATOM      4  C   UNL A   1      33.923  22.948  24.031  1.00  0.00     0.365 C 
ATOM      5  O   UNL A   1      33.165  22.933  23.067  1.00  0.00    -0.245 OA
BRANCH   4   6
ATOM      6  C   UNL A   1      33.551  22.299  25.367  1.00  0.00     0.304 C 
ATOM      7  C   UNL A   1      32.063  23.619  26.729  1.00  0.00     0.274 C 
ATOM      8  N   UNL A   1      33.460  23.251  26.507  1.00  0.00    -0.319 N 
ATOM      9  S   UNL A   1      31.024  22.221  26.281  1.00  0.00    -0.087 SA
ATOM     10  H   UNL A   1      33.832  22.810  27.348  1.00  0.00     0.348 HD
ATOM     11  H   UNL A   1      34.001  24.088  26.293  1.00  0.00     0.348 HD
ATOM     12  C   UNL A   1      32.271  21.473  25.214  1.00  0.00     0.153 C 
BRANCH   7  13
ATOM     13  C   UNL A   1      31.640  24.933  26.096  1.00  0.00     0.021 A 
ATOM     14  C   UNL A   1      30.773  27.192  24.694  1.00  0.00     0.123 A 
ATOM     15  C   UNL A   1      29.847  26.239  25.115  1.00  0.00     0.047 A 
ATOM     16  C   UNL A   1      32.127  27.116  25.046  1.00  0.00     0.016 A 
ATOM     17  C   UNL A   1      30.277  25.122  25.820  1.00  0.00     0.015 A 
ATOM     18  C   UNL A   1      32.544  25.954  25.722  1.00  0.00     0.020 A 
BRANCH  14  19
ATOM     19  O   UNL A   1      30.293  28.215  23.928  1.00  0.00    -0.496 OA
ATOM     20  C   UNL A   1      30.281  27.863  22.544  1.00  0.00     0.278 C 
ENDBRANCH  14  19
BRANCH  16  21
ATOM     21  C   UNL A   1      33.101  28.175  24.575  1.00  0.00     0.184 C 
BRANCH  21  22
ATOM     22  N   UNL A   1      33.645  29.053  25.616  1.00  0.00    -0.264 N 
ATOM     23  N   UNL A   1      34.797  28.684  26.238  1.00  0.00    -0.177 NA
ATOM     24  C   UNL A   1      33.043  30.144  26.211  1.00  0.00     0.050 A 
ATOM     25  C   UNL A   1      34.947  29.571  27.232  1.00  0.00     0.074 A 
ATOM     26  C   UNL A   1      33.876  30.485  27.252  1.00  0.00     0.061 A 
ATOM     27  C   UNL A   1      31.781  30.773  25.746  1.00  0.00     0.067 C 
ATOM     28  C   UNL A   1      36.141  29.521  28.112  1.00  0.00     0.070 C 
ATOM     29  Br  UNL A   1      33.689  31.906  28.459  1.00  0.00    -0.047 Br
ENDBRANCH  21  22
ENDBRANCH  16  21
ENDBRANCH   7  13
ENDBRANCH   4   6
ENDBRANCH   3   4
ENDBRANCH   2   3
ENDBRANCH   1   2
BRANCH   1  30
ATOM     30  O   UNL A   1      37.430  21.326  25.695  1.00  0.00    -0.374 OA
BRANCH  30  31
ATOM     31  C   UNL A   1      37.975  20.208  24.997  1.00  0.00     0.202 C 
BRANCH  31  32
ATOM     32  C   UNL A   1      39.295  19.610  25.511  1.00  0.00     0.261 C 
BRANCH  32  33
ATOM     33  O   UNL A   1      39.700  20.058  26.821  1.00  0.00    -0.460 OA
BRANCH  33  34
ATOM     34  C   UNL A   1      40.960  20.560  26.879  1.00  0.00     0.338 C 
ATOM     35  O   UNL A   1      41.986  20.016  26.503  1.00  0.00    -0.246 OA
BRANCH  34  36
ATOM     36  C   UNL A   1      40.993  21.937  27.407  1.00  0.00     0.060 A 
ATOM     37  C   UNL A   1      40.266  22.923  26.730  1.00  0.00     0.016 A 
ATOM     38  C   UNL A   1      41.925  22.297  28.381  1.00  0.00     0.016 A 
ATOM     39  C   UNL A   1      40.518  24.277  26.975  1.00  0.00     0.010 A 
ATOM     40  C   UNL A   1      42.172  23.655  28.627  1.00  0.00     0.010 A 
ATOM     41  C   UNL A   1      41.508  24.655  27.890  1.00  0.00    -0.014 A 
BRANCH  41  42
ATOM     42  C   UNL A   1      41.965  26.073  27.970  1.00  0.00     0.031 A 
ATOM     43  C   UNL A   1      43.331  26.441  27.451  1.00  0.00     0.074 A 
ATOM     44  C   UNL A   1      41.189  27.038  28.495  1.00  0.00     0.049 A 
ATOM     45  N   UNL A   1      43.949  27.598  27.479  1.00  0.00    -0.248 NA
ATOM     46  C   UNL A   1      44.099  25.369  26.799  1.00  0.00     0.031 C 
ATOM     47  C   UNL A   1      39.826  26.858  28.976  1.00  0.00     0.029 A 
ATOM     48  N   UNL A   1      41.463  28.361  28.750  1.00  0.00    -0.354 N 
ATOM     49  C   UNL A   1      45.157  27.398  26.826  1.00  0.00     0.074 A 
ATOM     50  C   UNL A   1      45.220  25.996  26.472  1.00  0.00     0.031 C 
ATOM     51  C   UNL A   1      39.414  27.994  29.564  1.00  0.00     0.029 A 
ATOM     52  C   UNL A   1      40.484  28.986  29.481  1.00  0.00     0.049 A 
ATOM     53  H   UNL A   1      42.279  28.816  28.440  1.00  0.00     0.167 HD
ATOM     54  C   UNL A   1      46.112  28.306  26.511  1.00  0.00     0.037 A 
ATOM     55  C   UNL A   1      40.459  30.208  30.048  1.00  0.00     0.037 A 
ATOM     56  C   UNL A   1      46.059  29.705  26.845  1.00  0.00     0.049 A 
ATOM     57  C   UNL A   1      41.587  31.170  29.805  1.00  0.00     0.074 A 
ATOM     58  C   UNL A   1      46.947  30.711  26.500  1.00  0.00     0.029 A 
ATOM     59  N   UNL A   1      45.067  30.295  27.613  1.00  0.00    -0.354 N 
ATOM     60  N   UNL A   1      42.694  30.991  29.128  1.00  0.00    -0.248 NA
ATOM     61  C   UNL A   1      41.444  32.518  30.374  1.00  0.00     0.031 C 
ATOM     62  C   UNL A   1      46.515  31.902  27.099  1.00  0.00     0.029 A 
ATOM     63  C   UNL A   1      45.339  31.644  27.782  1.00  0.00     0.049 A 
ATOM     64  H   UNL A   1      44.285  29.825  27.984  1.00  0.00     0.167 HD
ATOM     65  C   UNL A   1      43.351  32.214  29.140  1.00  0.00     0.074 A 
ATOM     66  C   UNL A   1      42.528  33.123  29.909  1.00  0.00     0.031 C 
ATOM     67  C   UNL A   1      44.520  32.552  28.545  1.00  0.00     0.037 A 
BRANCH  54  68
ATOM     68  C   UNL A   1      47.303  27.812  25.745  1.00  0.00     0.064 A 
ATOM     69  C   UNL A   1      47.315  27.809  24.342  1.00  0.00     0.173 A 
ATOM     70  C   UNL A   1      48.453  27.375  26.417  1.00  0.00     0.173 A 
ATOM     71  F   UNL A   1      46.236  28.210  23.656  1.00  0.00    -0.203 F 
ATOM     72  C   UNL A   1      48.429  27.360  23.639  1.00  0.00     0.198 A 
ATOM     73  C   UNL A   1      49.574  26.948  25.708  1.00  0.00     0.198 A 
ATOM     74  F   UNL A   1      48.492  27.367  27.757  1.00  0.00    -0.203 F 
ATOM     75  F   UNL A   1      48.406  27.328  22.299  1.00  0.00    -0.200 F 
ATOM     76  C   UNL A   1      49.559  26.935  24.322  1.00  0.00     0.200 A 
ATOM     77  F   UNL A   1      50.669  26.548  26.370  1.00  0.00    -0.200 F 
ATOM     78  F   UNL A   1      50.633  26.508  23.643  1.00  0.00    -0.200 F 
ENDBRANCH  54  68
BRANCH  55  79
ATOM     79  C   UNL A   1      39.318  30.587  30.918  1.00  0.00     0.064 A 
ATOM     80  C   UNL A   1      39.260  30.190  32.259  1.00  0.00     0.173 A 
ATOM     81  C   UNL A   1      38.254  31.346  30.409  1.00  0.00     0.173 A 
ATOM     82  F   UNL A   1      40.243  29.442  32.779  1.00  0.00    -0.203 F 
ATOM     83  C   UNL A   1      38.169  30.526  33.059  1.00  0.00     0.198 A 
ATOM     84  C   UNL A   1      37.173  31.696  31.214  1.00  0.00     0.198 A 
ATOM     85  F   UNL A   1      38.264  31.749  29.130  1.00  0.00    -0.203 F 
ATOM     86  F   UNL A   1      38.116  30.102  34.328  1.00  0.00    -0.200 F 
ATOM     87  C   UNL A   1      37.129  31.281  32.536  1.00  0.00     0.200 A 
ATOM     88  F   UNL A   1      36.175  32.434  30.708  1.00  0.00    -0.200 F 
ATOM     89  F   UNL A   1      36.079  31.602  33.305  1.00  0.00    -0.200 F 
ENDBRANCH  55  79
BRANCH  67  90
ATOM     90  C   UNL A   1      44.957  33.983  28.653  1.00  0.00     0.064 A 
ATOM     91  C   UNL A   1      44.522  34.958  27.747  1.00  0.00     0.173 A 
ATOM     92  C   UNL A   1      45.816  34.384  29.689  1.00  0.00     0.173 A 
ATOM     93  F   UNL A   1      43.717  34.622  26.728  1.00  0.00    -0.203 F 
ATOM     94  C   UNL A   1      44.952  36.279  27.855  1.00  0.00     0.198 A 
ATOM     95  C   UNL A   1      46.223  35.709  29.810  1.00  0.00     0.198 A 
ATOM     96  F   UNL A   1      46.259  33.489  30.585  1.00  0.00    -0.203 F 
ATOM     97  F   UNL A   1      44.562  37.186  26.948  1.00  0.00    -0.200 F 
ATOM     98  C   UNL A   1      45.797  36.654  28.890  1.00  0.00     0.200 A 
ATOM     99  F   UNL A   1      47.034  36.072  30.814  1.00  0.00    -0.200 F 
ATOM    100  F   UNL A   1      46.210  37.925  28.991  1.00  0.00    -0.200 F 
ENDBRANCH  67  90
ENDBRANCH  41  42
ENDBRANCH  34  36
ENDBRANCH  33  34
ENDBRANCH  32  33
ENDBRANCH  31  32
ENDBRANCH  30  31
ENDBRANCH   1  30
TORSDOF 18
ENDMDL
