MODEL 1
REMARK VINA RESULT:     -10.8      0.000      0.000
REMARK SMILES Cc1nc(C[N@@H+]2CCC[C@H]2C(=O)OCCOCCOC(=O)c2ccc(-c3c4nc(c(-c5c(F)c(F)c(F)c(F)c5F)c5ccc([nH]5)c(-c5c(F)c(F)c(F)c(F)c5F)c5nc(c(-c6c(F)c(F)c(F)c(F)c6F)c6ccc3[nH]6)C=C5)C=C4)cc2)cs1
REMARK SMILES IDX 16 1 15 2 14 3 13 4 11 5 12 6 10 7 6 8 7 9 8 11 9 12 5 13
REMARK SMILES IDX 4 14 1 15 2 16 3 17 86 18 85 19 17 20 18 21 19 22 20 23
REMARK SMILES IDX 21 24 22 25 23 26 84 27 24 28 83 29 25 30 26 31 27 32 77 33
REMARK SMILES IDX 28 34 82 35 76 36 78 37 29 38 81 39 75 40 74 41 30 43 62 44
REMARK SMILES IDX 42 45 61 46 43 47 46 48 60 49 79 50 44 51 45 52 59 54 80 55
REMARK SMILES IDX 47 56 31 57 32 58 40 59 33 60 34 61 38 62 41 63 35 64 36 65
REMARK SMILES IDX 39 66 37 67 63 68 64 69 72 70 65 71 66 72 70 73 73 74 67 75
REMARK SMILES IDX 68 76 71 77 69 78 48 79 49 80 57 81 50 82 51 83 55 84 58 85
REMARK SMILES IDX 52 86 53 87 56 88 54 89
REMARK H PARENT 6 10 78 42 46 53
REMARK Flexibility Score: inf
ROOT
ATOM      1  O   UNL A   1      32.767  29.282  24.566  1.00  0.00    -0.374 OA
ENDROOT
BRANCH   1   2
ATOM      2  C   UNL A   1      32.750  28.007  23.918  1.00  0.00     0.202 C 
BRANCH   2   3
ATOM      3  C   UNL A   1      33.662  26.925  24.504  1.00  0.00     0.261 C 
BRANCH   3   4
ATOM      4  O   UNL A   1      33.354  26.708  25.889  1.00  0.00    -0.459 OA
BRANCH   4   5
ATOM      5  C   UNL A   1      32.276  25.904  26.131  1.00  0.00     0.365 C 
ATOM      6  O   UNL A   1      31.347  26.196  26.876  1.00  0.00    -0.245 OA
BRANCH   5   7
ATOM      7  C   UNL A   1      32.357  24.619  25.279  1.00  0.00     0.295 C 
ATOM      8  N   UNL A   1      33.307  23.672  25.892  1.00  0.00    -0.318 N 
ATOM      9  C   UNL A   1      32.540  22.897  26.864  1.00  0.00     0.263 C 
ATOM     10  H   UNL A   1      34.057  24.168  26.373  1.00  0.00     0.349 HD
ATOM     11  C   UNL A   1      31.089  22.893  26.396  1.00  0.00     0.068 C 
ATOM     12  C   UNL A   1      31.011  23.902  25.260  1.00  0.00     0.083 C 
BRANCH   8  13
ATOM     13  C   UNL A   1      34.092  22.891  24.924  1.00  0.00     0.321 C 
BRANCH  13  14
ATOM     14  C   UNL A   1      35.559  22.749  25.228  1.00  0.00     0.106 A 
ATOM     15  C   UNL A   1      38.538  24.430  26.535  1.00  0.00     0.079 C 
ATOM     16  C   UNL A   1      37.512  23.510  25.970  1.00  0.00     0.090 A 
ATOM     17  N   UNL A   1      36.261  23.844  25.725  1.00  0.00    -0.241 NA
ATOM     18  S   UNL A   1      37.932  21.891  25.584  1.00  0.00    -0.127 S 
ATOM     19  C   UNL A   1      36.316  21.596  25.112  1.00  0.00     0.096 A 
ENDBRANCH  13  14
ENDBRANCH   8  13
ENDBRANCH   5   7
ENDBRANCH   4   5
ENDBRANCH   3   4
ENDBRANCH   2   3
ENDBRANCH   1   2
BRANCH   1  20
ATOM     20  C   UNL A   1      31.535  29.781  25.081  1.00  0.00     0.202 C 
BRANCH  20  21
ATOM     21  C   UNL A   1      31.605  30.897  26.133  1.00  0.00     0.261 C 
BRANCH  21  22
ATOM     22  O   UNL A   1      32.607  30.672  27.138  1.00  0.00    -0.460 OA
BRANCH  22  23
ATOM     23  C   UNL A   1      33.330  31.771  27.455  1.00  0.00     0.338 C 
ATOM     24  O   UNL A   1      32.922  32.922  27.568  1.00  0.00    -0.246 OA
BRANCH  23  25
ATOM     25  C   UNL A   1      34.705  31.399  27.823  1.00  0.00     0.060 A 
ATOM     26  C   UNL A   1      34.951  30.045  28.083  1.00  0.00     0.016 A 
ATOM     27  C   UNL A   1      35.714  32.350  28.001  1.00  0.00     0.016 A 
ATOM     28  C   UNL A   1      36.188  29.643  28.575  1.00  0.00     0.010 A 
ATOM     29  C   UNL A   1      36.958  31.944  28.504  1.00  0.00     0.010 A 
ATOM     30  C   UNL A   1      37.186  30.595  28.830  1.00  0.00    -0.014 A 
BRANCH  30  31
ATOM     31  C   UNL A   1      38.399  30.167  29.569  1.00  0.00     0.031 A 
ATOM     32  C   UNL A   1      38.612  30.658  30.976  1.00  0.00     0.074 A 
ATOM     33  C   UNL A   1      39.247  29.272  29.031  1.00  0.00     0.049 A 
ATOM     34  N   UNL A   1      39.547  30.340  31.835  1.00  0.00    -0.248 NA
ATOM     35  C   UNL A   1      37.635  31.634  31.486  1.00  0.00     0.031 C 
ATOM     36  C   UNL A   1      39.129  28.698  27.692  1.00  0.00     0.029 A 
ATOM     37  N   UNL A   1      40.368  28.679  29.555  1.00  0.00    -0.354 N 
ATOM     38  C   UNL A   1      39.260  31.057  32.989  1.00  0.00     0.074 A 
ATOM     39  C   UNL A   1      38.093  31.864  32.708  1.00  0.00     0.031 C 
ATOM     40  C   UNL A   1      40.134  27.826  27.502  1.00  0.00     0.029 A 
ATOM     41  C   UNL A   1      40.974  27.794  28.698  1.00  0.00     0.049 A 
ATOM     42  H   UNL A   1      40.706  28.870  30.460  1.00  0.00     0.167 HD
ATOM     43  C   UNL A   1      39.900  31.030  34.182  1.00  0.00     0.037 A 
ATOM     44  C   UNL A   1      42.082  27.046  28.863  1.00  0.00     0.037 A 
ATOM     45  C   UNL A   1      41.068  30.237  34.463  1.00  0.00     0.049 A 
ATOM     46  C   UNL A   1      42.813  27.089  30.180  1.00  0.00     0.074 A 
ATOM     47  C   UNL A   1      41.797  30.156  35.637  1.00  0.00     0.029 A 
ATOM     48  N   UNL A   1      41.678  29.386  33.554  1.00  0.00    -0.354 N 
ATOM     49  N   UNL A   1      42.518  27.751  31.272  1.00  0.00    -0.248 NA
ATOM     50  C   UNL A   1      44.029  26.270  30.288  1.00  0.00     0.031 C 
ATOM     51  C   UNL A   1      42.871  29.283  35.427  1.00  0.00     0.029 A 
ATOM     52  C   UNL A   1      42.784  28.787  34.137  1.00  0.00     0.049 A 
ATOM     53  H   UNL A   1      41.372  29.230  32.631  1.00  0.00     0.167 HD
ATOM     54  C   UNL A   1      43.490  27.407  32.203  1.00  0.00     0.074 A 
ATOM     55  C   UNL A   1      44.371  26.460  31.554  1.00  0.00     0.031 C 
ATOM     56  C   UNL A   1      43.644  27.837  33.480  1.00  0.00     0.037 A 
BRANCH  43  57
ATOM     57  C   UNL A   1      39.351  31.888  35.284  1.00  0.00     0.064 A 
ATOM     58  C   UNL A   1      38.504  31.358  36.268  1.00  0.00     0.173 A 
ATOM     59  C   UNL A   1      39.717  33.237  35.389  1.00  0.00     0.173 A 
ATOM     60  F   UNL A   1      38.114  30.076  36.203  1.00  0.00    -0.203 F 
ATOM     61  C   UNL A   1      38.034  32.151  37.311  1.00  0.00     0.198 A 
ATOM     62  C   UNL A   1      39.265  34.022  36.447  1.00  0.00     0.198 A 
ATOM     63  F   UNL A   1      40.528  33.792  34.474  1.00  0.00    -0.203 F 
ATOM     64  F   UNL A   1      37.202  31.631  38.224  1.00  0.00    -0.200 F 
ATOM     65  C   UNL A   1      38.421  33.479  37.404  1.00  0.00     0.200 A 
ATOM     66  F   UNL A   1      39.648  35.303  36.542  1.00  0.00    -0.200 F 
ATOM     67  F   UNL A   1      37.979  34.237  38.417  1.00  0.00    -0.200 F 
ENDBRANCH  43  57
BRANCH  44  68
ATOM     68  C   UNL A   1      42.577  26.183  27.758  1.00  0.00     0.064 A 
ATOM     69  C   UNL A   1      42.151  24.853  27.629  1.00  0.00     0.173 A 
ATOM     70  C   UNL A   1      43.529  26.655  26.844  1.00  0.00     0.173 A 
ATOM     71  F   UNL A   1      41.262  24.347  28.496  1.00  0.00    -0.203 F 
ATOM     72  C   UNL A   1      42.682  24.020  26.645  1.00  0.00     0.198 A 
ATOM     73  C   UNL A   1      44.037  25.829  25.843  1.00  0.00     0.198 A 
ATOM     74  F   UNL A   1      43.973  27.917  26.927  1.00  0.00    -0.203 F 
ATOM     75  F   UNL A   1      42.304  22.736  26.583  1.00  0.00    -0.200 F 
ATOM     76  C   UNL A   1      43.622  24.510  25.752  1.00  0.00     0.200 A 
ATOM     77  F   UNL A   1      44.940  26.309  24.976  1.00  0.00    -0.200 F 
ATOM     78  F   UNL A   1      44.139  23.706  24.813  1.00  0.00    -0.200 F 
ENDBRANCH  44  68
BRANCH  56  79
ATOM     79  C   UNL A   1      44.786  27.260  34.265  1.00  0.00     0.064 A 
ATOM     80  C   UNL A   1      46.039  27.888  34.310  1.00  0.00     0.173 A 
ATOM     81  C   UNL A   1      44.619  26.071  34.991  1.00  0.00     0.173 A 
ATOM     82  F   UNL A   1      46.252  29.020  33.621  1.00  0.00    -0.203 F 
ATOM     83  C   UNL A   1      47.095  27.327  35.024  1.00  0.00     0.198 A 
ATOM     84  C   UNL A   1      45.669  25.529  35.728  1.00  0.00     0.198 A 
ATOM     85  F   UNL A   1      43.438  25.435  34.988  1.00  0.00    -0.203 F 
ATOM     86  F   UNL A   1      48.300  27.915  35.005  1.00  0.00    -0.200 F 
ATOM     87  C   UNL A   1      46.908  26.153  35.735  1.00  0.00     0.200 A 
ATOM     88  F   UNL A   1      45.483  24.400  36.426  1.00  0.00    -0.200 F 
ATOM     89  F   UNL A   1      47.926  25.613  36.420  1.00  0.00    -0.200 F 
ENDBRANCH  56  79
ENDBRANCH  30  31
ENDBRANCH  23  25
ENDBRANCH  22  23
ENDBRANCH  21  22
ENDBRANCH  20  21
ENDBRANCH   1  20
TORSDOF 16
ENDMDL
MODEL 2
REMARK VINA RESULT:     -10.7      2.384      3.881
REMARK SMILES Cc1nc(C[N@@H+]2CCC[C@H]2C(=O)OCCOCCOC(=O)c2ccc(-c3c4nc(c(-c5c(F)c(F)c(F)c(F)c5F)c5ccc([nH]5)c(-c5c(F)c(F)c(F)c(F)c5F)c5nc(c(-c6c(F)c(F)c(F)c(F)c6F)c6ccc3[nH]6)C=C5)C=C4)cc2)cs1
REMARK SMILES IDX 16 1 15 2 14 3 13 4 11 5 12 6 10 7 6 8 7 9 8 11 9 12 5 13
REMARK SMILES IDX 4 14 1 15 2 16 3 17 86 18 85 19 17 20 18 21 19 22 20 23
REMARK SMILES IDX 21 24 22 25 23 26 84 27 24 28 83 29 25 30 26 31 27 32 77 33
REMARK SMILES IDX 28 34 82 35 76 36 78 37 29 38 81 39 75 40 74 41 30 43 62 44
REMARK SMILES IDX 42 45 61 46 43 47 46 48 60 49 79 50 44 51 45 52 59 54 80 55
REMARK SMILES IDX 47 56 31 57 32 58 40 59 33 60 34 61 38 62 41 63 35 64 36 65
REMARK SMILES IDX 39 66 37 67 63 68 64 69 72 70 65 71 66 72 70 73 73 74 67 75
REMARK SMILES IDX 68 76 71 77 69 78 48 79 49 80 57 81 50 82 51 83 55 84 58 85
REMARK SMILES IDX 52 86 53 87 56 88 54 89
REMARK H PARENT 6 10 78 42 46 53
REMARK Flexibility Score: inf
ROOT
ATOM      1  O   UNL A   1      32.373  30.135  26.887  1.00  0.00    -0.374 OA
ENDROOT
BRANCH   1   2
ATOM      2  C   UNL A   1      31.791  28.987  27.510  1.00  0.00     0.202 C 
BRANCH   2   3
ATOM      3  C   UNL A   1      31.837  27.677  26.720  1.00  0.00     0.261 C 
BRANCH   3   4
ATOM      4  O   UNL A   1      32.679  27.819  25.566  1.00  0.00    -0.459 OA
BRANCH   4   5
ATOM      5  C   UNL A   1      32.901  26.672  24.857  1.00  0.00     0.365 C 
ATOM      6  O   UNL A   1      33.430  25.665  25.316  1.00  0.00    -0.245 OA
BRANCH   5   7
ATOM      7  C   UNL A   1      32.325  26.796  23.431  1.00  0.00     0.295 C 
ATOM      8  N   UNL A   1      31.805  28.160  23.219  1.00  0.00    -0.318 N 
ATOM      9  C   UNL A   1      32.937  28.960  22.757  1.00  0.00     0.263 C 
ATOM     10  H   UNL A   1      31.448  28.553  24.090  1.00  0.00     0.349 HD
ATOM     11  C   UNL A   1      33.915  28.010  22.078  1.00  0.00     0.068 C 
ATOM     12  C   UNL A   1      33.422  26.605  22.389  1.00  0.00     0.083 C 
BRANCH   8  13
ATOM     13  C   UNL A   1      30.592  28.224  22.389  1.00  0.00     0.321 C 
BRANCH  13  14
ATOM     14  C   UNL A   1      29.819  29.514  22.452  1.00  0.00     0.106 A 
ATOM     15  C   UNL A   1      28.000  32.030  20.511  1.00  0.00     0.079 C 
ATOM     16  C   UNL A   1      28.666  31.179  21.537  1.00  0.00     0.090 A 
ATOM     17  N   UNL A   1      29.354  30.088  21.272  1.00  0.00    -0.241 NA
ATOM     18  S   UNL A   1      28.570  31.606  23.197  1.00  0.00    -0.127 S 
ATOM     19  C   UNL A   1      29.460  30.203  23.597  1.00  0.00     0.096 A 
ENDBRANCH  13  14
ENDBRANCH   8  13
ENDBRANCH   5   7
ENDBRANCH   4   5
ENDBRANCH   3   4
ENDBRANCH   2   3
ENDBRANCH   1   2
BRANCH   1  20
ATOM     20  C   UNL A   1      31.498  31.189  26.490  1.00  0.00     0.202 C 
BRANCH  20  21
ATOM     21  C   UNL A   1      31.941  32.629  26.788  1.00  0.00     0.261 C 
BRANCH  21  22
ATOM     22  O   UNL A   1      32.596  32.773  28.059  1.00  0.00    -0.460 OA
BRANCH  22  23
ATOM     23  C   UNL A   1      33.620  33.656  28.057  1.00  0.00     0.338 C 
ATOM     24  O   UNL A   1      33.549  34.878  27.964  1.00  0.00    -0.246 OA
BRANCH  23  25
ATOM     25  C   UNL A   1      34.893  32.977  28.351  1.00  0.00     0.060 A 
ATOM     26  C   UNL A   1      34.818  31.665  28.834  1.00  0.00     0.016 A 
ATOM     27  C   UNL A   1      36.127  33.625  28.246  1.00  0.00     0.016 A 
ATOM     28  C   UNL A   1      35.968  31.015  29.269  1.00  0.00     0.010 A 
ATOM     29  C   UNL A   1      37.284  32.971  28.691  1.00  0.00     0.010 A 
ATOM     30  C   UNL A   1      37.203  31.678  29.240  1.00  0.00    -0.014 A 
BRANCH  30  31
ATOM     31  C   UNL A   1      38.359  31.048  29.923  1.00  0.00     0.031 A 
ATOM     32  C   UNL A   1      38.624  31.374  31.368  1.00  0.00     0.074 A 
ATOM     33  C   UNL A   1      39.103  30.121  29.292  1.00  0.00     0.049 A 
ATOM     34  N   UNL A   1      39.517  30.871  32.184  1.00  0.00    -0.248 NA
ATOM     35  C   UNL A   1      37.762  32.399  31.979  1.00  0.00     0.031 C 
ATOM     36  C   UNL A   1      38.922  29.696  27.906  1.00  0.00     0.029 A 
ATOM     37  N   UNL A   1      40.150  29.359  29.746  1.00  0.00    -0.354 N 
ATOM     38  C   UNL A   1      39.310  31.501  33.404  1.00  0.00     0.074 A 
ATOM     39  C   UNL A   1      38.241  32.456  33.214  1.00  0.00     0.031 C 
ATOM     40  C   UNL A   1      39.824  28.740  27.623  1.00  0.00     0.029 A 
ATOM     41  C   UNL A   1      40.654  28.499  28.802  1.00  0.00     0.049 A 
ATOM     42  H   UNL A   1      40.505  29.421  30.662  1.00  0.00     0.167 HD
ATOM     43  C   UNL A   1      39.942  31.287  34.583  1.00  0.00     0.037 A 
ATOM     44  C   UNL A   1      41.670  27.619  28.883  1.00  0.00     0.037 A 
ATOM     45  C   UNL A   1      41.013  30.346  34.774  1.00  0.00     0.049 A 
ATOM     46  C   UNL A   1      42.400  27.453  30.192  1.00  0.00     0.074 A 
ATOM     47  C   UNL A   1      41.727  30.070  35.928  1.00  0.00     0.029 A 
ATOM     48  N   UNL A   1      41.525  29.523  33.782  1.00  0.00    -0.354 N 
ATOM     49  N   UNL A   1      42.180  28.035  31.345  1.00  0.00    -0.248 NA
ATOM     50  C   UNL A   1      43.517  26.496  30.208  1.00  0.00     0.031 C 
ATOM     51  C   UNL A   1      42.697  29.107  35.624  1.00  0.00     0.029 A 
ATOM     52  C   UNL A   1      42.557  28.751  34.293  1.00  0.00     0.049 A 
ATOM     53  H   UNL A   1      41.204  29.493  32.851  1.00  0.00     0.167 HD
ATOM     54  C   UNL A   1      43.106  27.495  32.229  1.00  0.00     0.074 A 
ATOM     55  C   UNL A   1      43.876  26.523  31.483  1.00  0.00     0.031 C 
ATOM     56  C   UNL A   1      43.305  27.780  33.539  1.00  0.00     0.037 A 
BRANCH  43  57
ATOM     57  C   UNL A   1      39.490  32.090  35.767  1.00  0.00     0.064 A 
ATOM     58  C   UNL A   1      40.029  33.356  36.038  1.00  0.00     0.173 A 
ATOM     59  C   UNL A   1      38.472  31.615  36.606  1.00  0.00     0.173 A 
ATOM     60  F   UNL A   1      41.014  33.848  35.272  1.00  0.00    -0.203 F 
ATOM     61  C   UNL A   1      39.573  34.113  37.114  1.00  0.00     0.198 A 
ATOM     62  C   UNL A   1      38.002  32.384  37.668  1.00  0.00     0.198 A 
ATOM     63  F   UNL A   1      37.922  30.411  36.388  1.00  0.00    -0.203 F 
ATOM     64  F   UNL A   1      40.123  35.307  37.373  1.00  0.00    -0.200 F 
ATOM     65  C   UNL A   1      38.555  33.630  37.923  1.00  0.00     0.200 A 
ATOM     66  F   UNL A   1      37.010  31.922  38.441  1.00  0.00    -0.200 F 
ATOM     67  F   UNL A   1      38.108  34.366  38.950  1.00  0.00    -0.200 F 
ENDBRANCH  43  57
BRANCH  44  68
ATOM     68  C   UNL A   1      42.067  26.817  27.696  1.00  0.00     0.064 A 
ATOM     69  C   UNL A   1      41.542  25.535  27.477  1.00  0.00     0.173 A 
ATOM     70  C   UNL A   1      43.022  27.296  26.787  1.00  0.00     0.173 A 
ATOM     71  F   UNL A   1      40.647  25.023  28.333  1.00  0.00    -0.203 F 
ATOM     72  C   UNL A   1      41.981  24.751  26.411  1.00  0.00     0.198 A 
ATOM     73  C   UNL A   1      43.437  26.522  25.706  1.00  0.00     0.198 A 
ATOM     74  F   UNL A   1      43.558  28.513  26.954  1.00  0.00    -0.203 F 
ATOM     75  F   UNL A   1      41.509  23.506  26.261  1.00  0.00    -0.200 F 
ATOM     76  C   UNL A   1      42.925  25.246  25.525  1.00  0.00     0.200 A 
ATOM     77  F   UNL A   1      44.345  27.008  24.847  1.00  0.00    -0.200 F 
ATOM     78  F   UNL A   1      43.353  24.488  24.506  1.00  0.00    -0.200 F 
ENDBRANCH  44  68
BRANCH  56  79
ATOM     79  C   UNL A   1      44.375  27.005  34.254  1.00  0.00     0.064 A 
ATOM     80  C   UNL A   1      45.690  27.483  34.349  1.00  0.00     0.173 A 
ATOM     81  C   UNL A   1      44.076  25.777  34.863  1.00  0.00     0.173 A 
ATOM     82  F   UNL A   1      46.029  28.646  33.772  1.00  0.00    -0.203 F 
ATOM     83  C   UNL A   1      46.675  26.742  34.996  1.00  0.00     0.198 A 
ATOM     84  C   UNL A   1      45.057  25.052  35.534  1.00  0.00     0.198 A 
ATOM     85  F   UNL A   1      42.831  25.279  34.808  1.00  0.00    -0.203 F 
ATOM     86  F   UNL A   1      47.938  27.191  35.023  1.00  0.00    -0.200 F 
ATOM     87  C   UNL A   1      46.358  25.531  35.591  1.00  0.00     0.200 A 
ATOM     88  F   UNL A   1      44.746  23.888  36.119  1.00  0.00    -0.200 F 
ATOM     89  F   UNL A   1      47.308  24.817  36.210  1.00  0.00    -0.200 F 
ENDBRANCH  56  79
ENDBRANCH  30  31
ENDBRANCH  23  25
ENDBRANCH  22  23
ENDBRANCH  21  22
ENDBRANCH  20  21
ENDBRANCH   1  20
TORSDOF 16
ENDMDL
MODEL 3
REMARK VINA RESULT:     -10.4      1.784      2.994
REMARK SMILES Cc1nc(C[N@@H+]2CCC[C@H]2C(=O)OCCOCCOC(=O)c2ccc(-c3c4nc(c(-c5c(F)c(F)c(F)c(F)c5F)c5ccc([nH]5)c(-c5c(F)c(F)c(F)c(F)c5F)c5nc(c(-c6c(F)c(F)c(F)c(F)c6F)c6ccc3[nH]6)C=C5)C=C4)cc2)cs1
REMARK SMILES IDX 16 1 15 2 14 3 13 4 11 5 12 6 10 7 6 8 7 9 8 11 9 12 5 13
REMARK SMILES IDX 4 14 1 15 2 16 3 17 86 18 85 19 17 20 18 21 19 22 20 23
REMARK SMILES IDX 21 24 22 25 23 26 84 27 24 28 83 29 25 30 26 31 27 32 77 33
REMARK SMILES IDX 28 34 82 35 76 36 78 37 29 38 81 39 75 40 74 41 30 43 62 44
REMARK SMILES IDX 42 45 61 46 43 47 46 48 60 49 79 50 44 51 45 52 59 54 80 55
REMARK SMILES IDX 47 56 31 57 32 58 40 59 33 60 34 61 38 62 41 63 35 64 36 65
REMARK SMILES IDX 39 66 37 67 63 68 64 69 72 70 65 71 66 72 70 73 73 74 67 75
REMARK SMILES IDX 68 76 71 77 69 78 48 79 49 80 57 81 50 82 51 83 55 84 58 85
REMARK SMILES IDX 52 86 53 87 56 88 54 89
REMARK H PARENT 6 10 78 42 46 53
REMARK Flexibility Score: inf
ROOT
ATOM      1  O   UNL A   1      33.100  29.729  25.169  1.00  0.00    -0.374 OA
ENDROOT
BRANCH   1   2
ATOM      2  C   UNL A   1      33.311  28.346  24.872  1.00  0.00     0.202 C 
BRANCH   2   3
ATOM      3  C   UNL A   1      34.031  27.516  25.937  1.00  0.00     0.261 C 
BRANCH   3   4
ATOM      4  O   UNL A   1      33.293  26.317  26.221  1.00  0.00    -0.459 OA
BRANCH   4   5
ATOM      5  C   UNL A   1      33.737  25.191  25.588  1.00  0.00     0.365 C 
ATOM      6  O   UNL A   1      34.905  24.818  25.577  1.00  0.00    -0.245 OA
BRANCH   5   7
ATOM      7  C   UNL A   1      32.556  24.420  24.963  1.00  0.00     0.295 C 
ATOM      8  N   UNL A   1      32.016  25.176  23.818  1.00  0.00    -0.318 N 
ATOM      9  C   UNL A   1      32.804  24.774  22.655  1.00  0.00     0.263 C 
ATOM     10  H   UNL A   1      32.118  26.180  23.964  1.00  0.00     0.349 HD
ATOM     11  C   UNL A   1      33.332  23.372  22.930  1.00  0.00     0.068 C 
ATOM     12  C   UNL A   1      33.026  23.085  24.393  1.00  0.00     0.083 C 
BRANCH   8  13
ATOM     13  C   UNL A   1      30.555  25.084  23.666  1.00  0.00     0.321 C 
BRANCH  13  14
ATOM     14  C   UNL A   1      29.834  26.385  23.438  1.00  0.00     0.106 A 
ATOM     15  C   UNL A   1      30.066  29.744  21.998  1.00  0.00     0.079 C 
ATOM     16  C   UNL A   1      29.692  28.462  22.660  1.00  0.00     0.090 A 
ATOM     17  N   UNL A   1      30.499  27.432  22.807  1.00  0.00    -0.241 NA
ATOM     18  S   UNL A   1      28.112  28.258  23.301  1.00  0.00    -0.127 S 
ATOM     19  C   UNL A   1      28.515  26.661  23.755  1.00  0.00     0.096 A 
ENDBRANCH  13  14
ENDBRANCH   8  13
ENDBRANCH   5   7
ENDBRANCH   4   5
ENDBRANCH   3   4
ENDBRANCH   2   3
ENDBRANCH   1   2
BRANCH   1  20
ATOM     20  C   UNL A   1      31.774  30.144  25.491  1.00  0.00     0.202 C 
BRANCH  20  21
ATOM     21  C   UNL A   1      31.616  31.381  26.387  1.00  0.00     0.261 C 
BRANCH  21  22
ATOM     22  O   UNL A   1      32.487  31.373  27.529  1.00  0.00    -0.460 OA
BRANCH  22  23
ATOM     23  C   UNL A   1      33.327  32.431  27.592  1.00  0.00     0.338 C 
ATOM     24  O   UNL A   1      33.033  33.620  27.522  1.00  0.00    -0.246 OA
BRANCH  23  25
ATOM     25  C   UNL A   1      34.691  31.992  27.926  1.00  0.00     0.060 A 
ATOM     26  C   UNL A   1      34.876  30.628  28.184  1.00  0.00     0.016 A 
ATOM     27  C   UNL A   1      35.751  32.891  28.074  1.00  0.00     0.016 A 
ATOM     28  C   UNL A   1      36.104  30.166  28.647  1.00  0.00     0.010 A 
ATOM     29  C   UNL A   1      36.986  32.425  28.546  1.00  0.00     0.010 A 
ATOM     30  C   UNL A   1      37.154  31.067  28.872  1.00  0.00    -0.014 A 
BRANCH  30  31
ATOM     31  C   UNL A   1      38.363  30.580  29.581  1.00  0.00     0.031 A 
ATOM     32  C   UNL A   1      38.593  30.998  31.008  1.00  0.00     0.074 A 
ATOM     33  C   UNL A   1      39.191  29.697  28.994  1.00  0.00     0.049 A 
ATOM     34  N   UNL A   1      39.527  30.620  31.845  1.00  0.00    -0.248 NA
ATOM     35  C   UNL A   1      37.638  31.966  31.572  1.00  0.00     0.031 C 
ATOM     36  C   UNL A   1      39.054  29.191  27.629  1.00  0.00     0.029 A 
ATOM     37  N   UNL A   1      40.303  29.059  29.482  1.00  0.00    -0.354 N 
ATOM     38  C   UNL A   1      39.260  31.286  33.035  1.00  0.00     0.074 A 
ATOM     39  C   UNL A   1      38.107  32.127  32.801  1.00  0.00     0.031 C 
ATOM     40  C   UNL A   1      40.041  28.311  27.391  1.00  0.00     0.029 A 
ATOM     41  C   UNL A   1      40.887  28.205  28.578  1.00  0.00     0.049 A 
ATOM     42  H   UNL A   1      40.649  29.198  30.392  1.00  0.00     0.167 HD
ATOM     43  C   UNL A   1      39.906  31.189  34.221  1.00  0.00     0.037 A 
ATOM     44  C   UNL A   1      41.981  27.428  28.699  1.00  0.00     0.037 A 
ATOM     45  C   UNL A   1      41.060  30.361  34.455  1.00  0.00     0.049 A 
ATOM     46  C   UNL A   1      42.720  27.394  30.012  1.00  0.00     0.074 A 
ATOM     47  C   UNL A   1      41.794  30.209  35.618  1.00  0.00     0.029 A 
ATOM     48  N   UNL A   1      41.648  29.543  33.501  1.00  0.00    -0.354 N 
ATOM     49  N   UNL A   1      42.444  28.007  31.137  1.00  0.00    -0.248 NA
ATOM     50  C   UNL A   1      43.921  26.547  30.072  1.00  0.00     0.031 C 
ATOM     51  C   UNL A   1      42.850  29.327  35.359  1.00  0.00     0.029 A 
ATOM     52  C   UNL A   1      42.747  28.896  34.047  1.00  0.00     0.049 A 
ATOM     53  H   UNL A   1      41.334  29.439  32.574  1.00  0.00     0.167 HD
ATOM     54  C   UNL A   1      43.415  27.599  32.043  1.00  0.00     0.074 A 
ATOM     55  C   UNL A   1      44.274  26.669  31.343  1.00  0.00     0.031 C 
ATOM     56  C   UNL A   1      43.584  27.964  33.338  1.00  0.00     0.037 A 
BRANCH  43  57
ATOM     57  C   UNL A   1      39.379  32.002  35.366  1.00  0.00     0.064 A 
ATOM     58  C   UNL A   1      38.512  31.445  36.318  1.00  0.00     0.173 A 
ATOM     59  C   UNL A   1      39.788  33.331  35.546  1.00  0.00     0.173 A 
ATOM     60  F   UNL A   1      38.083  30.182  36.182  1.00  0.00    -0.203 F 
ATOM     61  C   UNL A   1      38.064  32.194  37.402  1.00  0.00     0.198 A 
ATOM     62  C   UNL A   1      39.356  34.070  36.645  1.00  0.00     0.198 A 
ATOM     63  F   UNL A   1      40.619  33.908  34.665  1.00  0.00    -0.203 F 
ATOM     64  F   UNL A   1      37.212  31.652  38.283  1.00  0.00    -0.200 F 
ATOM     65  C   UNL A   1      38.492  33.503  37.569  1.00  0.00     0.200 A 
ATOM     66  F   UNL A   1      39.779  35.331  36.811  1.00  0.00    -0.200 F 
ATOM     67  F   UNL A   1      38.069  34.218  38.620  1.00  0.00    -0.200 F 
ENDBRANCH  43  57
BRANCH  44  68
ATOM     68  C   UNL A   1      42.453  26.611  27.550  1.00  0.00     0.064 A 
ATOM     69  C   UNL A   1      41.957  25.319  27.325  1.00  0.00     0.173 A 
ATOM     70  C   UNL A   1      43.452  27.086  26.688  1.00  0.00     0.173 A 
ATOM     71  F   UNL A   1      41.021  24.810  28.139  1.00  0.00    -0.203 F 
ATOM     72  C   UNL A   1      42.463  24.523  26.300  1.00  0.00     0.198 A 
ATOM     73  C   UNL A   1      43.936  26.299  25.646  1.00  0.00     0.198 A 
ATOM     74  F   UNL A   1      43.963  28.313  26.863  1.00  0.00    -0.203 F 
ATOM     75  F   UNL A   1      42.016  23.269  26.147  1.00  0.00    -0.200 F 
ATOM     76  C   UNL A   1      43.450  25.014  25.460  1.00  0.00     0.200 A 
ATOM     77  F   UNL A   1      44.885  26.781  24.830  1.00  0.00    -0.200 F 
ATOM     78  F   UNL A   1      43.944  24.244  24.480  1.00  0.00    -0.200 F 
ENDBRANCH  44  68
BRANCH  56  79
ATOM     79  C   UNL A   1      44.719  27.327  34.087  1.00  0.00     0.064 A 
ATOM     80  C   UNL A   1      44.560  26.112  34.770  1.00  0.00     0.173 A 
ATOM     81  C   UNL A   1      45.984  27.933  34.109  1.00  0.00     0.173 A 
ATOM     82  F   UNL A   1      43.366  25.501  34.790  1.00  0.00    -0.203 F 
ATOM     83  C   UNL A   1      45.616  25.546  35.479  1.00  0.00     0.198 A 
ATOM     84  C   UNL A   1      47.046  27.349  34.794  1.00  0.00     0.198 A 
ATOM     85  F   UNL A   1      46.192  29.091  33.465  1.00  0.00    -0.203 F 
ATOM     86  F   UNL A   1      45.425  24.415  36.172  1.00  0.00    -0.200 F 
ATOM     87  C   UNL A   1      46.858  26.162  35.486  1.00  0.00     0.200 A 
ATOM     88  F   UNL A   1      48.250  27.938  34.790  1.00  0.00    -0.200 F 
ATOM     89  F   UNL A   1      47.873  25.617  36.171  1.00  0.00    -0.200 F 
ENDBRANCH  56  79
ENDBRANCH  30  31
ENDBRANCH  23  25
ENDBRANCH  22  23
ENDBRANCH  21  22
ENDBRANCH  20  21
ENDBRANCH   1  20
TORSDOF 16
ENDMDL
