MODEL 1
REMARK VINA RESULT:     -12.4      0.000      0.000
REMARK SMILES Cc1cc2n(n1)[C@H](C(F)(F)F)CCN2C(=O)c1cnn([C@@H](C)C(=O)OCCOCCOC(=O)c2ccc(-c3c4nc(c(-c5c(F)c(F)c(F)c(F)c5F)c5ccc([nH]5)c(-c5c(F)c(F)c(F)c(F)c5F)c5nc(c(-c6c(F)c(F)c(F)c(F)c6F)c6ccc3[nH]6)C=C5)C=C4)cc2)c1
REMARK SMILES IDX 27 1 26 2 25 3 23 4 24 5 21 6 22 7 20 8 17 9 18 10 97 11
REMARK SMILES IDX 19 12 15 13 16 14 14 15 1 16 2 17 3 18 6 19 4 20 5 21 7 22
REMARK SMILES IDX 13 23 12 24 8 25 9 26 10 27 11 28 28 29 29 30 30 31 31 32
REMARK SMILES IDX 32 33 33 34 34 35 35 36 96 37 36 38 95 39 37 40 38 41 39 42
REMARK SMILES IDX 89 43 40 44 94 45 88 46 90 47 41 48 93 49 87 50 86 51 42 53
REMARK SMILES IDX 74 54 54 55 73 56 55 57 58 58 72 59 91 60 56 61 57 62 71 64
REMARK SMILES IDX 92 65 59 66 43 67 44 68 52 69 45 70 46 71 50 72 53 73 47 74
REMARK SMILES IDX 48 75 51 76 49 77 75 78 76 79 84 80 77 81 78 82 82 83 85 84
REMARK SMILES IDX 79 85 80 86 83 87 81 88 60 89 61 90 69 91 62 92 63 93 67 94
REMARK SMILES IDX 70 95 64 96 65 97 68 98 66 99
REMARK H PARENT 90 52 58 63
REMARK Flexibility Score: inf
ROOT
ATOM      1  C   UNL A   1      40.748  20.861  26.998  1.00  0.00     0.202 C 
ENDROOT
BRANCH   1   2
ATOM      2  C   UNL A   1      39.763  22.009  26.777  1.00  0.00     0.261 C 
BRANCH   2   3
ATOM      3  O   UNL A   1      38.724  21.688  25.832  1.00  0.00    -0.462 OA
BRANCH   3   4
ATOM      4  C   UNL A   1      37.758  22.632  25.704  1.00  0.00     0.330 C 
ATOM      5  O   UNL A   1      37.855  23.777  26.143  1.00  0.00    -0.250 OA
BRANCH   4   6
ATOM      6  C   UNL A   1      36.509  22.199  24.976  1.00  0.00     0.213 C 
ATOM      7  C   UNL A   1      36.596  22.673  23.530  1.00  0.00     0.046 C 
BRANCH   6   8
ATOM      8  N   UNL A   1      35.224  22.521  25.603  1.00  0.00    -0.258 N 
ATOM      9  C   UNL A   1      33.404  23.661  26.208  1.00  0.00     0.078 A 
ATOM     10  C   UNL A   1      33.746  22.640  27.115  1.00  0.00     0.149 A 
ATOM     11  C   UNL A   1      34.360  23.521  25.212  1.00  0.00     0.123 A 
ATOM     12  N   UNL A   1      34.880  22.012  26.804  1.00  0.00    -0.180 NA
BRANCH   9  13
ATOM     13  C   UNL A   1      32.273  24.573  26.185  1.00  0.00     0.262 C 
ATOM     14  O   UNL A   1      31.366  24.512  26.995  1.00  0.00    -0.269 OA
BRANCH  13  15
ATOM     15  N   UNL A   1      32.255  25.541  25.079  1.00  0.00    -0.293 N 
ATOM     16  C   UNL A   1      34.078  29.904  26.840  1.00  0.00     0.069 C 
ATOM     17  C   UNL A   1      33.549  28.790  26.015  1.00  0.00     0.062 A 
ATOM     18  C   UNL A   1      33.321  27.440  26.387  1.00  0.00     0.072 A 
ATOM     19  N   UNL A   1      33.190  29.011  24.747  1.00  0.00    -0.176 NA
ATOM     20  C   UNL A   1      32.739  26.846  25.288  1.00  0.00     0.134 A 
ATOM     21  N   UNL A   1      32.675  27.843  24.349  1.00  0.00    -0.237 N 
ATOM     22  C   UNL A   1      32.080  27.712  23.038  1.00  0.00     0.216 C 
ATOM     23  C   UNL A   1      31.495  25.293  23.829  1.00  0.00     0.130 C 
ATOM     24  C   UNL A   1      31.864  26.235  22.684  1.00  0.00     0.059 C 
BRANCH  22  25
ATOM     25  C   UNL A   1      30.813  28.538  22.959  1.00  0.00     0.410 C 
ATOM     26  F   UNL A   1      30.431  28.926  24.201  1.00  0.00    -0.169 F 
ATOM     27  F   UNL A   1      30.995  29.667  22.239  1.00  0.00    -0.169 F 
ATOM     28  F   UNL A   1      29.776  27.855  22.434  1.00  0.00    -0.169 F 
ENDBRANCH  22  25
ENDBRANCH  13  15
ENDBRANCH   9  13
ENDBRANCH   6   8
ENDBRANCH   4   6
ENDBRANCH   3   4
ENDBRANCH   2   3
ENDBRANCH   1   2
BRANCH   1  29
ATOM     29  O   UNL A   1      42.137  21.156  27.121  1.00  0.00    -0.374 OA
BRANCH  29  30
ATOM     30  C   UNL A   1      43.037  20.932  26.042  1.00  0.00     0.202 C 
BRANCH  30  31
ATOM     31  C   UNL A   1      43.703  22.136  25.387  1.00  0.00     0.261 C 
BRANCH  31  32
ATOM     32  O   UNL A   1      42.751  23.144  25.088  1.00  0.00    -0.460 OA
BRANCH  32  33
ATOM     33  C   UNL A   1      43.071  24.369  25.570  1.00  0.00     0.338 C 
ATOM     34  O   UNL A   1      44.043  25.045  25.283  1.00  0.00    -0.246 OA
BRANCH  33  35
ATOM     35  C   UNL A   1      42.097  24.734  26.611  1.00  0.00     0.060 A 
ATOM     36  C   UNL A   1      40.973  25.401  26.135  1.00  0.00     0.016 A 
ATOM     37  C   UNL A   1      42.536  24.866  27.934  1.00  0.00     0.016 A 
ATOM     38  C   UNL A   1      40.584  26.519  26.825  1.00  0.00     0.010 A 
ATOM     39  C   UNL A   1      42.146  25.980  28.628  1.00  0.00     0.010 A 
ATOM     40  C   UNL A   1      41.294  26.863  27.980  1.00  0.00    -0.014 A 
BRANCH  40  41
ATOM     41  C   UNL A   1      41.096  28.183  28.518  1.00  0.00     0.031 A 
ATOM     42  C   UNL A   1      42.165  29.105  28.110  1.00  0.00     0.074 A 
ATOM     43  C   UNL A   1      40.040  28.515  29.282  1.00  0.00     0.049 A 
ATOM     44  N   UNL A   1      43.151  29.515  28.831  1.00  0.00    -0.248 NA
ATOM     45  C   UNL A   1      42.273  29.416  26.678  1.00  0.00     0.031 C 
ATOM     46  C   UNL A   1      38.813  27.770  29.576  1.00  0.00     0.029 A 
ATOM     47  N   UNL A   1      39.850  29.688  29.940  1.00  0.00    -0.354 N 
ATOM     48  C   UNL A   1      43.919  30.295  27.980  1.00  0.00     0.074 A 
ATOM     49  C   UNL A   1      43.458  30.022  26.644  1.00  0.00     0.031 C 
ATOM     50  C   UNL A   1      37.920  28.598  30.173  1.00  0.00     0.029 A 
ATOM     51  C   UNL A   1      38.566  29.874  30.430  1.00  0.00     0.049 A 
ATOM     52  H   UNL A   1      40.567  30.352  30.060  1.00  0.00     0.167 HD
ATOM     53  C   UNL A   1      44.686  31.304  28.466  1.00  0.00     0.037 A 
ATOM     54  C   UNL A   1      38.093  31.046  30.923  1.00  0.00     0.037 A 
ATOM     55  C   UNL A   1      44.922  31.152  29.880  1.00  0.00     0.049 A 
ATOM     56  C   UNL A   1      39.277  31.850  31.345  1.00  0.00     0.074 A 
ATOM     57  C   UNL A   1      45.559  30.200  30.653  1.00  0.00     0.029 A 
ATOM     58  N   UNL A   1      44.124  31.859  30.748  1.00  0.00    -0.354 N 
ATOM     59  N   UNL A   1      40.055  31.502  32.335  1.00  0.00    -0.248 NA
ATOM     60  C   UNL A   1      39.889  32.729  30.355  1.00  0.00     0.031 C 
ATOM     61  C   UNL A   1      44.750  30.069  31.821  1.00  0.00     0.029 A 
ATOM     62  C   UNL A   1      43.706  30.989  31.725  1.00  0.00     0.049 A 
ATOM     63  H   UNL A   1      43.896  32.815  30.683  1.00  0.00     0.167 HD
ATOM     64  C   UNL A   1      41.346  31.769  31.894  1.00  0.00     0.074 A 
ATOM     65  C   UNL A   1      41.176  32.571  30.684  1.00  0.00     0.031 C 
ATOM     66  C   UNL A   1      42.419  31.075  32.376  1.00  0.00     0.037 A 
BRANCH  53  67
ATOM     67  C   UNL A   1      44.882  32.603  27.736  1.00  0.00     0.064 A 
ATOM     68  C   UNL A   1      46.092  32.828  27.057  1.00  0.00     0.173 A 
ATOM     69  C   UNL A   1      44.057  33.738  27.912  1.00  0.00     0.173 A 
ATOM     70  F   UNL A   1      46.958  31.824  26.856  1.00  0.00    -0.203 F 
ATOM     71  C   UNL A   1      46.477  34.109  26.653  1.00  0.00     0.198 A 
ATOM     72  C   UNL A   1      44.418  35.000  27.454  1.00  0.00     0.198 A 
ATOM     73  F   UNL A   1      42.932  33.705  28.635  1.00  0.00    -0.203 F 
ATOM     74  F   UNL A   1      47.693  34.299  26.126  1.00  0.00    -0.200 F 
ATOM     75  C   UNL A   1      45.642  35.194  26.856  1.00  0.00     0.200 A 
ATOM     76  F   UNL A   1      43.599  36.038  27.682  1.00  0.00    -0.200 F 
ATOM     77  F   UNL A   1      46.036  36.430  26.528  1.00  0.00    -0.200 F 
ENDBRANCH  53  67
BRANCH  54  78
ATOM     78  C   UNL A   1      36.771  31.647  30.615  1.00  0.00     0.064 A 
ATOM     79  C   UNL A   1      35.913  32.105  31.627  1.00  0.00     0.173 A 
ATOM     80  C   UNL A   1      36.443  32.030  29.297  1.00  0.00     0.173 A 
ATOM     81  F   UNL A   1      36.192  31.846  32.912  1.00  0.00    -0.203 F 
ATOM     82  C   UNL A   1      34.792  32.895  31.337  1.00  0.00     0.198 A 
ATOM     83  C   UNL A   1      35.336  32.828  29.011  1.00  0.00     0.198 A 
ATOM     84  F   UNL A   1      37.250  31.724  28.269  1.00  0.00    -0.203 F 
ATOM     85  F   UNL A   1      34.020  33.353  32.331  1.00  0.00    -0.200 F 
ATOM     86  C   UNL A   1      34.509  33.261  30.030  1.00  0.00     0.200 A 
ATOM     87  F   UNL A   1      35.131  33.245  27.753  1.00  0.00    -0.200 F 
ATOM     88  F   UNL A   1      33.474  34.067  29.757  1.00  0.00    -0.200 F 
ENDBRANCH  54  78
BRANCH  66  89
ATOM     89  C   UNL A   1      42.183  30.148  33.539  1.00  0.00     0.064 A 
ATOM     90  C   UNL A   1      41.812  28.799  33.395  1.00  0.00     0.173 A 
ATOM     91  C   UNL A   1      42.487  30.596  34.829  1.00  0.00     0.173 A 
ATOM     92  F   UNL A   1      41.609  28.268  32.183  1.00  0.00    -0.203 F 
ATOM     93  C   UNL A   1      41.706  27.954  34.499  1.00  0.00     0.198 A 
ATOM     94  C   UNL A   1      42.414  29.742  35.927  1.00  0.00     0.198 A 
ATOM     95  F   UNL A   1      42.907  31.857  35.019  1.00  0.00    -0.203 F 
ATOM     96  F   UNL A   1      41.341  26.673  34.333  1.00  0.00    -0.200 F 
ATOM     97  C   UNL A   1      42.013  28.425  35.764  1.00  0.00     0.200 A 
ATOM     98  F   UNL A   1      42.761  30.189  37.141  1.00  0.00    -0.200 F 
ATOM     99  F   UNL A   1      41.950  27.605  36.822  1.00  0.00    -0.200 F 
ENDBRANCH  66  89
ENDBRANCH  40  41
ENDBRANCH  33  35
ENDBRANCH  32  33
ENDBRANCH  31  32
ENDBRANCH  30  31
ENDBRANCH  29  30
ENDBRANCH   1  29
TORSDOF 18
ENDMDL
MODEL 2
REMARK VINA RESULT:     -12.3      2.832      4.152
REMARK SMILES Cc1cc2n(n1)[C@H](C(F)(F)F)CCN2C(=O)c1cnn([C@@H](C)C(=O)OCCOCCOC(=O)c2ccc(-c3c4nc(c(-c5c(F)c(F)c(F)c(F)c5F)c5ccc([nH]5)c(-c5c(F)c(F)c(F)c(F)c5F)c5nc(c(-c6c(F)c(F)c(F)c(F)c6F)c6ccc3[nH]6)C=C5)C=C4)cc2)c1
REMARK SMILES IDX 27 1 26 2 25 3 23 4 24 5 21 6 22 7 20 8 17 9 18 10 97 11
REMARK SMILES IDX 19 12 15 13 16 14 14 15 1 16 2 17 3 18 6 19 4 20 5 21 7 22
REMARK SMILES IDX 13 23 12 24 8 25 9 26 10 27 11 28 28 29 29 30 30 31 31 32
REMARK SMILES IDX 32 33 33 34 34 35 35 36 96 37 36 38 95 39 37 40 38 41 39 42
REMARK SMILES IDX 89 43 40 44 94 45 88 46 90 47 41 48 93 49 87 50 86 51 42 53
REMARK SMILES IDX 74 54 54 55 73 56 55 57 58 58 72 59 91 60 56 61 57 62 71 64
REMARK SMILES IDX 92 65 59 66 43 67 44 68 52 69 45 70 46 71 50 72 53 73 47 74
REMARK SMILES IDX 48 75 51 76 49 77 75 78 76 79 84 80 77 81 78 82 82 83 85 84
REMARK SMILES IDX 79 85 80 86 83 87 81 88 60 89 61 90 69 91 62 92 63 93 67 94
REMARK SMILES IDX 70 95 64 96 65 97 68 98 66 99
REMARK H PARENT 90 52 58 63
REMARK Flexibility Score: inf
ROOT
ATOM      1  C   UNL A   1      41.087  20.338  27.069  1.00  0.00     0.202 C 
ENDROOT
BRANCH   1   2
ATOM      2  C   UNL A   1      40.567  21.460  26.171  1.00  0.00     0.261 C 
BRANCH   2   3
ATOM      3  O   UNL A   1      39.250  21.915  26.541  1.00  0.00    -0.462 OA
BRANCH   3   4
ATOM      4  C   UNL A   1      38.294  21.722  25.599  1.00  0.00     0.330 C 
ATOM      5  O   UNL A   1      38.119  20.657  25.009  1.00  0.00    -0.250 OA
BRANCH   4   6
ATOM      6  C   UNL A   1      37.422  22.915  25.293  1.00  0.00     0.213 C 
ATOM      7  C   UNL A   1      37.851  24.075  26.184  1.00  0.00     0.046 C 
BRANCH   6   8
ATOM      8  N   UNL A   1      35.972  22.703  25.294  1.00  0.00    -0.258 N 
ATOM      9  C   UNL A   1      33.797  23.034  24.926  1.00  0.00     0.078 A 
ATOM     10  C   UNL A   1      34.053  22.227  26.051  1.00  0.00     0.149 A 
ATOM     11  C   UNL A   1      35.069  23.284  24.431  1.00  0.00     0.123 A 
ATOM     12  N   UNL A   1      35.351  22.096  26.326  1.00  0.00    -0.180 NA
BRANCH   9  13
ATOM     13  C   UNL A   1      32.544  23.428  24.304  1.00  0.00     0.262 C 
ATOM     14  O   UNL A   1      32.019  22.777  23.419  1.00  0.00    -0.269 OA
BRANCH  13  15
ATOM     15  N   UNL A   1      31.976  24.702  24.765  1.00  0.00    -0.293 N 
ATOM     16  C   UNL A   1      34.181  28.399  22.130  1.00  0.00     0.069 C 
ATOM     17  C   UNL A   1      33.334  27.574  23.028  1.00  0.00     0.062 A 
ATOM     18  C   UNL A   1      33.266  26.161  23.133  1.00  0.00     0.072 A 
ATOM     19  N   UNL A   1      32.517  28.165  23.904  1.00  0.00    -0.176 NA
ATOM     20  C   UNL A   1      32.399  25.908  24.174  1.00  0.00     0.134 A 
ATOM     21  N   UNL A   1      32.000  27.149  24.601  1.00  0.00    -0.237 N 
ATOM     22  C   UNL A   1      31.126  27.397  25.724  1.00  0.00     0.216 C 
ATOM     23  C   UNL A   1      31.183  24.803  26.015  1.00  0.00     0.130 C 
ATOM     24  C   UNL A   1      30.405  26.112  26.150  1.00  0.00     0.059 C 
BRANCH  22  25
ATOM     25  C   UNL A   1      31.902  28.049  26.850  1.00  0.00     0.410 C 
ATOM     26  F   UNL A   1      32.028  29.380  26.620  1.00  0.00    -0.169 F 
ATOM     27  F   UNL A   1      31.267  27.920  28.037  1.00  0.00    -0.169 F 
ATOM     28  F   UNL A   1      33.152  27.560  26.975  1.00  0.00    -0.169 F 
ENDBRANCH  22  25
ENDBRANCH  13  15
ENDBRANCH   9  13
ENDBRANCH   6   8
ENDBRANCH   4   6
ENDBRANCH   3   4
ENDBRANCH   2   3
ENDBRANCH   1   2
BRANCH   1  29
ATOM     29  O   UNL A   1      42.451  19.939  26.954  1.00  0.00    -0.374 OA
BRANCH  29  30
ATOM     30  C   UNL A   1      42.816  18.746  26.271  1.00  0.00     0.202 C 
BRANCH  30  31
ATOM     31  C   UNL A   1      43.860  18.830  25.163  1.00  0.00     0.261 C 
BRANCH  31  32
ATOM     32  O   UNL A   1      43.952  20.150  24.652  1.00  0.00    -0.460 OA
BRANCH  32  33
ATOM     33  C   UNL A   1      45.102  20.789  24.974  1.00  0.00     0.338 C 
ATOM     34  O   UNL A   1      46.055  20.334  25.580  1.00  0.00    -0.246 OA
BRANCH  33  35
ATOM     35  C   UNL A   1      44.986  22.198  24.567  1.00  0.00     0.060 A 
ATOM     36  C   UNL A   1      46.066  22.992  24.940  1.00  0.00     0.016 A 
ATOM     37  C   UNL A   1      43.715  22.734  24.332  1.00  0.00     0.016 A 
ATOM     38  C   UNL A   1      45.771  24.202  25.512  1.00  0.00     0.010 A 
ATOM     39  C   UNL A   1      43.418  23.944  24.899  1.00  0.00     0.010 A 
ATOM     40  C   UNL A   1      44.427  24.573  25.615  1.00  0.00    -0.014 A 
BRANCH  40  41
ATOM     41  C   UNL A   1      44.102  25.673  26.483  1.00  0.00     0.031 A 
ATOM     42  C   UNL A   1      45.078  26.765  26.370  1.00  0.00     0.074 A 
ATOM     43  C   UNL A   1      43.017  25.688  27.278  1.00  0.00     0.049 A 
ATOM     44  N   UNL A   1      46.018  27.053  27.203  1.00  0.00    -0.248 NA
ATOM     45  C   UNL A   1      45.160  27.462  25.079  1.00  0.00     0.031 C 
ATOM     46  C   UNL A   1      41.866  24.781  27.324  1.00  0.00     0.029 A 
ATOM     47  N   UNL A   1      42.713  26.615  28.222  1.00  0.00    -0.354 N 
ATOM     48  C   UNL A   1      46.710  28.102  26.617  1.00  0.00     0.074 A 
ATOM     49  C   UNL A   1      46.282  28.161  25.244  1.00  0.00     0.031 C 
ATOM     50  C   UNL A   1      40.896  25.331  28.096  1.00  0.00     0.029 A 
ATOM     51  C   UNL A   1      41.416  26.543  28.707  1.00  0.00     0.049 A 
ATOM     52  H   UNL A   1      43.362  27.285  28.538  1.00  0.00     0.167 HD
ATOM     53  C   UNL A   1      47.376  29.007  27.379  1.00  0.00     0.037 A 
ATOM     54  C   UNL A   1      40.830  27.489  29.484  1.00  0.00     0.037 A 
ATOM     55  C   UNL A   1      47.621  28.500  28.706  1.00  0.00     0.049 A 
ATOM     56  C   UNL A   1      41.930  28.254  30.141  1.00  0.00     0.074 A 
ATOM     57  C   UNL A   1      48.344  27.436  29.211  1.00  0.00     0.029 A 
ATOM     58  N   UNL A   1      46.756  28.868  29.709  1.00  0.00    -0.354 N 
ATOM     59  N   UNL A   1      42.735  27.722  31.023  1.00  0.00    -0.248 NA
ATOM     60  C   UNL A   1      42.458  29.421  29.442  1.00  0.00     0.031 C 
ATOM     61  C   UNL A   1      47.547  26.919  30.277  1.00  0.00     0.029 A 
ATOM     62  C   UNL A   1      46.420  27.731  30.402  1.00  0.00     0.049 A 
ATOM     63  H   UNL A   1      46.437  29.781  29.897  1.00  0.00     0.167 HD
ATOM     64  C   UNL A   1      43.996  28.216  30.707  1.00  0.00     0.074 A 
ATOM     65  C   UNL A   1      43.753  29.297  29.754  1.00  0.00     0.031 C 
ATOM     66  C   UNL A   1      45.129  27.519  31.015  1.00  0.00     0.037 A 
BRANCH  53  67
ATOM     67  C   UNL A   1      47.448  30.468  27.032  1.00  0.00     0.064 A 
ATOM     68  C   UNL A   1      48.691  31.121  27.087  1.00  0.00     0.173 A 
ATOM     69  C   UNL A   1      46.316  31.309  26.927  1.00  0.00     0.173 A 
ATOM     70  F   UNL A   1      49.826  30.418  27.209  1.00  0.00    -0.203 F 
ATOM     71  C   UNL A   1      48.784  32.515  27.112  1.00  0.00     0.198 A 
ATOM     72  C   UNL A   1      46.418  32.695  26.890  1.00  0.00     0.198 A 
ATOM     73  F   UNL A   1      45.064  30.841  26.978  1.00  0.00    -0.203 F 
ATOM     74  F   UNL A   1      49.977  33.095  27.295  1.00  0.00    -0.200 F 
ATOM     75  C   UNL A   1      47.648  33.300  27.018  1.00  0.00     0.200 A 
ATOM     76  F   UNL A   1      45.301  33.433  26.819  1.00  0.00    -0.200 F 
ATOM     77  F   UNL A   1      47.730  34.633  27.105  1.00  0.00    -0.200 F 
ENDBRANCH  53  67
BRANCH  54  78
ATOM     78  C   UNL A   1      39.457  28.027  29.311  1.00  0.00     0.064 A 
ATOM     79  C   UNL A   1      38.584  28.187  30.398  1.00  0.00     0.173 A 
ATOM     80  C   UNL A   1      39.075  28.651  28.104  1.00  0.00     0.173 A 
ATOM     81  F   UNL A   1      38.907  27.687  31.599  1.00  0.00    -0.203 F 
ATOM     82  C   UNL A   1      37.396  28.922  30.283  1.00  0.00     0.198 A 
ATOM     83  C   UNL A   1      37.900  29.394  27.995  1.00  0.00     0.198 A 
ATOM     84  F   UNL A   1      39.884  28.637  27.034  1.00  0.00    -0.203 F 
ATOM     85  F   UNL A   1      36.608  29.094  31.353  1.00  0.00    -0.200 F 
ATOM     86  C   UNL A   1      37.059  29.530  29.083  1.00  0.00     0.200 A 
ATOM     87  F   UNL A   1      37.637  30.048  26.854  1.00  0.00    -0.200 F 
ATOM     88  F   UNL A   1      35.957  30.286  28.988  1.00  0.00    -0.200 F 
ENDBRANCH  54  78
BRANCH  66  89
ATOM     89  C   UNL A   1      44.980  26.294  31.877  1.00  0.00     0.064 A 
ATOM     90  C   UNL A   1      44.964  26.331  33.284  1.00  0.00     0.173 A 
ATOM     91  C   UNL A   1      44.696  25.069  31.264  1.00  0.00     0.173 A 
ATOM     92  F   UNL A   1      45.121  27.485  33.943  1.00  0.00    -0.203 F 
ATOM     93  C   UNL A   1      44.720  25.182  34.037  1.00  0.00     0.198 A 
ATOM     94  C   UNL A   1      44.418  23.931  32.017  1.00  0.00     0.198 A 
ATOM     95  F   UNL A   1      44.636  24.988  29.925  1.00  0.00    -0.203 F 
ATOM     96  F   UNL A   1      44.720  25.244  35.377  1.00  0.00    -0.200 F 
ATOM     97  C   UNL A   1      44.442  23.984  33.402  1.00  0.00     0.200 A 
ATOM     98  F   UNL A   1      44.100  22.786  31.398  1.00  0.00    -0.200 F 
ATOM     99  F   UNL A   1      44.169  22.888  34.122  1.00  0.00    -0.200 F 
ENDBRANCH  66  89
ENDBRANCH  40  41
ENDBRANCH  33  35
ENDBRANCH  32  33
ENDBRANCH  31  32
ENDBRANCH  30  31
ENDBRANCH  29  30
ENDBRANCH   1  29
TORSDOF 18
ENDMDL
MODEL 3
REMARK VINA RESULT:     -12.0      2.455      3.785
REMARK SMILES Cc1cc2n(n1)[C@H](C(F)(F)F)CCN2C(=O)c1cnn([C@@H](C)C(=O)OCCOCCOC(=O)c2ccc(-c3c4nc(c(-c5c(F)c(F)c(F)c(F)c5F)c5ccc([nH]5)c(-c5c(F)c(F)c(F)c(F)c5F)c5nc(c(-c6c(F)c(F)c(F)c(F)c6F)c6ccc3[nH]6)C=C5)C=C4)cc2)c1
REMARK SMILES IDX 27 1 26 2 25 3 23 4 24 5 21 6 22 7 20 8 17 9 18 10 97 11
REMARK SMILES IDX 19 12 15 13 16 14 14 15 1 16 2 17 3 18 6 19 4 20 5 21 7 22
REMARK SMILES IDX 13 23 12 24 8 25 9 26 10 27 11 28 28 29 29 30 30 31 31 32
REMARK SMILES IDX 32 33 33 34 34 35 35 36 96 37 36 38 95 39 37 40 38 41 39 42
REMARK SMILES IDX 89 43 40 44 94 45 88 46 90 47 41 48 93 49 87 50 86 51 42 53
REMARK SMILES IDX 74 54 54 55 73 56 55 57 58 58 72 59 91 60 56 61 57 62 71 64
REMARK SMILES IDX 92 65 59 66 43 67 44 68 52 69 45 70 46 71 50 72 53 73 47 74
REMARK SMILES IDX 48 75 51 76 49 77 75 78 76 79 84 80 77 81 78 82 82 83 85 84
REMARK SMILES IDX 79 85 80 86 83 87 81 88 60 89 61 90 69 91 62 92 63 93 67 94
REMARK SMILES IDX 70 95 64 96 65 97 68 98 66 99
REMARK H PARENT 90 52 58 63
REMARK Flexibility Score: inf
ROOT
ATOM      1  C   UNL A   1      39.347  21.497  26.116  1.00  0.00     0.202 C 
ENDROOT
BRANCH   1   2
ATOM      2  C   UNL A   1      38.854  22.941  26.201  1.00  0.00     0.261 C 
BRANCH   2   3
ATOM      3  O   UNL A   1      37.419  23.053  26.141  1.00  0.00    -0.462 OA
BRANCH   3   4
ATOM      4  C   UNL A   1      36.821  22.243  25.232  1.00  0.00     0.330 C 
ATOM      5  O   UNL A   1      37.047  22.282  24.024  1.00  0.00    -0.250 OA
BRANCH   4   6
ATOM      6  C   UNL A   1      35.824  21.255  25.789  1.00  0.00     0.213 C 
ATOM      7  C   UNL A   1      35.550  20.189  24.734  1.00  0.00     0.046 C 
BRANCH   6   8
ATOM      8  N   UNL A   1      34.598  21.802  26.377  1.00  0.00    -0.258 N 
ATOM      9  C   UNL A   1      32.810  23.099  26.686  1.00  0.00     0.078 A 
ATOM     10  C   UNL A   1      33.276  22.504  27.875  1.00  0.00     0.149 A 
ATOM     11  C   UNL A   1      33.666  22.579  25.725  1.00  0.00     0.123 A 
ATOM     12  N   UNL A   1      34.395  21.797  27.710  1.00  0.00    -0.180 NA
BRANCH   9  13
ATOM     13  C   UNL A   1      31.651  23.939  26.435  1.00  0.00     0.262 C 
ATOM     14  O   UNL A   1      30.645  23.888  27.119  1.00  0.00    -0.269 OA
BRANCH  13  15
ATOM     15  N   UNL A   1      31.741  24.816  25.259  1.00  0.00    -0.293 N 
ATOM     16  C   UNL A   1      34.504  28.833  26.559  1.00  0.00     0.069 C 
ATOM     17  C   UNL A   1      33.709  27.795  25.857  1.00  0.00     0.062 A 
ATOM     18  C   UNL A   1      33.250  26.545  26.348  1.00  0.00     0.072 A 
ATOM     19  N   UNL A   1      33.307  27.999  24.599  1.00  0.00    -0.176 NA
ATOM     20  C   UNL A   1      32.483  26.008  25.335  1.00  0.00     0.134 A 
ATOM     21  N   UNL A   1      32.546  26.935  24.326  1.00  0.00    -0.237 N 
ATOM     22  C   UNL A   1      31.842  26.838  23.068  1.00  0.00     0.216 C 
ATOM     23  C   UNL A   1      30.856  24.643  24.081  1.00  0.00     0.130 C 
ATOM     24  C   UNL A   1      31.317  25.415  22.844  1.00  0.00     0.059 C 
BRANCH  22  25
ATOM     25  C   UNL A   1      30.758  27.894  22.999  1.00  0.00     0.410 C 
ATOM     26  F   UNL A   1      30.390  28.267  24.250  1.00  0.00    -0.169 F 
ATOM     27  F   UNL A   1      31.186  29.012  22.371  1.00  0.00    -0.169 F 
ATOM     28  F   UNL A   1      29.641  27.457  22.383  1.00  0.00    -0.169 F 
ENDBRANCH  22  25
ENDBRANCH  13  15
ENDBRANCH   9  13
ENDBRANCH   6   8
ENDBRANCH   4   6
ENDBRANCH   3   4
ENDBRANCH   2   3
ENDBRANCH   1   2
BRANCH   1  29
ATOM     29  O   UNL A   1      40.057  20.943  27.221  1.00  0.00    -0.374 OA
BRANCH  29  30
ATOM     30  C   UNL A   1      41.477  21.004  27.290  1.00  0.00     0.202 C 
BRANCH  30  31
ATOM     31  C   UNL A   1      42.291  20.247  26.248  1.00  0.00     0.261 C 
BRANCH  31  32
ATOM     32  O   UNL A   1      42.832  21.135  25.283  1.00  0.00    -0.460 OA
BRANCH  32  33
ATOM     33  C   UNL A   1      44.170  21.014  25.107  1.00  0.00     0.338 C 
ATOM     34  O   UNL A   1      44.821  19.985  25.079  1.00  0.00    -0.246 OA
BRANCH  33  35
ATOM     35  C   UNL A   1      44.762  22.360  25.064  1.00  0.00     0.060 A 
ATOM     36  C   UNL A   1      45.633  22.636  26.112  1.00  0.00     0.016 A 
ATOM     37  C   UNL A   1      44.094  23.373  24.365  1.00  0.00     0.016 A 
ATOM     38  C   UNL A   1      45.477  23.844  26.740  1.00  0.00     0.010 A 
ATOM     39  C   UNL A   1      43.939  24.582  24.988  1.00  0.00     0.010 A 
ATOM     40  C   UNL A   1      44.511  24.725  26.244  1.00  0.00    -0.014 A 
BRANCH  40  41
ATOM     41  C   UNL A   1      44.130  25.837  27.075  1.00  0.00     0.031 A 
ATOM     42  C   UNL A   1      45.105  26.934  27.000  1.00  0.00     0.074 A 
ATOM     43  C   UNL A   1      43.002  25.856  27.806  1.00  0.00     0.049 A 
ATOM     44  N   UNL A   1      45.995  27.241  27.880  1.00  0.00    -0.248 NA
ATOM     45  C   UNL A   1      45.255  27.611  25.704  1.00  0.00     0.031 C 
ATOM     46  C   UNL A   1      41.856  24.942  27.802  1.00  0.00     0.029 A 
ATOM     47  N   UNL A   1      42.639  26.796  28.717  1.00  0.00    -0.354 N 
ATOM     48  C   UNL A   1      46.712  28.285  27.317  1.00  0.00     0.074 A 
ATOM     49  C   UNL A   1      46.362  28.320  25.921  1.00  0.00     0.031 C 
ATOM     50  C   UNL A   1      40.840  25.497  28.509  1.00  0.00     0.029 A 
ATOM     51  C   UNL A   1      41.317  26.722  29.128  1.00  0.00     0.049 A 
ATOM     52  H   UNL A   1      43.266  27.475  29.058  1.00  0.00     0.167 HD
ATOM     53  C   UNL A   1      47.328  29.208  28.101  1.00  0.00     0.037 A 
ATOM     54  C   UNL A   1      40.683  27.675  29.855  1.00  0.00     0.037 A 
ATOM     55  C   UNL A   1      47.500  28.723  29.447  1.00  0.00     0.049 A 
ATOM     56  C   UNL A   1      41.739  28.459  30.561  1.00  0.00     0.074 A 
ATOM     57  C   UNL A   1      48.200  27.672  30.010  1.00  0.00     0.029 A 
ATOM     58  N   UNL A   1      46.578  29.101  30.394  1.00  0.00    -0.354 N 
ATOM     59  N   UNL A   1      42.496  27.947  31.496  1.00  0.00    -0.248 NA
ATOM     60  C   UNL A   1      42.298  29.618  29.876  1.00  0.00     0.031 C 
ATOM     61  C   UNL A   1      47.348  27.166  31.037  1.00  0.00     0.029 A 
ATOM     62  C   UNL A   1      46.210  27.972  31.085  1.00  0.00     0.049 A 
ATOM     63  H   UNL A   1      46.243  30.014  30.549  1.00  0.00     0.167 HD
ATOM     64  C   UNL A   1      43.769  28.445  31.245  1.00  0.00     0.074 A 
ATOM     65  C   UNL A   1      43.574  29.509  30.262  1.00  0.00     0.031 C 
ATOM     66  C   UNL A   1      44.887  27.760  31.627  1.00  0.00     0.037 A 
BRANCH  53  67
ATOM     67  C   UNL A   1      47.410  30.663  27.735  1.00  0.00     0.064 A 
ATOM     68  C   UNL A   1      46.224  31.372  27.483  1.00  0.00     0.173 A 
ATOM     69  C   UNL A   1      48.606  31.310  27.345  1.00  0.00     0.173 A 
ATOM     70  F   UNL A   1      45.033  30.839  27.794  1.00  0.00    -0.203 F 
ATOM     71  C   UNL A   1      46.232  32.603  26.823  1.00  0.00     0.198 A 
ATOM     72  C   UNL A   1      48.613  32.563  26.743  1.00  0.00     0.198 A 
ATOM     73  F   UNL A   1      49.803  30.716  27.416  1.00  0.00    -0.203 F 
ATOM     74  F   UNL A   1      45.073  33.183  26.488  1.00  0.00    -0.200 F 
ATOM     75  C   UNL A   1      47.426  33.194  26.449  1.00  0.00     0.200 A 
ATOM     76  F   UNL A   1      49.783  33.105  26.372  1.00  0.00    -0.200 F 
ATOM     77  F   UNL A   1      47.434  34.342  25.760  1.00  0.00    -0.200 F 
ENDBRANCH  53  67
BRANCH  54  78
ATOM     78  C   UNL A   1      39.319  28.202  29.597  1.00  0.00     0.064 A 
ATOM     79  C   UNL A   1      38.400  28.417  30.636  1.00  0.00     0.173 A 
ATOM     80  C   UNL A   1      38.988  28.760  28.344  1.00  0.00     0.173 A 
ATOM     81  F   UNL A   1      38.672  27.981  31.874  1.00  0.00    -0.203 F 
ATOM     82  C   UNL A   1      37.218  29.142  30.432  1.00  0.00     0.198 A 
ATOM     83  C   UNL A   1      37.819  29.494  28.146  1.00  0.00     0.198 A 
ATOM     84  F   UNL A   1      39.842  28.692  27.311  1.00  0.00    -0.203 F 
ATOM     85  F   UNL A   1      36.385  29.368  31.457  1.00  0.00    -0.200 F 
ATOM     86  C   UNL A   1      36.932  29.686  29.189  1.00  0.00     0.200 A 
ATOM     87  F   UNL A   1      37.605  30.086  26.962  1.00  0.00    -0.200 F 
ATOM     88  F   UNL A   1      35.835  30.433  29.007  1.00  0.00    -0.200 F 
ENDBRANCH  54  78
BRANCH  66  89
ATOM     89  C   UNL A   1      44.698  26.548  32.499  1.00  0.00     0.064 A 
ATOM     90  C   UNL A   1      44.528  26.613  33.894  1.00  0.00     0.173 A 
ATOM     91  C   UNL A   1      44.533  25.300  31.890  1.00  0.00     0.173 A 
ATOM     92  F   UNL A   1      44.565  27.786  34.537  1.00  0.00    -0.203 F 
ATOM     93  C   UNL A   1      44.252  25.470  34.645  1.00  0.00     0.198 A 
ATOM     94  C   UNL A   1      44.223  24.165  32.637  1.00  0.00     0.198 A 
ATOM     95  F   UNL A   1      44.621  25.189  30.555  1.00  0.00    -0.203 F 
ATOM     96  F   UNL A   1      44.105  25.560  35.976  1.00  0.00    -0.200 F 
ATOM     97  C   UNL A   1      44.095  24.248  34.015  1.00  0.00     0.200 A 
ATOM     98  F   UNL A   1      44.022  22.995  32.017  1.00  0.00    -0.200 F 
ATOM     99  F   UNL A   1      43.791  23.156  34.729  1.00  0.00    -0.200 F 
ENDBRANCH  66  89
ENDBRANCH  40  41
ENDBRANCH  33  35
ENDBRANCH  32  33
ENDBRANCH  31  32
ENDBRANCH  30  31
ENDBRANCH  29  30
ENDBRANCH   1  29
TORSDOF 18
ENDMDL
