MODEL 1
REMARK VINA RESULT:     -11.3      0.000      0.000
REMARK SMILES C[C@@H](C(=O)OCCOCCOC(=O)c1ccc(-c2c3nc(c(-c4c(F)c(F)c(F)c(F)c4F)c4ccc([nH]4)c(-c4c(F)c(F)c(F)c(F)c4F)c4nc(c(-c5c(F)c(F)c(F)c(F)c5F)c5ccc2[nH]5)C=C4)C=C3)cc1)c1ccc(Cc2cccs2)cc1F
REMARK SMILES IDX 7 1 6 2 5 3 3 4 4 5 2 6 1 7 77 8 78 9 88 10 79 11 87 12
REMARK SMILES IDX 89 13 80 14 81 15 82 16 83 17 86 18 84 19 85 20 8 21 9 22
REMARK SMILES IDX 10 23 11 24 12 25 13 26 14 27 15 28 76 29 16 30 75 31 17 32
REMARK SMILES IDX 18 33 19 34 69 35 20 36 74 37 68 38 70 39 21 40 73 41 67 42
REMARK SMILES IDX 66 43 22 45 54 46 34 47 53 48 35 49 38 50 52 51 71 52 36 53
REMARK SMILES IDX 37 54 51 56 72 57 39 58 23 59 24 60 32 61 25 62 26 63 30 64
REMARK SMILES IDX 33 65 27 66 28 67 31 68 29 69 55 70 56 71 64 72 57 73 58 74
REMARK SMILES IDX 62 75 65 76 59 77 60 78 63 79 61 80 40 81 41 82 49 83 42 84
REMARK SMILES IDX 43 85 47 86 50 87 44 88 45 89 48 90 46 91
REMARK H PARENT 70 44 38 55
REMARK Flexibility Score: inf
ROOT
ATOM      1  C   UNL A   1      40.286  21.421  27.050  1.00  0.00     0.202 C 
ENDROOT
BRANCH   1   2
ATOM      2  C   UNL A   1      39.249  21.200  25.945  1.00  0.00     0.261 C 
BRANCH   2   3
ATOM      3  O   UNL A   1      38.146  22.114  26.040  1.00  0.00    -0.463 OA
BRANCH   3   4
ATOM      4  C   UNL A   1      37.175  21.951  25.094  1.00  0.00     0.313 C 
ATOM      5  O   UNL A   1      37.397  22.013  23.891  1.00  0.00    -0.252 OA
BRANCH   4   6
ATOM      6  C   UNL A   1      35.784  21.681  25.700  1.00  0.00     0.129 C 
ATOM      7  C   UNL A   1      35.051  20.527  24.992  1.00  0.00     0.025 C 
BRANCH   6   8
ATOM      8  C   UNL A   1      34.953  22.959  25.851  1.00  0.00     0.002 A 
ATOM      9  C   UNL A   1      35.262  24.168  25.208  1.00  0.00     0.008 A 
ATOM     10  C   UNL A   1      33.784  22.944  26.627  1.00  0.00     0.127 A 
ATOM     11  C   UNL A   1      34.451  25.304  25.360  1.00  0.00     0.004 A 
ATOM     12  C   UNL A   1      33.000  24.083  26.822  1.00  0.00     0.043 A 
ATOM     13  F   UNL A   1      33.347  21.799  27.167  1.00  0.00    -0.207 F 
ATOM     14  C   UNL A   1      33.321  25.286  26.188  1.00  0.00    -0.040 A 
BRANCH  14  15
ATOM     15  C   UNL A   1      32.391  26.475  26.312  1.00  0.00     0.082 C 
BRANCH  15  16
ATOM     16  C   UNL A   1      31.341  26.597  25.238  1.00  0.00     0.009 A 
ATOM     17  C   UNL A   1      31.368  27.358  24.083  1.00  0.00     0.016 A 
ATOM     18  S   UNL A   1      29.920  25.638  25.313  1.00  0.00    -0.149 S 
ATOM     19  C   UNL A   1      30.226  27.147  23.260  1.00  0.00     0.012 A 
ATOM     20  C   UNL A   1      29.367  26.218  23.802  1.00  0.00     0.065 A 
ENDBRANCH  15  16
ENDBRANCH  14  15
ENDBRANCH   6   8
ENDBRANCH   4   6
ENDBRANCH   3   4
ENDBRANCH   2   3
ENDBRANCH   1   2
BRANCH   1  21
ATOM     21  O   UNL A   1      41.389  20.521  27.094  1.00  0.00    -0.374 OA
BRANCH  21  22
ATOM     22  C   UNL A   1      42.313  20.540  26.005  1.00  0.00     0.202 C 
BRANCH  22  23
ATOM     23  C   UNL A   1      43.265  21.741  25.925  1.00  0.00     0.261 C 
BRANCH  23  24
ATOM     24  O   UNL A   1      42.787  22.752  25.015  1.00  0.00    -0.460 OA
BRANCH  24  25
ATOM     25  C   UNL A   1      43.491  23.907  25.027  1.00  0.00     0.338 C 
ATOM     26  O   UNL A   1      44.458  24.198  24.331  1.00  0.00    -0.246 OA
BRANCH  25  27
ATOM     27  C   UNL A   1      42.830  24.903  25.887  1.00  0.00     0.060 A 
ATOM     28  C   UNL A   1      43.527  26.087  26.165  1.00  0.00     0.016 A 
ATOM     29  C   UNL A   1      41.598  24.647  26.491  1.00  0.00     0.016 A 
ATOM     30  C   UNL A   1      43.017  26.997  27.088  1.00  0.00     0.010 A 
ATOM     31  C   UNL A   1      41.094  25.557  27.428  1.00  0.00     0.010 A 
ATOM     32  C   UNL A   1      41.820  26.717  27.758  1.00  0.00    -0.014 A 
BRANCH  32  33
ATOM     33  C   UNL A   1      41.419  27.559  28.911  1.00  0.00     0.031 A 
ATOM     34  C   UNL A   1      42.214  27.474  30.185  1.00  0.00     0.074 A 
ATOM     35  C   UNL A   1      40.388  28.416  28.816  1.00  0.00     0.049 A 
ATOM     36  N   UNL A   1      42.038  28.102  31.320  1.00  0.00    -0.248 NA
ATOM     37  C   UNL A   1      43.366  26.557  30.177  1.00  0.00     0.031 C 
ATOM     38  C   UNL A   1      39.568  28.619  27.626  1.00  0.00     0.029 A 
ATOM     39  N   UNL A   1      39.856  29.275  29.745  1.00  0.00    -0.354 N 
ATOM     40  C   UNL A   1      43.054  27.659  32.157  1.00  0.00     0.074 A 
ATOM     41  C   UNL A   1      43.823  26.686  31.413  1.00  0.00     0.031 C 
ATOM     42  C   UNL A   1      38.624  29.535  27.899  1.00  0.00     0.029 A 
ATOM     43  C   UNL A   1      38.760  29.964  29.290  1.00  0.00     0.049 A 
ATOM     44  H   UNL A   1      40.225  29.386  30.651  1.00  0.00     0.167 HD
ATOM     45  C   UNL A   1      43.327  28.038  33.428  1.00  0.00     0.037 A 
ATOM     46  C   UNL A   1      37.948  30.826  29.933  1.00  0.00     0.037 A 
ATOM     47  C   UNL A   1      42.560  29.004  34.170  1.00  0.00     0.049 A 
ATOM     48  C   UNL A   1      38.230  31.181  31.370  1.00  0.00     0.074 A 
ATOM     49  C   UNL A   1      42.763  29.461  35.461  1.00  0.00     0.029 A 
ATOM     50  N   UNL A   1      41.437  29.658  33.686  1.00  0.00    -0.354 N 
ATOM     51  N   UNL A   1      39.204  30.772  32.148  1.00  0.00    -0.248 NA
ATOM     52  C   UNL A   1      37.302  32.120  32.017  1.00  0.00     0.031 C 
ATOM     53  C   UNL A   1      41.736  30.359  35.774  1.00  0.00     0.029 A 
ATOM     54  C   UNL A   1      40.922  30.498  34.661  1.00  0.00     0.049 A 
ATOM     55  H   UNL A   1      41.062  29.543  32.783  1.00  0.00     0.167 HD
ATOM     56  C   UNL A   1      39.022  31.421  33.363  1.00  0.00     0.074 A 
ATOM     57  C   UNL A   1      37.851  32.261  33.216  1.00  0.00     0.031 C 
ATOM     58  C   UNL A   1      39.758  31.331  34.498  1.00  0.00     0.037 A 
BRANCH  45  59
ATOM     59  C   UNL A   1      44.495  27.386  34.107  1.00  0.00     0.064 A 
ATOM     60  C   UNL A   1      44.364  26.164  34.782  1.00  0.00     0.173 A 
ATOM     61  C   UNL A   1      45.766  27.977  34.057  1.00  0.00     0.173 A 
ATOM     62  F   UNL A   1      43.166  25.566  34.871  1.00  0.00    -0.203 F 
ATOM     63  C   UNL A   1      45.458  25.568  35.404  1.00  0.00     0.198 A 
ATOM     64  C   UNL A   1      46.864  27.366  34.658  1.00  0.00     0.198 A 
ATOM     65  F   UNL A   1      45.946  29.144  33.421  1.00  0.00    -0.203 F 
ATOM     66  F   UNL A   1      45.302  24.423  36.081  1.00  0.00    -0.200 F 
ATOM     67  C   UNL A   1      46.708  26.166  35.336  1.00  0.00     0.200 A 
ATOM     68  F   UNL A   1      48.072  27.939  34.583  1.00  0.00    -0.200 F 
ATOM     69  F   UNL A   1      47.762  25.590  35.931  1.00  0.00    -0.200 F 
ENDBRANCH  45  59
BRANCH  46  70
ATOM     70  C   UNL A   1      36.778  31.407  29.226  1.00  0.00     0.064 A 
ATOM     71  C   UNL A   1      36.749  32.758  28.857  1.00  0.00     0.173 A 
ATOM     72  C   UNL A   1      35.658  30.621  28.916  1.00  0.00     0.173 A 
ATOM     73  F   UNL A   1      37.786  33.555  29.158  1.00  0.00    -0.203 F 
ATOM     74  C   UNL A   1      35.639  33.307  28.219  1.00  0.00     0.198 A 
ATOM     75  C   UNL A   1      34.559  31.164  28.253  1.00  0.00     0.198 A 
ATOM     76  F   UNL A   1      35.634  29.322  29.250  1.00  0.00    -0.203 F 
ATOM     77  F   UNL A   1      35.619  34.612  27.916  1.00  0.00    -0.200 F 
ATOM     78  C   UNL A   1      34.548  32.507  27.912  1.00  0.00     0.200 A 
ATOM     79  F   UNL A   1      33.511  30.386  27.950  1.00  0.00    -0.200 F 
ATOM     80  F   UNL A   1      33.481  33.035  27.295  1.00  0.00    -0.200 F 
ENDBRANCH  46  70
BRANCH  58  81
ATOM     81  C   UNL A   1      39.340  32.181  35.661  1.00  0.00     0.064 A 
ATOM     82  C   UNL A   1      39.801  33.496  35.814  1.00  0.00     0.173 A 
ATOM     83  C   UNL A   1      38.430  31.689  36.609  1.00  0.00     0.173 A 
ATOM     84  F   UNL A   1      40.683  34.008  34.941  1.00  0.00    -0.203 F 
ATOM     85  C   UNL A   1      39.385  34.280  36.886  1.00  0.00     0.198 A 
ATOM     86  C   UNL A   1      37.995  32.485  37.666  1.00  0.00     0.198 A 
ATOM     87  F   UNL A   1      37.953  30.439  36.505  1.00  0.00    -0.203 F 
ATOM     88  F   UNL A   1      39.871  35.521  37.036  1.00  0.00    -0.200 F 
ATOM     89  C   UNL A   1      38.478  33.777  37.807  1.00  0.00     0.200 A 
ATOM     90  F   UNL A   1      37.109  32.001  38.547  1.00  0.00    -0.200 F 
ATOM     91  F   UNL A   1      38.072  34.536  38.834  1.00  0.00    -0.200 F 
ENDBRANCH  58  81
ENDBRANCH  32  33
ENDBRANCH  25  27
ENDBRANCH  24  25
ENDBRANCH  23  24
ENDBRANCH  22  23
ENDBRANCH  21  22
ENDBRANCH   1  21
TORSDOF 17
ENDMDL
MODEL 2
REMARK VINA RESULT:     -11.2      3.584      8.856
REMARK SMILES C[C@@H](C(=O)OCCOCCOC(=O)c1ccc(-c2c3nc(c(-c4c(F)c(F)c(F)c(F)c4F)c4ccc([nH]4)c(-c4c(F)c(F)c(F)c(F)c4F)c4nc(c(-c5c(F)c(F)c(F)c(F)c5F)c5ccc2[nH]5)C=C4)C=C3)cc1)c1ccc(Cc2cccs2)cc1F
REMARK SMILES IDX 7 1 6 2 5 3 3 4 4 5 2 6 1 7 77 8 78 9 88 10 79 11 87 12
REMARK SMILES IDX 89 13 80 14 81 15 82 16 83 17 86 18 84 19 85 20 8 21 9 22
REMARK SMILES IDX 10 23 11 24 12 25 13 26 14 27 15 28 76 29 16 30 75 31 17 32
REMARK SMILES IDX 18 33 19 34 69 35 20 36 74 37 68 38 70 39 21 40 73 41 67 42
REMARK SMILES IDX 66 43 22 45 54 46 34 47 53 48 35 49 38 50 52 51 71 52 36 53
REMARK SMILES IDX 37 54 51 56 72 57 39 58 23 59 24 60 32 61 25 62 26 63 30 64
REMARK SMILES IDX 33 65 27 66 28 67 31 68 29 69 55 70 56 71 64 72 57 73 58 74
REMARK SMILES IDX 62 75 65 76 59 77 60 78 63 79 61 80 40 81 41 82 49 83 42 84
REMARK SMILES IDX 43 85 47 86 50 87 44 88 45 89 48 90 46 91
REMARK H PARENT 70 44 38 55
REMARK Flexibility Score: inf
ROOT
ATOM      1  C   UNL A   1      32.014  29.326  26.564  1.00  0.00     0.202 C 
ENDROOT
BRANCH   1   2
ATOM      2  C   UNL A   1      32.665  29.330  25.177  1.00  0.00     0.261 C 
BRANCH   2   3
ATOM      3  O   UNL A   1      31.705  29.163  24.122  1.00  0.00    -0.463 OA
BRANCH   3   4
ATOM      4  C   UNL A   1      32.167  28.507  23.018  1.00  0.00     0.313 C 
ATOM      5  O   UNL A   1      33.167  28.855  22.402  1.00  0.00    -0.252 OA
BRANCH   4   6
ATOM      6  C   UNL A   1      31.301  27.290  22.635  1.00  0.00     0.129 C 
ATOM      7  C   UNL A   1      29.860  27.409  23.162  1.00  0.00     0.025 C 
BRANCH   6   8
ATOM      8  C   UNL A   1      31.985  25.959  22.959  1.00  0.00     0.002 A 
ATOM      9  C   UNL A   1      32.651  25.175  22.003  1.00  0.00     0.008 A 
ATOM     10  C   UNL A   1      32.012  25.491  24.281  1.00  0.00     0.127 A 
ATOM     11  C   UNL A   1      33.285  23.973  22.359  1.00  0.00     0.004 A 
ATOM     12  C   UNL A   1      32.598  24.274  24.633  1.00  0.00     0.043 A 
ATOM     13  F   UNL A   1      31.515  26.242  25.273  1.00  0.00    -0.207 F 
ATOM     14  C   UNL A   1      33.249  23.493  23.675  1.00  0.00    -0.040 A 
BRANCH  14  15
ATOM     15  C   UNL A   1      33.985  22.238  24.097  1.00  0.00     0.082 C 
BRANCH  15  16
ATOM     16  C   UNL A   1      35.389  22.444  24.602  1.00  0.00     0.009 A 
ATOM     17  C   UNL A   1      36.044  23.630  24.882  1.00  0.00     0.016 A 
ATOM     18  S   UNL A   1      36.365  21.091  25.004  1.00  0.00    -0.149 S 
ATOM     19  C   UNL A   1      37.341  23.425  25.430  1.00  0.00     0.012 A 
ATOM     20  C   UNL A   1      37.635  22.088  25.569  1.00  0.00     0.065 A 
ENDBRANCH  15  16
ENDBRANCH  14  15
ENDBRANCH   6   8
ENDBRANCH   4   6
ENDBRANCH   3   4
ENDBRANCH   2   3
ENDBRANCH   1   2
BRANCH   1  21
ATOM     21  O   UNL A   1      31.909  30.578  27.234  1.00  0.00    -0.374 OA
BRANCH  21  22
ATOM     22  C   UNL A   1      31.405  31.693  26.497  1.00  0.00     0.202 C 
BRANCH  22  23
ATOM     23  C   UNL A   1      31.945  33.077  26.878  1.00  0.00     0.261 C 
BRANCH  23  24
ATOM     24  O   UNL A   1      32.782  33.028  28.051  1.00  0.00    -0.460 OA
BRANCH  24  25
ATOM     25  C   UNL A   1      33.884  33.811  27.997  1.00  0.00     0.338 C 
ATOM     26  O   UNL A   1      33.927  35.028  27.849  1.00  0.00    -0.246 OA
BRANCH  25  27
ATOM     27  C   UNL A   1      35.087  33.030  28.331  1.00  0.00     0.060 A 
ATOM     28  C   UNL A   1      34.906  31.701  28.739  1.00  0.00     0.016 A 
ATOM     29  C   UNL A   1      36.357  33.608  28.342  1.00  0.00     0.016 A 
ATOM     30  C   UNL A   1      35.988  30.960  29.208  1.00  0.00     0.010 A 
ATOM     31  C   UNL A   1      37.442  32.866  28.826  1.00  0.00     0.010 A 
ATOM     32  C   UNL A   1      37.254  31.552  29.296  1.00  0.00    -0.014 A 
BRANCH  32  33
ATOM     33  C   UNL A   1      38.336  30.849  30.027  1.00  0.00     0.031 A 
ATOM     34  C   UNL A   1      38.565  31.173  31.478  1.00  0.00     0.074 A 
ATOM     35  C   UNL A   1      39.078  29.905  29.422  1.00  0.00     0.049 A 
ATOM     36  N   UNL A   1      39.458  30.695  32.307  1.00  0.00    -0.248 NA
ATOM     37  C   UNL A   1      37.662  32.171  32.075  1.00  0.00     0.031 C 
ATOM     38  C   UNL A   1      38.926  29.473  28.035  1.00  0.00     0.029 A 
ATOM     39  N   UNL A   1      40.112  29.142  29.904  1.00  0.00    -0.354 N 
ATOM     40  C   UNL A   1      39.225  31.331  33.519  1.00  0.00     0.074 A 
ATOM     41  C   UNL A   1      38.128  32.252  33.312  1.00  0.00     0.031 C 
ATOM     42  C   UNL A   1      39.845  28.530  27.771  1.00  0.00     0.029 A 
ATOM     43  C   UNL A   1      40.664  28.310  28.962  1.00  0.00     0.049 A 
ATOM     44  H   UNL A   1      40.428  29.188  30.835  1.00  0.00     0.167 HD
ATOM     45  C   UNL A   1      39.860  31.155  34.702  1.00  0.00     0.037 A 
ATOM     46  C   UNL A   1      41.723  27.481  29.049  1.00  0.00     0.037 A 
ATOM     47  C   UNL A   1      40.953  30.242  34.909  1.00  0.00     0.049 A 
ATOM     48  C   UNL A   1      42.459  27.353  30.357  1.00  0.00     0.074 A 
ATOM     49  C   UNL A   1      41.656  29.985  36.073  1.00  0.00     0.029 A 
ATOM     50  N   UNL A   1      41.504  29.437  33.922  1.00  0.00    -0.354 N 
ATOM     51  N   UNL A   1      42.220  27.943  31.504  1.00  0.00    -0.248 NA
ATOM     52  C   UNL A   1      43.610  26.439  30.384  1.00  0.00     0.031 C 
ATOM     53  C   UNL A   1      42.663  29.058  35.780  1.00  0.00     0.029 A 
ATOM     54  C   UNL A   1      42.555  28.701  34.445  1.00  0.00     0.049 A 
ATOM     55  H   UNL A   1      41.195  29.395  32.989  1.00  0.00     0.167 HD
ATOM     56  C   UNL A   1      43.170  27.455  32.392  1.00  0.00     0.074 A 
ATOM     57  C   UNL A   1      43.984  26.510  31.655  1.00  0.00     0.031 C 
ATOM     58  C   UNL A   1      43.353  27.761  33.700  1.00  0.00     0.037 A 
BRANCH  45  59
ATOM     59  C   UNL A   1      39.401  31.987  35.862  1.00  0.00     0.064 A 
ATOM     60  C   UNL A   1      38.391  31.545  36.730  1.00  0.00     0.173 A 
ATOM     61  C   UNL A   1      39.998  33.229  36.126  1.00  0.00     0.173 A 
ATOM     62  F   UNL A   1      37.779  30.371  36.512  1.00  0.00    -0.203 F 
ATOM     63  C   UNL A   1      37.979  32.327  37.806  1.00  0.00     0.198 A 
ATOM     64  C   UNL A   1      39.600  33.997  37.218  1.00  0.00     0.198 A 
ATOM     65  F   UNL A   1      40.970  33.696  35.329  1.00  0.00    -0.203 F 
ATOM     66  F   UNL A   1      36.982  31.906  38.596  1.00  0.00    -0.200 F 
ATOM     67  C   UNL A   1      38.587  33.548  38.052  1.00  0.00     0.200 A 
ATOM     68  F   UNL A   1      40.197  35.172  37.461  1.00  0.00    -0.200 F 
ATOM     69  F   UNL A   1      38.193  34.299  39.091  1.00  0.00    -0.200 F 
ENDBRANCH  45  59
BRANCH  46  70
ATOM     70  C   UNL A   1      42.162  26.715  27.855  1.00  0.00     0.064 A 
ATOM     71  C   UNL A   1      41.652  25.438  27.583  1.00  0.00     0.173 A 
ATOM     72  C   UNL A   1      43.112  27.241  26.967  1.00  0.00     0.173 A 
ATOM     73  F   UNL A   1      40.762  24.882  28.419  1.00  0.00    -0.203 F 
ATOM     74  C   UNL A   1      42.086  24.710  26.477  1.00  0.00     0.198 A 
ATOM     75  C   UNL A   1      43.526  26.524  25.847  1.00  0.00     0.198 A 
ATOM     76  F   UNL A   1      43.633  28.458  27.184  1.00  0.00    -0.203 F 
ATOM     77  F   UNL A   1      41.615  23.474  26.265  1.00  0.00    -0.200 F 
ATOM     78  C   UNL A   1      43.018  25.256  25.607  1.00  0.00     0.200 A 
ATOM     79  F   UNL A   1      44.419  27.059  25.004  1.00  0.00    -0.200 F 
ATOM     80  F   UNL A   1      43.433  24.556  24.542  1.00  0.00    -0.200 F 
ENDBRANCH  46  70
BRANCH  58  81
ATOM     81  C   UNL A   1      44.454  27.049  34.428  1.00  0.00     0.064 A 
ATOM     82  C   UNL A   1      44.247  25.801  35.035  1.00  0.00     0.173 A 
ATOM     83  C   UNL A   1      45.744  27.599  34.479  1.00  0.00     0.173 A 
ATOM     84  F   UNL A   1      43.029  25.240  35.026  1.00  0.00    -0.203 F 
ATOM     85  C   UNL A   1      45.286  25.142  35.687  1.00  0.00     0.198 A 
ATOM     86  C   UNL A   1      46.787  26.924  35.109  1.00  0.00     0.198 A 
ATOM     87  F   UNL A   1      45.996  28.787  33.908  1.00  0.00    -0.203 F 
ATOM     88  F   UNL A   1      45.056  23.970  36.297  1.00  0.00    -0.200 F 
ATOM     89  C   UNL A   1      46.556  25.700  35.717  1.00  0.00     0.200 A 
ATOM     90  F   UNL A   1      48.016  27.459  35.125  1.00  0.00    -0.200 F 
ATOM     91  F   UNL A   1      47.556  25.060  36.338  1.00  0.00    -0.200 F 
ENDBRANCH  58  81
ENDBRANCH  32  33
ENDBRANCH  25  27
ENDBRANCH  24  25
ENDBRANCH  23  24
ENDBRANCH  22  23
ENDBRANCH  21  22
ENDBRANCH   1  21
TORSDOF 17
ENDMDL
MODEL 3
REMARK VINA RESULT:     -11.2      4.029      9.245
REMARK SMILES C[C@@H](C(=O)OCCOCCOC(=O)c1ccc(-c2c3nc(c(-c4c(F)c(F)c(F)c(F)c4F)c4ccc([nH]4)c(-c4c(F)c(F)c(F)c(F)c4F)c4nc(c(-c5c(F)c(F)c(F)c(F)c5F)c5ccc2[nH]5)C=C4)C=C3)cc1)c1ccc(Cc2cccs2)cc1F
REMARK SMILES IDX 7 1 6 2 5 3 3 4 4 5 2 6 1 7 77 8 78 9 88 10 79 11 87 12
REMARK SMILES IDX 89 13 80 14 81 15 82 16 83 17 86 18 84 19 85 20 8 21 9 22
REMARK SMILES IDX 10 23 11 24 12 25 13 26 14 27 15 28 76 29 16 30 75 31 17 32
REMARK SMILES IDX 18 33 19 34 69 35 20 36 74 37 68 38 70 39 21 40 73 41 67 42
REMARK SMILES IDX 66 43 22 45 54 46 34 47 53 48 35 49 38 50 52 51 71 52 36 53
REMARK SMILES IDX 37 54 51 56 72 57 39 58 23 59 24 60 32 61 25 62 26 63 30 64
REMARK SMILES IDX 33 65 27 66 28 67 31 68 29 69 55 70 56 71 64 72 57 73 58 74
REMARK SMILES IDX 62 75 65 76 59 77 60 78 63 79 61 80 40 81 41 82 49 83 42 84
REMARK SMILES IDX 43 85 47 86 50 87 44 88 45 89 48 90 46 91
REMARK H PARENT 70 44 38 55
REMARK Flexibility Score: inf
ROOT
ATOM      1  C   UNL A   1      35.237  33.434  28.006  1.00  0.00     0.202 C 
ENDROOT
BRANCH   1   2
ATOM      2  C   UNL A   1      34.771  32.052  28.471  1.00  0.00     0.261 C 
BRANCH   2   3
ATOM      3  O   UNL A   1      33.693  31.541  27.672  1.00  0.00    -0.463 OA
BRANCH   3   4
ATOM      4  C   UNL A   1      33.873  30.274  27.197  1.00  0.00     0.313 C 
ATOM      5  O   UNL A   1      34.698  29.497  27.662  1.00  0.00    -0.252 OA
BRANCH   4   6
ATOM      6  C   UNL A   1      32.935  29.931  26.023  1.00  0.00     0.129 C 
ATOM      7  C   UNL A   1      31.614  30.720  26.082  1.00  0.00     0.025 C 
BRANCH   6   8
ATOM      8  C   UNL A   1      32.762  28.421  25.833  1.00  0.00     0.002 A 
ATOM      9  C   UNL A   1      31.835  27.649  26.552  1.00  0.00     0.008 A 
ATOM     10  C   UNL A   1      33.517  27.749  24.860  1.00  0.00     0.127 A 
ATOM     11  C   UNL A   1      31.699  26.270  26.319  1.00  0.00     0.004 A 
ATOM     12  C   UNL A   1      33.421  26.371  24.658  1.00  0.00     0.043 A 
ATOM     13  F   UNL A   1      34.327  28.434  24.042  1.00  0.00    -0.207 F 
ATOM     14  C   UNL A   1      32.505  25.606  25.385  1.00  0.00    -0.040 A 
BRANCH  14  15
ATOM     15  C   UNL A   1      32.328  24.136  25.065  1.00  0.00     0.082 C 
BRANCH  15  16
ATOM     16  C   UNL A   1      33.195  23.188  25.851  1.00  0.00     0.009 A 
ATOM     17  C   UNL A   1      33.112  22.843  27.187  1.00  0.00     0.016 A 
ATOM     18  S   UNL A   1      34.427  22.294  25.058  1.00  0.00    -0.149 S 
ATOM     19  C   UNL A   1      34.054  21.841  27.556  1.00  0.00     0.012 A 
ATOM     20  C   UNL A   1      34.819  21.438  26.486  1.00  0.00     0.065 A 
ENDBRANCH  15  16
ENDBRANCH  14  15
ENDBRANCH   6   8
ENDBRANCH   4   6
ENDBRANCH   3   4
ENDBRANCH   2   3
ENDBRANCH   1   2
BRANCH   1  21
ATOM     21  O   UNL A   1      34.231  34.418  27.784  1.00  0.00    -0.374 OA
BRANCH  21  22
ATOM     22  C   UNL A   1      34.233  35.578  28.617  1.00  0.00     0.202 C 
BRANCH  22  23
ATOM     23  C   UNL A   1      32.911  35.937  29.308  1.00  0.00     0.261 C 
BRANCH  23  24
ATOM     24  O   UNL A   1      32.609  35.043  30.399  1.00  0.00    -0.460 OA
BRANCH  24  25
ATOM     25  C   UNL A   1      32.779  35.573  31.632  1.00  0.00     0.338 C 
ATOM     26  O   UNL A   1      32.039  36.361  32.213  1.00  0.00    -0.246 OA
BRANCH  25  27
ATOM     27  C   UNL A   1      33.917  34.934  32.314  1.00  0.00     0.060 A 
ATOM     28  C   UNL A   1      35.163  35.570  32.236  1.00  0.00     0.016 A 
ATOM     29  C   UNL A   1      33.794  33.689  32.933  1.00  0.00     0.016 A 
ATOM     30  C   UNL A   1      36.302  34.941  32.733  1.00  0.00     0.010 A 
ATOM     31  C   UNL A   1      34.942  33.052  33.421  1.00  0.00     0.010 A 
ATOM     32  C   UNL A   1      36.205  33.659  33.289  1.00  0.00    -0.014 A 
BRANCH  32  33
ATOM     33  C   UNL A   1      37.445  32.898  33.579  1.00  0.00     0.031 A 
ATOM     34  C   UNL A   1      38.186  33.174  34.858  1.00  0.00     0.074 A 
ATOM     35  C   UNL A   1      37.884  31.947  32.737  1.00  0.00     0.049 A 
ATOM     36  N   UNL A   1      39.293  32.643  35.310  1.00  0.00    -0.248 NA
ATOM     37  C   UNL A   1      37.595  34.186  35.751  1.00  0.00     0.031 C 
ATOM     38  C   UNL A   1      37.233  31.559  31.489  1.00  0.00     0.029 A 
ATOM     39  N   UNL A   1      38.989  31.136  32.810  1.00  0.00    -0.354 N 
ATOM     40  C   UNL A   1      39.531  33.253  36.535  1.00  0.00     0.074 A 
ATOM     41  C   UNL A   1      38.472  34.217  36.743  1.00  0.00     0.031 C 
ATOM     42  C   UNL A   1      37.958  30.592  30.903  1.00  0.00     0.029 A 
ATOM     43  C   UNL A   1      39.136  30.311  31.723  1.00  0.00     0.049 A 
ATOM     44  H   UNL A   1      39.616  31.144  33.569  1.00  0.00     0.167 HD
ATOM     45  C   UNL A   1      40.536  33.022  37.413  1.00  0.00     0.037 A 
ATOM     46  C   UNL A   1      40.122  29.444  31.417  1.00  0.00     0.037 A 
ATOM     47  C   UNL A   1      41.592  32.066  37.206  1.00  0.00     0.049 A 
ATOM     48  C   UNL A   1      41.267  29.254  32.377  1.00  0.00     0.074 A 
ATOM     49  C   UNL A   1      42.651  31.754  38.041  1.00  0.00     0.029 A 
ATOM     50  N   UNL A   1      41.724  31.271  36.077  1.00  0.00    -0.354 N 
ATOM     51  N   UNL A   1      41.474  29.820  33.542  1.00  0.00    -0.248 NA
ATOM     52  C   UNL A   1      42.314  28.301  31.981  1.00  0.00     0.031 C 
ATOM     53  C   UNL A   1      43.449  30.801  37.398  1.00  0.00     0.029 A 
ATOM     54  C   UNL A   1      42.860  30.485  36.183  1.00  0.00     0.049 A 
ATOM     55  H   UNL A   1      41.103  31.266  35.314  1.00  0.00     0.167 HD
ATOM     56  C   UNL A   1      42.655  29.276  34.029  1.00  0.00     0.074 A 
ATOM     57  C   UNL A   1      43.116  28.324  33.038  1.00  0.00     0.031 C 
ATOM     58  C   UNL A   1      43.302  29.539  35.191  1.00  0.00     0.037 A 
BRANCH  45  59
ATOM     59  C   UNL A   1      40.554  33.837  38.672  1.00  0.00     0.064 A 
ATOM     60  C   UNL A   1      39.809  33.462  39.800  1.00  0.00     0.173 A 
ATOM     61  C   UNL A   1      41.345  34.992  38.760  1.00  0.00     0.173 A 
ATOM     62  F   UNL A   1      39.025  32.374  39.761  1.00  0.00    -0.203 F 
ATOM     63  C   UNL A   1      39.838  34.227  40.964  1.00  0.00     0.198 A 
ATOM     64  C   UNL A   1      41.392  35.740  39.934  1.00  0.00     0.198 A 
ATOM     65  F   UNL A   1      42.078  35.392  37.711  1.00  0.00    -0.203 F 
ATOM     66  F   UNL A   1      39.085  33.875  42.015  1.00  0.00    -0.200 F 
ATOM     67  C   UNL A   1      40.633  35.361  41.032  1.00  0.00     0.200 A 
ATOM     68  F   UNL A   1      42.168  36.830  40.001  1.00  0.00    -0.200 F 
ATOM     69  F   UNL A   1      40.664  36.094  42.153  1.00  0.00    -0.200 F 
ENDBRANCH  45  59
BRANCH  46  70
ATOM     70  C   UNL A   1      40.077  28.697  30.134  1.00  0.00     0.064 A 
ATOM     71  C   UNL A   1      39.459  27.442  30.047  1.00  0.00     0.173 A 
ATOM     72  C   UNL A   1      40.663  29.219  28.972  1.00  0.00     0.173 A 
ATOM     73  F   UNL A   1      38.909  26.889  31.138  1.00  0.00    -0.203 F 
ATOM     74  C   UNL A   1      39.443  26.730  28.849  1.00  0.00     0.198 A 
ATOM     75  C   UNL A   1      40.623  28.519  27.769  1.00  0.00     0.198 A 
ATOM     76  F   UNL A   1      41.269  30.415  29.005  1.00  0.00    -0.203 F 
ATOM     77  F   UNL A   1      38.885  25.513  28.802  1.00  0.00    -0.200 F 
ATOM     78  C   UNL A   1      40.020  27.272  27.710  1.00  0.00     0.200 A 
ATOM     79  F   UNL A   1      41.173  29.051  26.668  1.00  0.00    -0.200 F 
ATOM     80  F   UNL A   1      40.001  26.589  26.557  1.00  0.00    -0.200 F 
ENDBRANCH  46  70
BRANCH  58  81
ATOM     81  C   UNL A   1      44.559  28.769  35.471  1.00  0.00     0.064 A 
ATOM     82  C   UNL A   1      45.822  29.272  35.126  1.00  0.00     0.173 A 
ATOM     83  C   UNL A   1      44.502  27.535  36.136  1.00  0.00     0.173 A 
ATOM     84  F   UNL A   1      45.928  30.441  34.476  1.00  0.00    -0.203 F 
ATOM     85  C   UNL A   1      46.980  28.556  35.414  1.00  0.00     0.198 A 
ATOM     86  C   UNL A   1      45.665  26.834  36.447  1.00  0.00     0.198 A 
ATOM     87  F   UNL A   1      43.319  27.013  36.495  1.00  0.00    -0.203 F 
ATOM     88  F   UNL A   1      48.174  29.035  35.037  1.00  0.00    -0.200 F 
ATOM     89  C   UNL A   1      46.902  27.341  36.080  1.00  0.00     0.200 A 
ATOM     90  F   UNL A   1      45.587  25.667  37.102  1.00  0.00    -0.200 F 
ATOM     91  F   UNL A   1      48.018  26.658  36.364  1.00  0.00    -0.200 F 
ENDBRANCH  58  81
ENDBRANCH  32  33
ENDBRANCH  25  27
ENDBRANCH  24  25
ENDBRANCH  23  24
ENDBRANCH  22  23
ENDBRANCH  21  22
ENDBRANCH   1  21
TORSDOF 17
ENDMDL
