MODEL 1
REMARK VINA RESULT:     -12.6      0.000      0.000
REMARK SMILES C[C@H](C(=O)OCCOCCOC(=O)c1ccc(-c2c3nc(c(-c4c(F)c(F)c(F)c(F)c4F)c4ccc([nH]4)c(-c4c(F)c(F)c(F)c(F)c4F)c4nc(c(-c5c(F)c(F)c(F)c(F)c5F)c5ccc2[nH]5)C=C4)C=C3)cc1)c1ccc2c3cc(Cl)ccc3n(C(=O)c3cocn3)c2c1
REMARK SMILES IDX 7 1 6 2 5 3 3 4 4 5 2 6 1 7 77 8 78 9 97 10 79 11 96 12
REMARK SMILES IDX 80 13 88 14 81 15 87 16 82 17 86 18 83 19 85 20 84 21 89 22
REMARK SMILES IDX 90 23 91 24 92 25 95 26 93 27 94 28 8 29 9 30 10 31 11 32
REMARK SMILES IDX 12 33 13 34 14 35 15 36 76 37 16 38 75 39 17 40 18 41 19 42
REMARK SMILES IDX 69 43 20 44 74 45 68 46 70 47 21 48 73 49 67 50 66 51 22 53
REMARK SMILES IDX 54 54 34 55 53 56 35 57 38 58 52 59 71 60 36 61 37 62 51 64
REMARK SMILES IDX 72 65 39 66 23 67 24 68 32 69 25 70 26 71 30 72 33 73 27 74
REMARK SMILES IDX 28 75 31 76 29 77 55 78 56 79 64 80 57 81 58 82 62 83 65 84
REMARK SMILES IDX 59 85 60 86 63 87 61 88 40 89 41 90 49 91 42 92 43 93 47 94
REMARK SMILES IDX 50 95 44 96 45 97 48 98 46 99
REMARK H PARENT 70 52 38 63
REMARK Flexibility Score: inf
ROOT
ATOM      1  C   UNL A   1      29.847  29.061  23.272  1.00  0.00     0.202 C 
ENDROOT
BRANCH   1   2
ATOM      2  C   UNL A   1      30.952  28.145  22.743  1.00  0.00     0.261 C 
BRANCH   2   3
ATOM      3  O   UNL A   1      30.542  26.770  22.861  1.00  0.00    -0.463 OA
BRANCH   3   4
ATOM      4  C   UNL A   1      29.728  26.466  23.905  1.00  0.00     0.313 C 
ATOM      5  O   UNL A   1      28.515  26.309  23.808  1.00  0.00    -0.252 OA
BRANCH   4   6
ATOM      6  C   UNL A   1      30.477  26.216  25.212  1.00  0.00     0.126 C 
ATOM      7  C   UNL A   1      29.550  25.405  26.135  1.00  0.00     0.025 C 
BRANCH   6   8
ATOM      8  C   UNL A   1      31.914  25.685  25.148  1.00  0.00    -0.032 A 
ATOM      9  C   UNL A   1      33.000  26.424  25.627  1.00  0.00     0.005 A 
ATOM     10  C   UNL A   1      32.151  24.359  24.728  1.00  0.00     0.032 A 
ATOM     11  C   UNL A   1      34.282  25.867  25.722  1.00  0.00     0.011 A 
ATOM     12  C   UNL A   1      33.446  23.804  24.801  1.00  0.00     0.058 A 
ATOM     13  C   UNL A   1      34.497  24.526  25.347  1.00  0.00     0.008 A 
ATOM     14  N   UNL A   1      33.920  22.531  24.443  1.00  0.00    -0.274 N 
ATOM     15  C   UNL A   1      35.618  23.657  25.425  1.00  0.00     0.009 A 
ATOM     16  C   UNL A   1      35.269  22.441  24.819  1.00  0.00     0.057 A 
ATOM     17  C   UNL A   1      36.913  23.830  25.957  1.00  0.00     0.031 A 
ATOM     18  C   UNL A   1      36.245  21.441  24.627  1.00  0.00     0.029 A 
ATOM     19  C   UNL A   1      37.850  22.811  25.829  1.00  0.00     0.041 A 
ATOM     20  C   UNL A   1      37.531  21.642  25.153  1.00  0.00     0.023 A 
ATOM     21  Cl  UNL A   1      39.424  23.020  26.492  1.00  0.00    -0.084 Cl
BRANCH  14  22
ATOM     22  C   UNL A   1      33.121  21.563  23.772  1.00  0.00     0.284 C 
ATOM     23  O   UNL A   1      32.582  21.955  22.736  1.00  0.00    -0.266 OA
BRANCH  22  24
ATOM     24  C   UNL A   1      32.861  20.202  24.237  1.00  0.00     0.167 A 
ATOM     25  C   UNL A   1      32.658  19.733  25.517  1.00  0.00     0.231 A 
ATOM     26  N   UNL A   1      32.627  19.157  23.350  1.00  0.00    -0.211 NA
ATOM     27  O   UNL A   1      32.314  18.414  25.447  1.00  0.00    -0.451 OA
ATOM     28  C   UNL A   1      32.300  18.145  24.115  1.00  0.00     0.308 A 
ENDBRANCH  22  24
ENDBRANCH  14  22
ENDBRANCH   6   8
ENDBRANCH   4   6
ENDBRANCH   3   4
ENDBRANCH   2   3
ENDBRANCH   1   2
BRANCH   1  29
ATOM     29  O   UNL A   1      30.262  30.055  24.213  1.00  0.00    -0.374 OA
BRANCH  29  30
ATOM     30  C   UNL A   1      31.418  29.763  24.994  1.00  0.00     0.202 C 
BRANCH  30  31
ATOM     31  C   UNL A   1      31.750  30.739  26.128  1.00  0.00     0.261 C 
BRANCH  31  32
ATOM     32  O   UNL A   1      33.015  30.461  26.748  1.00  0.00    -0.460 OA
BRANCH  32  33
ATOM     33  C   UNL A   1      33.597  31.532  27.329  1.00  0.00     0.338 C 
ATOM     34  O   UNL A   1      33.090  32.626  27.554  1.00  0.00    -0.246 OA
BRANCH  33  35
ATOM     35  C   UNL A   1      34.937  31.179  27.820  1.00  0.00     0.060 A 
ATOM     36  C   UNL A   1      35.159  29.846  28.189  1.00  0.00     0.016 A 
ATOM     37  C   UNL A   1      35.929  32.145  28.003  1.00  0.00     0.016 A 
ATOM     38  C   UNL A   1      36.356  29.484  28.797  1.00  0.00     0.010 A 
ATOM     39  C   UNL A   1      37.129  31.780  28.620  1.00  0.00     0.010 A 
ATOM     40  C   UNL A   1      37.331  30.457  29.054  1.00  0.00    -0.014 A 
BRANCH  40  41
ATOM     41  C   UNL A   1      38.495  30.114  29.906  1.00  0.00     0.031 A 
ATOM     42  C   UNL A   1      39.549  29.189  29.366  1.00  0.00     0.074 A 
ATOM     43  C   UNL A   1      38.624  30.651  31.132  1.00  0.00     0.049 A 
ATOM     44  N   UNL A   1      40.630  28.731  29.944  1.00  0.00    -0.248 NA
ATOM     45  C   UNL A   1      39.357  28.714  27.987  1.00  0.00     0.031 C 
ATOM     46  C   UNL A   1      37.686  31.588  31.745  1.00  0.00     0.029 A 
ATOM     47  N   UNL A   1      39.598  30.475  32.082  1.00  0.00    -0.354 N 
ATOM     48  C   UNL A   1      41.243  27.913  29.004  1.00  0.00     0.074 A 
ATOM     49  C   UNL A   1      40.396  27.907  27.831  1.00  0.00     0.031 C 
ATOM     50  C   UNL A   1      38.123  31.899  32.976  1.00  0.00     0.029 A 
ATOM     51  C   UNL A   1      39.352  31.156  33.249  1.00  0.00     0.049 A 
ATOM     52  H   UNL A   1      40.395  29.915  31.941  1.00  0.00     0.167 HD
ATOM     53  C   UNL A   1      42.412  27.238  29.108  1.00  0.00     0.037 A 
ATOM     54  C   UNL A   1      40.032  31.156  34.412  1.00  0.00     0.037 A 
ATOM     55  C   UNL A   1      43.248  27.246  30.280  1.00  0.00     0.049 A 
ATOM     56  C   UNL A   1      41.293  30.340  34.527  1.00  0.00     0.074 A 
ATOM     57  C   UNL A   1      44.459  26.608  30.483  1.00  0.00     0.029 A 
ATOM     58  N   UNL A   1      42.953  27.924  31.454  1.00  0.00    -0.354 N 
ATOM     59  N   UNL A   1      41.880  29.589  33.628  1.00  0.00    -0.248 NA
ATOM     60  C   UNL A   1      41.989  30.378  35.821  1.00  0.00     0.031 C 
ATOM     61  C   UNL A   1      44.868  26.854  31.798  1.00  0.00     0.029 A 
ATOM     62  C   UNL A   1      43.946  27.697  32.395  1.00  0.00     0.049 A 
ATOM     63  H   UNL A   1      42.157  28.485  31.598  1.00  0.00     0.167 HD
ATOM     64  C   UNL A   1      43.025  29.088  34.233  1.00  0.00     0.074 A 
ATOM     65  C   UNL A   1      43.059  29.634  35.574  1.00  0.00     0.031 C 
ATOM     66  C   UNL A   1      43.966  28.253  33.725  1.00  0.00     0.037 A 
BRANCH  53  67
ATOM     67  C   UNL A   1      42.843  26.411  27.931  1.00  0.00     0.064 A 
ATOM     68  C   UNL A   1      42.468  25.065  27.795  1.00  0.00     0.173 A 
ATOM     69  C   UNL A   1      43.618  26.979  26.908  1.00  0.00     0.173 A 
ATOM     70  F   UNL A   1      41.737  24.468  28.750  1.00  0.00    -0.203 F 
ATOM     71  C   UNL A   1      42.877  24.312  26.697  1.00  0.00     0.198 A 
ATOM     72  C   UNL A   1      44.000  26.233  25.796  1.00  0.00     0.198 A 
ATOM     73  F   UNL A   1      44.002  28.263  26.984  1.00  0.00    -0.203 F 
ATOM     74  F   UNL A   1      42.549  23.016  26.615  1.00  0.00    -0.200 F 
ATOM     75  C   UNL A   1      43.636  24.899  25.695  1.00  0.00     0.200 A 
ATOM     76  F   UNL A   1      44.720  26.805  24.822  1.00  0.00    -0.200 F 
ATOM     77  F   UNL A   1      44.023  24.176  24.635  1.00  0.00    -0.200 F 
ENDBRANCH  53  67
BRANCH  54  78
ATOM     78  C   UNL A   1      39.524  31.946  35.564  1.00  0.00     0.064 A 
ATOM     79  C   UNL A   1      38.568  31.418  36.442  1.00  0.00     0.173 A 
ATOM     80  C   UNL A   1      39.980  33.251  35.804  1.00  0.00     0.173 A 
ATOM     81  F   UNL A   1      38.085  30.183  36.241  1.00  0.00    -0.203 F 
ATOM     82  C   UNL A   1      38.073  32.170  37.506  1.00  0.00     0.198 A 
ATOM     83  C   UNL A   1      39.507  33.992  36.886  1.00  0.00     0.198 A 
ATOM     84  F   UNL A   1      40.895  33.803  34.995  1.00  0.00    -0.203 F 
ATOM     85  F   UNL A   1      37.126  31.659  38.302  1.00  0.00    -0.200 F 
ATOM     86  C   UNL A   1      38.548  33.454  37.731  1.00  0.00     0.200 A 
ATOM     87  F   UNL A   1      39.980  35.225  37.108  1.00  0.00    -0.200 F 
ATOM     88  F   UNL A   1      38.077  34.175  38.757  1.00  0.00    -0.200 F 
ENDBRANCH  54  78
BRANCH  66  89
ATOM     89  C   UNL A   1      45.132  27.908  34.607  1.00  0.00     0.064 A 
ATOM     90  C   UNL A   1      45.125  26.774  35.434  1.00  0.00     0.173 A 
ATOM     91  C   UNL A   1      46.290  28.702  34.594  1.00  0.00     0.173 A 
ATOM     92  F   UNL A   1      44.038  25.990  35.493  1.00  0.00    -0.203 F 
ATOM     93  C   UNL A   1      46.221  26.465  36.234  1.00  0.00     0.198 A 
ATOM     94  C   UNL A   1      47.396  28.371  35.371  1.00  0.00     0.198 A 
ATOM     95  F   UNL A   1      46.353  29.794  33.816  1.00  0.00    -0.203 F 
ATOM     96  F   UNL A   1      46.172  25.406  37.054  1.00  0.00    -0.200 F 
ATOM     97  C   UNL A   1      47.359  27.258  36.196  1.00  0.00     0.200 A 
ATOM     98  F   UNL A   1      48.500  29.130  35.320  1.00  0.00    -0.200 F 
ATOM     99  F   UNL A   1      48.415  26.953  36.961  1.00  0.00    -0.200 F 
ENDBRANCH  66  89
ENDBRANCH  40  41
ENDBRANCH  33  35
ENDBRANCH  32  33
ENDBRANCH  31  32
ENDBRANCH  30  31
ENDBRANCH  29  30
ENDBRANCH   1  29
TORSDOF 17
ENDMDL
MODEL 2
REMARK VINA RESULT:     -12.2      4.438      8.061
REMARK SMILES C[C@H](C(=O)OCCOCCOC(=O)c1ccc(-c2c3nc(c(-c4c(F)c(F)c(F)c(F)c4F)c4ccc([nH]4)c(-c4c(F)c(F)c(F)c(F)c4F)c4nc(c(-c5c(F)c(F)c(F)c(F)c5F)c5ccc2[nH]5)C=C4)C=C3)cc1)c1ccc2c3cc(Cl)ccc3n(C(=O)c3cocn3)c2c1
REMARK SMILES IDX 7 1 6 2 5 3 3 4 4 5 2 6 1 7 77 8 78 9 97 10 79 11 96 12
REMARK SMILES IDX 80 13 88 14 81 15 87 16 82 17 86 18 83 19 85 20 84 21 89 22
REMARK SMILES IDX 90 23 91 24 92 25 95 26 93 27 94 28 8 29 9 30 10 31 11 32
REMARK SMILES IDX 12 33 13 34 14 35 15 36 76 37 16 38 75 39 17 40 18 41 19 42
REMARK SMILES IDX 69 43 20 44 74 45 68 46 70 47 21 48 73 49 67 50 66 51 22 53
REMARK SMILES IDX 54 54 34 55 53 56 35 57 38 58 52 59 71 60 36 61 37 62 51 64
REMARK SMILES IDX 72 65 39 66 23 67 24 68 32 69 25 70 26 71 30 72 33 73 27 74
REMARK SMILES IDX 28 75 31 76 29 77 55 78 56 79 64 80 57 81 58 82 62 83 65 84
REMARK SMILES IDX 59 85 60 86 63 87 61 88 40 89 41 90 49 91 42 92 43 93 47 94
REMARK SMILES IDX 50 95 44 96 45 97 48 98 46 99
REMARK H PARENT 70 52 38 63
REMARK Flexibility Score: inf
ROOT
ATOM      1  C   UNL A   1      36.736  22.005  25.525  1.00  0.00     0.202 C 
ENDROOT
BRANCH   1   2
ATOM      2  C   UNL A   1      35.380  22.379  24.922  1.00  0.00     0.261 C 
BRANCH   2   3
ATOM      3  O   UNL A   1      34.321  21.869  25.755  1.00  0.00    -0.463 OA
BRANCH   3   4
ATOM      4  C   UNL A   1      33.085  21.804  25.195  1.00  0.00     0.313 C 
ATOM      5  O   UNL A   1      32.764  20.996  24.330  1.00  0.00    -0.252 OA
BRANCH   4   6
ATOM      6  C   UNL A   1      32.077  22.761  25.827  1.00  0.00     0.126 C 
ATOM      7  C   UNL A   1      32.455  22.928  27.310  1.00  0.00     0.025 C 
BRANCH   6   8
ATOM      8  C   UNL A   1      31.764  24.081  25.111  1.00  0.00    -0.032 A 
ATOM      9  C   UNL A   1      31.287  24.117  23.798  1.00  0.00     0.005 A 
ATOM     10  C   UNL A   1      31.819  25.295  25.828  1.00  0.00     0.032 A 
ATOM     11  C   UNL A   1      30.843  25.310  23.211  1.00  0.00     0.011 A 
ATOM     12  C   UNL A   1      31.394  26.501  25.231  1.00  0.00     0.058 A 
ATOM     13  C   UNL A   1      30.855  26.507  23.953  1.00  0.00     0.008 A 
ATOM     14  N   UNL A   1      31.360  27.812  25.735  1.00  0.00    -0.274 N 
ATOM     15  C   UNL A   1      30.384  27.822  23.696  1.00  0.00     0.009 A 
ATOM     16  C   UNL A   1      30.743  28.635  24.780  1.00  0.00     0.057 A 
ATOM     17  C   UNL A   1      29.687  28.379  22.601  1.00  0.00     0.031 A 
ATOM     18  C   UNL A   1      30.526  30.027  24.724  1.00  0.00     0.029 A 
ATOM     19  C   UNL A   1      29.411  29.742  22.586  1.00  0.00     0.041 A 
ATOM     20  C   UNL A   1      29.844  30.560  23.619  1.00  0.00     0.023 A 
ATOM     21  Cl  UNL A   1      28.549  30.415  21.257  1.00  0.00    -0.084 Cl
BRANCH  14  22
ATOM     22  C   UNL A   1      31.919  28.177  26.991  1.00  0.00     0.284 C 
ATOM     23  O   UNL A   1      31.304  27.772  27.978  1.00  0.00    -0.266 OA
BRANCH  22  24
ATOM     24  C   UNL A   1      33.101  29.016  27.187  1.00  0.00     0.167 A 
ATOM     25  C   UNL A   1      34.437  28.682  27.130  1.00  0.00     0.231 A 
ATOM     26  N   UNL A   1      33.004  30.396  27.323  1.00  0.00    -0.211 NA
ATOM     27  O   UNL A   1      35.175  29.824  27.240  1.00  0.00    -0.451 OA
ATOM     28  C   UNL A   1      34.247  30.812  27.335  1.00  0.00     0.308 A 
ENDBRANCH  22  24
ENDBRANCH  14  22
ENDBRANCH   6   8
ENDBRANCH   4   6
ENDBRANCH   3   4
ENDBRANCH   2   3
ENDBRANCH   1   2
BRANCH   1  29
ATOM     29  O   UNL A   1      37.655  21.367  24.634  1.00  0.00    -0.374 OA
BRANCH  29  30
ATOM     30  C   UNL A   1      37.839  19.962  24.791  1.00  0.00     0.202 C 
BRANCH  30  31
ATOM     31  C   UNL A   1      39.156  19.504  25.427  1.00  0.00     0.261 C 
BRANCH  31  32
ATOM     32  O   UNL A   1      39.461  20.208  26.641  1.00  0.00    -0.460 OA
BRANCH  32  33
ATOM     33  C   UNL A   1      40.777  20.448  26.829  1.00  0.00     0.338 C 
ATOM     34  O   UNL A   1      41.716  19.709  26.557  1.00  0.00    -0.246 OA
BRANCH  33  35
ATOM     35  C   UNL A   1      40.980  21.829  27.290  1.00  0.00     0.060 A 
ATOM     36  C   UNL A   1      40.323  22.848  26.588  1.00  0.00     0.016 A 
ATOM     37  C   UNL A   1      41.866  22.133  28.326  1.00  0.00     0.016 A 
ATOM     38  C   UNL A   1      40.592  24.180  26.883  1.00  0.00     0.010 A 
ATOM     39  C   UNL A   1      42.140  23.473  28.617  1.00  0.00     0.010 A 
ATOM     40  C   UNL A   1      41.534  24.500  27.871  1.00  0.00    -0.014 A 
BRANCH  40  41
ATOM     41  C   UNL A   1      41.987  25.904  28.017  1.00  0.00     0.031 A 
ATOM     42  C   UNL A   1      43.323  26.304  27.456  1.00  0.00     0.074 A 
ATOM     43  C   UNL A   1      41.199  26.816  28.613  1.00  0.00     0.049 A 
ATOM     44  N   UNL A   1      43.929  27.463  27.498  1.00  0.00    -0.248 NA
ATOM     45  C   UNL A   1      44.078  25.254  26.756  1.00  0.00     0.031 C 
ATOM     46  C   UNL A   1      39.870  26.552  29.160  1.00  0.00     0.029 A 
ATOM     47  N   UNL A   1      41.410  28.148  28.862  1.00  0.00    -0.354 N 
ATOM     48  C   UNL A   1      45.136  27.280  26.835  1.00  0.00     0.074 A 
ATOM     49  C   UNL A   1      45.193  25.892  26.433  1.00  0.00     0.031 C 
ATOM     50  C   UNL A   1      39.386  27.686  29.692  1.00  0.00     0.029 A 
ATOM     51  C   UNL A   1      40.385  28.745  29.553  1.00  0.00     0.049 A 
ATOM     52  H   UNL A   1      42.218  28.630  28.573  1.00  0.00     0.167 HD
ATOM     53  C   UNL A   1      46.102  28.193  26.575  1.00  0.00     0.037 A 
ATOM     54  C   UNL A   1      40.280  29.997  30.039  1.00  0.00     0.037 A 
ATOM     55  C   UNL A   1      46.039  29.574  26.980  1.00  0.00     0.049 A 
ATOM     56  C   UNL A   1      41.400  30.976  29.799  1.00  0.00     0.074 A 
ATOM     57  C   UNL A   1      46.958  30.584  26.755  1.00  0.00     0.029 A 
ATOM     58  N   UNL A   1      44.997  30.136  27.704  1.00  0.00    -0.354 N 
ATOM     59  N   UNL A   1      42.526  30.804  29.150  1.00  0.00    -0.248 NA
ATOM     60  C   UNL A   1      41.229  32.325  30.355  1.00  0.00     0.031 C 
ATOM     61  C   UNL A   1      46.499  31.742  27.391  1.00  0.00     0.029 A 
ATOM     62  C   UNL A   1      45.264  31.472  27.958  1.00  0.00     0.049 A 
ATOM     63  H   UNL A   1      44.188  29.657  27.994  1.00  0.00     0.167 HD
ATOM     64  C   UNL A   1      43.185  32.026  29.195  1.00  0.00     0.074 A 
ATOM     65  C   UNL A   1      42.324  32.936  29.922  1.00  0.00     0.031 C 
ATOM     66  C   UNL A   1      44.393  32.365  28.680  1.00  0.00     0.037 A 
BRANCH  53  67
ATOM     67  C   UNL A   1      47.324  27.721  25.840  1.00  0.00     0.064 A 
ATOM     68  C   UNL A   1      48.447  27.219  26.517  1.00  0.00     0.173 A 
ATOM     69  C   UNL A   1      47.362  27.743  24.437  1.00  0.00     0.173 A 
ATOM     70  F   UNL A   1      48.467  27.186  27.858  1.00  0.00    -0.203 F 
ATOM     71  C   UNL A   1      49.572  26.787  25.819  1.00  0.00     0.198 A 
ATOM     72  C   UNL A   1      48.476  27.280  23.741  1.00  0.00     0.198 A 
ATOM     73  F   UNL A   1      46.315  28.209  23.739  1.00  0.00    -0.203 F 
ATOM     74  F   UNL A   1      50.650  26.359  26.489  1.00  0.00    -0.200 F 
ATOM     75  C   UNL A   1      49.582  26.810  24.433  1.00  0.00     0.200 A 
ATOM     76  F   UNL A   1      48.479  27.291  22.402  1.00  0.00    -0.200 F 
ATOM     77  F   UNL A   1      50.662  26.387  23.762  1.00  0.00    -0.200 F 
ENDBRANCH  53  67
BRANCH  54  78
ATOM     78  C   UNL A   1      39.073  30.390  30.812  1.00  0.00     0.064 A 
ATOM     79  C   UNL A   1      37.944  30.922  30.175  1.00  0.00     0.173 A 
ATOM     80  C   UNL A   1      39.029  30.250  32.208  1.00  0.00     0.173 A 
ATOM     81  F   UNL A   1      37.946  31.097  28.846  1.00  0.00    -0.203 F 
ATOM     82  C   UNL A   1      36.823  31.314  30.905  1.00  0.00     0.198 A 
ATOM     83  C   UNL A   1      37.897  30.615  32.934  1.00  0.00     0.198 A 
ATOM     84  F   UNL A   1      40.082  29.746  32.866  1.00  0.00    -0.203 F 
ATOM     85  F   UNL A   1      35.775  31.863  30.276  1.00  0.00    -0.200 F 
ATOM     86  C   UNL A   1      36.798  31.154  32.282  1.00  0.00     0.200 A 
ATOM     87  F   UNL A   1      37.872  30.444  34.262  1.00  0.00    -0.200 F 
ATOM     88  F   UNL A   1      35.719  31.527  32.983  1.00  0.00    -0.200 F 
ENDBRANCH  54  78
BRANCH  66  89
ATOM     89  C   UNL A   1      44.839  33.790  28.848  1.00  0.00     0.064 A 
ATOM     90  C   UNL A   1      44.497  34.787  27.922  1.00  0.00     0.173 A 
ATOM     91  C   UNL A   1      45.586  34.170  29.976  1.00  0.00     0.173 A 
ATOM     92  F   UNL A   1      43.797  34.474  26.822  1.00  0.00    -0.203 F 
ATOM     93  C   UNL A   1      44.910  36.105  28.104  1.00  0.00     0.198 A 
ATOM     94  C   UNL A   1      45.968  35.494  30.170  1.00  0.00     0.198 A 
ATOM     95  F   UNL A   1      45.933  33.258  30.896  1.00  0.00    -0.203 F 
ATOM     96  F   UNL A   1      44.616  37.030  27.180  1.00  0.00    -0.200 F 
ATOM     97  C   UNL A   1      45.637  36.459  29.231  1.00  0.00     0.200 A 
ATOM     98  F   UNL A   1      46.656  35.837  31.268  1.00  0.00    -0.200 F 
ATOM     99  F   UNL A   1      46.026  37.728  29.408  1.00  0.00    -0.200 F 
ENDBRANCH  66  89
ENDBRANCH  40  41
ENDBRANCH  33  35
ENDBRANCH  32  33
ENDBRANCH  31  32
ENDBRANCH  30  31
ENDBRANCH  29  30
ENDBRANCH   1  29
TORSDOF 17
ENDMDL
MODEL 3
REMARK VINA RESULT:     -12.1      0.740      2.055
REMARK SMILES C[C@H](C(=O)OCCOCCOC(=O)c1ccc(-c2c3nc(c(-c4c(F)c(F)c(F)c(F)c4F)c4ccc([nH]4)c(-c4c(F)c(F)c(F)c(F)c4F)c4nc(c(-c5c(F)c(F)c(F)c(F)c5F)c5ccc2[nH]5)C=C4)C=C3)cc1)c1ccc2c3cc(Cl)ccc3n(C(=O)c3cocn3)c2c1
REMARK SMILES IDX 7 1 6 2 5 3 3 4 4 5 2 6 1 7 77 8 78 9 97 10 79 11 96 12
REMARK SMILES IDX 80 13 88 14 81 15 87 16 82 17 86 18 83 19 85 20 84 21 89 22
REMARK SMILES IDX 90 23 91 24 92 25 95 26 93 27 94 28 8 29 9 30 10 31 11 32
REMARK SMILES IDX 12 33 13 34 14 35 15 36 76 37 16 38 75 39 17 40 18 41 19 42
REMARK SMILES IDX 69 43 20 44 74 45 68 46 70 47 21 48 73 49 67 50 66 51 22 53
REMARK SMILES IDX 54 54 34 55 53 56 35 57 38 58 52 59 71 60 36 61 37 62 51 64
REMARK SMILES IDX 72 65 39 66 23 67 24 68 32 69 25 70 26 71 30 72 33 73 27 74
REMARK SMILES IDX 28 75 31 76 29 77 55 78 56 79 64 80 57 81 58 82 62 83 65 84
REMARK SMILES IDX 59 85 60 86 63 87 61 88 40 89 41 90 49 91 42 92 43 93 47 94
REMARK SMILES IDX 50 95 44 96 45 97 48 98 46 99
REMARK H PARENT 70 52 38 63
REMARK Flexibility Score: inf
ROOT
ATOM      1  C   UNL A   1      30.154  29.067  23.293  1.00  0.00     0.202 C 
ENDROOT
BRANCH   1   2
ATOM      2  C   UNL A   1      30.865  27.738  23.560  1.00  0.00     0.261 C 
BRANCH   2   3
ATOM      3  O   UNL A   1      29.963  26.828  24.216  1.00  0.00    -0.463 OA
BRANCH   3   4
ATOM      4  C   UNL A   1      30.334  25.522  24.249  1.00  0.00     0.313 C 
ATOM      5  O   UNL A   1      30.124  24.724  23.340  1.00  0.00    -0.252 OA
BRANCH   4   6
ATOM      6  C   UNL A   1      31.153  25.150  25.483  1.00  0.00     0.126 C 
ATOM      7  C   UNL A   1      30.226  24.386  26.446  1.00  0.00     0.025 C 
BRANCH   6   8
ATOM      8  C   UNL A   1      32.526  24.497  25.288  1.00  0.00    -0.032 A 
ATOM      9  C   UNL A   1      33.717  25.188  25.529  1.00  0.00     0.005 A 
ATOM     10  C   UNL A   1      32.609  23.120  24.993  1.00  0.00     0.032 A 
ATOM     11  C   UNL A   1      34.959  24.538  25.514  1.00  0.00     0.011 A 
ATOM     12  C   UNL A   1      33.860  22.468  24.954  1.00  0.00     0.058 A 
ATOM     13  C   UNL A   1      35.026  23.152  25.268  1.00  0.00     0.008 A 
ATOM     14  N   UNL A   1      34.190  21.130  24.683  1.00  0.00    -0.274 N 
ATOM     15  C   UNL A   1      36.083  22.205  25.294  1.00  0.00     0.009 A 
ATOM     16  C   UNL A   1      35.569  20.966  24.883  1.00  0.00     0.057 A 
ATOM     17  C   UNL A   1      37.451  22.323  25.624  1.00  0.00     0.031 A 
ATOM     18  C   UNL A   1      36.437  19.874  24.676  1.00  0.00     0.029 A 
ATOM     19  C   UNL A   1      38.287  21.221  25.488  1.00  0.00     0.041 A 
ATOM     20  C   UNL A   1      37.795  20.019  24.999  1.00  0.00     0.023 A 
ATOM     21  Cl  UNL A   1      39.950  21.365  25.906  1.00  0.00    -0.084 Cl
BRANCH  14  22
ATOM     22  C   UNL A   1      33.239  20.169  24.240  1.00  0.00     0.284 C 
ATOM     23  O   UNL A   1      32.373  20.599  23.477  1.00  0.00    -0.266 OA
BRANCH  22  24
ATOM     24  C   UNL A   1      33.186  18.768  24.656  1.00  0.00     0.167 A 
ATOM     25  C   UNL A   1      32.586  18.198  25.758  1.00  0.00     0.231 A 
ATOM     26  N   UNL A   1      33.656  17.744  23.840  1.00  0.00    -0.211 NA
ATOM     27  O   UNL A   1      32.681  16.841  25.652  1.00  0.00    -0.451 OA
ATOM     28  C   UNL A   1      33.320  16.644  24.468  1.00  0.00     0.308 A 
ENDBRANCH  22  24
ENDBRANCH  14  22
ENDBRANCH   6   8
ENDBRANCH   4   6
ENDBRANCH   3   4
ENDBRANCH   2   3
ENDBRANCH   1   2
BRANCH   1  29
ATOM     29  O   UNL A   1      30.423  30.113  24.230  1.00  0.00    -0.374 OA
BRANCH  29  30
ATOM     30  C   UNL A   1      31.409  29.851  25.226  1.00  0.00     0.202 C 
BRANCH  30  31
ATOM     31  C   UNL A   1      31.576  30.905  26.327  1.00  0.00     0.261 C 
BRANCH  31  32
ATOM     32  O   UNL A   1      32.733  30.675  27.146  1.00  0.00    -0.460 OA
BRANCH  32  33
ATOM     33  C   UNL A   1      33.467  31.780  27.393  1.00  0.00     0.338 C 
ATOM     34  O   UNL A   1      33.098  32.949  27.346  1.00  0.00    -0.246 OA
BRANCH  33  35
ATOM     35  C   UNL A   1      34.798  31.405  27.894  1.00  0.00     0.060 A 
ATOM     36  C   UNL A   1      35.009  30.059  28.218  1.00  0.00     0.016 A 
ATOM     37  C   UNL A   1      35.790  32.360  28.128  1.00  0.00     0.016 A 
ATOM     38  C   UNL A   1      36.195  29.670  28.833  1.00  0.00     0.010 A 
ATOM     39  C   UNL A   1      36.978  31.969  28.752  1.00  0.00     0.010 A 
ATOM     40  C   UNL A   1      37.168  30.630  29.142  1.00  0.00    -0.014 A 
BRANCH  40  41
ATOM     41  C   UNL A   1      38.316  30.253  30.000  1.00  0.00     0.031 A 
ATOM     42  C   UNL A   1      39.373  29.337  29.448  1.00  0.00     0.074 A 
ATOM     43  C   UNL A   1      38.430  30.750  31.245  1.00  0.00     0.049 A 
ATOM     44  N   UNL A   1      40.441  28.854  30.028  1.00  0.00    -0.248 NA
ATOM     45  C   UNL A   1      39.199  28.907  28.052  1.00  0.00     0.031 C 
ATOM     46  C   UNL A   1      37.489  31.674  31.872  1.00  0.00     0.029 A 
ATOM     47  N   UNL A   1      39.388  30.537  32.204  1.00  0.00    -0.354 N 
ATOM     48  C   UNL A   1      41.063  28.061  29.073  1.00  0.00     0.074 A 
ATOM     49  C   UNL A   1      40.235  28.098  27.887  1.00  0.00     0.031 C 
ATOM     50  C   UNL A   1      37.909  31.943  33.119  1.00  0.00     0.029 A 
ATOM     51  C   UNL A   1      39.128  31.183  33.387  1.00  0.00     0.049 A 
ATOM     52  H   UNL A   1      40.183  29.976  32.058  1.00  0.00     0.167 HD
ATOM     53  C   UNL A   1      42.226  27.374  29.173  1.00  0.00     0.037 A 
ATOM     54  C   UNL A   1      39.790  31.142  34.560  1.00  0.00     0.037 A 
ATOM     55  C   UNL A   1      43.044  27.340  30.358  1.00  0.00     0.049 A 
ATOM     56  C   UNL A   1      41.044  30.314  34.669  1.00  0.00     0.074 A 
ATOM     57  C   UNL A   1      44.247  26.687  30.559  1.00  0.00     0.029 A 
ATOM     58  N   UNL A   1      42.735  27.983  31.548  1.00  0.00    -0.354 N 
ATOM     59  N   UNL A   1      41.639  29.587  33.756  1.00  0.00    -0.248 NA
ATOM     60  C   UNL A   1      41.719  30.306  35.974  1.00  0.00     0.031 C 
ATOM     61  C   UNL A   1      44.637  26.888  31.888  1.00  0.00     0.029 A 
ATOM     62  C   UNL A   1      43.711  27.720  32.496  1.00  0.00     0.049 A 
ATOM     63  H   UNL A   1      41.940  28.545  31.697  1.00  0.00     0.167 HD
ATOM     64  C   UNL A   1      42.771  29.059  34.363  1.00  0.00     0.074 A 
ATOM     65  C   UNL A   1      42.788  29.563  35.720  1.00  0.00     0.031 C 
ATOM     66  C   UNL A   1      43.714  28.234  33.843  1.00  0.00     0.037 A 
BRANCH  53  67
ATOM     67  C   UNL A   1      42.670  26.581  27.977  1.00  0.00     0.064 A 
ATOM     68  C   UNL A   1      43.500  27.134  26.989  1.00  0.00     0.173 A 
ATOM     69  C   UNL A   1      42.283  25.240  27.831  1.00  0.00     0.173 A 
ATOM     70  F   UNL A   1      43.889  28.415  27.074  1.00  0.00    -0.203 F 
ATOM     71  C   UNL A   1      43.901  26.383  25.887  1.00  0.00     0.198 A 
ATOM     72  C   UNL A   1      42.712  24.483  26.744  1.00  0.00     0.198 A 
ATOM     73  F   UNL A   1      41.494  24.660  28.748  1.00  0.00    -0.203 F 
ATOM     74  F   UNL A   1      44.652  26.948  24.931  1.00  0.00    -0.200 F 
ATOM     75  C   UNL A   1      43.513  25.057  25.769  1.00  0.00     0.200 A 
ATOM     76  F   UNL A   1      42.348  23.197  26.639  1.00  0.00    -0.200 F 
ATOM     77  F   UNL A   1      43.906  24.333  24.712  1.00  0.00    -0.200 F 
ENDBRANCH  53  67
BRANCH  54  78
ATOM     78  C   UNL A   1      39.269  31.899  35.728  1.00  0.00     0.064 A 
ATOM     79  C   UNL A   1      39.697  33.207  35.995  1.00  0.00     0.173 A 
ATOM     80  C   UNL A   1      38.339  31.325  36.608  1.00  0.00     0.173 A 
ATOM     81  F   UNL A   1      40.602  33.791  35.196  1.00  0.00    -0.203 F 
ATOM     82  C   UNL A   1      39.228  33.906  37.105  1.00  0.00     0.198 A 
ATOM     83  C   UNL A   1      37.847  32.036  37.701  1.00  0.00     0.198 A 
ATOM     84  F   UNL A   1      37.896  30.078  36.398  1.00  0.00    -0.203 F 
ATOM     85  F   UNL A   1      39.687  35.137  37.363  1.00  0.00    -0.200 F 
ATOM     86  C   UNL A   1      38.299  33.322  37.953  1.00  0.00     0.200 A 
ATOM     87  F   UNL A   1      36.939  31.474  38.509  1.00  0.00    -0.200 F 
ATOM     88  F   UNL A   1      37.843  33.996  39.018  1.00  0.00    -0.200 F 
ENDBRANCH  54  78
BRANCH  66  89
ATOM     89  C   UNL A   1      44.864  27.853  34.732  1.00  0.00     0.064 A 
ATOM     90  C   UNL A   1      46.051  28.600  34.767  1.00  0.00     0.173 A 
ATOM     91  C   UNL A   1      44.760  26.747  35.592  1.00  0.00     0.173 A 
ATOM     92  F   UNL A   1      46.207  29.658  33.956  1.00  0.00    -0.203 F 
ATOM     93  C   UNL A   1      47.100  28.238  35.608  1.00  0.00     0.198 A 
ATOM     94  C   UNL A   1      45.798  26.409  36.455  1.00  0.00     0.198 A 
ATOM     95  F   UNL A   1      43.643  26.003  35.604  1.00  0.00    -0.203 F 
ATOM     96  F   UNL A   1      48.244  28.937  35.587  1.00  0.00    -0.200 F 
ATOM     97  C   UNL A   1      46.970  27.149  36.457  1.00  0.00     0.200 A 
ATOM     98  F   UNL A   1      45.663  25.366  37.286  1.00  0.00    -0.200 F 
ATOM     99  F   UNL A   1      47.977  26.808  37.271  1.00  0.00    -0.200 F 
ENDBRANCH  66  89
ENDBRANCH  40  41
ENDBRANCH  33  35
ENDBRANCH  32  33
ENDBRANCH  31  32
ENDBRANCH  30  31
ENDBRANCH  29  30
ENDBRANCH   1  29
TORSDOF 17
ENDMDL
