MODEL 1
REMARK VINA RESULT:     -13.2      0.000      0.000
REMARK SMILES Cc1ccccc1N[C@H](C(=O)OCCOCCOC(=O)c1ccc(-c2c3nc(c(-c4c(F)c(F)c(F)c(F)c4F)c4ccc([nH]4)c(-c4c(F)c(F)c(F)c(F)c4F)c4nc(c(-c5c(F)c(F)c(F)c(F)c5F)c5ccc2[nH]5)C=C4)C=C3)cc1)c1ccccc1
REMARK SMILES IDX 15 1 14 2 13 3 12 4 10 5 11 6 9 7 8 8 7 10 1 11 2 12 3 13
REMARK SMILES IDX 4 14 6 15 5 16 84 17 85 18 89 19 86 20 88 21 87 22 16 23
REMARK SMILES IDX 17 24 18 25 19 26 20 27 21 28 22 29 83 30 23 31 82 32 24 33
REMARK SMILES IDX 25 34 26 35 76 36 27 37 81 38 75 39 77 40 28 41 80 42 74 43
REMARK SMILES IDX 73 44 29 46 61 47 41 48 60 49 42 50 45 51 59 52 78 53 43 54
REMARK SMILES IDX 44 55 58 57 79 58 46 59 30 60 31 61 39 62 32 63 33 64 37 65
REMARK SMILES IDX 40 66 34 67 35 68 38 69 36 70 62 71 63 72 71 73 64 74 65 75
REMARK SMILES IDX 69 76 72 77 66 78 67 79 70 80 68 81 47 82 48 83 56 84 49 85
REMARK SMILES IDX 50 86 54 87 57 88 51 89 52 90 55 91 53 92
REMARK H PARENT 8 9 77 45 45 56
REMARK Flexibility Score: inf
ROOT
ATOM      1  O   UNL A   1      33.420  21.987  24.516  1.00  0.00    -0.374 OA
ENDROOT
BRANCH   1   2
ATOM      2  C   UNL A   1      32.194  21.513  23.995  1.00  0.00     0.202 C 
BRANCH   2   3
ATOM      3  C   UNL A   1      31.933  22.465  22.875  1.00  0.00     0.261 C 
BRANCH   3   4
ATOM      4  O   UNL A   1      30.792  23.273  23.178  1.00  0.00    -0.461 OA
BRANCH   4   5
ATOM      5  C   UNL A   1      31.110  24.597  23.202  1.00  0.00     0.333 C 
ATOM      6  O   UNL A   1      31.831  25.120  22.357  1.00  0.00    -0.249 OA
BRANCH   5   7
ATOM      7  C   UNL A   1      30.337  25.378  24.282  1.00  0.00     0.221 C 
BRANCH   7   8
ATOM      8  N   UNL A   1      31.215  25.330  25.443  1.00  0.00    -0.368 N 
ATOM      9  H   UNL A   1      31.363  24.428  25.808  1.00  0.00     0.161 HD
BRANCH   8  10
ATOM     10  C   UNL A   1      31.869  26.330  26.111  1.00  0.00     0.038 A 
ATOM     11  C   UNL A   1      34.149  25.429  25.337  1.00  0.00     0.046 C 
ATOM     12  C   UNL A   1      33.245  26.514  25.872  1.00  0.00    -0.028 A 
ATOM     13  C   UNL A   1      33.830  27.750  26.176  1.00  0.00     0.005 A 
ATOM     14  C   UNL A   1      33.091  28.752  26.797  1.00  0.00     0.000 A 
ATOM     15  C   UNL A   1      31.196  27.278  26.885  1.00  0.00     0.026 A 
ATOM     16  C   UNL A   1      31.791  28.494  27.207  1.00  0.00     0.002 A 
ENDBRANCH   8  10
ENDBRANCH   7   8
BRANCH   7  17
ATOM     17  C   UNL A   1      29.821  26.818  23.973  1.00  0.00    -0.015 A 
ATOM     18  C   UNL A   1      27.994  26.890  23.875  1.00  0.00     0.006 A 
ATOM     19  C   UNL A   1      30.779  28.306  23.399  1.00  0.00     0.006 A 
ATOM     20  C   UNL A   1      27.154  28.423  23.420  1.00  0.00     0.000 A 
ATOM     21  C   UNL A   1      29.917  29.756  22.668  1.00  0.00     0.000 A 
ATOM     22  C   UNL A   1      28.094  29.860  22.828  1.00  0.00     0.000 A 
ENDBRANCH   7  17
ENDBRANCH   5   7
ENDBRANCH   4   5
ENDBRANCH   3   4
ENDBRANCH   2   3
ENDBRANCH   1   2
BRANCH   1  23
ATOM     23  C   UNL A   1      34.418  21.010  24.693  1.00  0.00     0.202 C 
BRANCH  23  24
ATOM     24  C   UNL A   1      35.438  21.470  25.732  1.00  0.00     0.261 C 
BRANCH  24  25
ATOM     25  O   UNL A   1      36.455  22.261  25.076  1.00  0.00    -0.460 OA
BRANCH  25  26
ATOM     26  C   UNL A   1      37.738  21.880  25.337  1.00  0.00     0.338 C 
ATOM     27  O   UNL A   1      38.249  20.840  24.954  1.00  0.00    -0.246 OA
BRANCH  26  28
ATOM     28  C   UNL A   1      38.348  22.768  26.375  1.00  0.00     0.060 A 
ATOM     29  C   UNL A   1      37.877  24.081  26.536  1.00  0.00     0.016 A 
ATOM     30  C   UNL A   1      39.561  22.400  26.961  1.00  0.00     0.016 A 
ATOM     31  C   UNL A   1      38.666  25.030  27.205  1.00  0.00     0.010 A 
ATOM     32  C   UNL A   1      40.401  23.376  27.476  1.00  0.00     0.010 A 
ATOM     33  C   UNL A   1      39.965  24.695  27.614  1.00  0.00    -0.014 A 
BRANCH  33  34
ATOM     34  C   UNL A   1      40.850  25.618  28.339  1.00  0.00     0.031 A 
ATOM     35  C   UNL A   1      40.263  26.909  28.706  1.00  0.00     0.074 A 
ATOM     36  C   UNL A   1      42.121  25.368  28.725  1.00  0.00     0.049 A 
ATOM     37  N   UNL A   1      40.862  28.041  28.576  1.00  0.00    -0.248 NA
ATOM     38  C   UNL A   1      38.912  27.012  29.259  1.00  0.00     0.031 C 
ATOM     39  C   UNL A   1      43.102  26.146  29.465  1.00  0.00     0.029 A 
ATOM     40  N   UNL A   1      42.878  24.247  28.477  1.00  0.00    -0.354 N 
ATOM     41  C   UNL A   1      40.172  28.901  29.393  1.00  0.00     0.074 A 
ATOM     42  C   UNL A   1      38.876  28.298  29.603  1.00  0.00     0.031 C 
ATOM     43  C   UNL A   1      44.349  25.703  29.154  1.00  0.00     0.029 A 
ATOM     44  C   UNL A   1      44.218  24.638  28.135  1.00  0.00     0.049 A 
ATOM     45  H   UNL A   1      42.552  23.319  28.526  1.00  0.00     0.167 HD
ATOM     46  C   UNL A   1      40.840  29.857  30.097  1.00  0.00     0.037 A 
ATOM     47  C   UNL A   1      45.009  24.247  26.917  1.00  0.00     0.037 A 
ATOM     48  C   UNL A   1      42.293  29.732  29.924  1.00  0.00     0.049 A 
ATOM     49  C   UNL A   1      45.551  25.931  26.810  1.00  0.00     0.074 A 
ATOM     50  C   UNL A   1      43.306  29.313  30.775  1.00  0.00     0.029 A 
ATOM     51  N   UNL A   1      42.848  29.705  28.639  1.00  0.00    -0.354 N 
ATOM     52  N   UNL A   1      44.728  26.958  26.969  1.00  0.00    -0.248 NA
ATOM     53  C   UNL A   1      46.940  26.420  26.596  1.00  0.00     0.031 C 
ATOM     54  C   UNL A   1      44.466  29.048  30.007  1.00  0.00     0.029 A 
ATOM     55  C   UNL A   1      44.158  29.266  28.676  1.00  0.00     0.049 A 
ATOM     56  H   UNL A   1      42.371  29.962  27.819  1.00  0.00     0.167 HD
ATOM     57  C   UNL A   1      45.455  28.126  27.007  1.00  0.00     0.074 A 
ATOM     58  C   UNL A   1      46.796  27.754  26.615  1.00  0.00     0.031 C 
ATOM     59  C   UNL A   1      45.018  29.319  27.512  1.00  0.00     0.037 A 
BRANCH  46  60
ATOM     60  C   UNL A   1      40.137  30.582  31.224  1.00  0.00     0.064 A 
ATOM     61  C   UNL A   1      39.550  31.851  31.068  1.00  0.00     0.173 A 
ATOM     62  C   UNL A   1      40.064  30.054  32.531  1.00  0.00     0.173 A 
ATOM     63  F   UNL A   1      39.426  32.430  29.870  1.00  0.00    -0.203 F 
ATOM     64  C   UNL A   1      39.056  32.586  32.146  1.00  0.00     0.198 A 
ATOM     65  C   UNL A   1      39.616  30.808  33.620  1.00  0.00     0.198 A 
ATOM     66  F   UNL A   1      40.436  28.788  32.782  1.00  0.00    -0.203 F 
ATOM     67  F   UNL A   1      38.527  33.799  31.932  1.00  0.00    -0.200 F 
ATOM     68  C   UNL A   1      39.121  32.081  33.427  1.00  0.00     0.200 A 
ATOM     69  F   UNL A   1      39.680  30.296  34.858  1.00  0.00    -0.200 F 
ATOM     70  F   UNL A   1      38.687  32.808  34.465  1.00  0.00    -0.200 F 
ENDBRANCH  46  60
BRANCH  47  71
ATOM     71  C   UNL A   1      45.001  22.660  25.506  1.00  0.00     0.064 A 
ATOM     72  C   UNL A   1      46.124  22.002  24.685  1.00  0.00     0.173 A 
ATOM     73  C   UNL A   1      43.962  21.511  25.258  1.00  0.00     0.173 A 
ATOM     74  F   UNL A   1      46.949  22.733  23.902  1.00  0.00    -0.203 F 
ATOM     75  C   UNL A   1      46.389  20.607  24.562  1.00  0.00     0.198 A 
ATOM     76  C   UNL A   1      44.224  20.123  25.217  1.00  0.00     0.198 A 
ATOM     77  F   UNL A   1      42.637  21.764  25.112  1.00  0.00    -0.203 F 
ATOM     78  F   UNL A   1      47.535  20.187  24.007  1.00  0.00    -0.200 F 
ATOM     79  C   UNL A   1      45.489  19.674  24.997  1.00  0.00     0.200 A 
ATOM     80  F   UNL A   1      43.225  19.250  25.416  1.00  0.00    -0.200 F 
ATOM     81  F   UNL A   1      45.788  18.370  25.044  1.00  0.00    -0.200 F 
ENDBRANCH  47  71
BRANCH  59  82
ATOM     82  C   UNL A   1      45.539  30.675  27.104  1.00  0.00     0.064 A 
ATOM     83  C   UNL A   1      44.728  31.632  26.477  1.00  0.00     0.173 A 
ATOM     84  C   UNL A   1      46.803  31.136  27.552  1.00  0.00     0.173 A 
ATOM     85  F   UNL A   1      43.483  31.334  26.079  1.00  0.00    -0.203 F 
ATOM     86  C   UNL A   1      45.160  32.947  26.293  1.00  0.00     0.198 A 
ATOM     87  C   UNL A   1      47.206  32.459  27.416  1.00  0.00     0.198 A 
ATOM     88  F   UNL A   1      47.677  30.333  28.176  1.00  0.00    -0.203 F 
ATOM     89  F   UNL A   1      44.360  33.823  25.672  1.00  0.00    -0.200 F 
ATOM     90  C   UNL A   1      46.387  33.363  26.779  1.00  0.00     0.200 A 
ATOM     91  F   UNL A   1      48.376  32.853  27.937  1.00  0.00    -0.200 F 
ATOM     92  F   UNL A   1      46.772  34.639  26.646  1.00  0.00    -0.200 F 
ENDBRANCH  59  82
ENDBRANCH  33  34
ENDBRANCH  26  28
ENDBRANCH  25  26
ENDBRANCH  24  25
ENDBRANCH  23  24
ENDBRANCH   1  23
TORSDOF 17
ENDMDL
MODEL 2
REMARK VINA RESULT:     -12.9      1.155      2.684
REMARK SMILES Cc1ccccc1N[C@H](C(=O)OCCOCCOC(=O)c1ccc(-c2c3nc(c(-c4c(F)c(F)c(F)c(F)c4F)c4ccc([nH]4)c(-c4c(F)c(F)c(F)c(F)c4F)c4nc(c(-c5c(F)c(F)c(F)c(F)c5F)c5ccc2[nH]5)C=C4)C=C3)cc1)c1ccccc1
REMARK SMILES IDX 15 1 14 2 13 3 12 4 10 5 11 6 9 7 8 8 7 10 1 11 2 12 3 13
REMARK SMILES IDX 4 14 6 15 5 16 84 17 85 18 89 19 86 20 88 21 87 22 16 23
REMARK SMILES IDX 17 24 18 25 19 26 20 27 21 28 22 29 83 30 23 31 82 32 24 33
REMARK SMILES IDX 25 34 26 35 76 36 27 37 81 38 75 39 77 40 28 41 80 42 74 43
REMARK SMILES IDX 73 44 29 46 61 47 41 48 60 49 42 50 45 51 59 52 78 53 43 54
REMARK SMILES IDX 44 55 58 57 79 58 46 59 30 60 31 61 39 62 32 63 33 64 37 65
REMARK SMILES IDX 40 66 34 67 35 68 38 69 36 70 62 71 63 72 71 73 64 74 65 75
REMARK SMILES IDX 69 76 72 77 66 78 67 79 70 80 68 81 47 82 48 83 56 84 49 85
REMARK SMILES IDX 50 86 54 87 57 88 51 89 52 90 55 91 53 92
REMARK H PARENT 8 9 77 45 45 56
REMARK Flexibility Score: inf
ROOT
ATOM      1  O   UNL A   1      32.539  21.492  26.093  1.00  0.00    -0.374 OA
ENDROOT
BRANCH   1   2
ATOM      2  C   UNL A   1      32.387  22.771  25.509  1.00  0.00     0.202 C 
BRANCH   2   3
ATOM      3  C   UNL A   1      31.208  23.319  26.245  1.00  0.00     0.261 C 
BRANCH   3   4
ATOM      4  O   UNL A   1      31.573  24.524  26.922  1.00  0.00    -0.461 OA
BRANCH   4   5
ATOM      5  C   UNL A   1      31.025  25.618  26.324  1.00  0.00     0.333 C 
ATOM      6  O   UNL A   1      29.901  26.029  26.597  1.00  0.00    -0.249 OA
BRANCH   5   7
ATOM      7  C   UNL A   1      32.022  26.368  25.419  1.00  0.00     0.221 C 
BRANCH   7   8
ATOM      8  N   UNL A   1      31.409  26.308  24.100  1.00  0.00    -0.368 N 
ATOM      9  H   UNL A   1      31.366  25.406  23.707  1.00  0.00     0.161 HD
BRANCH   8  10
ATOM     10  C   UNL A   1      30.881  27.298  23.314  1.00  0.00     0.038 A 
ATOM     11  C   UNL A   1      28.490  26.493  23.812  1.00  0.00     0.046 C 
ATOM     12  C   UNL A   1      29.493  27.529  23.362  1.00  0.00    -0.028 A 
ATOM     13  C   UNL A   1      28.993  28.768  22.937  1.00  0.00     0.005 A 
ATOM     14  C   UNL A   1      29.840  29.722  22.382  1.00  0.00     0.000 A 
ATOM     15  C   UNL A   1      31.681  28.194  22.602  1.00  0.00     0.026 A 
ATOM     16  C   UNL A   1      31.174  29.411  22.158  1.00  0.00     0.002 A 
ENDBRANCH   8  10
ENDBRANCH   7   8
BRANCH   7  17
ATOM     17  C   UNL A   1      32.486  27.807  25.806  1.00  0.00    -0.015 A 
ATOM     18  C   UNL A   1      34.186  27.824  26.487  1.00  0.00     0.006 A 
ATOM     19  C   UNL A   1      31.474  29.359  25.964  1.00  0.00     0.006 A 
ATOM     20  C   UNL A   1      34.914  29.354  27.112  1.00  0.00     0.000 A 
ATOM     21  C   UNL A   1      32.130  30.824  26.861  1.00  0.00     0.000 A 
ATOM     22  C   UNL A   1      33.911  30.856  27.295  1.00  0.00     0.000 A 
ENDBRANCH   7  17
ENDBRANCH   5   7
ENDBRANCH   4   5
ENDBRANCH   3   4
ENDBRANCH   2   3
ENDBRANCH   1   2
BRANCH   1  23
ATOM     23  C   UNL A   1      33.842  20.960  26.048  1.00  0.00     0.202 C 
BRANCH  23  24
ATOM     24  C   UNL A   1      34.767  21.878  25.252  1.00  0.00     0.261 C 
BRANCH  24  25
ATOM     25  O   UNL A   1      35.940  22.168  26.046  1.00  0.00    -0.460 OA
BRANCH  25  26
ATOM     26  C   UNL A   1      37.123  21.790  25.486  1.00  0.00     0.338 C 
ATOM     27  O   UNL A   1      37.303  20.752  24.869  1.00  0.00    -0.246 OA
BRANCH  26  28
ATOM     28  C   UNL A   1      38.233  22.674  25.957  1.00  0.00     0.060 A 
ATOM     29  C   UNL A   1      39.393  22.108  26.507  1.00  0.00     0.016 A 
ATOM     30  C   UNL A   1      37.994  24.040  26.126  1.00  0.00     0.016 A 
ATOM     31  C   UNL A   1      40.252  22.893  27.293  1.00  0.00     0.010 A 
ATOM     32  C   UNL A   1      38.755  24.766  27.030  1.00  0.00     0.010 A 
ATOM     33  C   UNL A   1      39.894  24.210  27.614  1.00  0.00    -0.014 A 
BRANCH  33  34
ATOM     34  C   UNL A   1      40.741  25.109  28.411  1.00  0.00     0.031 A 
ATOM     35  C   UNL A   1      40.127  26.379  28.808  1.00  0.00     0.074 A 
ATOM     36  C   UNL A   1      41.999  24.854  28.837  1.00  0.00     0.049 A 
ATOM     37  N   UNL A   1      40.720  27.520  28.749  1.00  0.00    -0.248 NA
ATOM     38  C   UNL A   1      38.755  26.447  29.311  1.00  0.00     0.031 C 
ATOM     39  C   UNL A   1      42.942  25.608  29.646  1.00  0.00     0.029 A 
ATOM     40  N   UNL A   1      42.776  23.750  28.572  1.00  0.00    -0.354 N 
ATOM     41  C   UNL A   1      39.989  28.339  29.574  1.00  0.00     0.074 A 
ATOM     42  C   UNL A   1      38.692  27.718  29.706  1.00  0.00     0.031 C 
ATOM     43  C   UNL A   1      44.204  25.189  29.367  1.00  0.00     0.029 A 
ATOM     44  C   UNL A   1      44.124  24.167  28.300  1.00  0.00     0.049 A 
ATOM     45  H   UNL A   1      42.457  22.819  28.569  1.00  0.00     0.167 HD
ATOM     46  C   UNL A   1      40.620  29.270  30.343  1.00  0.00     0.037 A 
ATOM     47  C   UNL A   1      44.966  23.834  27.099  1.00  0.00     0.037 A 
ATOM     48  C   UNL A   1      42.080  29.165  30.223  1.00  0.00     0.049 A 
ATOM     49  C   UNL A   1      45.495  25.525  27.084  1.00  0.00     0.074 A 
ATOM     50  C   UNL A   1      43.063  28.719  31.094  1.00  0.00     0.029 A 
ATOM     51  N   UNL A   1      42.685  29.196  28.960  1.00  0.00    -0.354 N 
ATOM     52  N   UNL A   1      44.656  26.538  27.253  1.00  0.00    -0.248 NA
ATOM     53  C   UNL A   1      46.886  26.034  26.945  1.00  0.00     0.031 C 
ATOM     54  C   UNL A   1      44.255  28.496  30.363  1.00  0.00     0.029 A 
ATOM     55  C   UNL A   1      43.997  28.768  29.031  1.00  0.00     0.049 A 
ATOM     56  H   UNL A   1      42.237  29.484  28.133  1.00  0.00     0.167 HD
ATOM     57  C   UNL A   1      45.369  27.710  27.368  1.00  0.00     0.074 A 
ATOM     58  C   UNL A   1      46.728  27.365  27.014  1.00  0.00     0.031 C 
ATOM     59  C   UNL A   1      44.901  28.876  27.905  1.00  0.00     0.037 A 
BRANCH  46  60
ATOM     60  C   UNL A   1      39.866  29.941  31.470  1.00  0.00     0.064 A 
ATOM     61  C   UNL A   1      39.051  31.071  31.278  1.00  0.00     0.173 A 
ATOM     62  C   UNL A   1      39.968  29.507  32.810  1.00  0.00     0.173 A 
ATOM     63  F   UNL A   1      38.753  31.529  30.059  1.00  0.00    -0.203 F 
ATOM     64  C   UNL A   1      38.498  31.786  32.342  1.00  0.00     0.198 A 
ATOM     65  C   UNL A   1      39.457  30.249  33.879  1.00  0.00     0.198 A 
ATOM     66  F   UNL A   1      40.578  28.349  33.111  1.00  0.00    -0.203 F 
ATOM     67  F   UNL A   1      37.746  32.868  32.091  1.00  0.00    -0.200 F 
ATOM     68  C   UNL A   1      38.729  31.397  33.644  1.00  0.00     0.200 A 
ATOM     69  F   UNL A   1      39.687  29.849  35.139  1.00  0.00    -0.200 F 
ATOM     70  F   UNL A   1      38.234  32.111  34.663  1.00  0.00    -0.200 F 
ENDBRANCH  46  60
BRANCH  47  71
ATOM     71  C   UNL A   1      45.029  22.308  25.624  1.00  0.00     0.064 A 
ATOM     72  C   UNL A   1      46.182  21.727  24.787  1.00  0.00     0.173 A 
ATOM     73  C   UNL A   1      44.036  21.132  25.319  1.00  0.00     0.173 A 
ATOM     74  F   UNL A   1      46.985  22.520  24.043  1.00  0.00    -0.203 F 
ATOM     75  C   UNL A   1      46.501  20.349  24.609  1.00  0.00     0.198 A 
ATOM     76  C   UNL A   1      44.351  19.758  25.224  1.00  0.00     0.198 A 
ATOM     77  F   UNL A   1      42.704  21.341  25.172  1.00  0.00    -0.203 F 
ATOM     78  F   UNL A   1      47.667  19.996  24.048  1.00  0.00    -0.200 F 
ATOM     79  C   UNL A   1      45.634  19.366  24.997  1.00  0.00     0.200 A 
ATOM     80  F   UNL A   1      43.384  18.840  25.377  1.00  0.00    -0.200 F 
ATOM     81  F   UNL A   1      45.981  18.073  24.993  1.00  0.00    -0.200 F 
ENDBRANCH  47  71
BRANCH  59  82
ATOM     82  C   UNL A   1      45.424  30.252  27.575  1.00  0.00     0.064 A 
ATOM     83  C   UNL A   1      46.717  30.667  27.927  1.00  0.00     0.173 A 
ATOM     84  C   UNL A   1      44.724  31.105  26.683  1.00  0.00     0.173 A 
ATOM     85  F   UNL A   1      47.503  29.908  28.702  1.00  0.00    -0.203 F 
ATOM     86  C   UNL A   1      47.259  31.858  27.439  1.00  0.00     0.198 A 
ATOM     87  C   UNL A   1      45.289  32.260  26.158  1.00  0.00     0.198 A 
ATOM     88  F   UNL A   1      43.483  30.828  26.255  1.00  0.00    -0.203 F 
ATOM     89  F   UNL A   1      48.491  32.225  27.816  1.00  0.00    -0.200 F 
ATOM     90  C   UNL A   1      46.555  32.641  26.542  1.00  0.00     0.200 A 
ATOM     91  F   UNL A   1      44.610  32.979  25.252  1.00  0.00    -0.200 F 
ATOM     92  F   UNL A   1      47.102  33.754  26.036  1.00  0.00    -0.200 F 
ENDBRANCH  59  82
ENDBRANCH  33  34
ENDBRANCH  26  28
ENDBRANCH  25  26
ENDBRANCH  24  25
ENDBRANCH  23  24
ENDBRANCH   1  23
TORSDOF 17
ENDMDL
MODEL 3
REMARK VINA RESULT:     -12.6      0.802      2.596
REMARK SMILES Cc1ccccc1N[C@H](C(=O)OCCOCCOC(=O)c1ccc(-c2c3nc(c(-c4c(F)c(F)c(F)c(F)c4F)c4ccc([nH]4)c(-c4c(F)c(F)c(F)c(F)c4F)c4nc(c(-c5c(F)c(F)c(F)c(F)c5F)c5ccc2[nH]5)C=C4)C=C3)cc1)c1ccccc1
REMARK SMILES IDX 15 1 14 2 13 3 12 4 10 5 11 6 9 7 8 8 7 10 1 11 2 12 3 13
REMARK SMILES IDX 4 14 6 15 5 16 84 17 85 18 89 19 86 20 88 21 87 22 16 23
REMARK SMILES IDX 17 24 18 25 19 26 20 27 21 28 22 29 83 30 23 31 82 32 24 33
REMARK SMILES IDX 25 34 26 35 76 36 27 37 81 38 75 39 77 40 28 41 80 42 74 43
REMARK SMILES IDX 73 44 29 46 61 47 41 48 60 49 42 50 45 51 59 52 78 53 43 54
REMARK SMILES IDX 44 55 58 57 79 58 46 59 30 60 31 61 39 62 32 63 33 64 37 65
REMARK SMILES IDX 40 66 34 67 35 68 38 69 36 70 62 71 63 72 71 73 64 74 65 75
REMARK SMILES IDX 69 76 72 77 66 78 67 79 70 80 68 81 47 82 48 83 56 84 49 85
REMARK SMILES IDX 50 86 54 87 57 88 51 89 52 90 55 91 53 92
REMARK H PARENT 8 9 77 45 45 56
REMARK Flexibility Score: inf
ROOT
ATOM      1  O   UNL A   1      34.216  22.672  24.285  1.00  0.00    -0.374 OA
ENDROOT
BRANCH   1   2
ATOM      2  C   UNL A   1      33.423  22.702  23.114  1.00  0.00     0.202 C 
BRANCH   2   3
ATOM      3  C   UNL A   1      33.476  24.144  22.730  1.00  0.00     0.261 C 
BRANCH   3   4
ATOM      4  O   UNL A   1      32.243  24.530  22.117  1.00  0.00    -0.461 OA
BRANCH   4   5
ATOM      5  C   UNL A   1      31.419  25.156  23.002  1.00  0.00     0.333 C 
ATOM      6  O   UNL A   1      30.701  24.541  23.786  1.00  0.00    -0.249 OA
BRANCH   5   7
ATOM      7  C   UNL A   1      31.619  26.683  23.031  1.00  0.00     0.221 C 
BRANCH   7   8
ATOM      8  N   UNL A   1      30.426  27.204  22.377  1.00  0.00    -0.368 N 
ATOM      9  H   UNL A   1      30.402  27.072  21.402  1.00  0.00     0.161 HD
BRANCH   8  10
ATOM     10  C   UNL A   1      29.333  27.845  22.894  1.00  0.00     0.038 A 
ATOM     11  C   UNL A   1      30.201  30.115  22.052  1.00  0.00     0.046 C 
ATOM     12  C   UNL A   1      29.110  29.191  22.540  1.00  0.00    -0.028 A 
ATOM     13  C   UNL A   1      27.823  29.727  22.677  1.00  0.00     0.005 A 
ATOM     14  C   UNL A   1      26.799  28.978  23.246  1.00  0.00     0.000 A 
ATOM     15  C   UNL A   1      28.343  27.176  23.616  1.00  0.00     0.026 A 
ATOM     16  C   UNL A   1      27.074  27.724  23.772  1.00  0.00     0.002 A 
ENDBRANCH   8  10
ENDBRANCH   7   8
BRANCH   7  17
ATOM     17  C   UNL A   1      31.929  27.397  24.384  1.00  0.00    -0.015 A 
ATOM     18  C   UNL A   1      33.583  28.181  24.388  1.00  0.00     0.006 A 
ATOM     19  C   UNL A   1      31.024  27.274  26.005  1.00  0.00     0.006 A 
ATOM     20  C   UNL A   1      34.223  28.978  25.877  1.00  0.00     0.000 A 
ATOM     21  C   UNL A   1      31.813  27.834  27.568  1.00  0.00     0.000 A 
ATOM     22  C   UNL A   1      33.352  28.825  27.463  1.00  0.00     0.000 A 
ENDBRANCH   7  17
ENDBRANCH   5   7
ENDBRANCH   4   5
ENDBRANCH   3   4
ENDBRANCH   2   3
ENDBRANCH   1   2
BRANCH   1  23
ATOM     23  C   UNL A   1      34.157  21.474  25.023  1.00  0.00     0.202 C 
BRANCH  23  24
ATOM     24  C   UNL A   1      35.564  20.976  25.347  1.00  0.00     0.261 C 
BRANCH  24  25
ATOM     25  O   UNL A   1      36.506  22.051  25.127  1.00  0.00    -0.460 OA
BRANCH  25  26
ATOM     26  C   UNL A   1      37.812  21.724  25.340  1.00  0.00     0.338 C 
ATOM     27  O   UNL A   1      38.355  20.712  24.927  1.00  0.00    -0.246 OA
BRANCH  26  28
ATOM     28  C   UNL A   1      38.417  22.625  26.369  1.00  0.00     0.060 A 
ATOM     29  C   UNL A   1      37.924  23.929  26.533  1.00  0.00     0.016 A 
ATOM     30  C   UNL A   1      39.645  22.283  26.940  1.00  0.00     0.016 A 
ATOM     31  C   UNL A   1      38.702  24.895  27.191  1.00  0.00     0.010 A 
ATOM     32  C   UNL A   1      40.472  23.276  27.444  1.00  0.00     0.010 A 
ATOM     33  C   UNL A   1      40.012  24.586  27.585  1.00  0.00    -0.014 A 
BRANCH  33  34
ATOM     34  C   UNL A   1      40.888  25.527  28.297  1.00  0.00     0.031 A 
ATOM     35  C   UNL A   1      40.287  26.815  28.651  1.00  0.00     0.074 A 
ATOM     36  C   UNL A   1      42.163  25.297  28.683  1.00  0.00     0.049 A 
ATOM     37  N   UNL A   1      40.873  27.953  28.506  1.00  0.00    -0.248 NA
ATOM     38  C   UNL A   1      38.936  26.909  29.206  1.00  0.00     0.031 C 
ATOM     39  C   UNL A   1      43.136  26.094  29.411  1.00  0.00     0.029 A 
ATOM     40  N   UNL A   1      42.933  24.181  28.445  1.00  0.00    -0.354 N 
ATOM     41  C   UNL A   1      40.174  28.814  29.316  1.00  0.00     0.074 A 
ATOM     42  C   UNL A   1      38.885  28.198  29.535  1.00  0.00     0.031 C 
ATOM     43  C   UNL A   1      44.388  25.662  29.103  1.00  0.00     0.029 A 
ATOM     44  C   UNL A   1      44.267  24.584  28.096  1.00  0.00     0.049 A 
ATOM     45  H   UNL A   1      42.617  23.251  28.505  1.00  0.00     0.167 HD
ATOM     46  C   UNL A   1      40.833  29.785  30.008  1.00  0.00     0.037 A 
ATOM     47  C   UNL A   1      45.060  24.188  26.881  1.00  0.00     0.037 A 
ATOM     48  C   UNL A   1      42.286  29.676  29.833  1.00  0.00     0.049 A 
ATOM     49  C   UNL A   1      45.582  25.878  26.753  1.00  0.00     0.074 A 
ATOM     50  C   UNL A   1      43.306  29.278  30.685  1.00  0.00     0.029 A 
ATOM     51  N   UNL A   1      42.839  29.640  28.546  1.00  0.00    -0.354 N 
ATOM     52  N   UNL A   1      44.747  26.897  26.903  1.00  0.00    -0.248 NA
ATOM     53  C   UNL A   1      46.964  26.380  26.530  1.00  0.00     0.031 C 
ATOM     54  C   UNL A   1      44.468  29.018  29.918  1.00  0.00     0.029 A 
ATOM     55  C   UNL A   1      44.154  29.217  28.585  1.00  0.00     0.049 A 
ATOM     56  H   UNL A   1      42.357  29.883  27.724  1.00  0.00     0.167 HD
ATOM     57  C   UNL A   1      45.460  28.074  26.926  1.00  0.00     0.074 A 
ATOM     58  C   UNL A   1      46.804  27.713  26.535  1.00  0.00     0.031 C 
ATOM     59  C   UNL A   1      45.010  29.267  27.419  1.00  0.00     0.037 A 
BRANCH  46  60
ATOM     60  C   UNL A   1      40.124  30.514  31.128  1.00  0.00     0.064 A 
ATOM     61  C   UNL A   1      39.987  29.980  32.422  1.00  0.00     0.173 A 
ATOM     62  C   UNL A   1      39.503  31.768  30.938  1.00  0.00     0.173 A 
ATOM     63  F   UNL A   1      40.620  28.864  32.797  1.00  0.00    -0.203 F 
ATOM     64  C   UNL A   1      39.188  30.576  33.399  1.00  0.00     0.198 A 
ATOM     65  C   UNL A   1      38.663  32.341  31.898  1.00  0.00     0.198 A 
ATOM     66  F   UNL A   1      39.694  32.463  29.806  1.00  0.00    -0.203 F 
ATOM     67  F   UNL A   1      39.084  30.004  34.608  1.00  0.00    -0.200 F 
ATOM     68  C   UNL A   1      38.498  31.737  33.126  1.00  0.00     0.200 A 
ATOM     69  F   UNL A   1      38.006  33.476  31.616  1.00  0.00    -0.200 F 
ATOM     70  F   UNL A   1      37.697  32.283  34.052  1.00  0.00    -0.200 F 
ENDBRANCH  46  60
BRANCH  47  71
ATOM     71  C   UNL A   1      45.067  22.586  25.487  1.00  0.00     0.064 A 
ATOM     72  C   UNL A   1      46.203  21.897  24.712  1.00  0.00     0.173 A 
ATOM     73  C   UNL A   1      44.014  21.455  25.217  1.00  0.00     0.173 A 
ATOM     74  F   UNL A   1      47.069  22.602  23.949  1.00  0.00    -0.203 F 
ATOM     75  C   UNL A   1      46.444  20.496  24.613  1.00  0.00     0.198 A 
ATOM     76  C   UNL A   1      44.250  20.062  25.201  1.00  0.00     0.198 A 
ATOM     77  F   UNL A   1      42.700  21.732  25.025  1.00  0.00    -0.203 F 
ATOM     78  F   UNL A   1      47.600  20.047  24.102  1.00  0.00    -0.200 F 
ATOM     79  C   UNL A   1      45.512  19.585  25.028  1.00  0.00     0.200 A 
ATOM     80  F   UNL A   1      43.228  19.211  25.375  1.00  0.00    -0.200 F 
ATOM     81  F   UNL A   1      45.783  18.276  25.099  1.00  0.00    -0.200 F 
ENDBRANCH  47  71
BRANCH  59  82
ATOM     82  C   UNL A   1      45.515  30.624  26.994  1.00  0.00     0.064 A 
ATOM     83  C   UNL A   1      44.687  31.570  26.373  1.00  0.00     0.173 A 
ATOM     84  C   UNL A   1      46.782  31.098  27.421  1.00  0.00     0.173 A 
ATOM     85  F   UNL A   1      43.439  31.260  25.995  1.00  0.00    -0.203 F 
ATOM     86  C   UNL A   1      45.106  32.887  26.174  1.00  0.00     0.198 A 
ATOM     87  C   UNL A   1      47.171  32.423  27.270  1.00  0.00     0.198 A 
ATOM     88  F   UNL A   1      47.671  30.306  28.038  1.00  0.00    -0.203 F 
ATOM     89  F   UNL A   1      44.290  33.753  25.558  1.00  0.00    -0.200 F 
ATOM     90  C   UNL A   1      46.336  33.317  26.639  1.00  0.00     0.200 A 
ATOM     91  F   UNL A   1      48.346  32.831  27.772  1.00  0.00    -0.200 F 
ATOM     92  F   UNL A   1      46.709  34.595  26.493  1.00  0.00    -0.200 F 
ENDBRANCH  59  82
ENDBRANCH  33  34
ENDBRANCH  26  28
ENDBRANCH  25  26
ENDBRANCH  24  25
ENDBRANCH  23  24
ENDBRANCH   1  23
TORSDOF 17
ENDMDL
