MODEL 1
REMARK VINA RESULT:     -10.8      0.000      0.000
REMARK SMILES CC(=O)[C@@H]1CCCC[N@H+]1CC(C)(C)C(=O)OCCOCCOC(=O)c1ccc(-c2c3nc(c(-c4c(F)c(F)c(F)c(F)c4F)c4ccc([nH]4)c(-c4c(F)c(F)c(F)c(F)c4F)c4nc(c(-c5c(F)c(F)c(F)c(F)c5F)c5ccc2[nH]5)C=C4)C=C3)cc1
REMARK SMILES IDX 18 1 17 2 16 3 14 4 15 5 11 6 12 7 13 8 10 9 9 10 4 11 5 12
REMARK SMILES IDX 6 13 8 14 7 16 2 17 1 18 3 19 19 20 20 21 21 22 22 23 23 24
REMARK SMILES IDX 24 25 25 26 26 27 87 28 27 29 86 30 28 31 29 32 30 33 80 34
REMARK SMILES IDX 31 35 85 36 79 37 81 38 32 39 84 40 78 41 77 42 33 44 65 45
REMARK SMILES IDX 45 46 64 47 46 48 49 49 63 50 82 51 47 52 48 53 62 55 83 56
REMARK SMILES IDX 50 57 34 58 35 59 43 60 36 61 37 62 41 63 44 64 38 65 39 66
REMARK SMILES IDX 42 67 40 68 66 69 67 70 75 71 68 72 69 73 73 74 76 75 70 76
REMARK SMILES IDX 71 77 74 78 72 79 51 80 52 81 60 82 53 83 54 84 58 85 61 86
REMARK SMILES IDX 55 87 56 88 59 89 57 90
REMARK H PARENT 9 15 81 43 49 54
REMARK Flexibility Score: inf
ROOT
ATOM      1  C   UNL A   1      36.654  21.818  25.703  1.00  0.00     0.202 C 
ENDROOT
BRANCH   1   2
ATOM      2  C   UNL A   1      35.286  21.127  25.828  1.00  0.00     0.261 C 
BRANCH   2   3
ATOM      3  O   UNL A   1      34.391  21.443  24.754  1.00  0.00    -0.463 OA
BRANCH   3   4
ATOM      4  C   UNL A   1      33.445  22.384  25.021  1.00  0.00     0.317 C 
ATOM      5  O   UNL A   1      32.577  22.255  25.879  1.00  0.00    -0.251 OA
BRANCH   4   6
ATOM      6  C   UNL A   1      33.556  23.620  24.121  1.00  0.00     0.111 C 
ATOM      7  C   UNL A   1      34.586  23.264  23.033  1.00  0.00     0.029 C 
ATOM      8  C   UNL A   1      34.151  24.848  24.862  1.00  0.00     0.029 C 
BRANCH   6   9
ATOM      9  C   UNL A   1      32.154  24.065  23.566  1.00  0.00     0.281 C 
BRANCH   9  10
ATOM     10  N   UNL A   1      31.611  25.440  23.613  1.00  0.00    -0.325 N 
ATOM     11  C   UNL A   1      31.458  26.125  22.317  1.00  0.00     0.251 C 
ATOM     12  C   UNL A   1      30.781  27.503  22.402  1.00  0.00     0.074 C 
ATOM     13  C   UNL A   1      29.525  27.459  23.251  1.00  0.00     0.012 C 
ATOM     14  C   UNL A   1      30.530  25.599  24.590  1.00  0.00     0.262 C 
ATOM     15  H   UNL A   1      32.365  26.006  24.001  1.00  0.00     0.348 HD
ATOM     16  C   UNL A   1      29.905  26.992  24.642  1.00  0.00     0.062 C 
BRANCH  11  17
ATOM     17  C   UNL A   1      32.841  26.338  21.646  1.00  0.00     0.186 C 
ATOM     18  C   UNL A   1      33.711  27.427  22.225  1.00  0.00     0.094 C 
ATOM     19  O   UNL A   1      33.268  25.662  20.707  1.00  0.00    -0.293 OA
ENDBRANCH  11  17
ENDBRANCH   9  10
ENDBRANCH   6   9
ENDBRANCH   4   6
ENDBRANCH   3   4
ENDBRANCH   2   3
ENDBRANCH   1   2
BRANCH   1  20
ATOM     20  O   UNL A   1      37.639  21.243  24.856  1.00  0.00    -0.374 OA
BRANCH  20  21
ATOM     21  C   UNL A   1      37.931  19.853  24.992  1.00  0.00     0.202 C 
BRANCH  21  22
ATOM     22  C   UNL A   1      39.232  19.413  25.678  1.00  0.00     0.261 C 
BRANCH  22  23
ATOM     23  O   UNL A   1      40.198  20.474  25.789  1.00  0.00    -0.460 OA
BRANCH  23  24
ATOM     24  C   UNL A   1      40.903  20.477  26.948  1.00  0.00     0.338 C 
ATOM     25  O   UNL A   1      41.490  19.545  27.465  1.00  0.00    -0.246 OA
BRANCH  24  26
ATOM     26  C   UNL A   1      41.053  21.860  27.432  1.00  0.00     0.060 A 
ATOM     27  C   UNL A   1      40.373  22.867  26.735  1.00  0.00     0.016 A 
ATOM     28  C   UNL A   1      41.926  22.174  28.474  1.00  0.00     0.016 A 
ATOM     29  C   UNL A   1      40.593  24.203  27.052  1.00  0.00     0.010 A 
ATOM     30  C   UNL A   1      42.159  23.517  28.781  1.00  0.00     0.010 A 
ATOM     31  C   UNL A   1      41.523  24.534  28.045  1.00  0.00    -0.014 A 
BRANCH  31  32
ATOM     32  C   UNL A   1      41.964  25.942  28.171  1.00  0.00     0.031 A 
ATOM     33  C   UNL A   1      43.279  26.340  27.561  1.00  0.00     0.074 A 
ATOM     34  C   UNL A   1      41.186  26.856  28.772  1.00  0.00     0.049 A 
ATOM     35  N   UNL A   1      43.875  27.505  27.551  1.00  0.00    -0.248 NA
ATOM     36  C   UNL A   1      44.020  25.277  26.867  1.00  0.00     0.031 C 
ATOM     37  C   UNL A   1      39.866  26.596  29.340  1.00  0.00     0.029 A 
ATOM     38  N   UNL A   1      41.397  28.192  28.998  1.00  0.00    -0.354 N 
ATOM     39  C   UNL A   1      45.063  27.311  26.859  1.00  0.00     0.074 A 
ATOM     40  C   UNL A   1      45.120  25.912  26.497  1.00  0.00     0.031 C 
ATOM     41  C   UNL A   1      39.379  27.741  29.848  1.00  0.00     0.029 A 
ATOM     42  C   UNL A   1      40.370  28.802  29.672  1.00  0.00     0.049 A 
ATOM     43  H   UNL A   1      42.207  28.668  28.704  1.00  0.00     0.167 HD
ATOM     44  C   UNL A   1      46.017  28.222  26.548  1.00  0.00     0.037 A 
ATOM     45  C   UNL A   1      40.255  30.071  30.107  1.00  0.00     0.037 A 
ATOM     46  C   UNL A   1      45.954  29.610  26.922  1.00  0.00     0.049 A 
ATOM     47  C   UNL A   1      41.375  31.042  29.840  1.00  0.00     0.074 A 
ATOM     48  C   UNL A   1      46.856  30.623  26.648  1.00  0.00     0.029 A 
ATOM     49  N   UNL A   1      44.930  30.179  27.667  1.00  0.00    -0.354 N 
ATOM     50  N   UNL A   1      42.488  30.862  29.170  1.00  0.00    -0.248 NA
ATOM     51  C   UNL A   1      41.220  32.394  30.392  1.00  0.00     0.031 C 
ATOM     52  C   UNL A   1      46.409  31.788  27.283  1.00  0.00     0.029 A 
ATOM     53  C   UNL A   1      45.195  31.520  27.896  1.00  0.00     0.049 A 
ATOM     54  H   UNL A   1      44.131  29.700  27.988  1.00  0.00     0.167 HD
ATOM     55  C   UNL A   1      43.150  32.083  29.189  1.00  0.00     0.074 A 
ATOM     56  C   UNL A   1      42.307  32.998  29.933  1.00  0.00     0.031 C 
ATOM     57  C   UNL A   1      44.343  32.418  28.637  1.00  0.00     0.037 A 
BRANCH  44  58
ATOM     58  C   UNL A   1      47.227  27.722  25.810  1.00  0.00     0.064 A 
ATOM     59  C   UNL A   1      48.372  27.263  26.483  1.00  0.00     0.173 A 
ATOM     60  C   UNL A   1      47.249  27.719  24.408  1.00  0.00     0.173 A 
ATOM     61  F   UNL A   1      48.409  27.258  27.824  1.00  0.00    -0.203 F 
ATOM     62  C   UNL A   1      49.507  26.868  25.779  1.00  0.00     0.198 A 
ATOM     63  C   UNL A   1      48.374  27.288  23.708  1.00  0.00     0.198 A 
ATOM     64  F   UNL A   1      46.183  28.141  23.712  1.00  0.00    -0.203 F 
ATOM     65  F   UNL A   1      50.613  26.506  26.445  1.00  0.00    -0.200 F 
ATOM     66  C   UNL A   1      49.506  26.878  24.393  1.00  0.00     0.200 A 
ATOM     67  F   UNL A   1      48.366  27.286  22.367  1.00  0.00    -0.200 F 
ATOM     68  F   UNL A   1      50.602  26.505  23.718  1.00  0.00    -0.200 F 
ENDBRANCH  44  58
BRANCH  45  69
ATOM     69  C   UNL A   1      39.028  30.497  30.827  1.00  0.00     0.064 A 
ATOM     70  C   UNL A   1      38.949  30.404  32.224  1.00  0.00     0.173 A 
ATOM     71  C   UNL A   1      37.916  31.011  30.143  1.00  0.00     0.173 A 
ATOM     72  F   UNL A   1      39.975  29.897  32.921  1.00  0.00    -0.203 F 
ATOM     73  C   UNL A   1      37.801  30.802  32.907  1.00  0.00     0.198 A 
ATOM     74  C   UNL A   1      36.781  31.433  30.829  1.00  0.00     0.198 A 
ATOM     75  F   UNL A   1      37.941  31.117  28.806  1.00  0.00    -0.203 F 
ATOM     76  F   UNL A   1      37.738  30.671  34.239  1.00  0.00    -0.200 F 
ATOM     77  C   UNL A   1      36.721  31.324  32.210  1.00  0.00     0.200 A 
ATOM     78  F   UNL A   1      35.745  31.949  30.153  1.00  0.00    -0.200 F 
ATOM     79  F   UNL A   1      35.623  31.717  32.869  1.00  0.00    -0.200 F 
ENDBRANCH  45  69
BRANCH  57  80
ATOM     80  C   UNL A   1      44.792  33.846  28.779  1.00  0.00     0.064 A 
ATOM     81  C   UNL A   1      45.621  34.260  29.832  1.00  0.00     0.173 A 
ATOM     82  C   UNL A   1      44.416  34.804  27.825  1.00  0.00     0.173 A 
ATOM     83  F   UNL A   1      45.996  33.388  30.780  1.00  0.00    -0.203 F 
ATOM     84  C   UNL A   1      46.033  35.587  29.940  1.00  0.00     0.198 A 
ATOM     85  C   UNL A   1      44.858  36.120  27.916  1.00  0.00     0.198 A 
ATOM     86  F   UNL A   1      43.631  34.459  26.792  1.00  0.00    -0.203 F 
ATOM     87  F   UNL A   1      46.779  35.971  30.984  1.00  0.00    -0.200 F 
ATOM     88  C   UNL A   1      45.658  36.513  28.977  1.00  0.00     0.200 A 
ATOM     89  F   UNL A   1      44.508  37.009  26.976  1.00  0.00    -0.200 F 
ATOM     90  F   UNL A   1      46.062  37.787  29.079  1.00  0.00    -0.200 F 
ENDBRANCH  57  80
ENDBRANCH  31  32
ENDBRANCH  24  26
ENDBRANCH  23  24
ENDBRANCH  22  23
ENDBRANCH  21  22
ENDBRANCH  20  21
ENDBRANCH   1  20
TORSDOF 17
ENDMDL
MODEL 2
REMARK VINA RESULT:     -10.6      1.208      7.571
REMARK SMILES CC(=O)[C@@H]1CCCC[N@H+]1CC(C)(C)C(=O)OCCOCCOC(=O)c1ccc(-c2c3nc(c(-c4c(F)c(F)c(F)c(F)c4F)c4ccc([nH]4)c(-c4c(F)c(F)c(F)c(F)c4F)c4nc(c(-c5c(F)c(F)c(F)c(F)c5F)c5ccc2[nH]5)C=C4)C=C3)cc1
REMARK SMILES IDX 18 1 17 2 16 3 14 4 15 5 11 6 12 7 13 8 10 9 9 10 4 11 5 12
REMARK SMILES IDX 6 13 8 14 7 16 2 17 1 18 3 19 19 20 20 21 21 22 22 23 23 24
REMARK SMILES IDX 24 25 25 26 26 27 87 28 27 29 86 30 28 31 29 32 30 33 80 34
REMARK SMILES IDX 31 35 85 36 79 37 81 38 32 39 84 40 78 41 77 42 33 44 65 45
REMARK SMILES IDX 45 46 64 47 46 48 49 49 63 50 82 51 47 52 48 53 62 55 83 56
REMARK SMILES IDX 50 57 34 58 35 59 43 60 36 61 37 62 41 63 44 64 38 65 39 66
REMARK SMILES IDX 42 67 40 68 66 69 67 70 75 71 68 72 69 73 73 74 76 75 70 76
REMARK SMILES IDX 71 77 74 78 72 79 51 80 52 81 60 82 53 83 54 84 58 85 61 86
REMARK SMILES IDX 55 87 56 88 59 89 57 90
REMARK H PARENT 9 15 81 43 49 54
REMARK Flexibility Score: inf
ROOT
ATOM      1  C   UNL A   1      33.957  21.200  26.704  1.00  0.00     0.202 C 
ENDROOT
BRANCH   1   2
ATOM      2  C   UNL A   1      32.982  22.369  26.920  1.00  0.00     0.261 C 
BRANCH   2   3
ATOM      3  O   UNL A   1      33.469  23.615  26.405  1.00  0.00    -0.463 OA
BRANCH   3   4
ATOM      4  C   UNL A   1      32.918  24.034  25.233  1.00  0.00     0.317 C 
ATOM      5  O   UNL A   1      31.711  24.051  25.014  1.00  0.00    -0.251 OA
BRANCH   4   6
ATOM      6  C   UNL A   1      33.963  24.462  24.197  1.00  0.00     0.111 C 
ATOM      7  C   UNL A   1      33.950  23.377  23.104  1.00  0.00     0.029 C 
ATOM      8  C   UNL A   1      35.408  24.453  24.766  1.00  0.00     0.029 C 
BRANCH   6   9
ATOM      9  C   UNL A   1      33.696  25.919  23.668  1.00  0.00     0.281 C 
BRANCH   9  10
ATOM     10  N   UNL A   1      32.444  26.682  23.854  1.00  0.00    -0.325 N 
ATOM     11  C   UNL A   1      32.561  27.964  24.570  1.00  0.00     0.251 C 
ATOM     12  C   UNL A   1      31.259  28.778  24.636  1.00  0.00     0.074 C 
ATOM     13  C   UNL A   1      30.583  28.865  23.281  1.00  0.00     0.012 C 
ATOM     14  C   UNL A   1      31.567  26.643  22.680  1.00  0.00     0.262 C 
ATOM     15  H   UNL A   1      31.921  26.158  24.556  1.00  0.00     0.348 HD
ATOM     16  C   UNL A   1      30.280  27.457  22.807  1.00  0.00     0.062 C 
BRANCH  11  17
ATOM     17  C   UNL A   1      33.028  27.733  26.031  1.00  0.00     0.186 C 
ATOM     18  C   UNL A   1      34.275  28.463  26.465  1.00  0.00     0.094 C 
ATOM     19  O   UNL A   1      32.432  27.024  26.846  1.00  0.00    -0.293 OA
ENDBRANCH  11  17
ENDBRANCH   9  10
ENDBRANCH   6   9
ENDBRANCH   4   6
ENDBRANCH   3   4
ENDBRANCH   2   3
ENDBRANCH   1   2
BRANCH   1  20
ATOM     20  O   UNL A   1      35.265  21.476  26.221  1.00  0.00    -0.374 OA
BRANCH  20  21
ATOM     21  C   UNL A   1      35.758  20.723  25.115  1.00  0.00     0.202 C 
BRANCH  21  22
ATOM     22  C   UNL A   1      37.261  20.432  25.002  1.00  0.00     0.261 C 
BRANCH  22  23
ATOM     23  O   UNL A   1      38.080  21.582  25.280  1.00  0.00    -0.460 OA
BRANCH  23  24
ATOM     24  C   UNL A   1      39.148  21.335  26.079  1.00  0.00     0.338 C 
ATOM     25  O   UNL A   1      39.761  20.291  26.202  1.00  0.00    -0.246 OA
BRANCH  24  26
ATOM     26  C   UNL A   1      39.633  22.598  26.662  1.00  0.00     0.060 A 
ATOM     27  C   UNL A   1      39.121  23.792  26.136  1.00  0.00     0.016 A 
ATOM     28  C   UNL A   1      40.643  22.614  27.623  1.00  0.00     0.016 A 
ATOM     29  C   UNL A   1      39.647  25.012  26.542  1.00  0.00     0.010 A 
ATOM     30  C   UNL A   1      41.184  23.841  28.017  1.00  0.00     0.010 A 
ATOM     31  C   UNL A   1      40.713  25.039  27.449  1.00  0.00    -0.014 A 
BRANCH  31  32
ATOM     32  C   UNL A   1      41.453  26.306  27.647  1.00  0.00     0.031 A 
ATOM     33  C   UNL A   1      40.789  27.413  28.416  1.00  0.00     0.074 A 
ATOM     34  C   UNL A   1      42.709  26.448  27.195  1.00  0.00     0.049 A 
ATOM     35  N   UNL A   1      41.233  28.609  28.709  1.00  0.00    -0.248 NA
ATOM     36  C   UNL A   1      39.440  27.130  28.926  1.00  0.00     0.031 C 
ATOM     37  C   UNL A   1      43.473  25.419  26.494  1.00  0.00     0.029 A 
ATOM     38  N   UNL A   1      43.564  27.518  27.265  1.00  0.00    -0.354 N 
ATOM     39  C   UNL A   1      40.215  29.221  29.427  1.00  0.00     0.074 A 
ATOM     40  C   UNL A   1      39.119  28.280  29.495  1.00  0.00     0.031 C 
ATOM     41  C   UNL A   1      44.691  25.907  26.201  1.00  0.00     0.029 A 
ATOM     42  C   UNL A   1      44.775  27.292  26.661  1.00  0.00     0.049 A 
ATOM     43  H   UNL A   1      43.331  28.367  27.706  1.00  0.00     0.167 HD
ATOM     44  C   UNL A   1      40.201  30.456  29.986  1.00  0.00     0.037 A 
ATOM     45  C   UNL A   1      45.823  28.120  26.491  1.00  0.00     0.037 A 
ATOM     46  C   UNL A   1      41.294  31.388  29.902  1.00  0.00     0.049 A 
ATOM     47  C   UNL A   1      45.744  29.524  27.030  1.00  0.00     0.074 A 
ATOM     48  C   UNL A   1      41.392  32.658  30.442  1.00  0.00     0.029 A 
ATOM     49  N   UNL A   1      42.480  31.151  29.221  1.00  0.00    -0.354 N 
ATOM     50  N   UNL A   1      44.789  30.094  27.725  1.00  0.00    -0.248 NA
ATOM     51  C   UNL A   1      46.892  30.399  26.760  1.00  0.00     0.031 C 
ATOM     52  C   UNL A   1      42.610  33.213  30.032  1.00  0.00     0.029 A 
ATOM     53  C   UNL A   1      43.301  32.265  29.293  1.00  0.00     0.049 A 
ATOM     54  H   UNL A   1      42.705  30.314  28.753  1.00  0.00     0.167 HD
ATOM     55  C   UNL A   1      45.232  31.381  28.004  1.00  0.00     0.074 A 
ATOM     56  C   UNL A   1      46.548  31.503  27.408  1.00  0.00     0.031 C 
ATOM     57  C   UNL A   1      44.610  32.368  28.696  1.00  0.00     0.037 A 
BRANCH  44  58
ATOM     58  C   UNL A   1      38.939  30.876  30.687  1.00  0.00     0.064 A 
ATOM     59  C   UNL A   1      38.770  30.721  32.072  1.00  0.00     0.173 A 
ATOM     60  C   UNL A   1      37.873  31.424  29.957  1.00  0.00     0.173 A 
ATOM     61  F   UNL A   1      39.752  30.188  32.816  1.00  0.00    -0.203 F 
ATOM     62  C   UNL A   1      37.567  31.053  32.690  1.00  0.00     0.198 A 
ATOM     63  C   UNL A   1      36.685  31.789  30.584  1.00  0.00     0.198 A 
ATOM     64  F   UNL A   1      37.979  31.599  28.631  1.00  0.00    -0.203 F 
ATOM     65  F   UNL A   1      37.404  30.827  34.001  1.00  0.00    -0.200 F 
ATOM     66  C   UNL A   1      36.527  31.590  31.947  1.00  0.00     0.200 A 
ATOM     67  F   UNL A   1      35.685  32.319  29.865  1.00  0.00    -0.200 F 
ATOM     68  F   UNL A   1      35.367  31.902  32.541  1.00  0.00    -0.200 F 
ENDBRANCH  44  58
BRANCH  45  69
ATOM     69  C   UNL A   1      47.040  27.636  25.789  1.00  0.00     0.064 A 
ATOM     70  C   UNL A   1      47.142  27.717  24.394  1.00  0.00     0.173 A 
ATOM     71  C   UNL A   1      48.125  27.093  26.493  1.00  0.00     0.173 A 
ATOM     72  F   UNL A   1      46.122  28.206  23.675  1.00  0.00    -0.203 F 
ATOM     73  C   UNL A   1      48.280  27.266  23.729  1.00  0.00     0.198 A 
ATOM     74  C   UNL A   1      49.272  26.667  25.830  1.00  0.00     0.198 A 
ATOM     75  F   UNL A   1      48.075  26.991  27.830  1.00  0.00    -0.203 F 
ATOM     76  F   UNL A   1      48.339  27.323  22.391  1.00  0.00    -0.200 F 
ATOM     77  C   UNL A   1      49.349  26.749  24.448  1.00  0.00     0.200 A 
ATOM     78  F   UNL A   1      50.307  26.181  26.529  1.00  0.00    -0.200 F 
ATOM     79  F   UNL A   1      50.447  26.326  23.808  1.00  0.00    -0.200 F 
ENDBRANCH  45  69
BRANCH  57  80
ATOM     80  C   UNL A   1      45.362  33.657  28.883  1.00  0.00     0.064 A 
ATOM     81  C   UNL A   1      46.232  33.857  29.965  1.00  0.00     0.173 A 
ATOM     82  C   UNL A   1      45.237  34.692  27.943  1.00  0.00     0.173 A 
ATOM     83  F   UNL A   1      46.376  32.906  30.900  1.00  0.00    -0.203 F 
ATOM     84  C   UNL A   1      46.926  35.056  30.114  1.00  0.00     0.198 A 
ATOM     85  C   UNL A   1      45.958  35.874  28.075  1.00  0.00     0.198 A 
ATOM     86  F   UNL A   1      44.424  34.550  26.884  1.00  0.00    -0.203 F 
ATOM     87  F   UNL A   1      47.709  35.245  31.184  1.00  0.00    -0.200 F 
ATOM     88  C   UNL A   1      46.794  36.059  29.165  1.00  0.00     0.200 A 
ATOM     89  F   UNL A   1      45.842  36.835  27.149  1.00  0.00    -0.200 F 
ATOM     90  F   UNL A   1      47.469  37.209  29.306  1.00  0.00    -0.200 F 
ENDBRANCH  57  80
ENDBRANCH  31  32
ENDBRANCH  24  26
ENDBRANCH  23  24
ENDBRANCH  22  23
ENDBRANCH  21  22
ENDBRANCH  20  21
ENDBRANCH   1  20
TORSDOF 17
ENDMDL
MODEL 3
REMARK VINA RESULT:     -10.6      4.565      6.791
REMARK SMILES CC(=O)[C@@H]1CCCC[N@H+]1CC(C)(C)C(=O)OCCOCCOC(=O)c1ccc(-c2c3nc(c(-c4c(F)c(F)c(F)c(F)c4F)c4ccc([nH]4)c(-c4c(F)c(F)c(F)c(F)c4F)c4nc(c(-c5c(F)c(F)c(F)c(F)c5F)c5ccc2[nH]5)C=C4)C=C3)cc1
REMARK SMILES IDX 18 1 17 2 16 3 14 4 15 5 11 6 12 7 13 8 10 9 9 10 4 11 5 12
REMARK SMILES IDX 6 13 8 14 7 16 2 17 1 18 3 19 19 20 20 21 21 22 22 23 23 24
REMARK SMILES IDX 24 25 25 26 26 27 87 28 27 29 86 30 28 31 29 32 30 33 80 34
REMARK SMILES IDX 31 35 85 36 79 37 81 38 32 39 84 40 78 41 77 42 33 44 65 45
REMARK SMILES IDX 45 46 64 47 46 48 49 49 63 50 82 51 47 52 48 53 62 55 83 56
REMARK SMILES IDX 50 57 34 58 35 59 43 60 36 61 37 62 41 63 44 64 38 65 39 66
REMARK SMILES IDX 42 67 40 68 66 69 67 70 75 71 68 72 69 73 73 74 76 75 70 76
REMARK SMILES IDX 71 77 74 78 72 79 51 80 52 81 60 82 53 83 54 84 58 85 61 86
REMARK SMILES IDX 55 87 56 88 59 89 57 90
REMARK H PARENT 9 15 81 43 49 54
REMARK Flexibility Score: inf
ROOT
ATOM      1  C   UNL A   1      39.707  21.087  26.205  1.00  0.00     0.202 C 
ENDROOT
BRANCH   1   2
ATOM      2  C   UNL A   1      38.818  22.315  25.948  1.00  0.00     0.261 C 
BRANCH   2   3
ATOM      3  O   UNL A   1      37.431  21.988  25.795  1.00  0.00    -0.463 OA
BRANCH   3   4
ATOM      4  C   UNL A   1      36.700  22.834  25.018  1.00  0.00     0.317 C 
ATOM      5  O   UNL A   1      37.192  23.611  24.206  1.00  0.00    -0.251 OA
BRANCH   4   6
ATOM      6  C   UNL A   1      35.192  22.735  25.276  1.00  0.00     0.111 C 
ATOM      7  C   UNL A   1      34.984  21.453  26.104  1.00  0.00     0.029 C 
ATOM      8  C   UNL A   1      34.375  22.519  23.974  1.00  0.00     0.029 C 
BRANCH   6   9
ATOM      9  C   UNL A   1      34.630  24.040  25.950  1.00  0.00     0.281 C 
BRANCH   9  10
ATOM     10  N   UNL A   1      33.541  24.882  25.409  1.00  0.00    -0.325 N 
ATOM     11  C   UNL A   1      32.368  25.070  26.281  1.00  0.00     0.251 C 
ATOM     12  C   UNL A   1      31.316  26.046  25.730  1.00  0.00     0.074 C 
ATOM     13  C   UNL A   1      31.950  27.330  25.230  1.00  0.00     0.012 C 
ATOM     14  C   UNL A   1      34.029  26.053  24.674  1.00  0.00     0.262 C 
ATOM     15  H   UNL A   1      33.107  24.313  24.683  1.00  0.00     0.348 HD
ATOM     16  C   UNL A   1      32.940  26.979  24.137  1.00  0.00     0.062 C 
BRANCH  11  17
ATOM     17  C   UNL A   1      31.649  23.717  26.528  1.00  0.00     0.186 C 
ATOM     18  C   UNL A   1      31.030  23.052  25.323  1.00  0.00     0.094 C 
ATOM     19  O   UNL A   1      31.584  23.157  27.625  1.00  0.00    -0.293 OA
ENDBRANCH  11  17
ENDBRANCH   9  10
ENDBRANCH   6   9
ENDBRANCH   4   6
ENDBRANCH   3   4
ENDBRANCH   2   3
ENDBRANCH   1   2
BRANCH   1  20
ATOM     20  O   UNL A   1      40.986  21.277  26.796  1.00  0.00    -0.374 OA
BRANCH  20  21
ATOM     21  C   UNL A   1      42.126  20.702  26.158  1.00  0.00     0.202 C 
BRANCH  21  22
ATOM     22  C   UNL A   1      43.200  21.617  25.552  1.00  0.00     0.261 C 
BRANCH  22  23
ATOM     23  O   UNL A   1      42.654  22.801  24.943  1.00  0.00    -0.460 OA
BRANCH  23  24
ATOM     24  C   UNL A   1      43.411  23.916  25.097  1.00  0.00     0.338 C 
ATOM     25  O   UNL A   1      44.441  24.203  24.517  1.00  0.00    -0.246 OA
BRANCH  24  26
ATOM     26  C   UNL A   1      42.699  24.884  25.947  1.00  0.00     0.060 A 
ATOM     27  C   UNL A   1      43.252  26.166  26.071  1.00  0.00     0.016 A 
ATOM     28  C   UNL A   1      41.579  24.512  26.691  1.00  0.00     0.016 A 
ATOM     29  C   UNL A   1      42.708  27.074  26.973  1.00  0.00     0.010 A 
ATOM     30  C   UNL A   1      41.044  25.419  27.610  1.00  0.00     0.010 A 
ATOM     31  C   UNL A   1      41.631  26.687  27.780  1.00  0.00    -0.014 A 
BRANCH  31  32
ATOM     32  C   UNL A   1      41.253  27.542  28.928  1.00  0.00     0.031 A 
ATOM     33  C   UNL A   1      42.095  27.488  30.172  1.00  0.00     0.074 A 
ATOM     34  C   UNL A   1      40.213  28.386  28.844  1.00  0.00     0.049 A 
ATOM     35  N   UNL A   1      41.957  28.134  31.301  1.00  0.00    -0.248 NA
ATOM     36  C   UNL A   1      43.251  26.581  30.133  1.00  0.00     0.031 C 
ATOM     37  C   UNL A   1      39.368  28.569  27.667  1.00  0.00     0.029 A 
ATOM     38  N   UNL A   1      39.695  29.253  29.772  1.00  0.00    -0.354 N 
ATOM     39  C   UNL A   1      43.001  27.705  32.109  1.00  0.00     0.074 A 
ATOM     40  C   UNL A   1      43.742  26.717  31.354  1.00  0.00     0.031 C 
ATOM     41  C   UNL A   1      38.436  29.497  27.941  1.00  0.00     0.029 A 
ATOM     42  C   UNL A   1      38.597  29.943  29.324  1.00  0.00     0.049 A 
ATOM     43  H   UNL A   1      40.073  29.368  30.674  1.00  0.00     0.167 HD
ATOM     44  C   UNL A   1      43.317  28.104  33.365  1.00  0.00     0.037 A 
ATOM     45  C   UNL A   1      37.809  30.825  29.967  1.00  0.00     0.037 A 
ATOM     46  C   UNL A   1      42.566  29.080  34.109  1.00  0.00     0.049 A 
ATOM     47  C   UNL A   1      38.118  31.177  31.399  1.00  0.00     0.074 A 
ATOM     48  C   UNL A   1      42.803  29.569  35.382  1.00  0.00     0.029 A 
ATOM     49  N   UNL A   1      41.417  29.708  33.648  1.00  0.00    -0.354 N 
ATOM     50  N   UNL A   1      39.116  30.784  32.153  1.00  0.00    -0.248 NA
ATOM     51  C   UNL A   1      37.188  32.096  32.067  1.00  0.00     0.031 C 
ATOM     52  C   UNL A   1      41.762  30.443  35.714  1.00  0.00     0.029 A 
ATOM     53  C   UNL A   1      40.911  30.552  34.625  1.00  0.00     0.049 A 
ATOM     54  H   UNL A   1      41.017  29.573  32.758  1.00  0.00     0.167 HD
ATOM     55  C   UNL A   1      38.955  31.432  33.372  1.00  0.00     0.074 A 
ATOM     56  C   UNL A   1      37.764  32.250  33.250  1.00  0.00     0.031 C 
ATOM     57  C   UNL A   1      39.725  31.361  34.486  1.00  0.00     0.037 A 
BRANCH  44  58
ATOM     58  C   UNL A   1      44.496  27.440  34.018  1.00  0.00     0.064 A 
ATOM     59  C   UNL A   1      44.367  26.250  34.754  1.00  0.00     0.173 A 
ATOM     60  C   UNL A   1      45.773  28.013  33.923  1.00  0.00     0.173 A 
ATOM     61  F   UNL A   1      43.166  25.668  34.890  1.00  0.00    -0.203 F 
ATOM     62  C   UNL A   1      45.461  25.690  35.408  1.00  0.00     0.198 A 
ATOM     63  C   UNL A   1      46.871  27.428  34.548  1.00  0.00     0.198 A 
ATOM     64  F   UNL A   1      45.957  29.146  33.229  1.00  0.00    -0.203 F 
ATOM     65  F   UNL A   1      45.298  24.596  36.166  1.00  0.00    -0.200 F 
ATOM     66  C   UNL A   1      46.713  26.276  35.303  1.00  0.00     0.200 A 
ATOM     67  F   UNL A   1      48.083  27.991  34.434  1.00  0.00    -0.200 F 
ATOM     68  F   UNL A   1      47.763  25.740  35.938  1.00  0.00    -0.200 F 
ENDBRANCH  44  58
BRANCH  45  69
ATOM     69  C   UNL A   1      36.661  31.445  29.257  1.00  0.00     0.064 A 
ATOM     70  C   UNL A   1      35.534  30.684  28.918  1.00  0.00     0.173 A 
ATOM     71  C   UNL A   1      36.660  32.804  28.911  1.00  0.00     0.173 A 
ATOM     72  F   UNL A   1      35.497  29.375  29.205  1.00  0.00    -0.203 F 
ATOM     73  C   UNL A   1      34.453  31.259  28.252  1.00  0.00     0.198 A 
ATOM     74  C   UNL A   1      35.568  33.383  28.270  1.00  0.00     0.198 A 
ATOM     75  F   UNL A   1      37.716  33.574  29.211  1.00  0.00    -0.203 F 
ATOM     76  F   UNL A   1      33.401  30.502  27.908  1.00  0.00    -0.200 F 
ATOM     77  C   UNL A   1      34.467  32.609  27.936  1.00  0.00     0.200 A 
ATOM     78  F   UNL A   1      35.580  34.691  27.978  1.00  0.00    -0.200 F 
ATOM     79  F   UNL A   1      33.421  33.162  27.306  1.00  0.00    -0.200 F 
ENDBRANCH  45  69
BRANCH  57  80
ATOM     80  C   UNL A   1      39.329  32.223  35.653  1.00  0.00     0.064 A 
ATOM     81  C   UNL A   1      39.759  33.552  35.771  1.00  0.00     0.173 A 
ATOM     82  C   UNL A   1      38.476  31.718  36.647  1.00  0.00     0.173 A 
ATOM     83  F   UNL A   1      40.588  34.079  34.858  1.00  0.00    -0.203 F 
ATOM     84  C   UNL A   1      39.372  34.336  36.857  1.00  0.00     0.198 A 
ATOM     85  C   UNL A   1      38.063  32.515  37.711  1.00  0.00     0.198 A 
ATOM     86  F   UNL A   1      38.029  30.455  36.578  1.00  0.00    -0.203 F 
ATOM     87  F   UNL A   1      39.839  35.587  36.978  1.00  0.00    -0.200 F 
ATOM     88  C   UNL A   1      38.518  33.819  37.820  1.00  0.00     0.200 A 
ATOM     89  F   UNL A   1      37.226  32.018  38.631  1.00  0.00    -0.200 F 
ATOM     90  F   UNL A   1      38.141  34.577  38.859  1.00  0.00    -0.200 F 
ENDBRANCH  57  80
ENDBRANCH  31  32
ENDBRANCH  24  26
ENDBRANCH  23  24
ENDBRANCH  22  23
ENDBRANCH  21  22
ENDBRANCH  20  21
ENDBRANCH   1  20
TORSDOF 17
ENDMDL
