MODEL 1
REMARK VINA RESULT:     -10.6      0.000      0.000
REMARK SMILES COC(=O)Oc1cncc(C(=O)OCCOCCOC(=O)c2ccc(-c3c4nc(c(-c5c(F)c(F)c(F)c(F)c5F)c5ccc([nH]5)c(-c5c(F)c(F)c(F)c(F)c5F)c5nc(c(-c6c(F)c(F)c(F)c(F)c6F)c6ccc3[nH]6)C=C5)C=C4)cc2)c1
REMARK SMILES IDX 15 1 14 2 13 3 11 4 12 5 10 6 6 7 7 8 85 9 8 10 9 11 5 12
REMARK SMILES IDX 3 13 4 14 2 15 1 16 16 17 17 18 18 19 19 20 20 21 21 22
REMARK SMILES IDX 22 23 23 24 84 25 24 26 83 27 25 28 26 29 27 30 77 31 28 32
REMARK SMILES IDX 82 33 76 34 78 35 29 36 81 37 75 38 74 39 30 41 62 42 42 43
REMARK SMILES IDX 61 44 43 45 46 46 60 47 79 48 44 49 45 50 59 52 80 53 47 54
REMARK SMILES IDX 31 55 32 56 40 57 33 58 34 59 38 60 41 61 35 62 36 63 39 64
REMARK SMILES IDX 37 65 63 66 64 67 72 68 65 69 66 70 70 71 73 72 67 73 68 74
REMARK SMILES IDX 71 75 69 76 48 77 49 78 57 79 50 80 51 81 55 82 58 83 52 84
REMARK SMILES IDX 53 85 56 86 54 87
REMARK H PARENT 78 40 46 51
REMARK Flexibility Score: inf
ROOT
ATOM      1  C   UNL A   1      40.033  21.493  26.567  1.00  0.00     0.202 C 
ENDROOT
BRANCH   1   2
ATOM      2  C   UNL A   1      39.018  22.282  25.734  1.00  0.00     0.261 C 
BRANCH   2   3
ATOM      3  O   UNL A   1      37.669  21.863  25.986  1.00  0.00    -0.460 OA
BRANCH   3   4
ATOM      4  C   UNL A   1      37.161  21.002  25.069  1.00  0.00     0.339 C 
ATOM      5  O   UNL A   1      37.600  19.905  24.769  1.00  0.00    -0.246 OA
BRANCH   4   6
ATOM      6  C   UNL A   1      35.869  21.506  24.575  1.00  0.00     0.082 A 
ATOM      7  C   UNL A   1      34.470  23.093  23.459  1.00  0.00     0.153 A 
ATOM      8  C   UNL A   1      33.395  22.241  23.674  1.00  0.00     0.158 A 
ATOM      9  C   UNL A   1      35.720  22.751  23.969  1.00  0.00     0.066 A 
ATOM     10  N   UNL A   1      33.504  21.054  24.315  1.00  0.00    -0.260 NA
ATOM     11  C   UNL A   1      34.747  20.701  24.728  1.00  0.00     0.127 A 
BRANCH   7  12
ATOM     12  O   UNL A   1      34.246  24.275  22.749  1.00  0.00    -0.393 OA
BRANCH  12  13
ATOM     13  C   UNL A   1      33.476  25.224  23.408  1.00  0.00     0.513 C 
ATOM     14  O   UNL A   1      32.434  25.728  23.005  1.00  0.00    -0.203 OA
BRANCH  13  15
ATOM     15  O   UNL A   1      34.085  25.530  24.583  1.00  0.00    -0.437 OA
ATOM     16  C   UNL A   1      33.176  25.965  25.593  1.00  0.00     0.286 C 
ENDBRANCH  13  15
ENDBRANCH  12  13
ENDBRANCH   7  12
ENDBRANCH   4   6
ENDBRANCH   3   4
ENDBRANCH   2   3
ENDBRANCH   1   2
BRANCH   1  17
ATOM     17  O   UNL A   1      41.093  20.833  25.881  1.00  0.00    -0.374 OA
BRANCH  17  18
ATOM     18  C   UNL A   1      42.423  20.992  26.372  1.00  0.00     0.202 C 
BRANCH  18  19
ATOM     19  C   UNL A   1      43.434  21.755  25.506  1.00  0.00     0.261 C 
BRANCH  19  20
ATOM     20  O   UNL A   1      42.869  22.905  24.855  1.00  0.00    -0.460 OA
BRANCH  20  21
ATOM     21  C   UNL A   1      43.603  24.036  24.994  1.00  0.00     0.338 C 
ATOM     22  O   UNL A   1      44.622  24.338  24.399  1.00  0.00    -0.246 OA
BRANCH  21  23
ATOM     23  C   UNL A   1      42.901  24.986  25.874  1.00  0.00     0.060 A 
ATOM     24  C   UNL A   1      43.496  26.237  26.079  1.00  0.00     0.016 A 
ATOM     25  C   UNL A   1      41.741  24.626  26.563  1.00  0.00     0.016 A 
ATOM     26  C   UNL A   1      42.965  27.114  27.021  1.00  0.00     0.010 A 
ATOM     27  C   UNL A   1      41.213  25.507  27.511  1.00  0.00     0.010 A 
ATOM     28  C   UNL A   1      41.846  26.736  27.774  1.00  0.00    -0.014 A 
BRANCH  28  29
ATOM     29  C   UNL A   1      41.431  27.566  28.932  1.00  0.00     0.031 A 
ATOM     30  C   UNL A   1      42.204  27.467  30.218  1.00  0.00     0.074 A 
ATOM     31  C   UNL A   1      40.399  28.420  28.827  1.00  0.00     0.049 A 
ATOM     32  N   UNL A   1      41.997  28.070  31.361  1.00  0.00    -0.248 NA
ATOM     33  C   UNL A   1      43.364  26.562  30.217  1.00  0.00     0.031 C 
ATOM     34  C   UNL A   1      39.598  28.632  27.623  1.00  0.00     0.029 A 
ATOM     35  N   UNL A   1      39.845  29.267  29.754  1.00  0.00    -0.354 N 
ATOM     36  C   UNL A   1      42.992  27.610  32.216  1.00  0.00     0.074 A 
ATOM     37  C   UNL A   1      43.779  26.650  31.472  1.00  0.00     0.031 C 
ATOM     38  C   UNL A   1      38.649  29.545  27.886  1.00  0.00     0.029 A 
ATOM     39  C   UNL A   1      38.753  29.954  29.286  1.00  0.00     0.049 A 
ATOM     40  H   UNL A   1      40.197  29.372  30.667  1.00  0.00     0.167 HD
ATOM     41  C   UNL A   1      43.231  27.965  33.501  1.00  0.00     0.037 A 
ATOM     42  C   UNL A   1      37.917  30.797  29.923  1.00  0.00     0.037 A 
ATOM     43  C   UNL A   1      42.447  28.924  34.235  1.00  0.00     0.049 A 
ATOM     44  C   UNL A   1      38.166  31.124  31.374  1.00  0.00     0.074 A 
ATOM     45  C   UNL A   1      42.624  29.371  35.532  1.00  0.00     0.029 A 
ATOM     46  N   UNL A   1      41.330  29.579  33.736  1.00  0.00    -0.354 N 
ATOM     47  N   UNL A   1      39.124  30.708  32.167  1.00  0.00    -0.248 NA
ATOM     48  C   UNL A   1      37.219  32.047  32.015  1.00  0.00     0.031 C 
ATOM     49  C   UNL A   1      41.575  30.244  35.841  1.00  0.00     0.029 A 
ATOM     50  C   UNL A   1      40.789  30.401  34.712  1.00  0.00     0.049 A 
ATOM     51  H   UNL A   1      40.975  29.475  32.824  1.00  0.00     0.167 HD
ATOM     52  C   UNL A   1      38.916  31.343  33.385  1.00  0.00     0.074 A 
ATOM     53  C   UNL A   1      37.750  32.184  33.222  1.00  0.00     0.031 C 
ATOM     54  C   UNL A   1      39.630  31.240  34.534  1.00  0.00     0.037 A 
BRANCH  41  55
ATOM     55  C   UNL A   1      44.371  27.289  34.211  1.00  0.00     0.064 A 
ATOM     56  C   UNL A   1      45.669  27.821  34.207  1.00  0.00     0.173 A 
ATOM     57  C   UNL A   1      44.150  26.110  34.940  1.00  0.00     0.173 A 
ATOM     58  F   UNL A   1      45.939  28.939  33.515  1.00  0.00    -0.203 F 
ATOM     59  C   UNL A   1      46.708  27.183  34.882  1.00  0.00     0.198 A 
ATOM     60  C   UNL A   1      45.183  25.495  35.642  1.00  0.00     0.198 A 
ATOM     61  F   UNL A   1      42.927  25.560  34.984  1.00  0.00    -0.203 F 
ATOM     62  F   UNL A   1      47.950  27.682  34.821  1.00  0.00    -0.200 F 
ATOM     63  C   UNL A   1      46.461  26.026  35.606  1.00  0.00     0.200 A 
ATOM     64  F   UNL A   1      44.938  24.385  36.355  1.00  0.00    -0.200 F 
ATOM     65  F   UNL A   1      47.460  25.420  36.263  1.00  0.00    -0.200 F 
ENDBRANCH  41  55
BRANCH  42  66
ATOM     66  C   UNL A   1      36.759  31.384  29.200  1.00  0.00     0.064 A 
ATOM     67  C   UNL A   1      36.732  32.741  28.852  1.00  0.00     0.173 A 
ATOM     68  C   UNL A   1      35.645  30.602  28.856  1.00  0.00     0.173 A 
ATOM     69  F   UNL A   1      37.762  33.536  29.179  1.00  0.00    -0.203 F 
ATOM     70  C   UNL A   1      35.626  33.300  28.215  1.00  0.00     0.198 A 
ATOM     71  C   UNL A   1      34.555  31.154  28.188  1.00  0.00     0.198 A 
ATOM     72  F   UNL A   1      35.620  29.297  29.164  1.00  0.00    -0.203 F 
ATOM     73  F   UNL A   1      35.603  34.613  27.945  1.00  0.00    -0.200 F 
ATOM     74  C   UNL A   1      34.541  32.505  27.876  1.00  0.00     0.200 A 
ATOM     75  F   UNL A   1      33.516  30.378  27.850  1.00  0.00    -0.200 F 
ATOM     76  F   UNL A   1      33.480  33.041  27.259  1.00  0.00    -0.200 F 
ENDBRANCH  42  66
BRANCH  54  77
ATOM     77  C   UNL A   1      39.200  32.096  35.694  1.00  0.00     0.064 A 
ATOM     78  C   UNL A   1      38.312  31.629  36.675  1.00  0.00     0.173 A 
ATOM     79  C   UNL A   1      39.714  33.395  35.844  1.00  0.00     0.173 A 
ATOM     80  F   UNL A   1      37.782  30.401  36.575  1.00  0.00    -0.203 F 
ATOM     81  C   UNL A   1      37.926  32.441  37.739  1.00  0.00     0.198 A 
ATOM     82  C   UNL A   1      39.357  34.190  36.929  1.00  0.00     0.198 A 
ATOM     83  F   UNL A   1      40.575  33.890  34.941  1.00  0.00    -0.203 F 
ATOM     84  F   UNL A   1      37.031  31.995  38.629  1.00  0.00    -0.200 F 
ATOM     85  C   UNL A   1      38.455  33.718  37.869  1.00  0.00     0.200 A 
ATOM     86  F   UNL A   1      39.883  35.415  37.062  1.00  0.00    -0.200 F 
ATOM     87  F   UNL A   1      38.088  34.494  38.898  1.00  0.00    -0.200 F 
ENDBRANCH  54  77
ENDBRANCH  28  29
ENDBRANCH  21  23
ENDBRANCH  20  21
ENDBRANCH  19  20
ENDBRANCH  18  19
ENDBRANCH  17  18
ENDBRANCH   1  17
TORSDOF 17
ENDMDL
MODEL 2
REMARK VINA RESULT:     -10.6      1.275      2.513
REMARK SMILES COC(=O)Oc1cncc(C(=O)OCCOCCOC(=O)c2ccc(-c3c4nc(c(-c5c(F)c(F)c(F)c(F)c5F)c5ccc([nH]5)c(-c5c(F)c(F)c(F)c(F)c5F)c5nc(c(-c6c(F)c(F)c(F)c(F)c6F)c6ccc3[nH]6)C=C5)C=C4)cc2)c1
REMARK SMILES IDX 15 1 14 2 13 3 11 4 12 5 10 6 6 7 7 8 85 9 8 10 9 11 5 12
REMARK SMILES IDX 3 13 4 14 2 15 1 16 16 17 17 18 18 19 19 20 20 21 21 22
REMARK SMILES IDX 22 23 23 24 84 25 24 26 83 27 25 28 26 29 27 30 77 31 28 32
REMARK SMILES IDX 82 33 76 34 78 35 29 36 81 37 75 38 74 39 30 41 62 42 42 43
REMARK SMILES IDX 61 44 43 45 46 46 60 47 79 48 44 49 45 50 59 52 80 53 47 54
REMARK SMILES IDX 31 55 32 56 40 57 33 58 34 59 38 60 41 61 35 62 36 63 39 64
REMARK SMILES IDX 37 65 63 66 64 67 72 68 65 69 66 70 70 71 73 72 67 73 68 74
REMARK SMILES IDX 71 75 69 76 48 77 49 78 57 79 50 80 51 81 55 82 58 83 52 84
REMARK SMILES IDX 53 85 56 86 54 87
REMARK H PARENT 78 40 46 51
REMARK Flexibility Score: inf
ROOT
ATOM      1  C   UNL A   1      40.076  21.237  26.596  1.00  0.00     0.202 C 
ENDROOT
BRANCH   1   2
ATOM      2  C   UNL A   1      39.084  22.026  25.736  1.00  0.00     0.261 C 
BRANCH   2   3
ATOM      3  O   UNL A   1      37.722  21.677  26.023  1.00  0.00    -0.460 OA
BRANCH   3   4
ATOM      4  C   UNL A   1      37.156  20.818  25.139  1.00  0.00     0.339 C 
ATOM      5  O   UNL A   1      37.670  19.831  24.641  1.00  0.00    -0.246 OA
BRANCH   4   6
ATOM      6  C   UNL A   1      35.731  21.146  24.969  1.00  0.00     0.082 A 
ATOM      7  C   UNL A   1      33.427  20.596  24.637  1.00  0.00     0.153 A 
ATOM      8  C   UNL A   1      33.128  21.948  24.742  1.00  0.00     0.158 A 
ATOM      9  C   UNL A   1      34.758  20.189  24.691  1.00  0.00     0.066 A 
ATOM     10  N   UNL A   1      34.064  22.903  24.950  1.00  0.00    -0.260 NA
ATOM     11  C   UNL A   1      35.344  22.476  25.086  1.00  0.00     0.127 A 
BRANCH   7  12
ATOM     12  O   UNL A   1      32.372  19.696  24.462  1.00  0.00    -0.393 OA
BRANCH  12  13
ATOM     13  C   UNL A   1      32.617  18.405  24.910  1.00  0.00     0.513 C 
ATOM     14  O   UNL A   1      32.526  18.003  26.065  1.00  0.00    -0.203 OA
BRANCH  13  15
ATOM     15  O   UNL A   1      33.004  17.648  23.852  1.00  0.00    -0.437 OA
ATOM     16  C   UNL A   1      32.264  17.921  22.663  1.00  0.00     0.286 C 
ENDBRANCH  13  15
ENDBRANCH  12  13
ENDBRANCH   7  12
ENDBRANCH   4   6
ENDBRANCH   3   4
ENDBRANCH   2   3
ENDBRANCH   1   2
BRANCH   1  17
ATOM     17  O   UNL A   1      41.165  20.592  25.941  1.00  0.00    -0.374 OA
BRANCH  17  18
ATOM     18  C   UNL A   1      42.485  20.826  26.429  1.00  0.00     0.202 C 
BRANCH  18  19
ATOM     19  C   UNL A   1      43.437  21.676  25.580  1.00  0.00     0.261 C 
BRANCH  19  20
ATOM     20  O   UNL A   1      42.787  22.787  24.940  1.00  0.00    -0.460 OA
BRANCH  20  21
ATOM     21  C   UNL A   1      43.492  23.944  24.989  1.00  0.00     0.338 C 
ATOM     22  O   UNL A   1      44.465  24.249  24.322  1.00  0.00    -0.246 OA
BRANCH  21  23
ATOM     23  C   UNL A   1      42.813  24.911  25.869  1.00  0.00     0.060 A 
ATOM     24  C   UNL A   1      43.433  26.151  26.067  1.00  0.00     0.016 A 
ATOM     25  C   UNL A   1      41.651  24.575  26.565  1.00  0.00     0.016 A 
ATOM     26  C   UNL A   1      42.924  27.041  27.008  1.00  0.00     0.010 A 
ATOM     27  C   UNL A   1      41.144  25.470  27.513  1.00  0.00     0.010 A 
ATOM     28  C   UNL A   1      41.802  26.687  27.768  1.00  0.00    -0.014 A 
BRANCH  28  29
ATOM     29  C   UNL A   1      41.409  27.529  28.925  1.00  0.00     0.031 A 
ATOM     30  C   UNL A   1      42.196  27.432  30.202  1.00  0.00     0.074 A 
ATOM     31  C   UNL A   1      40.384  28.393  28.826  1.00  0.00     0.049 A 
ATOM     32  N   UNL A   1      42.009  28.044  31.344  1.00  0.00    -0.248 NA
ATOM     33  C   UNL A   1      43.347  26.515  30.194  1.00  0.00     0.031 C 
ATOM     34  C   UNL A   1      39.571  28.604  27.630  1.00  0.00     0.029 A 
ATOM     35  N   UNL A   1      39.850  29.252  29.754  1.00  0.00    -0.354 N 
ATOM     36  C   UNL A   1      43.009  27.581  32.190  1.00  0.00     0.074 A 
ATOM     37  C   UNL A   1      43.778  26.608  31.443  1.00  0.00     0.031 C 
ATOM     38  C   UNL A   1      38.634  29.529  27.898  1.00  0.00     0.029 A 
ATOM     39  C   UNL A   1      38.758  29.946  29.294  1.00  0.00     0.049 A 
ATOM     40  H   UNL A   1      40.214  29.359  30.662  1.00  0.00     0.167 HD
ATOM     41  C   UNL A   1      43.267  27.941  33.469  1.00  0.00     0.037 A 
ATOM     42  C   UNL A   1      37.939  30.801  29.936  1.00  0.00     0.037 A 
ATOM     43  C   UNL A   1      42.501  28.914  34.206  1.00  0.00     0.049 A 
ATOM     44  C   UNL A   1      38.209  31.136  31.381  1.00  0.00     0.074 A 
ATOM     45  C   UNL A   1      42.698  29.368  35.498  1.00  0.00     0.029 A 
ATOM     46  N   UNL A   1      41.385  29.575  33.715  1.00  0.00    -0.354 N 
ATOM     47  N   UNL A   1      39.172  30.716  32.165  1.00  0.00    -0.248 NA
ATOM     48  C   UNL A   1      37.279  32.072  32.027  1.00  0.00     0.031 C 
ATOM     49  C   UNL A   1      41.662  30.253  35.813  1.00  0.00     0.029 A 
ATOM     50  C   UNL A   1      40.863  30.410  34.692  1.00  0.00     0.049 A 
ATOM     51  H   UNL A   1      41.018  29.469  32.808  1.00  0.00     0.167 HD
ATOM     52  C   UNL A   1      38.985  31.361  33.382  1.00  0.00     0.074 A 
ATOM     53  C   UNL A   1      37.825  32.212  33.226  1.00  0.00     0.031 C 
ATOM     54  C   UNL A   1      39.711  31.259  34.522  1.00  0.00     0.037 A 
BRANCH  41  55
ATOM     55  C   UNL A   1      44.409  27.259  34.171  1.00  0.00     0.064 A 
ATOM     56  C   UNL A   1      44.259  26.011  34.793  1.00  0.00     0.173 A 
ATOM     57  C   UNL A   1      45.683  27.848  34.186  1.00  0.00     0.173 A 
ATOM     58  F   UNL A   1      43.060  25.408  34.819  1.00  0.00    -0.203 F 
ATOM     59  C   UNL A   1      45.334  25.391  35.427  1.00  0.00     0.198 A 
ATOM     60  C   UNL A   1      46.763  27.211  34.791  1.00  0.00     0.198 A 
ATOM     61  F   UNL A   1      45.885  29.040  33.602  1.00  0.00    -0.203 F 
ATOM     62  F   UNL A   1      45.155  24.223  36.059  1.00  0.00    -0.200 F 
ATOM     63  C   UNL A   1      46.586  25.988  35.418  1.00  0.00     0.200 A 
ATOM     64  F   UNL A   1      47.976  27.782  34.766  1.00  0.00    -0.200 F 
ATOM     65  F   UNL A   1      47.621  25.386  36.019  1.00  0.00    -0.200 F 
ENDBRANCH  41  55
BRANCH  42  66
ATOM     66  C   UNL A   1      36.778  31.395  29.222  1.00  0.00     0.064 A 
ATOM     67  C   UNL A   1      36.769  32.745  28.846  1.00  0.00     0.173 A 
ATOM     68  C   UNL A   1      35.643  30.627  28.916  1.00  0.00     0.173 A 
ATOM     69  F   UNL A   1      37.820  33.527  29.136  1.00  0.00    -0.203 F 
ATOM     70  C   UNL A   1      35.661  33.311  28.218  1.00  0.00     0.198 A 
ATOM     71  C   UNL A   1      34.551  31.185  28.257  1.00  0.00     0.198 A 
ATOM     72  F   UNL A   1      35.600  29.329  29.252  1.00  0.00    -0.203 F 
ATOM     73  F   UNL A   1      35.658  34.618  27.921  1.00  0.00    -0.200 F 
ATOM     74  C   UNL A   1      34.556  32.529  27.917  1.00  0.00     0.200 A 
ATOM     75  F   UNL A   1      33.492  30.422  27.955  1.00  0.00    -0.200 F 
ATOM     76  F   UNL A   1      33.494  33.072  27.309  1.00  0.00    -0.200 F 
ENDBRANCH  42  66
BRANCH  54  77
ATOM     77  C   UNL A   1      39.304  32.127  35.681  1.00  0.00     0.064 A 
ATOM     78  C   UNL A   1      39.777  33.439  35.832  1.00  0.00     0.173 A 
ATOM     79  C   UNL A   1      38.396  31.647  36.641  1.00  0.00     0.173 A 
ATOM     80  F   UNL A   1      40.655  33.944  34.952  1.00  0.00    -0.203 F 
ATOM     81  C   UNL A   1      39.387  34.223  36.915  1.00  0.00     0.198 A 
ATOM     82  C   UNL A   1      37.978  32.446  37.700  1.00  0.00     0.198 A 
ATOM     83  F   UNL A   1      37.903  30.403  36.541  1.00  0.00    -0.203 F 
ATOM     84  F   UNL A   1      39.900  35.451  37.069  1.00  0.00    -0.200 F 
ATOM     85  C   UNL A   1      38.483  33.729  37.844  1.00  0.00     0.200 A 
ATOM     86  F   UNL A   1      37.090  31.973  38.585  1.00  0.00    -0.200 F 
ATOM     87  F   UNL A   1      38.103  34.488  38.880  1.00  0.00    -0.200 F 
ENDBRANCH  54  77
ENDBRANCH  28  29
ENDBRANCH  21  23
ENDBRANCH  20  21
ENDBRANCH  19  20
ENDBRANCH  18  19
ENDBRANCH  17  18
ENDBRANCH   1  17
TORSDOF 17
ENDMDL
MODEL 3
REMARK VINA RESULT:     -10.5      4.153      9.129
REMARK SMILES COC(=O)Oc1cncc(C(=O)OCCOCCOC(=O)c2ccc(-c3c4nc(c(-c5c(F)c(F)c(F)c(F)c5F)c5ccc([nH]5)c(-c5c(F)c(F)c(F)c(F)c5F)c5nc(c(-c6c(F)c(F)c(F)c(F)c6F)c6ccc3[nH]6)C=C5)C=C4)cc2)c1
REMARK SMILES IDX 15 1 14 2 13 3 11 4 12 5 10 6 6 7 7 8 85 9 8 10 9 11 5 12
REMARK SMILES IDX 3 13 4 14 2 15 1 16 16 17 17 18 18 19 19 20 20 21 21 22
REMARK SMILES IDX 22 23 23 24 84 25 24 26 83 27 25 28 26 29 27 30 77 31 28 32
REMARK SMILES IDX 82 33 76 34 78 35 29 36 81 37 75 38 74 39 30 41 62 42 42 43
REMARK SMILES IDX 61 44 43 45 46 46 60 47 79 48 44 49 45 50 59 52 80 53 47 54
REMARK SMILES IDX 31 55 32 56 40 57 33 58 34 59 38 60 41 61 35 62 36 63 39 64
REMARK SMILES IDX 37 65 63 66 64 67 72 68 65 69 66 70 70 71 73 72 67 73 68 74
REMARK SMILES IDX 71 75 69 76 48 77 49 78 57 79 50 80 51 81 55 82 58 83 52 84
REMARK SMILES IDX 53 85 56 86 54 87
REMARK H PARENT 78 40 46 51
REMARK Flexibility Score: inf
ROOT
ATOM      1  C   UNL A   1      33.132  30.344  26.677  1.00  0.00     0.202 C 
ENDROOT
BRANCH   1   2
ATOM      2  C   UNL A   1      33.577  29.079  25.937  1.00  0.00     0.261 C 
BRANCH   2   3
ATOM      3  O   UNL A   1      32.489  28.440  25.254  1.00  0.00    -0.460 OA
BRANCH   3   4
ATOM      4  C   UNL A   1      32.325  28.822  23.963  1.00  0.00     0.339 C 
ATOM      5  O   UNL A   1      33.202  29.065  23.151  1.00  0.00    -0.246 OA
BRANCH   4   6
ATOM      6  C   UNL A   1      30.900  28.751  23.600  1.00  0.00     0.082 A 
ATOM      7  C   UNL A   1      28.875  29.626  22.675  1.00  0.00     0.153 A 
ATOM      8  C   UNL A   1      28.271  28.404  22.940  1.00  0.00     0.158 A 
ATOM      9  C   UNL A   1      30.197  29.827  23.065  1.00  0.00     0.066 A 
ATOM     10  N   UNL A   1      28.917  27.363  23.516  1.00  0.00    -0.260 NA
ATOM     11  C   UNL A   1      30.227  27.553  23.808  1.00  0.00     0.127 A 
BRANCH   7  12
ATOM     12  O   UNL A   1      28.119  30.614  22.039  1.00  0.00    -0.393 OA
BRANCH  12  13
ATOM     13  C   UNL A   1      27.653  31.626  22.868  1.00  0.00     0.513 C 
ATOM     14  O   UNL A   1      26.974  31.487  23.879  1.00  0.00    -0.203 OA
BRANCH  13  15
ATOM     15  O   UNL A   1      28.055  32.819  22.359  1.00  0.00    -0.437 OA
ATOM     16  C   UNL A   1      29.088  33.439  23.123  1.00  0.00     0.286 C 
ENDBRANCH  13  15
ENDBRANCH  12  13
ENDBRANCH   7  12
ENDBRANCH   4   6
ENDBRANCH   3   4
ENDBRANCH   2   3
ENDBRANCH   1   2
BRANCH   1  17
ATOM     17  O   UNL A   1      31.748  30.683  26.653  1.00  0.00    -0.374 OA
BRANCH  17  18
ATOM     18  C   UNL A   1      31.381  32.051  26.819  1.00  0.00     0.202 C 
BRANCH  18  19
ATOM     19  C   UNL A   1      32.492  33.080  27.058  1.00  0.00     0.261 C 
BRANCH  19  20
ATOM     20  O   UNL A   1      32.294  33.863  28.247  1.00  0.00    -0.460 OA
BRANCH  20  21
ATOM     21  C   UNL A   1      33.338  34.670  28.559  1.00  0.00     0.338 C 
ATOM     22  O   UNL A   1      33.334  35.884  28.661  1.00  0.00    -0.246 OA
BRANCH  21  23
ATOM     23  C   UNL A   1      34.504  33.857  28.945  1.00  0.00     0.060 A 
ATOM     24  C   UNL A   1      34.264  32.695  29.690  1.00  0.00     0.016 A 
ATOM     25  C   UNL A   1      35.808  34.273  28.674  1.00  0.00     0.016 A 
ATOM     26  C   UNL A   1      35.331  31.975  30.219  1.00  0.00     0.010 A 
ATOM     27  C   UNL A   1      36.878  33.550  29.209  1.00  0.00     0.010 A 
ATOM     28  C   UNL A   1      36.643  32.422  30.018  1.00  0.00    -0.014 A 
BRANCH  28  29
ATOM     29  C   UNL A   1      37.753  31.793  30.775  1.00  0.00     0.031 A 
ATOM     30  C   UNL A   1      38.598  30.747  30.102  1.00  0.00     0.074 A 
ATOM     31  C   UNL A   1      38.025  32.174  32.035  1.00  0.00     0.049 A 
ATOM     32  N   UNL A   1      39.592  30.044  30.584  1.00  0.00    -0.248 NA
ATOM     33  C   UNL A   1      38.276  30.447  28.698  1.00  0.00     0.031 C 
ATOM     34  C   UNL A   1      37.302  33.203  32.779  1.00  0.00     0.029 A 
ATOM     35  N   UNL A   1      38.983  31.733  32.913  1.00  0.00    -0.354 N 
ATOM     36  C   UNL A   1      40.005  29.214  29.548  1.00  0.00     0.074 A 
ATOM     37  C   UNL A   1      39.131  29.474  28.424  1.00  0.00     0.031 C 
ATOM     38  C   UNL A   1      37.837  33.311  34.006  1.00  0.00     0.029 A 
ATOM     39  C   UNL A   1      38.915  32.332  34.146  1.00  0.00     0.049 A 
ATOM     40  H   UNL A   1      39.654  31.051  32.681  1.00  0.00     0.167 HD
ATOM     41  C   UNL A   1      41.026  28.325  29.534  1.00  0.00     0.037 A 
ATOM     42  C   UNL A   1      39.625  32.099  35.266  1.00  0.00     0.037 A 
ATOM     43  C   UNL A   1      41.896  28.075  30.655  1.00  0.00     0.049 A 
ATOM     44  C   UNL A   1      40.714  31.056  35.244  1.00  0.00     0.074 A 
ATOM     45  C   UNL A   1      42.976  27.213  30.733  1.00  0.00     0.029 A 
ATOM     46  N   UNL A   1      41.778  28.682  31.897  1.00  0.00    -0.354 N 
ATOM     47  N   UNL A   1      41.117  30.296  34.254  1.00  0.00    -0.248 NA
ATOM     48  C   UNL A   1      41.452  30.844  36.497  1.00  0.00     0.031 C 
ATOM     49  C   UNL A   1      43.469  27.248  32.042  1.00  0.00     0.029 A 
ATOM     50  C   UNL A   1      42.746  28.188  32.758  1.00  0.00     0.049 A 
ATOM     51  H   UNL A   1      41.108  29.362  32.132  1.00  0.00     0.167 HD
ATOM     52  C   UNL A   1      42.175  29.545  34.753  1.00  0.00     0.074 A 
ATOM     53  C   UNL A   1      42.360  29.952  36.129  1.00  0.00     0.031 C 
ATOM     54  C   UNL A   1      42.925  28.606  34.125  1.00  0.00     0.037 A 
BRANCH  41  55
ATOM     55  C   UNL A   1      41.244  27.530  28.277  1.00  0.00     0.064 A 
ATOM     56  C   UNL A   1      42.053  28.000  27.231  1.00  0.00     0.173 A 
ATOM     57  C   UNL A   1      40.663  26.261  28.133  1.00  0.00     0.173 A 
ATOM     58  F   UNL A   1      42.623  29.213  27.310  1.00  0.00    -0.203 F 
ATOM     59  C   UNL A   1      42.250  27.241  26.080  1.00  0.00     0.198 A 
ATOM     60  C   UNL A   1      40.890  25.490  26.996  1.00  0.00     0.198 A 
ATOM     61  F   UNL A   1      39.883  25.759  29.105  1.00  0.00    -0.203 F 
ATOM     62  F   UNL A   1      42.986  27.732  25.073  1.00  0.00    -0.200 F 
ATOM     63  C   UNL A   1      41.675  25.984  25.968  1.00  0.00     0.200 A 
ATOM     64  F   UNL A   1      40.346  24.268  26.898  1.00  0.00    -0.200 F 
ATOM     65  F   UNL A   1      41.874  25.251  24.864  1.00  0.00    -0.200 F 
ENDBRANCH  41  55
BRANCH  42  66
ATOM     66  C   UNL A   1      39.325  32.858  36.509  1.00  0.00     0.064 A 
ATOM     67  C   UNL A   1      39.946  34.086  36.778  1.00  0.00     0.173 A 
ATOM     68  C   UNL A   1      38.423  32.362  37.463  1.00  0.00     0.173 A 
ATOM     69  F   UNL A   1      40.833  34.591  35.908  1.00  0.00    -0.203 F 
ATOM     70  C   UNL A   1      39.697  34.774  37.964  1.00  0.00     0.198 A 
ATOM     71  C   UNL A   1      38.149  33.068  38.632  1.00  0.00     0.198 A 
ATOM     72  F   UNL A   1      37.801  31.192  37.254  1.00  0.00    -0.203 F 
ATOM     73  F   UNL A   1      40.348  35.917  38.220  1.00  0.00    -0.200 F 
ATOM     74  C   UNL A   1      38.794  34.268  38.887  1.00  0.00     0.200 A 
ATOM     75  F   UNL A   1      37.265  32.582  39.513  1.00  0.00    -0.200 F 
ATOM     76  F   UNL A   1      38.552  34.932  40.024  1.00  0.00    -0.200 F 
ENDBRANCH  42  66
BRANCH  54  77
ATOM     77  C   UNL A   1      44.052  27.987  34.906  1.00  0.00     0.064 A 
ATOM     78  C   UNL A   1      43.893  26.790  35.621  1.00  0.00     0.173 A 
ATOM     79  C   UNL A   1      45.324  28.585  34.910  1.00  0.00     0.173 A 
ATOM     80  F   UNL A   1      42.697  26.183  35.662  1.00  0.00    -0.203 F 
ATOM     81  C   UNL A   1      44.950  26.237  36.339  1.00  0.00     0.198 A 
ATOM     82  C   UNL A   1      46.388  28.008  35.596  1.00  0.00     0.198 A 
ATOM     83  F   UNL A   1      45.536  29.724  34.235  1.00  0.00    -0.203 F 
ATOM     84  F   UNL A   1      44.757  25.127  37.064  1.00  0.00    -0.200 F 
ATOM     85  C   UNL A   1      46.198  26.842  36.320  1.00  0.00     0.200 A 
ATOM     86  F   UNL A   1      47.597  28.585  35.560  1.00  0.00    -0.200 F 
ATOM     87  F   UNL A   1      47.216  26.303  37.005  1.00  0.00    -0.200 F 
ENDBRANCH  54  77
ENDBRANCH  28  29
ENDBRANCH  21  23
ENDBRANCH  20  21
ENDBRANCH  19  20
ENDBRANCH  18  19
ENDBRANCH  17  18
ENDBRANCH   1  17
TORSDOF 17
ENDMDL
