MODEL 1
REMARK VINA RESULT:     -12.1      0.000      0.000
REMARK SMILES C[C@H](NC(=O)c1cccc(NC(=O)/C=C/C(=O)OCCOCCOC(=O)c2ccc(-c3c4nc(c(-c5c(F)c(F)c(F)c(F)c5F)c5ccc([nH]5)c(-c5c(F)c(F)c(F)c(F)c5F)c5nc(c(-c6c(F)c(F)c(F)c(F)c6F)c6ccc3[nH]6)C=C5)C=C4)cc2)c1)c1ccccc1
REMARK SMILES IDX 19 1 18 2 16 3 17 4 15 5 14 6 12 7 11 8 13 10 10 11 6 12
REMARK SMILES IDX 7 13 90 14 8 15 9 16 4 17 3 18 5 20 2 21 1 22 91 23 92 24
REMARK SMILES IDX 96 25 93 26 95 27 94 28 20 29 21 30 22 31 23 32 24 33 25 34
REMARK SMILES IDX 26 35 27 36 28 37 89 38 29 39 88 40 30 41 31 42 32 43 82 44
REMARK SMILES IDX 33 45 87 46 81 47 83 48 34 49 86 50 80 51 79 52 35 54 67 55
REMARK SMILES IDX 47 56 66 57 48 58 51 59 65 60 84 61 49 62 50 63 64 65 85 66
REMARK SMILES IDX 52 67 36 68 37 69 45 70 38 71 39 72 43 73 46 74 40 75 41 76
REMARK SMILES IDX 44 77 42 78 68 79 69 80 77 81 70 82 71 83 75 84 78 85 72 86
REMARK SMILES IDX 73 87 76 88 74 89 53 90 54 91 62 92 55 93 56 94 60 95 63 96
REMARK SMILES IDX 57 97 58 98 61 99 59 100
REMARK H PARENT 11 9 3 19 83 53 51 64
REMARK Flexibility Score: inf
ROOT
ATOM      1  C   UNL A   1      31.458  28.633  25.386  1.00  0.00     0.261 C 
ENDROOT
BRANCH   1   2
ATOM      2  O   UNL A   1      31.786  28.591  23.986  1.00  0.00    -0.460 OA
BRANCH   2   3
ATOM      3  C   UNL A   1      30.743  28.308  23.172  1.00  0.00     0.331 C 
ATOM      4  O   UNL A   1      29.735  28.978  23.025  1.00  0.00    -0.247 OA
BRANCH   3   5
ATOM      5  C   UNL A   1      31.113  27.152  22.331  1.00  0.00     0.099 C 
ATOM      6  C   UNL A   1      32.397  27.044  21.966  1.00  0.00     0.079 C 
BRANCH   6   7
ATOM      7  C   UNL A   1      32.885  25.796  21.372  1.00  0.00     0.248 C 
ATOM      8  N   UNL A   1      33.235  24.740  22.166  1.00  0.00    -0.322 N 
ATOM      9  H   UNL A   1      33.605  23.986  21.653  1.00  0.00     0.170 HD
ATOM     10  O   UNL A   1      33.027  25.724  20.154  1.00  0.00    -0.270 OA
BRANCH   8  11
ATOM     11  C   UNL A   1      33.184  24.484  23.554  1.00  0.00     0.042 A 
ATOM     12  C   UNL A   1      32.172  23.181  25.330  1.00  0.00     0.041 A 
ATOM     13  C   UNL A   1      32.913  23.855  26.300  1.00  0.00     0.014 A 
ATOM     14  C   UNL A   1      32.253  23.525  23.975  1.00  0.00     0.040 A 
ATOM     15  C   UNL A   1      33.838  24.801  25.888  1.00  0.00     0.003 A 
ATOM     16  C   UNL A   1      33.997  25.078  24.525  1.00  0.00     0.026 A 
BRANCH  12  17
ATOM     17  C   UNL A   1      31.440  21.982  25.757  1.00  0.00     0.251 C 
ATOM     18  N   UNL A   1      32.083  20.770  25.694  1.00  0.00    -0.346 N 
ATOM     19  H   UNL A   1      31.612  20.029  26.139  1.00  0.00     0.164 HD
ATOM     20  O   UNL A   1      30.315  22.095  26.226  1.00  0.00    -0.269 OA
BRANCH  18  21
ATOM     21  C   UNL A   1      33.356  20.404  25.071  1.00  0.00     0.109 C 
ATOM     22  C   UNL A   1      34.615  20.878  25.811  1.00  0.00     0.036 C 
BRANCH  21  23
ATOM     23  C   UNL A   1      33.446  18.896  24.915  1.00  0.00    -0.026 A 
ATOM     24  C   UNL A   1      32.419  18.062  25.390  1.00  0.00     0.006 A 
ATOM     25  C   UNL A   1      34.600  18.308  24.377  1.00  0.00     0.006 A 
ATOM     26  C   UNL A   1      32.566  16.676  25.376  1.00  0.00     0.000 A 
ATOM     27  C   UNL A   1      34.740  16.919  24.358  1.00  0.00     0.000 A 
ATOM     28  C   UNL A   1      33.731  16.105  24.869  1.00  0.00     0.000 A 
ENDBRANCH  21  23
ENDBRANCH  18  21
ENDBRANCH  12  17
ENDBRANCH   8  11
ENDBRANCH   6   7
ENDBRANCH   3   5
ENDBRANCH   2   3
ENDBRANCH   1   2
BRANCH   1  29
ATOM     29  C   UNL A   1      32.616  29.237  26.187  1.00  0.00     0.202 C 
BRANCH  29  30
ATOM     30  O   UNL A   1      32.742  30.658  26.127  1.00  0.00    -0.374 OA
BRANCH  30  31
ATOM     31  C   UNL A   1      31.719  31.453  26.725  1.00  0.00     0.202 C 
BRANCH  31  32
ATOM     32  C   UNL A   1      31.989  32.961  26.841  1.00  0.00     0.261 C 
BRANCH  32  33
ATOM     33  O   UNL A   1      32.544  33.341  28.116  1.00  0.00    -0.460 OA
BRANCH  33  34
ATOM     34  C   UNL A   1      33.677  34.081  28.052  1.00  0.00     0.338 C 
ATOM     35  O   UNL A   1      33.771  35.283  27.871  1.00  0.00    -0.246 OA
BRANCH  34  36
ATOM     36  C   UNL A   1      34.848  33.254  28.400  1.00  0.00     0.060 A 
ATOM     37  C   UNL A   1      34.615  32.015  29.011  1.00  0.00     0.016 A 
ATOM     38  C   UNL A   1      36.149  33.737  28.250  1.00  0.00     0.016 A 
ATOM     39  C   UNL A   1      35.683  31.266  29.501  1.00  0.00     0.010 A 
ATOM     40  C   UNL A   1      37.219  32.989  28.755  1.00  0.00     0.010 A 
ATOM     41  C   UNL A   1      36.989  31.764  29.408  1.00  0.00    -0.014 A 
BRANCH  41  42
ATOM     42  C   UNL A   1      38.090  31.063  30.114  1.00  0.00     0.031 A 
ATOM     43  C   UNL A   1      38.358  31.379  31.558  1.00  0.00     0.074 A 
ATOM     44  C   UNL A   1      38.822  30.127  29.483  1.00  0.00     0.049 A 
ATOM     45  N   UNL A   1      39.276  30.901  32.359  1.00  0.00    -0.248 NA
ATOM     46  C   UNL A   1      37.468  32.368  32.187  1.00  0.00     0.031 C 
ATOM     47  C   UNL A   1      38.634  29.703  28.098  1.00  0.00     0.029 A 
ATOM     48  N   UNL A   1      39.875  29.369  29.929  1.00  0.00    -0.354 N 
ATOM     49  C   UNL A   1      39.077  31.530  33.581  1.00  0.00     0.074 A 
ATOM     50  C   UNL A   1      37.970  32.446  33.411  1.00  0.00     0.031 C 
ATOM     51  C   UNL A   1      39.550  28.765  27.802  1.00  0.00     0.029 A 
ATOM     52  C   UNL A   1      40.405  28.547  28.968  1.00  0.00     0.049 A 
ATOM     53  H   UNL A   1      40.218  29.411  30.851  1.00  0.00     0.167 HD
ATOM     54  C   UNL A   1      39.753  31.354  34.742  1.00  0.00     0.037 A 
ATOM     55  C   UNL A   1      41.473  27.725  29.017  1.00  0.00     0.037 A 
ATOM     56  C   UNL A   1      40.857  30.445  34.911  1.00  0.00     0.049 A 
ATOM     57  C   UNL A   1      42.253  27.600  30.300  1.00  0.00     0.074 A 
ATOM     58  C   UNL A   1      41.593  30.183  36.054  1.00  0.00     0.029 A 
ATOM     59  N   UNL A   1      41.387  29.654  33.904  1.00  0.00    -0.354 N 
ATOM     60  N   UNL A   1      42.042  28.178  31.457  1.00  0.00    -0.248 NA
ATOM     61  C   UNL A   1      43.417  26.704  30.283  1.00  0.00     0.031 C 
ATOM     62  C   UNL A   1      42.600  29.269  35.725  1.00  0.00     0.029 A 
ATOM     63  C   UNL A   1      42.459  28.923  34.391  1.00  0.00     0.049 A 
ATOM     64  H   UNL A   1      41.052  29.616  32.979  1.00  0.00     0.167 HD
ATOM     65  C   UNL A   1      43.027  27.698  32.311  1.00  0.00     0.074 A 
ATOM     66  C   UNL A   1      43.830  26.771  31.541  1.00  0.00     0.031 C 
ATOM     67  C   UNL A   1      43.246  27.998  33.614  1.00  0.00     0.037 A 
BRANCH  54  68
ATOM     68  C   UNL A   1      39.332  32.184  35.919  1.00  0.00     0.064 A 
ATOM     69  C   UNL A   1      38.381  31.725  36.843  1.00  0.00     0.173 A 
ATOM     70  C   UNL A   1      39.912  33.442  36.145  1.00  0.00     0.173 A 
ATOM     71  F   UNL A   1      37.789  30.535  36.665  1.00  0.00    -0.203 F 
ATOM     72  C   UNL A   1      38.008  32.506  37.934  1.00  0.00     0.198 A 
ATOM     73  C   UNL A   1      39.556  34.208  37.251  1.00  0.00     0.198 A 
ATOM     74  F   UNL A   1      40.830  33.925  35.293  1.00  0.00    -0.203 F 
ATOM     75  F   UNL A   1      37.065  32.065  38.779  1.00  0.00    -0.200 F 
ATOM     76  C   UNL A   1      38.600  33.742  38.141  1.00  0.00     0.200 A 
ATOM     77  F   UNL A   1      40.137  35.398  37.455  1.00  0.00    -0.200 F 
ATOM     78  F   UNL A   1      38.243  34.490  39.194  1.00  0.00    -0.200 F 
ENDBRANCH  54  68
BRANCH  55  79
ATOM     79  C   UNL A   1      41.876  26.962  27.808  1.00  0.00     0.064 A 
ATOM     80  C   UNL A   1      41.370  25.679  27.558  1.00  0.00     0.173 A 
ATOM     81  C   UNL A   1      42.786  27.496  26.884  1.00  0.00     0.173 A 
ATOM     82  F   UNL A   1      40.517  25.115  28.427  1.00  0.00    -0.203 F 
ATOM     83  C   UNL A   1      41.770  24.954  26.438  1.00  0.00     0.198 A 
ATOM     84  C   UNL A   1      43.166  26.781  25.751  1.00  0.00     0.198 A 
ATOM     85  F   UNL A   1      43.303  28.719  27.080  1.00  0.00    -0.203 F 
ATOM     86  F   UNL A   1      41.304  23.712  26.246  1.00  0.00    -0.200 F 
ATOM     87  C   UNL A   1      42.663  25.507  25.532  1.00  0.00     0.200 A 
ATOM     88  F   UNL A   1      44.021  27.322  24.873  1.00  0.00    -0.200 F 
ATOM     89  F   UNL A   1      43.045  24.810  24.454  1.00  0.00    -0.200 F 
ENDBRANCH  55  79
BRANCH  67  90
ATOM     90  C   UNL A   1      44.378  27.294  34.305  1.00  0.00     0.064 A 
ATOM     91  C   UNL A   1      45.668  27.844  34.353  1.00  0.00     0.173 A 
ATOM     92  C   UNL A   1      44.159  26.074  34.963  1.00  0.00     0.173 A 
ATOM     93  F   UNL A   1      45.931  29.000  33.727  1.00  0.00    -0.203 F 
ATOM     94  C   UNL A   1      46.701  27.186  35.015  1.00  0.00     0.198 A 
ATOM     95  C   UNL A   1      45.188  25.434  35.648  1.00  0.00     0.198 A 
ATOM     96  F   UNL A   1      42.942  25.509  34.953  1.00  0.00    -0.203 F 
ATOM     97  F   UNL A   1      47.936  27.708  35.011  1.00  0.00    -0.200 F 
ATOM     98  C   UNL A   1      46.460  25.987  35.668  1.00  0.00     0.200 A 
ATOM     99  F   UNL A   1      44.948  24.281  36.289  1.00  0.00    -0.200 F 
ATOM    100  F   UNL A   1      47.453  25.360  36.311  1.00  0.00    -0.200 F 
ENDBRANCH  67  90
ENDBRANCH  41  42
ENDBRANCH  34  36
ENDBRANCH  33  34
ENDBRANCH  32  33
ENDBRANCH  31  32
ENDBRANCH  30  31
ENDBRANCH  29  30
ENDBRANCH   1  29
TORSDOF 19
ENDMDL
MODEL 2
REMARK VINA RESULT:     -11.9      4.820     10.890
REMARK SMILES C[C@H](NC(=O)c1cccc(NC(=O)/C=C/C(=O)OCCOCCOC(=O)c2ccc(-c3c4nc(c(-c5c(F)c(F)c(F)c(F)c5F)c5ccc([nH]5)c(-c5c(F)c(F)c(F)c(F)c5F)c5nc(c(-c6c(F)c(F)c(F)c(F)c6F)c6ccc3[nH]6)C=C5)C=C4)cc2)c1)c1ccccc1
REMARK SMILES IDX 19 1 18 2 16 3 17 4 15 5 14 6 12 7 11 8 13 10 10 11 6 12
REMARK SMILES IDX 7 13 90 14 8 15 9 16 4 17 3 18 5 20 2 21 1 22 91 23 92 24
REMARK SMILES IDX 96 25 93 26 95 27 94 28 20 29 21 30 22 31 23 32 24 33 25 34
REMARK SMILES IDX 26 35 27 36 28 37 89 38 29 39 88 40 30 41 31 42 32 43 82 44
REMARK SMILES IDX 33 45 87 46 81 47 83 48 34 49 86 50 80 51 79 52 35 54 67 55
REMARK SMILES IDX 47 56 66 57 48 58 51 59 65 60 84 61 49 62 50 63 64 65 85 66
REMARK SMILES IDX 52 67 36 68 37 69 45 70 38 71 39 72 43 73 46 74 40 75 41 76
REMARK SMILES IDX 44 77 42 78 68 79 69 80 77 81 70 82 71 83 75 84 78 85 72 86
REMARK SMILES IDX 73 87 76 88 74 89 53 90 54 91 62 92 55 93 56 94 60 95 63 96
REMARK SMILES IDX 57 97 58 98 61 99 59 100
REMARK H PARENT 11 9 3 19 83 53 51 64
REMARK Flexibility Score: inf
ROOT
ATOM      1  C   UNL A   1      35.163  21.989  24.743  1.00  0.00     0.261 C 
ENDROOT
BRANCH   1   2
ATOM      2  O   UNL A   1      34.087  21.642  25.631  1.00  0.00    -0.460 OA
BRANCH   2   3
ATOM      3  C   UNL A   1      33.035  21.038  25.030  1.00  0.00     0.331 C 
ATOM      4  O   UNL A   1      33.050  19.969  24.446  1.00  0.00    -0.247 OA
BRANCH   3   5
ATOM      5  C   UNL A   1      31.812  21.791  25.374  1.00  0.00     0.099 C 
ATOM      6  C   UNL A   1      31.759  22.357  26.587  1.00  0.00     0.079 C 
BRANCH   6   7
ATOM      7  C   UNL A   1      30.711  23.335  26.891  1.00  0.00     0.248 C 
ATOM      8  N   UNL A   1      30.791  24.611  26.408  1.00  0.00    -0.322 N 
ATOM      9  H   UNL A   1      30.062  25.187  26.733  1.00  0.00     0.170 HD
ATOM     10  O   UNL A   1      29.783  23.014  27.629  1.00  0.00    -0.270 OA
BRANCH   8  11
ATOM     11  C   UNL A   1      31.681  25.290  25.547  1.00  0.00     0.042 A 
ATOM     12  C   UNL A   1      32.020  26.260  23.351  1.00  0.00     0.041 A 
ATOM     13  C   UNL A   1      33.330  26.615  23.667  1.00  0.00     0.014 A 
ATOM     14  C   UNL A   1      31.215  25.550  24.251  1.00  0.00     0.040 A 
ATOM     15  C   UNL A   1      33.794  26.365  24.948  1.00  0.00     0.003 A 
ATOM     16  C   UNL A   1      32.959  25.746  25.887  1.00  0.00     0.026 A 
BRANCH  12  17
ATOM     17  C   UNL A   1      31.453  26.809  22.112  1.00  0.00     0.251 C 
ATOM     18  N   UNL A   1      30.804  28.017  22.173  1.00  0.00    -0.346 N 
ATOM     19  H   UNL A   1      30.587  28.415  21.299  1.00  0.00     0.164 HD
ATOM     20  O   UNL A   1      31.638  26.225  21.052  1.00  0.00    -0.269 OA
BRANCH  18  21
ATOM     21  C   UNL A   1      30.380  28.808  23.331  1.00  0.00     0.109 C 
ATOM     22  C   UNL A   1      31.515  29.385  24.189  1.00  0.00     0.036 C 
BRANCH  21  23
ATOM     23  C   UNL A   1      29.501  29.962  22.881  1.00  0.00    -0.026 A 
ATOM     24  C   UNL A   1      29.107  30.084  21.537  1.00  0.00     0.006 A 
ATOM     25  C   UNL A   1      29.147  30.975  23.783  1.00  0.00     0.006 A 
ATOM     26  C   UNL A   1      28.423  31.215  21.096  1.00  0.00     0.000 A 
ATOM     27  C   UNL A   1      28.455  32.104  23.340  1.00  0.00     0.000 A 
ATOM     28  C   UNL A   1      28.106  32.230  21.997  1.00  0.00     0.000 A 
ENDBRANCH  21  23
ENDBRANCH  18  21
ENDBRANCH  12  17
ENDBRANCH   8  11
ENDBRANCH   6   7
ENDBRANCH   3   5
ENDBRANCH   2   3
ENDBRANCH   1   2
BRANCH   1  29
ATOM     29  C   UNL A   1      36.408  21.155  25.063  1.00  0.00     0.202 C 
BRANCH  29  30
ATOM     30  O   UNL A   1      37.658  21.838  24.972  1.00  0.00    -0.374 OA
BRANCH  30  31
ATOM     31  C   UNL A   1      38.738  21.382  25.786  1.00  0.00     0.202 C 
BRANCH  31  32
ATOM     32  C   UNL A   1      39.333  20.007  25.445  1.00  0.00     0.261 C 
BRANCH  32  33
ATOM     33  O   UNL A   1      40.165  19.474  26.494  1.00  0.00    -0.460 OA
BRANCH  33  34
ATOM     34  C   UNL A   1      41.484  19.387  26.193  1.00  0.00     0.338 C 
ATOM     35  O   UNL A   1      42.066  18.453  25.669  1.00  0.00    -0.246 OA
BRANCH  34  36
ATOM     36  C   UNL A   1      42.151  20.679  26.441  1.00  0.00     0.060 A 
ATOM     37  C   UNL A   1      42.261  21.114  27.767  1.00  0.00     0.016 A 
ATOM     38  C   UNL A   1      42.544  21.507  25.388  1.00  0.00     0.016 A 
ATOM     39  C   UNL A   1      42.740  22.393  28.046  1.00  0.00     0.010 A 
ATOM     40  C   UNL A   1      43.011  22.796  25.669  1.00  0.00     0.010 A 
ATOM     41  C   UNL A   1      43.084  23.256  26.997  1.00  0.00    -0.014 A 
BRANCH  41  42
ATOM     42  C   UNL A   1      43.392  24.677  27.292  1.00  0.00     0.031 A 
ATOM     43  C   UNL A   1      44.772  25.204  27.016  1.00  0.00     0.074 A 
ATOM     44  C   UNL A   1      42.440  25.499  27.767  1.00  0.00     0.049 A 
ATOM     45  N   UNL A   1      45.261  26.402  27.214  1.00  0.00    -0.248 NA
ATOM     46  C   UNL A   1      45.732  24.251  26.436  1.00  0.00     0.031 C 
ATOM     47  C   UNL A   1      41.056  25.118  28.037  1.00  0.00     0.029 A 
ATOM     48  N   UNL A   1      42.499  26.827  28.112  1.00  0.00    -0.354 N 
ATOM     49  C   UNL A   1      46.581  26.348  26.787  1.00  0.00     0.074 A 
ATOM     50  C   UNL A   1      46.827  24.991  26.346  1.00  0.00     0.031 C 
ATOM     51  C   UNL A   1      40.396  26.188  28.516  1.00  0.00     0.029 A 
ATOM     52  C   UNL A   1      41.320  27.316  28.613  1.00  0.00     0.049 A 
ATOM     53  H   UNL A   1      43.310  27.375  28.008  1.00  0.00     0.167 HD
ATOM     54  C   UNL A   1      47.502  27.341  26.760  1.00  0.00     0.037 A 
ATOM     55  C   UNL A   1      41.026  28.533  29.113  1.00  0.00     0.037 A 
ATOM     56  C   UNL A   1      47.258  28.689  27.201  1.00  0.00     0.049 A 
ATOM     57  C   UNL A   1      42.088  29.601  29.138  1.00  0.00     0.074 A 
ATOM     58  C   UNL A   1      48.123  29.770  27.195  1.00  0.00     0.029 A 
ATOM     59  N   UNL A   1      46.060  29.138  27.736  1.00  0.00    -0.354 N 
ATOM     60  N   UNL A   1      43.326  29.548  28.708  1.00  0.00    -0.248 NA
ATOM     61  C   UNL A   1      41.710  30.899  29.714  1.00  0.00     0.031 C 
ATOM     62  C   UNL A   1      47.463  30.861  27.772  1.00  0.00     0.029 A 
ATOM     63  C   UNL A   1      46.171  30.474  28.089  1.00  0.00     0.049 A 
ATOM     64  H   UNL A   1      45.251  28.589  27.848  1.00  0.00     0.167 HD
ATOM     65  C   UNL A   1      43.865  30.807  28.937  1.00  0.00     0.074 A 
ATOM     66  C   UNL A   1      42.816  31.609  29.533  1.00  0.00     0.031 C 
ATOM     67  C   UNL A   1      45.116  31.260  28.676  1.00  0.00     0.037 A 
BRANCH  54  68
ATOM     68  C   UNL A   1      48.873  26.997  26.256  1.00  0.00     0.064 A 
ATOM     69  C   UNL A   1      49.876  26.521  27.113  1.00  0.00     0.173 A 
ATOM     70  C   UNL A   1      49.178  27.116  24.891  1.00  0.00     0.173 A 
ATOM     71  F   UNL A   1      49.638  26.401  28.428  1.00  0.00    -0.203 F 
ATOM     72  C   UNL A   1      51.141  26.199  26.627  1.00  0.00     0.198 A 
ATOM     73  C   UNL A   1      50.435  26.769  24.405  1.00  0.00     0.198 A 
ATOM     74  F   UNL A   1      48.253  27.563  24.029  1.00  0.00    -0.203 F 
ATOM     75  F   UNL A   1      52.096  25.787  27.472  1.00  0.00    -0.200 F 
ATOM     76  C   UNL A   1      51.418  26.317  25.274  1.00  0.00     0.200 A 
ATOM     77  F   UNL A   1      50.697  26.873  23.095  1.00  0.00    -0.200 F 
ATOM     78  F   UNL A   1      52.633  26.002  24.806  1.00  0.00    -0.200 F 
ENDBRANCH  54  68
BRANCH  55  79
ATOM     79  C   UNL A   1      39.665  28.806  29.644  1.00  0.00     0.064 A 
ATOM     80  C   UNL A   1      38.666  29.353  28.829  1.00  0.00     0.173 A 
ATOM     81  C   UNL A   1      39.341  28.536  30.982  1.00  0.00     0.173 A 
ATOM     82  F   UNL A   1      38.935  29.653  27.550  1.00  0.00    -0.203 F 
ATOM     83  C   UNL A   1      37.399  29.634  29.335  1.00  0.00     0.198 A 
ATOM     84  C   UNL A   1      38.067  28.792  31.480  1.00  0.00     0.198 A 
ATOM     85  F   UNL A   1      40.265  28.015  31.805  1.00  0.00    -0.203 F 
ATOM     86  F   UNL A   1      36.474  30.198  28.545  1.00  0.00    -0.200 F 
ATOM     87  C   UNL A   1      37.098  29.348  30.659  1.00  0.00     0.200 A 
ATOM     88  F   UNL A   1      37.778  28.506  32.757  1.00  0.00    -0.200 F 
ATOM     89  F   UNL A   1      35.878  29.615  31.143  1.00  0.00    -0.200 F 
ENDBRANCH  55  79
BRANCH  67  90
ATOM     90  C   UNL A   1      45.413  32.695  29.001  1.00  0.00     0.064 A 
ATOM     91  C   UNL A   1      45.972  33.072  30.231  1.00  0.00     0.173 A 
ATOM     92  C   UNL A   1      45.174  33.702  28.053  1.00  0.00     0.173 A 
ATOM     93  F   UNL A   1      46.205  32.149  31.176  1.00  0.00    -0.203 F 
ATOM     94  C   UNL A   1      46.260  34.406  30.507  1.00  0.00     0.198 A 
ATOM     95  C   UNL A   1      45.490  35.031  28.321  1.00  0.00     0.198 A 
ATOM     96  F   UNL A   1      44.647  33.394  26.857  1.00  0.00    -0.203 F 
ATOM     97  F   UNL A   1      46.754  34.748  31.706  1.00  0.00    -0.200 F 
ATOM     98  C   UNL A   1      46.027  35.383  29.551  1.00  0.00     0.200 A 
ATOM     99  F   UNL A   1      45.275  35.971  27.391  1.00  0.00    -0.200 F 
ATOM    100  F   UNL A   1      46.312  36.664  29.817  1.00  0.00    -0.200 F 
ENDBRANCH  67  90
ENDBRANCH  41  42
ENDBRANCH  34  36
ENDBRANCH  33  34
ENDBRANCH  32  33
ENDBRANCH  31  32
ENDBRANCH  30  31
ENDBRANCH  29  30
ENDBRANCH   1  29
TORSDOF 19
ENDMDL
MODEL 3
REMARK VINA RESULT:     -11.9      1.396      2.469
REMARK SMILES C[C@H](NC(=O)c1cccc(NC(=O)/C=C/C(=O)OCCOCCOC(=O)c2ccc(-c3c4nc(c(-c5c(F)c(F)c(F)c(F)c5F)c5ccc([nH]5)c(-c5c(F)c(F)c(F)c(F)c5F)c5nc(c(-c6c(F)c(F)c(F)c(F)c6F)c6ccc3[nH]6)C=C5)C=C4)cc2)c1)c1ccccc1
REMARK SMILES IDX 19 1 18 2 16 3 17 4 15 5 14 6 12 7 11 8 13 10 10 11 6 12
REMARK SMILES IDX 7 13 90 14 8 15 9 16 4 17 3 18 5 20 2 21 1 22 91 23 92 24
REMARK SMILES IDX 96 25 93 26 95 27 94 28 20 29 21 30 22 31 23 32 24 33 25 34
REMARK SMILES IDX 26 35 27 36 28 37 89 38 29 39 88 40 30 41 31 42 32 43 82 44
REMARK SMILES IDX 33 45 87 46 81 47 83 48 34 49 86 50 80 51 79 52 35 54 67 55
REMARK SMILES IDX 47 56 66 57 48 58 51 59 65 60 84 61 49 62 50 63 64 65 85 66
REMARK SMILES IDX 52 67 36 68 37 69 45 70 38 71 39 72 43 73 46 74 40 75 41 76
REMARK SMILES IDX 44 77 42 78 68 79 69 80 77 81 70 82 71 83 75 84 78 85 72 86
REMARK SMILES IDX 73 87 76 88 74 89 53 90 54 91 62 92 55 93 56 94 60 95 63 96
REMARK SMILES IDX 57 97 58 98 61 99 59 100
REMARK H PARENT 11 9 3 19 83 53 51 64
REMARK Flexibility Score: inf
ROOT
ATOM      1  C   UNL A   1      31.532  29.322  24.489  1.00  0.00     0.261 C 
ENDROOT
BRANCH   1   2
ATOM      2  O   UNL A   1      31.463  29.521  23.067  1.00  0.00    -0.460 OA
BRANCH   2   3
ATOM      3  C   UNL A   1      30.218  29.422  22.545  1.00  0.00     0.331 C 
ATOM      4  O   UNL A   1      29.863  29.792  21.439  1.00  0.00    -0.247 OA
BRANCH   3   5
ATOM      5  C   UNL A   1      29.398  28.601  23.459  1.00  0.00     0.099 C 
ATOM      6  C   UNL A   1      29.256  27.304  23.159  1.00  0.00     0.079 C 
BRANCH   6   7
ATOM      7  C   UNL A   1      28.694  26.383  24.152  1.00  0.00     0.248 C 
ATOM      8  N   UNL A   1      29.515  25.613  24.927  1.00  0.00    -0.322 N 
ATOM      9  H   UNL A   1      29.019  24.993  25.507  1.00  0.00     0.170 HD
ATOM     10  O   UNL A   1      27.475  26.268  24.246  1.00  0.00    -0.270 OA
BRANCH   8  11
ATOM     11  C   UNL A   1      30.915  25.507  25.085  1.00  0.00     0.042 A 
ATOM     12  C   UNL A   1      32.967  24.494  24.284  1.00  0.00     0.041 A 
ATOM     13  C   UNL A   1      33.715  25.136  25.270  1.00  0.00     0.014 A 
ATOM     14  C   UNL A   1      31.573  24.623  24.221  1.00  0.00     0.040 A 
ATOM     15  C   UNL A   1      33.069  26.016  26.124  1.00  0.00     0.003 A 
ATOM     16  C   UNL A   1      31.690  26.227  26.001  1.00  0.00     0.026 A 
BRANCH  12  17
ATOM     17  C   UNL A   1      33.707  23.823  23.208  1.00  0.00     0.251 C 
ATOM     18  N   UNL A   1      34.359  22.652  23.499  1.00  0.00    -0.346 N 
ATOM     19  H   UNL A   1      34.701  22.163  22.715  1.00  0.00     0.164 HD
ATOM     20  O   UNL A   1      33.663  24.276  22.071  1.00  0.00    -0.269 OA
BRANCH  18  21
ATOM     21  C   UNL A   1      34.630  22.013  24.789  1.00  0.00     0.109 C 
ATOM     22  C   UNL A   1      34.215  20.539  24.897  1.00  0.00     0.036 C 
BRANCH  21  23
ATOM     23  C   UNL A   1      36.111  22.106  25.117  1.00  0.00    -0.026 A 
ATOM     24  C   UNL A   1      36.953  20.992  24.957  1.00  0.00     0.006 A 
ATOM     25  C   UNL A   1      36.640  23.280  25.671  1.00  0.00     0.006 A 
ATOM     26  C   UNL A   1      38.277  21.034  25.392  1.00  0.00     0.000 A 
ATOM     27  C   UNL A   1      37.968  23.322  26.098  1.00  0.00     0.000 A 
ATOM     28  C   UNL A   1      38.781  22.197  25.971  1.00  0.00     0.000 A 
ENDBRANCH  21  23
ENDBRANCH  18  21
ENDBRANCH  12  17
ENDBRANCH   8  11
ENDBRANCH   6   7
ENDBRANCH   3   5
ENDBRANCH   2   3
ENDBRANCH   1   2
BRANCH   1  29
ATOM     29  C   UNL A   1      32.924  29.693  25.012  1.00  0.00     0.202 C 
BRANCH  29  30
ATOM     30  O   UNL A   1      32.955  30.577  26.132  1.00  0.00    -0.374 OA
BRANCH  30  31
ATOM     31  C   UNL A   1      31.732  31.188  26.545  1.00  0.00     0.202 C 
BRANCH  31  32
ATOM     32  C   UNL A   1      31.792  32.675  26.927  1.00  0.00     0.261 C 
BRANCH  32  33
ATOM     33  O   UNL A   1      33.120  33.228  26.839  1.00  0.00    -0.460 OA
BRANCH  33  34
ATOM     34  C   UNL A   1      33.627  33.690  28.008  1.00  0.00     0.338 C 
ATOM     35  O   UNL A   1      33.130  34.507  28.763  1.00  0.00    -0.246 OA
BRANCH  34  36
ATOM     36  C   UNL A   1      34.846  32.940  28.368  1.00  0.00     0.060 A 
ATOM     37  C   UNL A   1      34.690  31.632  28.846  1.00  0.00     0.016 A 
ATOM     38  C   UNL A   1      36.102  33.548  28.361  1.00  0.00     0.016 A 
ATOM     39  C   UNL A   1      35.789  30.936  29.346  1.00  0.00     0.010 A 
ATOM     40  C   UNL A   1      37.202  32.852  28.876  1.00  0.00     0.010 A 
ATOM     41  C   UNL A   1      37.046  31.554  29.397  1.00  0.00    -0.014 A 
BRANCH  41  42
ATOM     42  C   UNL A   1      38.159  30.888  30.118  1.00  0.00     0.031 A 
ATOM     43  C   UNL A   1      38.405  31.224  31.561  1.00  0.00     0.074 A 
ATOM     44  C   UNL A   1      38.919  29.966  29.501  1.00  0.00     0.049 A 
ATOM     45  N   UNL A   1      39.329  30.777  32.374  1.00  0.00    -0.248 NA
ATOM     46  C   UNL A   1      37.485  32.195  32.173  1.00  0.00     0.031 C 
ATOM     47  C   UNL A   1      38.754  29.525  28.119  1.00  0.00     0.029 A 
ATOM     48  N   UNL A   1      39.988  29.239  29.963  1.00  0.00    -0.354 N 
ATOM     49  C   UNL A   1      39.104  31.411  33.589  1.00  0.00     0.074 A 
ATOM     50  C   UNL A   1      37.975  32.296  33.401  1.00  0.00     0.031 C 
ATOM     51  C   UNL A   1      39.697  28.609  27.839  1.00  0.00     0.029 A 
ATOM     52  C   UNL A   1      40.547  28.423  29.013  1.00  0.00     0.049 A 
ATOM     53  H   UNL A   1      40.322  29.299  30.887  1.00  0.00     0.167 HD
ATOM     54  C   UNL A   1      39.775  31.263  34.757  1.00  0.00     0.037 A 
ATOM     55  C   UNL A   1      41.635  27.629  29.079  1.00  0.00     0.037 A 
ATOM     56  C   UNL A   1      40.900  30.384  34.943  1.00  0.00     0.049 A 
ATOM     57  C   UNL A   1      42.407  27.536  30.369  1.00  0.00     0.074 A 
ATOM     58  C   UNL A   1      41.633  30.152  36.094  1.00  0.00     0.029 A 
ATOM     59  N   UNL A   1      41.459  29.598  33.947  1.00  0.00    -0.354 N 
ATOM     60  N   UNL A   1      42.172  28.119  31.520  1.00  0.00    -0.248 NA
ATOM     61  C   UNL A   1      43.595  26.670  30.370  1.00  0.00     0.031 C 
ATOM     62  C   UNL A   1      42.666  29.262  35.782  1.00  0.00     0.029 A 
ATOM     63  C   UNL A   1      42.545  28.900  34.450  1.00  0.00     0.049 A 
ATOM     64  H   UNL A   1      41.132  29.544  33.020  1.00  0.00     0.167 HD
ATOM     65  C   UNL A   1      43.162  27.672  32.385  1.00  0.00     0.074 A 
ATOM     66  C   UNL A   1      43.995  26.759  31.631  1.00  0.00     0.031 C 
ATOM     67  C   UNL A   1      43.362  27.989  33.688  1.00  0.00     0.037 A 
BRANCH  54  68
ATOM     68  C   UNL A   1      39.323  32.092  35.922  1.00  0.00     0.064 A 
ATOM     69  C   UNL A   1      38.351  31.631  36.823  1.00  0.00     0.173 A 
ATOM     70  C   UNL A   1      39.893  33.352  36.161  1.00  0.00     0.173 A 
ATOM     71  F   UNL A   1      37.767  30.438  36.632  1.00  0.00    -0.203 F 
ATOM     72  C   UNL A   1      37.949  32.411  37.904  1.00  0.00     0.198 A 
ATOM     73  C   UNL A   1      39.507  34.117  37.258  1.00  0.00     0.198 A 
ATOM     74  F   UNL A   1      40.830  33.837  35.332  1.00  0.00    -0.203 F 
ATOM     75  F   UNL A   1      36.987  31.967  38.727  1.00  0.00    -0.200 F 
ATOM     76  C   UNL A   1      38.531  33.649  38.125  1.00  0.00     0.200 A 
ATOM     77  F   UNL A   1      40.079  35.310  37.476  1.00  0.00    -0.200 F 
ATOM     78  F   UNL A   1      38.147  34.396  39.169  1.00  0.00    -0.200 F 
ENDBRANCH  54  68
BRANCH  55  79
ATOM     79  C   UNL A   1      42.069  26.867  27.880  1.00  0.00     0.064 A 
ATOM     80  C   UNL A   1      41.558  25.590  27.611  1.00  0.00     0.173 A 
ATOM     81  C   UNL A   1      43.012  27.395  26.986  1.00  0.00     0.173 A 
ATOM     82  F   UNL A   1      40.674  25.031  28.451  1.00  0.00    -0.203 F 
ATOM     83  C   UNL A   1      41.986  24.864  26.501  1.00  0.00     0.198 A 
ATOM     84  C   UNL A   1      43.419  26.680  25.863  1.00  0.00     0.198 A 
ATOM     85  F   UNL A   1      43.533  28.612  27.202  1.00  0.00    -0.203 F 
ATOM     86  F   UNL A   1      41.514  23.627  26.290  1.00  0.00    -0.200 F 
ATOM     87  C   UNL A   1      42.911  25.412  25.625  1.00  0.00     0.200 A 
ATOM     88  F   UNL A   1      44.306  27.216  25.014  1.00  0.00    -0.200 F 
ATOM     89  F   UNL A   1      43.319  24.714  24.556  1.00  0.00    -0.200 F 
ENDBRANCH  55  79
BRANCH  67  90
ATOM     90  C   UNL A   1      44.506  27.321  34.394  1.00  0.00     0.064 A 
ATOM     91  C   UNL A   1      44.337  26.120  35.098  1.00  0.00     0.173 A 
ATOM     92  C   UNL A   1      45.797  27.867  34.329  1.00  0.00     0.173 A 
ATOM     93  F   UNL A   1      43.120  25.565  35.202  1.00  0.00    -0.203 F 
ATOM     94  C   UNL A   1      45.413  25.503  35.730  1.00  0.00     0.198 A 
ATOM     95  C   UNL A   1      46.876  27.233  34.938  1.00  0.00     0.198 A 
ATOM     96  F   UNL A   1      46.015  29.012  33.662  1.00  0.00    -0.203 F 
ATOM     97  F   UNL A   1      45.220  24.378  36.434  1.00  0.00    -0.200 F 
ATOM     98  C   UNL A   1      46.683  26.055  35.644  1.00  0.00     0.200 A 
ATOM     99  F   UNL A   1      48.104  27.763  34.842  1.00  0.00    -0.200 F 
ATOM    100  F   UNL A   1      47.718  25.456  36.246  1.00  0.00    -0.200 F 
ENDBRANCH  67  90
ENDBRANCH  41  42
ENDBRANCH  34  36
ENDBRANCH  33  34
ENDBRANCH  32  33
ENDBRANCH  31  32
ENDBRANCH  30  31
ENDBRANCH  29  30
ENDBRANCH   1  29
TORSDOF 19
ENDMDL
