MODEL 1
REMARK VINA RESULT:     -10.9      0.000      0.000
REMARK SMILES CCCCc1nc(C[N@H+]2CC[NH2+][C@H](C(=O)OCCOCCOC(=O)c3ccc(-c4c5nc(c(-c6c(F)c(F)c(F)c(F)c6F)c6ccc([nH]6)c(-c6c(F)c(F)c(F)c(F)c6F)c6nc(c(-c7c(F)c(F)c(F)c(F)c7F)c7ccc4[nH]7)C=C6)C=C5)cc3)C2)c(Cl)[nH]1
REMARK SMILES IDX 17 1 16 2 14 3 15 4 13 5 9 6 10 7 88 8 11 10 12 11 8 14 7 15
REMARK SMILES IDX 5 16 6 17 91 18 89 19 90 21 4 22 3 23 2 24 1 25 18 26 19 27
REMARK SMILES IDX 20 28 21 29 22 30 23 31 24 32 25 33 26 34 87 35 27 36 86 37
REMARK SMILES IDX 28 38 29 39 30 40 80 41 31 42 85 43 79 44 81 45 32 46 84 47
REMARK SMILES IDX 78 48 77 49 33 51 65 52 45 53 64 54 46 55 49 56 63 57 82 58
REMARK SMILES IDX 47 59 48 60 62 62 83 63 50 64 34 65 35 66 43 67 36 68 37 69
REMARK SMILES IDX 41 70 44 71 38 72 39 73 42 74 40 75 66 76 67 77 75 78 68 79
REMARK SMILES IDX 69 80 73 81 76 82 70 83 71 84 74 85 72 86 51 87 52 88 60 89
REMARK SMILES IDX 53 90 54 91 58 92 61 93 55 94 56 95 59 96 57 97
REMARK H PARENT 9 9 12 12 12 13 91 20 81 50 49 61
REMARK Flexibility Score: inf
ROOT
ATOM      1  C   UNL A   1      39.556  21.538  26.526  1.00  0.00     0.261 C 
ENDROOT
BRANCH   1   2
ATOM      2  O   UNL A   1      38.649  21.578  25.408  1.00  0.00    -0.459 OA
BRANCH   2   3
ATOM      3  C   UNL A   1      37.963  20.424  25.137  1.00  0.00     0.371 C 
ATOM      4  O   UNL A   1      38.457  19.303  25.182  1.00  0.00    -0.245 OA
BRANCH   3   5
ATOM      5  C   UNL A   1      36.474  20.704  24.840  1.00  0.00     0.348 C 
ATOM      6  N   UNL A   1      34.556  22.137  25.803  1.00  0.00    -0.320 N 
ATOM      7  C   UNL A   1      33.766  20.905  25.849  1.00  0.00     0.324 C 
ATOM      8  C   UNL A   1      36.001  21.870  25.753  1.00  0.00     0.341 C 
ATOM      9  H   UNL A   1      34.387  22.579  26.706  1.00  0.00     0.348 HD
ATOM     10  C   UNL A   1      34.238  19.789  24.891  1.00  0.00     0.323 C 
ATOM     11  N   UNL A   1      35.669  19.459  25.020  1.00  0.00    -0.325 N 
ATOM     12  H   UNL A   1      35.928  18.779  24.305  1.00  0.00     0.347 HD
ATOM     13  H   UNL A   1      35.848  19.064  25.942  1.00  0.00     0.347 HD
BRANCH   6  14
ATOM     14  C   UNL A   1      34.073  23.200  24.914  1.00  0.00     0.323 C 
BRANCH  14  15
ATOM     15  C   UNL A   1      33.219  24.243  25.551  1.00  0.00     0.132 A 
ATOM     16  C   UNL A   1      32.528  26.217  26.067  1.00  0.00     0.107 A 
ATOM     17  N   UNL A   1      33.535  25.589  25.488  1.00  0.00    -0.231 NA
ATOM     18  N   UNL A   1      31.654  25.330  26.641  1.00  0.00    -0.333 N 
ATOM     19  C   UNL A   1      32.048  24.092  26.251  1.00  0.00     0.135 A 
ATOM     20  H   UNL A   1      30.891  25.548  27.222  1.00  0.00     0.169 HD
ATOM     21  Cl  UNL A   1      31.052  22.781  26.630  1.00  0.00    -0.062 Cl
BRANCH  16  22
ATOM     22  C   UNL A   1      32.194  27.655  25.931  1.00  0.00     0.075 C 
BRANCH  22  23
ATOM     23  C   UNL A   1      32.041  28.245  27.333  1.00  0.00     0.008 C 
BRANCH  23  24
ATOM     24  C   UNL A   1      32.291  29.748  27.398  1.00  0.00    -0.003 C 
ATOM     25  C   UNL A   1      33.540  30.101  26.630  1.00  0.00     0.004 C 
ENDBRANCH  23  24
ENDBRANCH  22  23
ENDBRANCH  16  22
ENDBRANCH  14  15
ENDBRANCH   6  14
ENDBRANCH   3   5
ENDBRANCH   2   3
ENDBRANCH   1   2
BRANCH   1  26
ATOM     26  C   UNL A   1      41.027  21.409  26.108  1.00  0.00     0.202 C 
BRANCH  26  27
ATOM     27  O   UNL A   1      41.474  20.129  25.674  1.00  0.00    -0.374 OA
BRANCH  27  28
ATOM     28  C   UNL A   1      42.530  19.528  26.401  1.00  0.00     0.202 C 
BRANCH  28  29
ATOM     29  C   UNL A   1      43.649  18.832  25.627  1.00  0.00     0.261 C 
BRANCH  29  30
ATOM     30  O   UNL A   1      44.858  19.555  25.344  1.00  0.00    -0.460 OA
BRANCH  30  31
ATOM     31  C   UNL A   1      44.754  20.444  24.324  1.00  0.00     0.338 C 
ATOM     32  O   UNL A   1      44.944  20.186  23.135  1.00  0.00    -0.246 OA
BRANCH  31  33
ATOM     33  C   UNL A   1      44.657  21.840  24.821  1.00  0.00     0.060 A 
ATOM     34  C   UNL A   1      45.262  22.138  26.050  1.00  0.00     0.016 A 
ATOM     35  C   UNL A   1      43.816  22.785  24.230  1.00  0.00     0.016 A 
ATOM     36  C   UNL A   1      44.869  23.266  26.770  1.00  0.00     0.010 A 
ATOM     37  C   UNL A   1      43.417  23.905  24.964  1.00  0.00     0.010 A 
ATOM     38  C   UNL A   1      43.863  24.099  26.274  1.00  0.00    -0.014 A 
BRANCH  38  39
ATOM     39  C   UNL A   1      43.536  25.341  26.993  1.00  0.00     0.031 A 
ATOM     40  C   UNL A   1      44.521  26.396  26.666  1.00  0.00     0.074 A 
ATOM     41  C   UNL A   1      42.493  25.625  27.812  1.00  0.00     0.049 A 
ATOM     42  N   UNL A   1      45.470  26.798  27.445  1.00  0.00    -0.248 NA
ATOM     43  C   UNL A   1      44.609  26.907  25.292  1.00  0.00     0.031 C 
ATOM     44  C   UNL A   1      41.331  24.813  28.152  1.00  0.00     0.029 A 
ATOM     45  N   UNL A   1      42.216  26.792  28.481  1.00  0.00    -0.354 N 
ATOM     46  C   UNL A   1      46.153  27.764  26.725  1.00  0.00     0.074 A 
ATOM     47  C   UNL A   1      45.735  27.619  25.356  1.00  0.00     0.031 C 
ATOM     48  C   UNL A   1      40.361  25.587  28.696  1.00  0.00     0.029 A 
ATOM     49  C   UNL A   1      40.902  26.912  28.938  1.00  0.00     0.049 A 
ATOM     50  H   UNL A   1      42.895  27.491  28.627  1.00  0.00     0.167 HD
ATOM     51  C   UNL A   1      46.763  28.791  27.374  1.00  0.00     0.037 A 
ATOM     52  C   UNL A   1      40.304  28.005  29.492  1.00  0.00     0.037 A 
ATOM     53  C   UNL A   1      46.964  28.473  28.771  1.00  0.00     0.049 A 
ATOM     54  C   UNL A   1      41.381  28.869  30.029  1.00  0.00     0.074 A 
ATOM     55  C   UNL A   1      47.569  27.432  29.454  1.00  0.00     0.029 A 
ATOM     56  N   UNL A   1      46.169  29.102  29.698  1.00  0.00    -0.354 N 
ATOM     57  N   UNL A   1      42.085  28.569  31.082  1.00  0.00    -0.248 NA
ATOM     58  C   UNL A   1      41.976  29.842  29.127  1.00  0.00     0.031 C 
ATOM     59  C   UNL A   1      46.736  27.195  30.587  1.00  0.00     0.029 A 
ATOM     60  C   UNL A   1      45.724  28.151  30.576  1.00  0.00     0.049 A 
ATOM     61  H   UNL A   1      45.958  30.063  29.726  1.00  0.00     0.167 HD
ATOM     62  C   UNL A   1      43.377  28.914  30.729  1.00  0.00     0.074 A 
ATOM     63  C   UNL A   1      43.238  29.776  29.556  1.00  0.00     0.031 C 
ATOM     64  C   UNL A   1      44.443  28.228  31.232  1.00  0.00     0.037 A 
BRANCH  51  65
ATOM     65  C   UNL A   1      46.755  30.214  26.862  1.00  0.00     0.064 A 
ATOM     66  C   UNL A   1      47.948  30.959  26.943  1.00  0.00     0.173 A 
ATOM     67  C   UNL A   1      45.587  30.970  26.608  1.00  0.00     0.173 A 
ATOM     68  F   UNL A   1      49.117  30.349  27.189  1.00  0.00    -0.203 F 
ATOM     69  C   UNL A   1      47.951  32.354  26.897  1.00  0.00     0.198 A 
ATOM     70  C   UNL A   1      45.603  32.358  26.504  1.00  0.00     0.198 A 
ATOM     71  F   UNL A   1      44.366  30.430  26.568  1.00  0.00    -0.203 F 
ATOM     72  F   UNL A   1      49.086  33.022  27.139  1.00  0.00    -0.200 F 
ATOM     73  C   UNL A   1      46.777  33.053  26.688  1.00  0.00     0.200 A 
ATOM     74  F   UNL A   1      44.450  33.014  26.317  1.00  0.00    -0.200 F 
ATOM     75  F   UNL A   1      46.765  34.391  26.718  1.00  0.00    -0.200 F 
ENDBRANCH  51  65
BRANCH  52  76
ATOM     76  C   UNL A   1      38.897  28.489  29.430  1.00  0.00     0.064 A 
ATOM     77  C   UNL A   1      38.126  28.656  30.600  1.00  0.00     0.173 A 
ATOM     78  C   UNL A   1      38.387  29.095  28.267  1.00  0.00     0.173 A 
ATOM     79  F   UNL A   1      38.545  28.146  31.767  1.00  0.00    -0.203 F 
ATOM     80  C   UNL A   1      36.949  29.418  30.612  1.00  0.00     0.198 A 
ATOM     81  C   UNL A   1      37.211  29.851  28.280  1.00  0.00     0.198 A 
ATOM     82  F   UNL A   1      39.071  29.049  27.116  1.00  0.00    -0.203 F 
ATOM     83  F   UNL A   1      36.288  29.612  31.761  1.00  0.00    -0.200 F 
ATOM     84  C   UNL A   1      36.502  30.028  29.454  1.00  0.00     0.200 A 
ATOM     85  F   UNL A   1      36.805  30.466  27.159  1.00  0.00    -0.200 F 
ATOM     86  F   UNL A   1      35.418  30.817  29.477  1.00  0.00    -0.200 F 
ENDBRANCH  52  76
BRANCH  64  87
ATOM     87  C   UNL A   1      44.224  27.328  32.413  1.00  0.00     0.064 A 
ATOM     88  C   UNL A   1      44.028  25.938  32.338  1.00  0.00     0.173 A 
ATOM     89  C   UNL A   1      44.349  27.894  33.691  1.00  0.00     0.173 A 
ATOM     90  F   UNL A   1      43.997  25.302  31.158  1.00  0.00    -0.203 F 
ATOM     91  C   UNL A   1      43.916  25.164  33.494  1.00  0.00     0.198 A 
ATOM     92  C   UNL A   1      44.279  27.113  34.839  1.00  0.00     0.198 A 
ATOM     93  F   UNL A   1      44.581  29.209  33.823  1.00  0.00    -0.203 F 
ATOM     94  F   UNL A   1      43.711  23.841  33.399  1.00  0.00    -0.200 F 
ATOM     95  C   UNL A   1      44.050  25.750  34.742  1.00  0.00     0.200 A 
ATOM     96  F   UNL A   1      44.458  27.680  36.041  1.00  0.00    -0.200 F 
ATOM     97  F   UNL A   1      43.984  25.001  35.851  1.00  0.00    -0.200 F 
ENDBRANCH  64  87
ENDBRANCH  38  39
ENDBRANCH  31  33
ENDBRANCH  30  31
ENDBRANCH  29  30
ENDBRANCH  28  29
ENDBRANCH  27  28
ENDBRANCH  26  27
ENDBRANCH   1  26
TORSDOF 19
ENDMDL
MODEL 2
REMARK VINA RESULT:     -10.8      2.819      4.292
REMARK SMILES CCCCc1nc(C[N@H+]2CC[NH2+][C@H](C(=O)OCCOCCOC(=O)c3ccc(-c4c5nc(c(-c6c(F)c(F)c(F)c(F)c6F)c6ccc([nH]6)c(-c6c(F)c(F)c(F)c(F)c6F)c6nc(c(-c7c(F)c(F)c(F)c(F)c7F)c7ccc4[nH]7)C=C6)C=C5)cc3)C2)c(Cl)[nH]1
REMARK SMILES IDX 17 1 16 2 14 3 15 4 13 5 9 6 10 7 88 8 11 10 12 11 8 14 7 15
REMARK SMILES IDX 5 16 6 17 91 18 89 19 90 21 4 22 3 23 2 24 1 25 18 26 19 27
REMARK SMILES IDX 20 28 21 29 22 30 23 31 24 32 25 33 26 34 87 35 27 36 86 37
REMARK SMILES IDX 28 38 29 39 30 40 80 41 31 42 85 43 79 44 81 45 32 46 84 47
REMARK SMILES IDX 78 48 77 49 33 51 65 52 45 53 64 54 46 55 49 56 63 57 82 58
REMARK SMILES IDX 47 59 48 60 62 62 83 63 50 64 34 65 35 66 43 67 36 68 37 69
REMARK SMILES IDX 41 70 44 71 38 72 39 73 42 74 40 75 66 76 67 77 75 78 68 79
REMARK SMILES IDX 69 80 73 81 76 82 70 83 71 84 74 85 72 86 51 87 52 88 60 89
REMARK SMILES IDX 53 90 54 91 58 92 61 93 55 94 56 95 59 96 57 97
REMARK H PARENT 9 9 12 12 12 13 91 20 81 50 49 61
REMARK Flexibility Score: inf
ROOT
ATOM      1  C   UNL A   1      33.099  19.621  25.340  1.00  0.00     0.261 C 
ENDROOT
BRANCH   1   2
ATOM      2  O   UNL A   1      32.934  20.899  25.986  1.00  0.00    -0.459 OA
BRANCH   2   3
ATOM      3  C   UNL A   1      31.991  21.735  25.452  1.00  0.00     0.371 C 
ATOM      4  O   UNL A   1      30.793  21.673  25.705  1.00  0.00    -0.245 OA
BRANCH   3   5
ATOM      5  C   UNL A   1      32.632  22.810  24.547  1.00  0.00     0.348 C 
ATOM      6  N   UNL A   1      31.891  24.882  23.199  1.00  0.00    -0.320 N 
ATOM      7  C   UNL A   1      32.562  24.274  22.049  1.00  0.00     0.324 C 
ATOM      8  C   UNL A   1      31.562  23.894  24.238  1.00  0.00     0.341 C 
ATOM      9  H   UNL A   1      30.997  25.204  22.830  1.00  0.00     0.348 HD
ATOM     10  C   UNL A   1      33.653  23.238  22.399  1.00  0.00     0.323 C 
ATOM     11  N   UNL A   1      33.196  22.179  23.316  1.00  0.00    -0.325 N 
ATOM     12  H   UNL A   1      33.984  21.583  23.569  1.00  0.00     0.347 HD
ATOM     13  H   UNL A   1      32.480  21.615  22.860  1.00  0.00     0.347 HD
BRANCH   6  14
ATOM     14  C   UNL A   1      32.431  26.158  23.682  1.00  0.00     0.323 C 
BRANCH  14  15
ATOM     15  C   UNL A   1      31.779  27.386  23.144  1.00  0.00     0.132 A 
ATOM     16  C   UNL A   1      30.184  28.676  22.490  1.00  0.00     0.107 A 
ATOM     17  N   UNL A   1      30.428  27.430  22.847  1.00  0.00    -0.231 NA
ATOM     18  N   UNL A   1      31.343  29.401  22.391  1.00  0.00    -0.333 N 
ATOM     19  C   UNL A   1      32.334  28.612  22.875  1.00  0.00     0.135 A 
ATOM     20  H   UNL A   1      31.439  30.314  22.038  1.00  0.00     0.169 HD
ATOM     21  Cl  UNL A   1      33.869  29.290  23.077  1.00  0.00    -0.062 Cl
BRANCH  16  22
ATOM     22  C   UNL A   1      28.854  29.332  22.439  1.00  0.00     0.075 C 
BRANCH  22  23
ATOM     23  C   UNL A   1      29.064  30.812  22.115  1.00  0.00     0.008 C 
BRANCH  23  24
ATOM     24  C   UNL A   1      28.873  31.736  23.313  1.00  0.00    -0.003 C 
ATOM     25  C   UNL A   1      28.745  33.166  22.851  1.00  0.00     0.004 C 
ENDBRANCH  23  24
ENDBRANCH  22  23
ENDBRANCH  16  22
ENDBRANCH  14  15
ENDBRANCH   6  14
ENDBRANCH   3   5
ENDBRANCH   2   3
ENDBRANCH   1   2
BRANCH   1  26
ATOM     26  C   UNL A   1      34.532  19.372  24.848  1.00  0.00     0.202 C 
BRANCH  26  27
ATOM     27  O   UNL A   1      35.342  20.512  24.588  1.00  0.00    -0.374 OA
BRANCH  27  28
ATOM     28  C   UNL A   1      36.321  20.848  25.554  1.00  0.00     0.202 C 
BRANCH  28  29
ATOM     29  C   UNL A   1      37.785  20.917  25.121  1.00  0.00     0.261 C 
BRANCH  29  30
ATOM     30  O   UNL A   1      38.530  22.120  25.367  1.00  0.00    -0.460 OA
BRANCH  30  31
ATOM     31  C   UNL A   1      39.576  21.968  26.218  1.00  0.00     0.338 C 
ATOM     32  O   UNL A   1      40.178  20.913  26.422  1.00  0.00    -0.246 OA
BRANCH  31  33
ATOM     33  C   UNL A   1      39.748  23.153  27.095  1.00  0.00     0.060 A 
ATOM     34  C   UNL A   1      38.840  24.211  26.946  1.00  0.00     0.016 A 
ATOM     35  C   UNL A   1      40.883  23.338  27.886  1.00  0.00     0.016 A 
ATOM     36  C   UNL A   1      39.168  25.488  27.403  1.00  0.00     0.010 A 
ATOM     37  C   UNL A   1      41.211  24.622  28.328  1.00  0.00     0.010 A 
ATOM     38  C   UNL A   1      40.408  25.719  28.005  1.00  0.00    -0.014 A 
BRANCH  38  39
ATOM     39  C   UNL A   1      40.696  27.044  28.577  1.00  0.00     0.031 A 
ATOM     40  C   UNL A   1      41.897  27.627  27.938  1.00  0.00     0.074 A 
ATOM     41  C   UNL A   1      40.016  27.757  29.508  1.00  0.00     0.049 A 
ATOM     42  N   UNL A   1      43.067  27.703  28.479  1.00  0.00    -0.248 NA
ATOM     43  C   UNL A   1      41.868  27.962  26.509  1.00  0.00     0.031 C 
ATOM     44  C   UNL A   1      38.742  27.467  30.154  1.00  0.00     0.029 A 
ATOM     45  N   UNL A   1      40.314  28.991  30.035  1.00  0.00    -0.354 N 
ATOM     46  C   UNL A   1      43.879  28.287  27.520  1.00  0.00     0.074 A 
ATOM     47  C   UNL A   1      43.159  28.205  26.278  1.00  0.00     0.031 C 
ATOM     48  C   UNL A   1      38.243  28.586  30.733  1.00  0.00     0.029 A 
ATOM     49  C   UNL A   1      39.254  29.627  30.683  1.00  0.00     0.049 A 
ATOM     50  H   UNL A   1      41.210  29.395  29.960  1.00  0.00     0.167 HD
ATOM     51  C   UNL A   1      44.933  29.057  27.900  1.00  0.00     0.037 A 
ATOM     52  C   UNL A   1      39.208  30.902  31.162  1.00  0.00     0.037 A 
ATOM     53  C   UNL A   1      45.298  28.794  29.274  1.00  0.00     0.049 A 
ATOM     54  C   UNL A   1      40.607  31.339  31.377  1.00  0.00     0.074 A 
ATOM     55  C   UNL A   1      45.627  27.657  29.992  1.00  0.00     0.029 A 
ATOM     56  N   UNL A   1      44.988  29.742  30.218  1.00  0.00    -0.354 N 
ATOM     57  N   UNL A   1      41.365  30.879  32.330  1.00  0.00    -0.248 NA
ATOM     58  C   UNL A   1      41.302  31.949  30.255  1.00  0.00     0.031 C 
ATOM     59  C   UNL A   1      45.022  27.835  31.271  1.00  0.00     0.029 A 
ATOM     60  C   UNL A   1      44.432  29.096  31.289  1.00  0.00     0.049 A 
ATOM     61  H   UNL A   1      45.139  30.712  30.139  1.00  0.00     0.167 HD
ATOM     62  C   UNL A   1      42.591  30.689  31.719  1.00  0.00     0.074 A 
ATOM     63  C   UNL A   1      42.521  31.450  30.472  1.00  0.00     0.031 C 
ATOM     64  C   UNL A   1      43.428  29.695  32.131  1.00  0.00     0.037 A 
BRANCH  51  65
ATOM     65  C   UNL A   1      45.317  30.338  27.192  1.00  0.00     0.064 A 
ATOM     66  C   UNL A   1      46.685  30.588  26.964  1.00  0.00     0.173 A 
ATOM     67  C   UNL A   1      44.463  31.452  27.026  1.00  0.00     0.173 A 
ATOM     68  F   UNL A   1      47.590  29.607  27.100  1.00  0.00    -0.203 F 
ATOM     69  C   UNL A   1      47.167  31.874  26.713  1.00  0.00     0.198 A 
ATOM     70  C   UNL A   1      44.943  32.722  26.717  1.00  0.00     0.198 A 
ATOM     71  F   UNL A   1      43.150  31.404  27.269  1.00  0.00    -0.203 F 
ATOM     72  F   UNL A   1      48.488  32.088  26.663  1.00  0.00    -0.200 F 
ATOM     73  C   UNL A   1      46.297  32.942  26.601  1.00  0.00     0.200 A 
ATOM     74  F   UNL A   1      44.081  33.744  26.630  1.00  0.00    -0.200 F 
ATOM     75  F   UNL A   1      46.761  34.186  26.435  1.00  0.00    -0.200 F 
ENDBRANCH  51  65
BRANCH  52  76
ATOM     76  C   UNL A   1      38.081  31.871  31.266  1.00  0.00     0.064 A 
ATOM     77  C   UNL A   1      37.629  32.593  30.141  1.00  0.00     0.173 A 
ATOM     78  C   UNL A   1      37.224  31.873  32.381  1.00  0.00     0.173 A 
ATOM     79  F   UNL A   1      38.357  32.620  29.015  1.00  0.00    -0.203 F 
ATOM     80  C   UNL A   1      36.382  33.233  30.121  1.00  0.00     0.198 A 
ATOM     81  C   UNL A   1      35.983  32.516  32.362  1.00  0.00     0.198 A 
ATOM     82  F   UNL A   1      37.530  31.168  33.480  1.00  0.00    -0.203 F 
ATOM     83  F   UNL A   1      35.960  33.845  29.006  1.00  0.00    -0.200 F 
ATOM     84  C   UNL A   1      35.554  33.181  31.228  1.00  0.00     0.200 A 
ATOM     85  F   UNL A   1      35.174  32.430  33.428  1.00  0.00    -0.200 F 
ATOM     86  F   UNL A   1      34.331  33.731  31.187  1.00  0.00    -0.200 F 
ENDBRANCH  52  76
BRANCH  64  87
ATOM     87  C   UNL A   1      43.160  29.033  33.452  1.00  0.00     0.064 A 
ATOM     88  C   UNL A   1      42.233  27.997  33.658  1.00  0.00     0.173 A 
ATOM     89  C   UNL A   1      43.982  29.388  34.533  1.00  0.00     0.173 A 
ATOM     90  F   UNL A   1      41.478  27.529  32.653  1.00  0.00    -0.203 F 
ATOM     91  C   UNL A   1      42.108  27.381  34.904  1.00  0.00     0.198 A 
ATOM     92  C   UNL A   1      43.883  28.743  35.761  1.00  0.00     0.198 A 
ATOM     93  F   UNL A   1      44.916  30.340  34.382  1.00  0.00    -0.203 F 
ATOM     94  F   UNL A   1      41.203  26.406  35.084  1.00  0.00    -0.200 F 
ATOM     95  C   UNL A   1      42.938  27.749  35.950  1.00  0.00     0.200 A 
ATOM     96  F   UNL A   1      44.723  29.070  36.753  1.00  0.00    -0.200 F 
ATOM     97  F   UNL A   1      42.846  27.128  37.135  1.00  0.00    -0.200 F 
ENDBRANCH  64  87
ENDBRANCH  38  39
ENDBRANCH  31  33
ENDBRANCH  30  31
ENDBRANCH  29  30
ENDBRANCH  28  29
ENDBRANCH  27  28
ENDBRANCH  26  27
ENDBRANCH   1  26
TORSDOF 19
ENDMDL
MODEL 3
REMARK VINA RESULT:     -10.6      2.479      4.942
REMARK SMILES CCCCc1nc(C[N@H+]2CC[NH2+][C@H](C(=O)OCCOCCOC(=O)c3ccc(-c4c5nc(c(-c6c(F)c(F)c(F)c(F)c6F)c6ccc([nH]6)c(-c6c(F)c(F)c(F)c(F)c6F)c6nc(c(-c7c(F)c(F)c(F)c(F)c7F)c7ccc4[nH]7)C=C6)C=C5)cc3)C2)c(Cl)[nH]1
REMARK SMILES IDX 17 1 16 2 14 3 15 4 13 5 9 6 10 7 88 8 11 10 12 11 8 14 7 15
REMARK SMILES IDX 5 16 6 17 91 18 89 19 90 21 4 22 3 23 2 24 1 25 18 26 19 27
REMARK SMILES IDX 20 28 21 29 22 30 23 31 24 32 25 33 26 34 87 35 27 36 86 37
REMARK SMILES IDX 28 38 29 39 30 40 80 41 31 42 85 43 79 44 81 45 32 46 84 47
REMARK SMILES IDX 78 48 77 49 33 51 65 52 45 53 64 54 46 55 49 56 63 57 82 58
REMARK SMILES IDX 47 59 48 60 62 62 83 63 50 64 34 65 35 66 43 67 36 68 37 69
REMARK SMILES IDX 41 70 44 71 38 72 39 73 42 74 40 75 66 76 67 77 75 78 68 79
REMARK SMILES IDX 69 80 73 81 76 82 70 83 71 84 74 85 72 86 51 87 52 88 60 89
REMARK SMILES IDX 53 90 54 91 58 92 61 93 55 94 56 95 59 96 57 97
REMARK H PARENT 9 9 12 12 12 13 91 20 81 50 49 61
REMARK Flexibility Score: inf
ROOT
ATOM      1  C   UNL A   1      34.391  23.211  22.955  1.00  0.00     0.261 C 
ENDROOT
BRANCH   1   2
ATOM      2  O   UNL A   1      34.255  24.538  22.411  1.00  0.00    -0.459 OA
BRANCH   2   3
ATOM      3  C   UNL A   1      33.006  25.096  22.468  1.00  0.00     0.371 C 
ATOM      4  O   UNL A   1      32.346  25.411  21.484  1.00  0.00    -0.245 OA
BRANCH   3   5
ATOM      5  C   UNL A   1      32.502  25.211  23.923  1.00  0.00     0.348 C 
ATOM      6  N   UNL A   1      30.431  24.528  25.303  1.00  0.00    -0.320 N 
ATOM      7  C   UNL A   1      30.350  25.926  25.725  1.00  0.00     0.324 C 
ATOM      8  C   UNL A   1      31.206  24.364  24.064  1.00  0.00     0.341 C 
ATOM      9  H   UNL A   1      29.471  24.280  25.064  1.00  0.00     0.348 HD
ATOM     10  C   UNL A   1      31.671  26.721  25.618  1.00  0.00     0.323 C 
ATOM     11  N   UNL A   1      32.304  26.646  24.289  1.00  0.00    -0.325 N 
ATOM     12  H   UNL A   1      33.207  27.119  24.314  1.00  0.00     0.347 HD
ATOM     13  H   UNL A   1      31.705  27.097  23.598  1.00  0.00     0.347 HD
BRANCH   6  14
ATOM     14  C   UNL A   1      30.687  23.533  26.351  1.00  0.00     0.323 C 
BRANCH  14  15
ATOM     15  C   UNL A   1      31.610  22.422  25.983  1.00  0.00     0.132 A 
ATOM     16  C   UNL A   1      32.291  20.639  24.986  1.00  0.00     0.107 A 
ATOM     17  N   UNL A   1      31.210  21.372  25.176  1.00  0.00    -0.231 NA
ATOM     18  N   UNL A   1      33.332  21.079  25.762  1.00  0.00    -0.333 N 
ATOM     19  C   UNL A   1      32.926  22.243  26.328  1.00  0.00     0.135 A 
ATOM     20  H   UNL A   1      34.203  20.638  25.884  1.00  0.00     0.169 HD
ATOM     21  Cl  UNL A   1      34.062  23.149  27.192  1.00  0.00    -0.062 Cl
BRANCH  16  22
ATOM     22  C   UNL A   1      32.495  19.633  23.915  1.00  0.00     0.075 C 
BRANCH  22  23
ATOM     23  C   UNL A   1      33.730  18.804  24.267  1.00  0.00     0.008 C 
BRANCH  23  24
ATOM     24  C   UNL A   1      33.434  17.325  24.492  1.00  0.00    -0.003 C 
ATOM     25  C   UNL A   1      34.198  16.485  23.500  1.00  0.00     0.004 C 
ENDBRANCH  23  24
ENDBRANCH  22  23
ENDBRANCH  16  22
ENDBRANCH  14  15
ENDBRANCH   6  14
ENDBRANCH   3   5
ENDBRANCH   2   3
ENDBRANCH   1   2
BRANCH   1  26
ATOM     26  C   UNL A   1      35.743  22.977  23.645  1.00  0.00     0.202 C 
BRANCH  26  27
ATOM     27  O   UNL A   1      35.992  21.678  24.171  1.00  0.00    -0.374 OA
BRANCH  27  28
ATOM     28  C   UNL A   1      36.654  21.599  25.420  1.00  0.00     0.202 C 
BRANCH  28  29
ATOM     29  C   UNL A   1      38.174  21.436  25.434  1.00  0.00     0.261 C 
BRANCH  29  30
ATOM     30  O   UNL A   1      38.910  21.840  26.600  1.00  0.00    -0.460 OA
BRANCH  30  31
ATOM     31  C   UNL A   1      40.203  22.175  26.359  1.00  0.00     0.338 C 
ATOM     32  O   UNL A   1      41.109  21.378  26.114  1.00  0.00    -0.246 OA
BRANCH  31  33
ATOM     33  C   UNL A   1      40.474  23.595  26.699  1.00  0.00     0.060 A 
ATOM     34  C   UNL A   1      41.625  23.878  27.446  1.00  0.00     0.016 A 
ATOM     35  C   UNL A   1      39.530  24.603  26.496  1.00  0.00     0.016 A 
ATOM     36  C   UNL A   1      41.728  25.078  28.150  1.00  0.00     0.010 A 
ATOM     37  C   UNL A   1      39.634  25.796  27.214  1.00  0.00     0.010 A 
ATOM     38  C   UNL A   1      40.679  26.000  28.120  1.00  0.00    -0.014 A 
BRANCH  38  39
ATOM     39  C   UNL A   1      40.846  27.305  28.779  1.00  0.00     0.031 A 
ATOM     40  C   UNL A   1      41.964  28.050  28.160  1.00  0.00     0.074 A 
ATOM     41  C   UNL A   1      40.122  27.879  29.772  1.00  0.00     0.049 A 
ATOM     42  N   UNL A   1      43.135  28.210  28.682  1.00  0.00    -0.248 NA
ATOM     43  C   UNL A   1      41.863  28.479  26.759  1.00  0.00     0.031 C 
ATOM     44  C   UNL A   1      38.902  27.414  30.421  1.00  0.00     0.029 A 
ATOM     45  N   UNL A   1      40.308  29.097  30.379  1.00  0.00    -0.354 N 
ATOM     46  C   UNL A   1      43.857  28.939  27.751  1.00  0.00     0.074 A 
ATOM     47  C   UNL A   1      43.116  28.869  26.520  1.00  0.00     0.031 C 
ATOM     48  C   UNL A   1      38.308  28.434  31.087  1.00  0.00     0.029 A 
ATOM     49  C   UNL A   1      39.206  29.574  31.091  1.00  0.00     0.049 A 
ATOM     50  H   UNL A   1      41.155  29.595  30.316  1.00  0.00     0.167 HD
ATOM     51  C   UNL A   1      44.837  29.786  28.164  1.00  0.00     0.037 A 
ATOM     52  C   UNL A   1      39.044  30.802  31.661  1.00  0.00     0.037 A 
ATOM     53  C   UNL A   1      45.263  29.468  29.509  1.00  0.00     0.049 A 
ATOM     54  C   UNL A   1      40.396  31.366  31.879  1.00  0.00     0.074 A 
ATOM     55  C   UNL A   1      45.726  28.325  30.137  1.00  0.00     0.029 A 
ATOM     56  N   UNL A   1      44.884  30.312  30.523  1.00  0.00    -0.354 N 
ATOM     57  N   UNL A   1      41.223  30.922  32.782  1.00  0.00    -0.248 NA
ATOM     58  C   UNL A   1      40.995  32.119  30.789  1.00  0.00     0.031 C 
ATOM     59  C   UNL A   1      45.140  28.351  31.438  1.00  0.00     0.029 A 
ATOM     60  C   UNL A   1      44.426  29.540  31.557  1.00  0.00     0.049 A 
ATOM     61  H   UNL A   1      44.934  31.295  30.510  1.00  0.00     0.167 HD
ATOM     62  C   UNL A   1      42.445  30.902  32.134  1.00  0.00     0.074 A 
ATOM     63  C   UNL A   1      42.264  31.735  30.946  1.00  0.00     0.031 C 
ATOM     64  C   UNL A   1      43.389  29.973  32.459  1.00  0.00     0.037 A 
BRANCH  51  65
ATOM     65  C   UNL A   1      45.070  31.145  27.541  1.00  0.00     0.064 A 
ATOM     66  C   UNL A   1      46.365  31.453  27.079  1.00  0.00     0.173 A 
ATOM     67  C   UNL A   1      44.197  32.249  27.671  1.00  0.00     0.173 A 
ATOM     68  F   UNL A   1      47.282  30.485  26.925  1.00  0.00    -0.203 F 
ATOM     69  C   UNL A   1      46.785  32.769  26.883  1.00  0.00     0.198 A 
ATOM     70  C   UNL A   1      44.603  33.557  27.417  1.00  0.00     0.198 A 
ATOM     71  F   UNL A   1      42.958  32.143  28.159  1.00  0.00    -0.203 F 
ATOM     72  F   UNL A   1      48.069  33.020  26.600  1.00  0.00    -0.200 F 
ATOM     73  C   UNL A   1      45.906  33.821  27.063  1.00  0.00     0.200 A 
ATOM     74  F   UNL A   1      43.737  34.560  27.614  1.00  0.00    -0.200 F 
ATOM     75  F   UNL A   1      46.324  35.087  26.949  1.00  0.00    -0.200 F 
ENDBRANCH  51  65
BRANCH  52  76
ATOM     76  C   UNL A   1      37.827  31.640  31.855  1.00  0.00     0.064 A 
ATOM     77  C   UNL A   1      36.829  31.723  30.861  1.00  0.00     0.173 A 
ATOM     78  C   UNL A   1      37.467  32.115  33.128  1.00  0.00     0.173 A 
ATOM     79  F   UNL A   1      37.062  31.263  29.624  1.00  0.00    -0.203 F 
ATOM     80  C   UNL A   1      35.543  32.208  31.139  1.00  0.00     0.198 A 
ATOM     81  C   UNL A   1      36.185  32.602  33.404  1.00  0.00     0.198 A 
ATOM     82  F   UNL A   1      38.320  32.025  34.158  1.00  0.00    -0.203 F 
ATOM     83  F   UNL A   1      34.603  32.200  30.184  1.00  0.00    -0.200 F 
ATOM     84  C   UNL A   1      35.218  32.632  32.415  1.00  0.00     0.200 A 
ATOM     85  F   UNL A   1      35.871  32.979  34.651  1.00  0.00    -0.200 F 
ATOM     86  F   UNL A   1      33.969  33.028  32.702  1.00  0.00    -0.200 F 
ENDBRANCH  52  76
BRANCH  64  87
ATOM     87  C   UNL A   1      43.225  29.198  33.734  1.00  0.00     0.064 A 
ATOM     88  C   UNL A   1      43.716  29.602  34.988  1.00  0.00     0.173 A 
ATOM     89  C   UNL A   1      42.417  28.052  33.697  1.00  0.00     0.173 A 
ATOM     90  F   UNL A   1      44.414  30.739  35.128  1.00  0.00    -0.203 F 
ATOM     91  C   UNL A   1      43.446  28.861  36.139  1.00  0.00     0.198 A 
ATOM     92  C   UNL A   1      42.115  27.340  34.853  1.00  0.00     0.198 A 
ATOM     93  F   UNL A   1      41.883  27.644  32.535  1.00  0.00    -0.203 F 
ATOM     94  F   UNL A   1      43.941  29.256  37.323  1.00  0.00    -0.200 F 
ATOM     95  C   UNL A   1      42.640  27.738  36.072  1.00  0.00     0.200 A 
ATOM     96  F   UNL A   1      41.294  26.283  34.787  1.00  0.00    -0.200 F 
ATOM     97  F   UNL A   1      42.346  27.050  37.184  1.00  0.00    -0.200 F 
ENDBRANCH  64  87
ENDBRANCH  38  39
ENDBRANCH  31  33
ENDBRANCH  30  31
ENDBRANCH  29  30
ENDBRANCH  28  29
ENDBRANCH  27  28
ENDBRANCH  26  27
ENDBRANCH   1  26
TORSDOF 19
ENDMDL
