MODEL 1
REMARK VINA RESULT:     -10.3      0.000      0.000
REMARK SMILES CCCCSc1ccccc1C(=O)OCCOCCOC(=O)c1ccc(-c2c3nc(c(-c4c(F)c(F)c(F)c(F)c4F)c4ccc([nH]4)c(-c4c(F)c(F)c(F)c(F)c4F)c4nc(c(-c5c(F)c(F)c(F)c(F)c5F)c5ccc2[nH]5)C=C4)C=C3)cc1
REMARK SMILES IDX 16 1 15 2 14 3 12 4 13 5 11 6 6 7 7 8 8 9 10 10 9 11 5 12
REMARK SMILES IDX 4 13 3 14 2 15 1 16 17 17 18 18 19 19 20 20 21 21 22 22
REMARK SMILES IDX 23 23 24 24 85 25 25 26 84 27 26 28 27 29 28 30 78 31 29 32
REMARK SMILES IDX 83 33 77 34 79 35 30 36 82 37 76 38 75 39 31 41 63 42 43 43
REMARK SMILES IDX 62 44 44 45 47 46 61 47 80 48 45 49 46 50 60 52 81 53 48 54
REMARK SMILES IDX 32 55 33 56 41 57 34 58 35 59 39 60 42 61 36 62 37 63 40 64
REMARK SMILES IDX 38 65 64 66 65 67 73 68 66 69 67 70 71 71 74 72 68 73 69 74
REMARK SMILES IDX 72 75 70 76 49 77 50 78 58 79 51 80 52 81 56 82 59 83 53 84
REMARK SMILES IDX 54 85 57 86 55 87
REMARK H PARENT 79 40 47 51
REMARK Flexibility Score: inf
ROOT
ATOM      1  C   UNL A   1      34.718  23.533  25.827  1.00  0.00     0.202 C 
ENDROOT
BRANCH   1   2
ATOM      2  C   UNL A   1      33.237  23.780  25.541  1.00  0.00     0.261 C 
BRANCH   2   3
ATOM      3  O   UNL A   1      32.961  25.140  25.158  1.00  0.00    -0.460 OA
BRANCH   3   4
ATOM      4  C   UNL A   1      32.216  25.850  26.035  1.00  0.00     0.339 C 
ATOM      5  O   UNL A   1      31.473  25.370  26.882  1.00  0.00    -0.246 OA
BRANCH   4   6
ATOM      6  C   UNL A   1      32.391  27.324  25.927  1.00  0.00     0.073 A 
ATOM      7  C   UNL A   1      31.663  28.181  25.081  1.00  0.00     0.022 A 
ATOM      8  C   UNL A   1      31.847  29.571  25.214  1.00  0.00     0.016 A 
ATOM      9  C   UNL A   1      32.718  30.104  26.168  1.00  0.00     0.001 A 
ATOM     10  C   UNL A   1      33.278  27.876  26.875  1.00  0.00     0.017 A 
ATOM     11  C   UNL A   1      33.441  29.255  26.996  1.00  0.00     0.001 A 
BRANCH   7  12
ATOM     12  S   UNL A   1      30.515  27.667  23.807  1.00  0.00    -0.125 SA
BRANCH  12  13
ATOM     13  C   UNL A   1      30.798  28.950  22.532  1.00  0.00     0.075 C 
BRANCH  13  14
ATOM     14  C   UNL A   1      29.523  29.736  22.205  1.00  0.00     0.011 C 
BRANCH  14  15
ATOM     15  C   UNL A   1      29.151  30.789  23.249  1.00  0.00    -0.003 C 
ATOM     16  C   UNL A   1      27.655  30.921  23.467  1.00  0.00     0.004 C 
ENDBRANCH  14  15
ENDBRANCH  13  14
ENDBRANCH  12  13
ENDBRANCH   7  12
ENDBRANCH   4   6
ENDBRANCH   3   4
ENDBRANCH   2   3
ENDBRANCH   1   2
BRANCH   1  17
ATOM     17  O   UNL A   1      35.457  22.745  24.897  1.00  0.00    -0.374 OA
BRANCH  17  18
ATOM     18  C   UNL A   1      35.464  21.332  25.068  1.00  0.00     0.202 C 
BRANCH  18  19
ATOM     19  C   UNL A   1      36.814  20.604  25.000  1.00  0.00     0.261 C 
BRANCH  19  20
ATOM     20  O   UNL A   1      37.958  21.463  24.873  1.00  0.00    -0.460 OA
BRANCH  20  21
ATOM     21  C   UNL A   1      38.945  21.206  25.763  1.00  0.00     0.338 C 
ATOM     22  O   UNL A   1      39.548  20.150  25.921  1.00  0.00    -0.246 OA
BRANCH  21  23
ATOM     23  C   UNL A   1      39.324  22.412  26.515  1.00  0.00     0.060 A 
ATOM     24  C   UNL A   1      38.725  23.621  26.142  1.00  0.00     0.016 A 
ATOM     25  C   UNL A   1      40.401  22.396  27.405  1.00  0.00     0.016 A 
ATOM     26  C   UNL A   1      39.252  24.827  26.595  1.00  0.00     0.010 A 
ATOM     27  C   UNL A   1      40.937  23.611  27.851  1.00  0.00     0.010 A 
ATOM     28  C   UNL A   1      40.400  24.829  27.399  1.00  0.00    -0.014 A 
BRANCH  28  29
ATOM     29  C   UNL A   1      41.138  26.105  27.572  1.00  0.00     0.031 A 
ATOM     30  C   UNL A   1      40.465  27.241  28.297  1.00  0.00     0.074 A 
ATOM     31  C   UNL A   1      42.413  26.229  27.167  1.00  0.00     0.049 A 
ATOM     32  N   UNL A   1      40.942  28.413  28.635  1.00  0.00    -0.248 NA
ATOM     33  C   UNL A   1      39.066  27.024  28.698  1.00  0.00     0.031 C 
ATOM     34  C   UNL A   1      43.183  25.197  26.480  1.00  0.00     0.029 A 
ATOM     35  N   UNL A   1      43.285  27.282  27.288  1.00  0.00    -0.354 N 
ATOM     36  C   UNL A   1      39.907  29.069  29.288  1.00  0.00     0.074 A 
ATOM     37  C   UNL A   1      38.765  28.180  29.271  1.00  0.00     0.031 C 
ATOM     38  C   UNL A   1      44.419  25.668  26.238  1.00  0.00     0.029 A 
ATOM     39  C   UNL A   1      44.521  27.036  26.745  1.00  0.00     0.049 A 
ATOM     40  H   UNL A   1      43.047  28.132  27.723  1.00  0.00     0.167 HD
ATOM     41  C   UNL A   1      39.909  30.296  29.862  1.00  0.00     0.037 A 
ATOM     42  C   UNL A   1      45.607  27.826  26.668  1.00  0.00     0.037 A 
ATOM     43  C   UNL A   1      41.040  31.184  29.884  1.00  0.00     0.049 A 
ATOM     44  C   UNL A   1      45.576  29.198  27.287  1.00  0.00     0.074 A 
ATOM     45  C   UNL A   1      41.143  32.440  30.454  1.00  0.00     0.029 A 
ATOM     46  N   UNL A   1      42.268  30.906  29.302  1.00  0.00    -0.354 N 
ATOM     47  N   UNL A   1      44.605  29.795  27.934  1.00  0.00    -0.248 NA
ATOM     48  C   UNL A   1      46.803  30.002  27.177  1.00  0.00     0.031 C 
ATOM     49  C   UNL A   1      42.423  32.939  30.187  1.00  0.00     0.029 A 
ATOM     50  C   UNL A   1      43.130  31.976  29.485  1.00  0.00     0.049 A 
ATOM     51  H   UNL A   1      42.494  30.072  28.830  1.00  0.00     0.167 HD
ATOM     52  C   UNL A   1      45.106  31.029  28.326  1.00  0.00     0.074 A 
ATOM     53  C   UNL A   1      46.475  31.091  27.857  1.00  0.00     0.031 C 
ATOM     54  C   UNL A   1      44.490  32.022  29.014  1.00  0.00     0.037 A 
BRANCH  41  55
ATOM     55  C   UNL A   1      38.632  30.755  30.500  1.00  0.00     0.064 A 
ATOM     56  C   UNL A   1      38.424  30.656  31.883  1.00  0.00     0.173 A 
ATOM     57  C   UNL A   1      37.610  31.317  29.719  1.00  0.00     0.173 A 
ATOM     58  F   UNL A   1      39.365  30.112  32.670  1.00  0.00    -0.203 F 
ATOM     59  C   UNL A   1      37.229  31.079  32.460  1.00  0.00     0.198 A 
ATOM     60  C   UNL A   1      36.426  31.761  30.302  1.00  0.00     0.198 A 
ATOM     61  F   UNL A   1      37.762  31.436  28.392  1.00  0.00    -0.203 F 
ATOM     62  F   UNL A   1      37.034  30.936  33.778  1.00  0.00    -0.200 F 
ATOM     63  C   UNL A   1      36.234  31.635  31.670  1.00  0.00     0.200 A 
ATOM     64  F   UNL A   1      35.469  32.305  29.538  1.00  0.00    -0.200 F 
ATOM     65  F   UNL A   1      35.085  32.044  32.226  1.00  0.00    -0.200 F 
ENDBRANCH  41  55
BRANCH  42  66
ATOM     66  C   UNL A   1      46.829  27.331  25.986  1.00  0.00     0.064 A 
ATOM     67  C   UNL A   1      47.842  26.677  26.700  1.00  0.00     0.173 A 
ATOM     68  C   UNL A   1      47.008  27.508  24.607  1.00  0.00     0.173 A 
ATOM     69  F   UNL A   1      47.726  26.509  28.025  1.00  0.00    -0.203 F 
ATOM     70  C   UNL A   1      48.996  26.229  26.060  1.00  0.00     0.198 A 
ATOM     71  C   UNL A   1      48.152  27.039  23.965  1.00  0.00     0.198 A 
ATOM     72  F   UNL A   1      46.067  28.130  23.882  1.00  0.00    -0.203 F 
ATOM     73  F   UNL A   1      49.967  25.641  26.771  1.00  0.00    -0.200 F 
ATOM     74  C   UNL A   1      49.147  26.406  24.693  1.00  0.00     0.200 A 
ATOM     75  F   UNL A   1      48.290  27.203  22.642  1.00  0.00    -0.200 F 
ATOM     76  F   UNL A   1      50.255  25.971  24.078  1.00  0.00    -0.200 F 
ENDBRANCH  42  66
BRANCH  54  77
ATOM     77  C   UNL A   1      45.298  33.248  29.322  1.00  0.00     0.064 A 
ATOM     78  C   UNL A   1      46.070  33.344  30.489  1.00  0.00     0.173 A 
ATOM     79  C   UNL A   1      45.319  34.330  28.429  1.00  0.00     0.173 A 
ATOM     80  F   UNL A   1      46.071  32.342  31.381  1.00  0.00    -0.203 F 
ATOM     81  C   UNL A   1      46.812  34.489  30.763  1.00  0.00     0.198 A 
ATOM     82  C   UNL A   1      46.082  35.462  28.694  1.00  0.00     0.198 A 
ATOM     83  F   UNL A   1      44.601  34.285  27.296  1.00  0.00    -0.203 F 
ATOM     84  F   UNL A   1      47.506  34.578  31.907  1.00  0.00    -0.200 F 
ATOM     85  C   UNL A   1      46.822  35.545  29.865  1.00  0.00     0.200 A 
ATOM     86  F   UNL A   1      46.097  36.479  27.820  1.00  0.00    -0.200 F 
ATOM     87  F   UNL A   1      47.536  36.646  30.130  1.00  0.00    -0.200 F 
ENDBRANCH  54  77
ENDBRANCH  28  29
ENDBRANCH  21  23
ENDBRANCH  20  21
ENDBRANCH  19  20
ENDBRANCH  18  19
ENDBRANCH  17  18
ENDBRANCH   1  17
TORSDOF 18
ENDMDL
MODEL 2
REMARK VINA RESULT:     -10.2      1.685      8.041
REMARK SMILES CCCCSc1ccccc1C(=O)OCCOCCOC(=O)c1ccc(-c2c3nc(c(-c4c(F)c(F)c(F)c(F)c4F)c4ccc([nH]4)c(-c4c(F)c(F)c(F)c(F)c4F)c4nc(c(-c5c(F)c(F)c(F)c(F)c5F)c5ccc2[nH]5)C=C4)C=C3)cc1
REMARK SMILES IDX 16 1 15 2 14 3 12 4 13 5 11 6 6 7 7 8 8 9 10 10 9 11 5 12
REMARK SMILES IDX 4 13 3 14 2 15 1 16 17 17 18 18 19 19 20 20 21 21 22 22
REMARK SMILES IDX 23 23 24 24 85 25 25 26 84 27 26 28 27 29 28 30 78 31 29 32
REMARK SMILES IDX 83 33 77 34 79 35 30 36 82 37 76 38 75 39 31 41 63 42 43 43
REMARK SMILES IDX 62 44 44 45 47 46 61 47 80 48 45 49 46 50 60 52 81 53 48 54
REMARK SMILES IDX 32 55 33 56 41 57 34 58 35 59 39 60 42 61 36 62 37 63 40 64
REMARK SMILES IDX 38 65 64 66 65 67 73 68 66 69 67 70 71 71 74 72 68 73 69 74
REMARK SMILES IDX 72 75 70 76 49 77 50 78 58 79 51 80 52 81 56 82 59 83 53 84
REMARK SMILES IDX 54 85 57 86 55 87
REMARK H PARENT 79 40 47 51
REMARK Flexibility Score: inf
ROOT
ATOM      1  C   UNL A   1      35.620  22.368  26.498  1.00  0.00     0.202 C 
ENDROOT
BRANCH   1   2
ATOM      2  C   UNL A   1      34.374  22.991  27.129  1.00  0.00     0.261 C 
BRANCH   2   3
ATOM      3  O   UNL A   1      33.294  22.052  27.280  1.00  0.00    -0.460 OA
BRANCH   3   4
ATOM      4  C   UNL A   1      32.095  22.466  26.813  1.00  0.00     0.339 C 
ATOM      5  O   UNL A   1      31.162  22.852  27.507  1.00  0.00    -0.246 OA
BRANCH   4   6
ATOM      6  C   UNL A   1      31.986  22.460  25.329  1.00  0.00     0.073 A 
ATOM      7  C   UNL A   1      31.779  23.588  24.513  1.00  0.00     0.022 A 
ATOM      8  C   UNL A   1      31.855  23.428  23.115  1.00  0.00     0.016 A 
ATOM      9  C   UNL A   1      32.141  22.188  22.537  1.00  0.00     0.001 A 
ATOM     10  C   UNL A   1      32.258  21.212  24.730  1.00  0.00     0.017 A 
ATOM     11  C   UNL A   1      32.335  21.076  23.345  1.00  0.00     0.001 A 
BRANCH   7  12
ATOM     12  S   UNL A   1      31.401  25.240  25.088  1.00  0.00    -0.125 SA
BRANCH  12  13
ATOM     13  C   UNL A   1      33.057  25.825  25.609  1.00  0.00     0.075 C 
BRANCH  13  14
ATOM     14  C   UNL A   1      33.911  26.284  24.422  1.00  0.00     0.011 C 
BRANCH  14  15
ATOM     15  C   UNL A   1      33.150  27.110  23.385  1.00  0.00    -0.003 C 
ATOM     16  C   UNL A   1      33.476  26.730  21.952  1.00  0.00     0.004 C 
ENDBRANCH  14  15
ENDBRANCH  13  14
ENDBRANCH  12  13
ENDBRANCH   7  12
ENDBRANCH   4   6
ENDBRANCH   3   4
ENDBRANCH   2   3
ENDBRANCH   1   2
BRANCH   1  17
ATOM     17  O   UNL A   1      35.496  21.078  25.906  1.00  0.00    -0.374 OA
BRANCH  17  18
ATOM     18  C   UNL A   1      36.385  20.734  24.849  1.00  0.00     0.202 C 
BRANCH  18  19
ATOM     19  C   UNL A   1      37.798  20.261  25.219  1.00  0.00     0.261 C 
BRANCH  19  20
ATOM     20  O   UNL A   1      38.793  21.297  25.250  1.00  0.00    -0.460 OA
BRANCH  20  21
ATOM     21  C   UNL A   1      39.784  21.084  26.147  1.00  0.00     0.338 C 
ATOM     22  O   UNL A   1      40.493  20.090  26.251  1.00  0.00    -0.246 OA
BRANCH  21  23
ATOM     23  C   UNL A   1      40.019  22.269  26.987  1.00  0.00     0.060 A 
ATOM     24  C   UNL A   1      39.266  23.417  26.710  1.00  0.00     0.016 A 
ATOM     25  C   UNL A   1      41.103  22.324  27.866  1.00  0.00     0.016 A 
ATOM     26  C   UNL A   1      39.643  24.643  27.251  1.00  0.00     0.010 A 
ATOM     27  C   UNL A   1      41.487  23.561  28.402  1.00  0.00     0.010 A 
ATOM     28  C   UNL A   1      40.793  24.731  28.047  1.00  0.00    -0.014 A 
BRANCH  28  29
ATOM     29  C   UNL A   1      41.366  26.074  28.312  1.00  0.00     0.031 A 
ATOM     30  C   UNL A   1      42.747  26.388  27.799  1.00  0.00     0.074 A 
ATOM     31  C   UNL A   1      40.646  27.027  28.927  1.00  0.00     0.049 A 
ATOM     32  N   UNL A   1      43.416  27.513  27.841  1.00  0.00    -0.248 NA
ATOM     33  C   UNL A   1      43.470  25.284  27.146  1.00  0.00     0.031 C 
ATOM     34  C   UNL A   1      39.292  26.858  29.446  1.00  0.00     0.029 A 
ATOM     35  N   UNL A   1      40.958  28.333  29.208  1.00  0.00    -0.354 N 
ATOM     36  C   UNL A   1      44.631  27.254  27.221  1.00  0.00     0.074 A 
ATOM     37  C   UNL A   1      44.624  25.858  26.840  1.00  0.00     0.031 C 
ATOM     38  C   UNL A   1      38.886  28.021  29.984  1.00  0.00     0.029 A 
ATOM     39  C   UNL A   1      39.956  29.010  29.856  1.00  0.00     0.049 A 
ATOM     40  H   UNL A   1      41.818  28.746  28.967  1.00  0.00     0.167 HD
ATOM     41  C   UNL A   1      45.657  28.104  26.977  1.00  0.00     0.037 A 
ATOM     42  C   UNL A   1      39.910  30.282  30.293  1.00  0.00     0.037 A 
ATOM     43  C   UNL A   1      45.671  29.493  27.351  1.00  0.00     0.049 A 
ATOM     44  C   UNL A   1      41.075  31.201  30.038  1.00  0.00     0.074 A 
ATOM     45  C   UNL A   1      46.659  30.438  27.135  1.00  0.00     0.029 A 
ATOM     46  N   UNL A   1      44.645  30.135  28.028  1.00  0.00    -0.354 N 
ATOM     47  N   UNL A   1      42.204  30.957  29.419  1.00  0.00    -0.248 NA
ATOM     48  C   UNL A   1      40.950  32.580  30.532  1.00  0.00     0.031 C 
ATOM     49  C   UNL A   1      46.245  31.644  27.712  1.00  0.00     0.029 A 
ATOM     50  C   UNL A   1      44.983  31.460  28.251  1.00  0.00     0.049 A 
ATOM     51  H   UNL A   1      43.800  29.712  28.306  1.00  0.00     0.167 HD
ATOM     52  C   UNL A   1      42.912  32.150  29.428  1.00  0.00     0.074 A 
ATOM     53  C   UNL A   1      42.080  33.124  30.102  1.00  0.00     0.031 C 
ATOM     54  C   UNL A   1      44.142  32.417  28.923  1.00  0.00     0.037 A 
BRANCH  41  55
ATOM     55  C   UNL A   1      46.864  27.542  26.286  1.00  0.00     0.064 A 
ATOM     56  C   UNL A   1      46.998  27.586  24.890  1.00  0.00     0.173 A 
ATOM     57  C   UNL A   1      47.905  26.966  27.029  1.00  0.00     0.173 A 
ATOM     58  F   UNL A   1      46.022  28.113  24.135  1.00  0.00    -0.203 F 
ATOM     59  C   UNL A   1      48.120  27.052  24.262  1.00  0.00     0.198 A 
ATOM     60  C   UNL A   1      49.036  26.455  26.399  1.00  0.00     0.198 A 
ATOM     61  F   UNL A   1      47.824  26.902  28.367  1.00  0.00    -0.203 F 
ATOM     62  F   UNL A   1      48.209  27.067  22.925  1.00  0.00    -0.200 F 
ATOM     63  C   UNL A   1      49.139  26.492  25.017  1.00  0.00     0.200 A 
ATOM     64  F   UNL A   1      50.024  25.920  27.131  1.00  0.00    -0.200 F 
ATOM     65  F   UNL A   1      50.219  25.979  24.411  1.00  0.00    -0.200 F 
ENDBRANCH  41  55
BRANCH  42  66
ATOM     66  C   UNL A   1      38.705  30.769  31.009  1.00  0.00     0.064 A 
ATOM     67  C   UNL A   1      37.621  31.318  30.312  1.00  0.00     0.173 A 
ATOM     68  C   UNL A   1      38.617  30.698  32.407  1.00  0.00     0.173 A 
ATOM     69  F   UNL A   1      37.670  31.429  28.977  1.00  0.00    -0.203 F 
ATOM     70  C   UNL A   1      36.497  31.791  30.989  1.00  0.00     0.198 A 
ATOM     71  C   UNL A   1      37.485  31.150  33.080  1.00  0.00     0.198 A 
ATOM     72  F   UNL A   1      39.632  30.183  33.117  1.00  0.00    -0.203 F 
ATOM     73  F   UNL A   1      35.490  32.347  30.302  1.00  0.00    -0.200 F 
ATOM     74  C   UNL A   1      36.429  31.702  32.371  1.00  0.00     0.200 A 
ATOM     75  F   UNL A   1      37.419  31.054  34.415  1.00  0.00    -0.200 F 
ATOM     76  F   UNL A   1      35.347  32.152  33.021  1.00  0.00    -0.200 F 
ENDBRANCH  42  66
BRANCH  54  77
ATOM     77  C   UNL A   1      44.650  33.823  29.057  1.00  0.00     0.064 A 
ATOM     78  C   UNL A   1      44.339  34.810  28.109  1.00  0.00     0.173 A 
ATOM     79  C   UNL A   1      45.435  34.194  30.159  1.00  0.00     0.173 A 
ATOM     80  F   UNL A   1      43.603  34.501  27.031  1.00  0.00    -0.203 F 
ATOM     81  C   UNL A   1      44.819  36.108  28.246  1.00  0.00     0.198 A 
ATOM     82  C   UNL A   1      45.892  35.500  30.305  1.00  0.00     0.198 A 
ATOM     83  F   UNL A   1      45.755  33.288  31.096  1.00  0.00    -0.203 F 
ATOM     84  F   UNL A   1      44.549  37.024  27.305  1.00  0.00    -0.200 F 
ATOM     85  C   UNL A   1      45.591  36.454  29.345  1.00  0.00     0.200 A 
ATOM     86  F   UNL A   1      46.631  35.835  31.373  1.00  0.00    -0.200 F 
ATOM     87  F   UNL A   1      46.053  37.705  29.475  1.00  0.00    -0.200 F 
ENDBRANCH  54  77
ENDBRANCH  28  29
ENDBRANCH  21  23
ENDBRANCH  20  21
ENDBRANCH  19  20
ENDBRANCH  18  19
ENDBRANCH  17  18
ENDBRANCH   1  17
TORSDOF 18
ENDMDL
MODEL 3
REMARK VINA RESULT:     -10.1      0.642      7.665
REMARK SMILES CCCCSc1ccccc1C(=O)OCCOCCOC(=O)c1ccc(-c2c3nc(c(-c4c(F)c(F)c(F)c(F)c4F)c4ccc([nH]4)c(-c4c(F)c(F)c(F)c(F)c4F)c4nc(c(-c5c(F)c(F)c(F)c(F)c5F)c5ccc2[nH]5)C=C4)C=C3)cc1
REMARK SMILES IDX 16 1 15 2 14 3 12 4 13 5 11 6 6 7 7 8 8 9 10 10 9 11 5 12
REMARK SMILES IDX 4 13 3 14 2 15 1 16 17 17 18 18 19 19 20 20 21 21 22 22
REMARK SMILES IDX 23 23 24 24 85 25 25 26 84 27 26 28 27 29 28 30 78 31 29 32
REMARK SMILES IDX 83 33 77 34 79 35 30 36 82 37 76 38 75 39 31 41 63 42 43 43
REMARK SMILES IDX 62 44 44 45 47 46 61 47 80 48 45 49 46 50 60 52 81 53 48 54
REMARK SMILES IDX 32 55 33 56 41 57 34 58 35 59 39 60 42 61 36 62 37 63 40 64
REMARK SMILES IDX 38 65 64 66 65 67 73 68 66 69 67 70 71 71 74 72 68 73 69 74
REMARK SMILES IDX 72 75 70 76 49 77 50 78 58 79 51 80 52 81 56 82 59 83 53 84
REMARK SMILES IDX 54 85 57 86 55 87
REMARK H PARENT 79 40 47 51
REMARK Flexibility Score: inf
ROOT
ATOM      1  C   UNL A   1      33.564  22.772  24.858  1.00  0.00     0.202 C 
ENDROOT
BRANCH   1   2
ATOM      2  C   UNL A   1      33.430  23.945  25.830  1.00  0.00     0.261 C 
BRANCH   2   3
ATOM      3  O   UNL A   1      32.926  25.137  25.201  1.00  0.00    -0.460 OA
BRANCH   3   4
ATOM      4  C   UNL A   1      32.016  25.832  25.921  1.00  0.00     0.339 C 
ATOM      5  O   UNL A   1      31.141  25.336  26.620  1.00  0.00    -0.246 OA
BRANCH   4   6
ATOM      6  C   UNL A   1      32.175  27.309  25.837  1.00  0.00     0.073 A 
ATOM      7  C   UNL A   1      31.399  28.178  25.048  1.00  0.00     0.022 A 
ATOM      8  C   UNL A   1      31.580  29.567  25.203  1.00  0.00     0.016 A 
ATOM      9  C   UNL A   1      32.495  30.085  26.123  1.00  0.00     0.001 A 
ATOM     10  C   UNL A   1      33.105  27.848  26.751  1.00  0.00     0.017 A 
ATOM     11  C   UNL A   1      33.265  29.225  26.894  1.00  0.00     0.001 A 
BRANCH   7  12
ATOM     12  S   UNL A   1      30.190  27.683  23.824  1.00  0.00    -0.125 SA
BRANCH  12  13
ATOM     13  C   UNL A   1      30.693  28.707  22.391  1.00  0.00     0.075 C 
BRANCH  13  14
ATOM     14  C   UNL A   1      29.647  29.772  22.043  1.00  0.00     0.011 C 
BRANCH  14  15
ATOM     15  C   UNL A   1      28.253  29.489  22.606  1.00  0.00    -0.003 C 
ATOM     16  C   UNL A   1      27.656  30.665  23.357  1.00  0.00     0.004 C 
ENDBRANCH  14  15
ENDBRANCH  13  14
ENDBRANCH  12  13
ENDBRANCH   7  12
ENDBRANCH   4   6
ENDBRANCH   3   4
ENDBRANCH   2   3
ENDBRANCH   1   2
BRANCH   1  17
ATOM     17  O   UNL A   1      34.832  22.550  24.248  1.00  0.00    -0.374 OA
BRANCH  17  18
ATOM     18  C   UNL A   1      35.567  21.390  24.624  1.00  0.00     0.202 C 
BRANCH  18  19
ATOM     19  C   UNL A   1      36.718  21.558  25.625  1.00  0.00     0.261 C 
BRANCH  19  20
ATOM     20  O   UNL A   1      38.007  21.784  25.032  1.00  0.00    -0.460 OA
BRANCH  20  21
ATOM     21  C   UNL A   1      39.049  21.504  25.849  1.00  0.00     0.338 C 
ATOM     22  O   UNL A   1      39.740  20.491  25.853  1.00  0.00    -0.246 OA
BRANCH  21  23
ATOM     23  C   UNL A   1      39.365  22.636  26.733  1.00  0.00     0.060 A 
ATOM     24  C   UNL A   1      38.703  23.847  26.492  1.00  0.00     0.016 A 
ATOM     25  C   UNL A   1      40.441  22.577  27.621  1.00  0.00     0.016 A 
ATOM     26  C   UNL A   1      39.167  25.021  27.080  1.00  0.00     0.010 A 
ATOM     27  C   UNL A   1      40.912  23.761  28.204  1.00  0.00     0.010 A 
ATOM     28  C   UNL A   1      40.312  24.993  27.887  1.00  0.00    -0.014 A 
BRANCH  28  29
ATOM     29  C   UNL A   1      40.983  26.278  28.206  1.00  0.00     0.031 A 
ATOM     30  C   UNL A   1      42.389  26.503  27.716  1.00  0.00     0.074 A 
ATOM     31  C   UNL A   1      40.330  27.261  28.848  1.00  0.00     0.049 A 
ATOM     32  N   UNL A   1      43.141  27.572  27.804  1.00  0.00    -0.248 NA
ATOM     33  C   UNL A   1      43.033  25.371  27.030  1.00  0.00     0.031 C 
ATOM     34  C   UNL A   1      38.962  27.177  29.348  1.00  0.00     0.029 A 
ATOM     35  N   UNL A   1      40.738  28.529  29.178  1.00  0.00    -0.354 N 
ATOM     36  C   UNL A   1      44.340  27.243  27.185  1.00  0.00     0.074 A 
ATOM     37  C   UNL A   1      44.231  25.865  26.755  1.00  0.00     0.031 C 
ATOM     38  C   UNL A   1      38.639  28.348  29.925  1.00  0.00     0.029 A 
ATOM     39  C   UNL A   1      39.782  29.257  29.841  1.00  0.00     0.049 A 
ATOM     40  H   UNL A   1      41.629  28.883  28.959  1.00  0.00     0.167 HD
ATOM     41  C   UNL A   1      45.431  28.020  26.981  1.00  0.00     0.037 A 
ATOM     42  C   UNL A   1      39.828  30.513  30.323  1.00  0.00     0.037 A 
ATOM     43  C   UNL A   1      45.546  29.390  27.404  1.00  0.00     0.049 A 
ATOM     44  C   UNL A   1      41.062  31.348  30.111  1.00  0.00     0.074 A 
ATOM     45  C   UNL A   1      46.605  30.263  27.231  1.00  0.00     0.029 A 
ATOM     46  N   UNL A   1      44.564  30.084  28.094  1.00  0.00    -0.354 N 
ATOM     47  N   UNL A   1      42.177  31.041  29.493  1.00  0.00    -0.248 NA
ATOM     48  C   UNL A   1      41.037  32.715  30.653  1.00  0.00     0.031 C 
ATOM     49  C   UNL A   1      46.277  31.476  27.847  1.00  0.00     0.029 A 
ATOM     50  C   UNL A   1      44.998  31.371  28.368  1.00  0.00     0.049 A 
ATOM     51  H   UNL A   1      43.686  29.718  28.350  1.00  0.00     0.167 HD
ATOM     52  C   UNL A   1      42.974  32.176  29.551  1.00  0.00     0.074 A 
ATOM     53  C   UNL A   1      42.210  33.186  30.253  1.00  0.00     0.031 C 
ATOM     54  C   UNL A   1      44.226  32.366  29.066  1.00  0.00     0.037 A 
BRANCH  41  55
ATOM     55  C   UNL A   1      46.598  27.392  26.280  1.00  0.00     0.064 A 
ATOM     56  C   UNL A   1      46.783  27.525  24.896  1.00  0.00     0.173 A 
ATOM     57  C   UNL A   1      47.553  26.661  27.004  1.00  0.00     0.173 A 
ATOM     58  F   UNL A   1      45.889  28.201  24.158  1.00  0.00    -0.203 F 
ATOM     59  C   UNL A   1      47.868  26.929  24.258  1.00  0.00     0.198 A 
ATOM     60  C   UNL A   1      48.648  26.087  26.367  1.00  0.00     0.198 A 
ATOM     61  F   UNL A   1      47.421  26.508  28.330  1.00  0.00    -0.203 F 
ATOM     62  F   UNL A   1      48.002  27.033  22.929  1.00  0.00    -0.200 F 
ATOM     63  C   UNL A   1      48.801  26.215  24.994  1.00  0.00     0.200 A 
ATOM     64  F   UNL A   1      49.554  25.404  27.081  1.00  0.00    -0.200 F 
ATOM     65  F   UNL A   1      49.846  25.642  24.380  1.00  0.00    -0.200 F 
ENDBRANCH  41  55
BRANCH  42  66
ATOM     66  C   UNL A   1      38.655  31.065  31.046  1.00  0.00     0.064 A 
ATOM     67  C   UNL A   1      37.603  31.680  30.355  1.00  0.00     0.173 A 
ATOM     68  C   UNL A   1      38.568  30.992  32.443  1.00  0.00     0.173 A 
ATOM     69  F   UNL A   1      37.654  31.795  29.021  1.00  0.00    -0.203 F 
ATOM     70  C   UNL A   1      36.511  32.213  31.038  1.00  0.00     0.198 A 
ATOM     71  C   UNL A   1      37.466  31.505  33.123  1.00  0.00     0.198 A 
ATOM     72  F   UNL A   1      39.553  30.415  33.147  1.00  0.00    -0.203 F 
ATOM     73  F   UNL A   1      35.535  32.830  30.358  1.00  0.00    -0.200 F 
ATOM     74  C   UNL A   1      36.442  32.121  32.420  1.00  0.00     0.200 A 
ATOM     75  F   UNL A   1      37.399  31.405  34.457  1.00  0.00    -0.200 F 
ATOM     76  F   UNL A   1      35.390  32.630  33.076  1.00  0.00    -0.200 F 
ENDBRANCH  42  66
BRANCH  54  77
ATOM     77  C   UNL A   1      44.837  33.723  29.255  1.00  0.00     0.064 A 
ATOM     78  C   UNL A   1      44.660  34.745  28.312  1.00  0.00     0.173 A 
ATOM     79  C   UNL A   1      45.587  34.011  30.405  1.00  0.00     0.173 A 
ATOM     80  F   UNL A   1      43.963  34.514  27.189  1.00  0.00    -0.203 F 
ATOM     81  C   UNL A   1      45.236  35.998  28.500  1.00  0.00     0.198 A 
ATOM     82  C   UNL A   1      46.140  35.273  30.601  1.00  0.00     0.198 A 
ATOM     83  F   UNL A   1      45.780  33.069  31.340  1.00  0.00    -0.203 F 
ATOM     84  F   UNL A   1      45.093  36.947  27.563  1.00  0.00    -0.200 F 
ATOM     85  C   UNL A   1      45.971  36.264  29.645  1.00  0.00     0.200 A 
ATOM     86  F   UNL A   1      46.843  35.531  31.714  1.00  0.00    -0.200 F 
ATOM     87  F   UNL A   1      46.524  37.470  29.824  1.00  0.00    -0.200 F 
ENDBRANCH  54  77
ENDBRANCH  28  29
ENDBRANCH  21  23
ENDBRANCH  20  21
ENDBRANCH  19  20
ENDBRANCH  18  19
ENDBRANCH  17  18
ENDBRANCH   1  17
TORSDOF 18
ENDMDL
