MODEL 1
REMARK VINA RESULT:     -10.8      0.000      0.000
REMARK SMILES O=C(Nc1ccc(N2CC[NH+](CC(=O)N3CCOCC3)CC2)c(C(=O)OCCOCCOC(=O)c2ccc(-c3c4nc(c(-c5c(F)c(F)c(F)c(F)c5F)c5ccc([nH]5)c(-c5c(F)c(F)c(F)c(F)c5F)c5nc(c(-c6c(F)c(F)c(F)c(F)c6F)c6ccc3[nH]6)C=C5)C=C4)cc2)c1)c1cccc(Cl)c1
REMARK SMILES IDX 28 1 27 2 26 3 24 4 25 5 23 6 4 7 5 8 98 9 6 10 7 11 3 12
REMARK SMILES IDX 1 13 2 14 99 16 100 17 105 18 101 19 103 20 102 21 104 22
REMARK SMILES IDX 8 23 9 24 22 25 10 26 21 27 11 28 12 30 13 31 14 32 15 33
REMARK SMILES IDX 16 34 20 35 17 36 19 37 18 38 29 39 30 40 31 41 32 42 33 43
REMARK SMILES IDX 34 44 35 45 36 46 97 47 37 48 96 49 38 50 39 51 40 52 90 53
REMARK SMILES IDX 41 54 95 55 89 56 91 57 42 58 94 59 88 60 87 61 43 63 75 64
REMARK SMILES IDX 55 65 74 66 56 67 59 68 73 69 92 70 57 71 58 72 72 74 93 75
REMARK SMILES IDX 60 76 44 77 45 78 53 79 46 80 47 81 51 82 54 83 48 84 49 85
REMARK SMILES IDX 52 86 50 87 76 88 77 89 85 90 78 91 79 92 83 93 86 94 80 95
REMARK SMILES IDX 81 96 84 97 82 98 61 99 62 100 70 101 63 102 64 103 68 104
REMARK SMILES IDX 71 105 65 106 66 107 69 108 67 109
REMARK H PARENT 3 15 11 29 91 62 59 73
REMARK Flexibility Score: inf
ROOT
ATOM      1  C   UNL A   1      45.797  25.169  39.607  1.00  0.00     0.202 C 
ENDROOT
BRANCH   1   2
ATOM      2  C   UNL A   1      45.230  23.774  39.868  1.00  0.00     0.261 C 
BRANCH   2   3
ATOM      3  O   UNL A   1      46.337  22.867  39.951  1.00  0.00    -0.460 OA
BRANCH   3   4
ATOM      4  C   UNL A   1      46.043  21.624  40.399  1.00  0.00     0.340 C 
ATOM      5  O   UNL A   1      45.084  21.314  41.083  1.00  0.00    -0.246 OA
BRANCH   4   6
ATOM      6  C   UNL A   1      47.033  20.696  39.793  1.00  0.00     0.085 A 
ATOM      7  C   UNL A   1      48.890  20.526  38.251  1.00  0.00     0.042 A 
ATOM      8  C   UNL A   1      49.158  19.250  38.736  1.00  0.00     0.028 A 
ATOM      9  C   UNL A   1      47.752  21.183  38.698  1.00  0.00     0.044 A 
ATOM     10  C   UNL A   1      48.363  18.706  39.761  1.00  0.00     0.029 A 
ATOM     11  C   UNL A   1      47.289  19.417  40.327  1.00  0.00     0.052 A 
BRANCH   7  12
ATOM     12  N   UNL A   1      49.815  21.157  37.397  1.00  0.00    -0.322 N 
ATOM     13  O   UNL A   1      50.624  21.821  35.371  1.00  0.00    -0.269 OA
ATOM     14  C   UNL A   1      49.668  21.452  36.046  1.00  0.00     0.255 C 
ATOM     15  H   UNL A   1      50.670  21.422  37.806  1.00  0.00     0.170 HD
BRANCH  14  16
ATOM     16  C   UNL A   1      48.322  21.372  35.415  1.00  0.00     0.041 A 
ATOM     17  C   UNL A   1      47.650  22.541  35.020  1.00  0.00     0.014 A 
ATOM     18  C   UNL A   1      47.670  20.136  35.379  1.00  0.00     0.034 A 
ATOM     19  C   UNL A   1      46.289  22.491  34.716  1.00  0.00     0.002 A 
ATOM     20  C   UNL A   1      46.314  20.097  35.053  1.00  0.00     0.041 A 
ATOM     21  C   UNL A   1      45.617  21.270  34.750  1.00  0.00     0.020 A 
ATOM     22  Cl  UNL A   1      45.468  18.601  35.097  1.00  0.00    -0.084 Cl
ENDBRANCH  14  16
ENDBRANCH   7  12
BRANCH  11  23
ATOM     23  N   UNL A   1      46.457  18.851  41.294  1.00  0.00    -0.360 N 
ATOM     24  C   UNL A   1      46.933  18.489  42.643  1.00  0.00     0.178 C 
ATOM     25  C   UNL A   1      45.455  17.928  40.755  1.00  0.00     0.178 C 
ATOM     26  C   UNL A   1      45.754  18.089  43.585  1.00  0.00     0.284 C 
ATOM     27  C   UNL A   1      44.276  17.749  41.708  1.00  0.00     0.284 C 
ATOM     28  N   UNL A   1      44.668  17.259  43.026  1.00  0.00    -0.324 N 
ATOM     29  H   UNL A   1      43.879  17.393  43.659  1.00  0.00     0.348 HD
BRANCH  28  30
ATOM     30  C   UNL A   1      44.802  15.798  43.139  1.00  0.00     0.363 C 
BRANCH  30  31
ATOM     31  C   UNL A   1      43.534  14.982  43.423  1.00  0.00     0.277 C 
ATOM     32  O   UNL A   1      42.422  15.488  43.228  1.00  0.00    -0.268 OA
ATOM     33  N   UNL A   1      43.654  13.642  43.797  1.00  0.00    -0.333 N 
ATOM     34  C   UNL A   1      44.745  13.095  44.609  1.00  0.00     0.148 C 
ATOM     35  C   UNL A   1      42.434  12.829  43.808  1.00  0.00     0.148 C 
ATOM     36  C   UNL A   1      44.929  11.584  44.467  1.00  0.00     0.181 C 
ATOM     37  C   UNL A   1      42.736  11.334  43.665  1.00  0.00     0.181 C 
ATOM     38  O   UNL A   1      43.683  10.902  44.652  1.00  0.00    -0.378 OA
ENDBRANCH  30  31
ENDBRANCH  28  30
ENDBRANCH  11  23
ENDBRANCH   4   6
ENDBRANCH   3   4
ENDBRANCH   2   3
ENDBRANCH   1   2
BRANCH   1  39
ATOM     39  O   UNL A   1      47.178  25.291  39.985  1.00  0.00    -0.374 OA
BRANCH  39  40
ATOM     40  C   UNL A   1      47.694  26.627  39.983  1.00  0.00     0.202 C 
BRANCH  40  41
ATOM     41  C   UNL A   1      48.697  26.908  38.866  1.00  0.00     0.261 C 
BRANCH  41  42
ATOM     42  O   UNL A   1      47.998  27.374  37.708  1.00  0.00    -0.460 OA
BRANCH  42  43
ATOM     43  C   UNL A   1      47.900  26.472  36.706  1.00  0.00     0.338 C 
ATOM     44  O   UNL A   1      48.517  25.429  36.579  1.00  0.00    -0.246 OA
BRANCH  43  45
ATOM     45  C   UNL A   1      46.744  26.845  35.868  1.00  0.00     0.060 A 
ATOM     46  C   UNL A   1      46.854  28.015  35.107  1.00  0.00     0.016 A 
ATOM     47  C   UNL A   1      45.599  26.047  35.788  1.00  0.00     0.016 A 
ATOM     48  C   UNL A   1      45.803  28.411  34.288  1.00  0.00     0.010 A 
ATOM     49  C   UNL A   1      44.542  26.445  34.972  1.00  0.00     0.010 A 
ATOM     50  C   UNL A   1      44.633  27.643  34.244  1.00  0.00    -0.014 A 
BRANCH  50  51
ATOM     51  C   UNL A   1      43.439  28.176  33.561  1.00  0.00     0.031 A 
ATOM     52  C   UNL A   1      43.225  27.815  32.121  1.00  0.00     0.074 A 
ATOM     53  C   UNL A   1      42.566  28.956  34.220  1.00  0.00     0.049 A 
ATOM     54  N   UNL A   1      42.275  28.189  31.304  1.00  0.00    -0.248 NA
ATOM     55  C   UNL A   1      44.218  26.910  31.521  1.00  0.00     0.031 C 
ATOM     56  C   UNL A   1      42.672  29.339  35.625  1.00  0.00     0.029 A 
ATOM     57  N   UNL A   1      41.424  29.574  33.783  1.00  0.00    -0.354 N 
ATOM     58  C   UNL A   1      42.555  27.563  30.099  1.00  0.00     0.074 A 
ATOM     59  C   UNL A   1      43.778  26.812  30.277  1.00  0.00     0.031 C 
ATOM     60  C   UNL A   1      41.643  30.145  35.934  1.00  0.00     0.029 A 
ATOM     61  C   UNL A   1      40.826  30.354  34.741  1.00  0.00     0.049 A 
ATOM     62  H   UNL A   1      41.068  29.469  32.872  1.00  0.00     0.167 HD
ATOM     63  C   UNL A   1      41.844  27.605  28.948  1.00  0.00     0.037 A 
ATOM     64  C   UNL A   1      39.754  31.162  34.648  1.00  0.00     0.037 A 
ATOM     65  C   UNL A   1      40.636  28.367  28.781  1.00  0.00     0.049 A 
ATOM     66  C   UNL A   1      39.023  31.252  33.336  1.00  0.00     0.074 A 
ATOM     67  C   UNL A   1      39.827  28.472  27.665  1.00  0.00     0.029 A 
ATOM     68  N   UNL A   1      40.073  29.170  29.764  1.00  0.00    -0.354 N 
ATOM     69  N   UNL A   1      39.268  30.631  32.207  1.00  0.00    -0.248 NA
ATOM     70  C   UNL A   1      37.863  32.153  33.283  1.00  0.00     0.031 C 
ATOM     71  C   UNL A   1      38.798  29.372  27.958  1.00  0.00     0.029 A 
ATOM     72  C   UNL A   1      38.940  29.794  29.272  1.00  0.00     0.049 A 
ATOM     73  H   UNL A   1      40.427  29.277  30.676  1.00  0.00     0.167 HD
ATOM     74  C   UNL A   1      38.287  31.048  31.318  1.00  0.00     0.074 A 
ATOM     75  C   UNL A   1      37.433  31.966  32.043  1.00  0.00     0.031 C 
ATOM     76  C   UNL A   1      38.108  30.704  30.018  1.00  0.00     0.037 A 
BRANCH  63  77
ATOM     77  C   UNL A   1      42.371  26.823  27.784  1.00  0.00     0.064 A 
ATOM     78  C   UNL A   1      41.998  25.488  27.565  1.00  0.00     0.173 A 
ATOM     79  C   UNL A   1      43.255  27.416  26.871  1.00  0.00     0.173 A 
ATOM     80  F   UNL A   1      41.171  24.870  28.423  1.00  0.00    -0.203 F 
ATOM     81  C   UNL A   1      42.507  24.769  26.488  1.00  0.00     0.198 A 
ATOM     82  C   UNL A   1      43.743  26.702  25.780  1.00  0.00     0.198 A 
ATOM     83  F   UNL A   1      43.647  28.688  27.037  1.00  0.00    -0.203 F 
ATOM     84  F   UNL A   1      42.172  23.482  26.325  1.00  0.00    -0.200 F 
ATOM     85  C   UNL A   1      43.373  25.378  25.593  1.00  0.00     0.200 A 
ATOM     86  F   UNL A   1      44.576  27.293  24.913  1.00  0.00    -0.200 F 
ATOM     87  F   UNL A   1      43.862  24.685  24.555  1.00  0.00    -0.200 F 
ENDBRANCH  63  77
BRANCH  64  88
ATOM     88  C   UNL A   1      39.321  31.955  35.827  1.00  0.00     0.064 A 
ATOM     89  C   UNL A   1      39.877  33.213  36.097  1.00  0.00     0.173 A 
ATOM     90  C   UNL A   1      38.342  31.471  36.708  1.00  0.00     0.173 A 
ATOM     91  F   UNL A   1      40.833  33.707  35.297  1.00  0.00    -0.203 F 
ATOM     92  C   UNL A   1      39.481  33.950  37.211  1.00  0.00     0.198 A 
ATOM     93  C   UNL A   1      37.929  32.221  37.808  1.00  0.00     0.198 A 
ATOM     94  F   UNL A   1      37.783  30.271  36.497  1.00  0.00    -0.203 F 
ATOM     95  F   UNL A   1      40.058  35.132  37.468  1.00  0.00    -0.200 F 
ATOM     96  C   UNL A   1      38.504  33.457  38.061  1.00  0.00     0.200 A 
ATOM     97  F   UNL A   1      36.980  31.742  38.624  1.00  0.00    -0.200 F 
ATOM     98  F   UNL A   1      38.123  34.168  39.132  1.00  0.00    -0.200 F 
ENDBRANCH  64  88
BRANCH  76  99
ATOM     99  C   UNL A   1      36.935  31.307  29.306  1.00  0.00     0.064 A 
ATOM    100  C   UNL A   1      36.952  32.638  28.865  1.00  0.00     0.173 A 
ATOM    101  C   UNL A   1      35.804  30.529  29.015  1.00  0.00     0.173 A 
ATOM    102  F   UNL A   1      38.006  33.424  29.133  1.00  0.00    -0.203 F 
ATOM    103  C   UNL A   1      35.870  33.174  28.173  1.00  0.00     0.198 A 
ATOM    104  C   UNL A   1      34.736  31.062  28.300  1.00  0.00     0.198 A 
ATOM    105  F   UNL A   1      35.745  29.249  29.410  1.00  0.00    -0.203 F 
ATOM    106  F   UNL A   1      35.891  34.460  27.795  1.00  0.00    -0.200 F 
ATOM    107  C   UNL A   1      34.767  32.384  27.884  1.00  0.00     0.200 A 
ATOM    108  F   UNL A   1      33.677  30.293  28.009  1.00  0.00    -0.200 F 
ATOM    109  F   UNL A   1      33.731  32.900  27.209  1.00  0.00    -0.200 F 
ENDBRANCH  76  99
ENDBRANCH  50  51
ENDBRANCH  43  45
ENDBRANCH  42  43
ENDBRANCH  41  42
ENDBRANCH  40  41
ENDBRANCH  39  40
ENDBRANCH   1  39
TORSDOF 19
ENDMDL
MODEL 2
REMARK VINA RESULT:     -10.8      7.231     14.658
REMARK SMILES O=C(Nc1ccc(N2CC[NH+](CC(=O)N3CCOCC3)CC2)c(C(=O)OCCOCCOC(=O)c2ccc(-c3c4nc(c(-c5c(F)c(F)c(F)c(F)c5F)c5ccc([nH]5)c(-c5c(F)c(F)c(F)c(F)c5F)c5nc(c(-c6c(F)c(F)c(F)c(F)c6F)c6ccc3[nH]6)C=C5)C=C4)cc2)c1)c1cccc(Cl)c1
REMARK SMILES IDX 28 1 27 2 26 3 24 4 25 5 23 6 4 7 5 8 98 9 6 10 7 11 3 12
REMARK SMILES IDX 1 13 2 14 99 16 100 17 105 18 101 19 103 20 102 21 104 22
REMARK SMILES IDX 8 23 9 24 22 25 10 26 21 27 11 28 12 30 13 31 14 32 15 33
REMARK SMILES IDX 16 34 20 35 17 36 19 37 18 38 29 39 30 40 31 41 32 42 33 43
REMARK SMILES IDX 34 44 35 45 36 46 97 47 37 48 96 49 38 50 39 51 40 52 90 53
REMARK SMILES IDX 41 54 95 55 89 56 91 57 42 58 94 59 88 60 87 61 43 63 75 64
REMARK SMILES IDX 55 65 74 66 56 67 59 68 73 69 92 70 57 71 58 72 72 74 93 75
REMARK SMILES IDX 60 76 44 77 45 78 53 79 46 80 47 81 51 82 54 83 48 84 49 85
REMARK SMILES IDX 52 86 50 87 76 88 77 89 85 90 78 91 79 92 83 93 86 94 80 95
REMARK SMILES IDX 81 96 84 97 82 98 61 99 62 100 70 101 63 102 64 103 68 104
REMARK SMILES IDX 71 105 65 106 66 107 69 108 67 109
REMARK H PARENT 3 15 11 29 91 62 59 73
REMARK Flexibility Score: inf
ROOT
ATOM      1  C   UNL A   1      36.059  33.460  30.986  1.00  0.00     0.202 C 
ENDROOT
BRANCH   1   2
ATOM      2  C   UNL A   1      34.818  33.790  30.156  1.00  0.00     0.261 C 
BRANCH   2   3
ATOM      3  O   UNL A   1      34.408  32.584  29.498  1.00  0.00    -0.460 OA
BRANCH   3   4
ATOM      4  C   UNL A   1      34.787  32.466  28.204  1.00  0.00     0.340 C 
ATOM      5  O   UNL A   1      35.473  33.256  27.580  1.00  0.00    -0.246 OA
BRANCH   4   6
ATOM      6  C   UNL A   1      34.318  31.137  27.732  1.00  0.00     0.085 A 
ATOM      7  C   UNL A   1      32.575  29.976  26.522  1.00  0.00     0.042 A 
ATOM      8  C   UNL A   1      33.371  28.835  26.496  1.00  0.00     0.028 A 
ATOM      9  C   UNL A   1      33.008  31.075  27.251  1.00  0.00     0.044 A 
ATOM     10  C   UNL A   1      34.649  28.857  27.084  1.00  0.00     0.029 A 
ATOM     11  C   UNL A   1      35.164  30.009  27.705  1.00  0.00     0.052 A 
BRANCH   7  12
ATOM     12  N   UNL A   1      31.403  30.028  25.742  1.00  0.00    -0.322 N 
ATOM     13  O   UNL A   1      30.195  29.781  23.824  1.00  0.00    -0.269 OA
ATOM     14  C   UNL A   1      31.194  29.493  24.476  1.00  0.00     0.255 C 
ATOM     15  H   UNL A   1      30.638  30.500  26.143  1.00  0.00     0.170 HD
BRANCH  14  16
ATOM     16  C   UNL A   1      32.168  28.515  23.917  1.00  0.00     0.041 A 
ATOM     17  C   UNL A   1      33.250  28.953  23.135  1.00  0.00     0.014 A 
ATOM     18  C   UNL A   1      31.891  27.150  24.038  1.00  0.00     0.034 A 
ATOM     19  C   UNL A   1      33.972  28.036  22.372  1.00  0.00     0.002 A 
ATOM     20  C   UNL A   1      32.636  26.241  23.286  1.00  0.00     0.041 A 
ATOM     21  C   UNL A   1      33.653  26.681  22.434  1.00  0.00     0.020 A 
ATOM     22  Cl  UNL A   1      32.250  24.566  23.344  1.00  0.00    -0.084 Cl
ENDBRANCH  14  16
ENDBRANCH   7  12
BRANCH  11  23
ATOM     23  N   UNL A   1      36.402  30.010  28.348  1.00  0.00    -0.360 N 
ATOM     24  C   UNL A   1      37.664  29.701  27.650  1.00  0.00     0.178 C 
ATOM     25  C   UNL A   1      36.358  29.525  29.730  1.00  0.00     0.178 C 
ATOM     26  C   UNL A   1      38.908  29.993  28.547  1.00  0.00     0.284 C 
ATOM     27  C   UNL A   1      37.553  30.015  30.544  1.00  0.00     0.284 C 
ATOM     28  N   UNL A   1      38.839  29.622  29.975  1.00  0.00    -0.324 N 
ATOM     29  H   UNL A   1      39.566  30.176  30.428  1.00  0.00     0.348 HD
BRANCH  28  30
ATOM     30  C   UNL A   1      39.309  28.280  30.353  1.00  0.00     0.363 C 
BRANCH  30  31
ATOM     31  C   UNL A   1      40.640  27.795  29.762  1.00  0.00     0.277 C 
ATOM     32  O   UNL A   1      41.699  28.323  30.121  1.00  0.00    -0.268 OA
ATOM     33  N   UNL A   1      40.644  26.693  28.906  1.00  0.00    -0.333 N 
ATOM     34  C   UNL A   1      39.573  26.362  27.960  1.00  0.00     0.148 C 
ATOM     35  C   UNL A   1      41.942  26.101  28.569  1.00  0.00     0.148 C 
ATOM     36  C   UNL A   1      39.564  24.899  27.516  1.00  0.00     0.181 C 
ATOM     37  C   UNL A   1      41.815  24.638  28.134  1.00  0.00     0.181 C 
ATOM     38  O   UNL A   1      40.864  24.497  27.069  1.00  0.00    -0.378 OA
ENDBRANCH  30  31
ENDBRANCH  28  30
ENDBRANCH  11  23
ENDBRANCH   4   6
ENDBRANCH   3   4
ENDBRANCH   2   3
ENDBRANCH   1   2
BRANCH   1  39
ATOM     39  O   UNL A   1      35.750  32.751  32.197  1.00  0.00    -0.374 OA
BRANCH  39  40
ATOM     40  C   UNL A   1      34.895  33.449  33.110  1.00  0.00     0.202 C 
BRANCH  40  41
ATOM     41  C   UNL A   1      35.558  33.803  34.439  1.00  0.00     0.261 C 
BRANCH  41  42
ATOM     42  O   UNL A   1      36.969  33.587  34.338  1.00  0.00    -0.460 OA
BRANCH  42  43
ATOM     43  C   UNL A   1      37.502  32.855  35.340  1.00  0.00     0.338 C 
ATOM     44  O   UNL A   1      37.031  32.648  36.444  1.00  0.00    -0.246 OA
BRANCH  43  45
ATOM     45  C   UNL A   1      38.680  32.143  34.807  1.00  0.00     0.060 A 
ATOM     46  C   UNL A   1      39.939  32.554  35.262  1.00  0.00     0.016 A 
ATOM     47  C   UNL A   1      38.558  31.067  33.922  1.00  0.00     0.016 A 
ATOM     48  C   UNL A   1      41.084  31.913  34.807  1.00  0.00     0.010 A 
ATOM     49  C   UNL A   1      39.706  30.427  33.460  1.00  0.00     0.010 A 
ATOM     50  C   UNL A   1      40.971  30.869  33.880  1.00  0.00    -0.014 A 
BRANCH  50  51
ATOM     51  C   UNL A   1      42.184  30.343  33.225  1.00  0.00     0.031 A 
ATOM     52  C   UNL A   1      42.739  31.095  32.052  1.00  0.00     0.074 A 
ATOM     53  C   UNL A   1      42.775  29.226  33.677  1.00  0.00     0.049 A 
ATOM     54  N   UNL A   1      43.767  30.812  31.295  1.00  0.00    -0.248 NA
ATOM     55  C   UNL A   1      42.038  32.335  31.681  1.00  0.00     0.031 C 
ATOM     56  C   UNL A   1      42.328  28.442  34.825  1.00  0.00     0.029 A 
ATOM     57  N   UNL A   1      43.874  28.553  33.212  1.00  0.00    -0.354 N 
ATOM     58  C   UNL A   1      43.837  31.838  30.364  1.00  0.00     0.074 A 
ATOM     59  C   UNL A   1      42.732  32.733  30.626  1.00  0.00     0.031 C 
ATOM     60  C   UNL A   1      43.138  27.379  34.967  1.00  0.00     0.029 A 
ATOM     61  C   UNL A   1      44.139  27.398  33.903  1.00  0.00     0.049 A 
ATOM     62  H   UNL A   1      44.420  28.868  32.457  1.00  0.00     0.167 HD
ATOM     63  C   UNL A   1      44.753  32.019  29.385  1.00  0.00     0.037 A 
ATOM     64  C   UNL A   1      45.072  26.454  33.679  1.00  0.00     0.037 A 
ATOM     65  C   UNL A   1      45.839  31.112  29.127  1.00  0.00     0.049 A 
ATOM     66  C   UNL A   1      46.033  26.638  32.535  1.00  0.00     0.074 A 
ATOM     67  C   UNL A   1      46.833  31.203  28.171  1.00  0.00     0.029 A 
ATOM     68  N   UNL A   1      46.061  29.935  29.829  1.00  0.00    -0.354 N 
ATOM     69  N   UNL A   1      46.120  27.628  31.679  1.00  0.00    -0.248 NA
ATOM     70  C   UNL A   1      47.028  25.578  32.327  1.00  0.00     0.031 C 
ATOM     71  C   UNL A   1      47.631  30.060  28.264  1.00  0.00     0.029 A 
ATOM     72  C   UNL A   1      47.162  29.277  29.309  1.00  0.00     0.049 A 
ATOM     73  H   UNL A   1      45.517  29.617  30.584  1.00  0.00     0.167 HD
ATOM     74  C   UNL A   1      47.186  27.322  30.845  1.00  0.00     0.074 A 
ATOM     75  C   UNL A   1      47.725  26.059  31.307  1.00  0.00     0.031 C 
ATOM     76  C   UNL A   1      47.676  28.020  29.791  1.00  0.00     0.037 A 
BRANCH  63  77
ATOM     77  C   UNL A   1      44.599  33.228  28.513  1.00  0.00     0.064 A 
ATOM     78  C   UNL A   1      44.063  33.138  27.219  1.00  0.00     0.173 A 
ATOM     79  C   UNL A   1      44.983  34.494  28.979  1.00  0.00     0.173 A 
ATOM     80  F   UNL A   1      43.701  31.946  26.721  1.00  0.00    -0.203 F 
ATOM     81  C   UNL A   1      43.939  34.267  26.415  1.00  0.00     0.198 A 
ATOM     82  C   UNL A   1      44.834  35.625  28.182  1.00  0.00     0.198 A 
ATOM     83  F   UNL A   1      45.504  34.633  30.207  1.00  0.00    -0.203 F 
ATOM     84  F   UNL A   1      43.468  34.151  25.166  1.00  0.00    -0.200 F 
ATOM     85  C   UNL A   1      44.319  35.510  26.900  1.00  0.00     0.200 A 
ATOM     86  F   UNL A   1      45.196  36.826  28.653  1.00  0.00    -0.200 F 
ATOM     87  F   UNL A   1      44.197  36.597  26.126  1.00  0.00    -0.200 F 
ENDBRANCH  63  77
BRANCH  64  88
ATOM     88  C   UNL A   1      45.130  25.250  34.547  1.00  0.00     0.064 A 
ATOM     89  C   UNL A   1      44.533  24.045  34.154  1.00  0.00     0.173 A 
ATOM     90  C   UNL A   1      45.784  25.280  35.787  1.00  0.00     0.173 A 
ATOM     91  F   UNL A   1      43.875  23.974  32.987  1.00  0.00    -0.203 F 
ATOM     92  C   UNL A   1      44.575  22.920  34.974  1.00  0.00     0.198 A 
ATOM     93  C   UNL A   1      45.848  24.147  36.596  1.00  0.00     0.198 A 
ATOM     94  F   UNL A   1      46.368  26.410  36.212  1.00  0.00    -0.203 F 
ATOM     95  F   UNL A   1      43.960  21.792  34.592  1.00  0.00    -0.200 F 
ATOM     96  C   UNL A   1      45.237  22.970  36.191  1.00  0.00     0.200 A 
ATOM     97  F   UNL A   1      46.494  24.198  37.769  1.00  0.00    -0.200 F 
ATOM     98  F   UNL A   1      45.278  21.886  36.979  1.00  0.00    -0.200 F 
ENDBRANCH  64  88
BRANCH  76  99
ATOM     99  C   UNL A   1      48.864  27.443  29.080  1.00  0.00     0.064 A 
ATOM    100  C   UNL A   1      50.169  27.651  29.550  1.00  0.00     0.173 A 
ATOM    101  C   UNL A   1      48.690  26.631  27.949  1.00  0.00     0.173 A 
ATOM    102  F   UNL A   1      50.385  28.432  30.619  1.00  0.00    -0.203 F 
ATOM    103  C   UNL A   1      51.259  27.080  28.901  1.00  0.00     0.198 A 
ATOM    104  C   UNL A   1      49.781  26.041  27.319  1.00  0.00     0.198 A 
ATOM    105  F   UNL A   1      47.460  26.398  27.468  1.00  0.00    -0.203 F 
ATOM    106  F   UNL A   1      52.501  27.323  29.342  1.00  0.00    -0.200 F 
ATOM    107  C   UNL A   1      51.065  26.269  27.792  1.00  0.00     0.200 A 
ATOM    108  F   UNL A   1      49.590  25.247  26.257  1.00  0.00    -0.200 F 
ATOM    109  F   UNL A   1      52.115  25.712  27.175  1.00  0.00    -0.200 F 
ENDBRANCH  76  99
ENDBRANCH  50  51
ENDBRANCH  43  45
ENDBRANCH  42  43
ENDBRANCH  41  42
ENDBRANCH  40  41
ENDBRANCH  39  40
ENDBRANCH   1  39
TORSDOF 19
ENDMDL
MODEL 3
REMARK VINA RESULT:     -10.7      9.332     15.179
REMARK SMILES O=C(Nc1ccc(N2CC[NH+](CC(=O)N3CCOCC3)CC2)c(C(=O)OCCOCCOC(=O)c2ccc(-c3c4nc(c(-c5c(F)c(F)c(F)c(F)c5F)c5ccc([nH]5)c(-c5c(F)c(F)c(F)c(F)c5F)c5nc(c(-c6c(F)c(F)c(F)c(F)c6F)c6ccc3[nH]6)C=C5)C=C4)cc2)c1)c1cccc(Cl)c1
REMARK SMILES IDX 28 1 27 2 26 3 24 4 25 5 23 6 4 7 5 8 98 9 6 10 7 11 3 12
REMARK SMILES IDX 1 13 2 14 99 16 100 17 105 18 101 19 103 20 102 21 104 22
REMARK SMILES IDX 8 23 9 24 22 25 10 26 21 27 11 28 12 30 13 31 14 32 15 33
REMARK SMILES IDX 16 34 20 35 17 36 19 37 18 38 29 39 30 40 31 41 32 42 33 43
REMARK SMILES IDX 34 44 35 45 36 46 97 47 37 48 96 49 38 50 39 51 40 52 90 53
REMARK SMILES IDX 41 54 95 55 89 56 91 57 42 58 94 59 88 60 87 61 43 63 75 64
REMARK SMILES IDX 55 65 74 66 56 67 59 68 73 69 92 70 57 71 58 72 72 74 93 75
REMARK SMILES IDX 60 76 44 77 45 78 53 79 46 80 47 81 51 82 54 83 48 84 49 85
REMARK SMILES IDX 52 86 50 87 76 88 77 89 85 90 78 91 79 92 83 93 86 94 80 95
REMARK SMILES IDX 81 96 84 97 82 98 61 99 62 100 70 101 63 102 64 103 68 104
REMARK SMILES IDX 71 105 65 106 66 107 69 108 67 109
REMARK H PARENT 3 15 11 29 91 62 59 73
REMARK Flexibility Score: inf
ROOT
ATOM      1  C   UNL A   1      40.363  27.949  27.340  1.00  0.00     0.202 C 
ENDROOT
BRANCH   1   2
ATOM      2  C   UNL A   1      39.503  29.198  27.137  1.00  0.00     0.261 C 
BRANCH   2   3
ATOM      3  O   UNL A   1      39.026  29.605  28.425  1.00  0.00    -0.460 OA
BRANCH   3   4
ATOM      4  C   UNL A   1      37.680  29.616  28.574  1.00  0.00     0.340 C 
ATOM      5  O   UNL A   1      36.859  29.359  27.711  1.00  0.00    -0.246 OA
BRANCH   4   6
ATOM      6  C   UNL A   1      37.402  29.872  30.011  1.00  0.00     0.085 A 
ATOM      7  C   UNL A   1      37.931  29.197  32.273  1.00  0.00     0.042 A 
ATOM      8  C   UNL A   1      37.283  30.332  32.749  1.00  0.00     0.028 A 
ATOM      9  C   UNL A   1      37.872  28.917  30.915  1.00  0.00     0.044 A 
ATOM     10  C   UNL A   1      36.703  31.241  31.845  1.00  0.00     0.029 A 
ATOM     11  C   UNL A   1      36.758  31.046  30.454  1.00  0.00     0.052 A 
BRANCH   7  12
ATOM     12  N   UNL A   1      38.704  28.413  33.152  1.00  0.00    -0.322 N 
ATOM     13  O   UNL A   1      40.598  27.338  33.826  1.00  0.00    -0.269 OA
ATOM     14  C   UNL A   1      40.077  28.202  33.126  1.00  0.00     0.255 C 
ATOM     15  H   UNL A   1      38.210  27.959  33.873  1.00  0.00     0.170 HD
BRANCH  14  16
ATOM     16  C   UNL A   1      40.943  29.067  32.279  1.00  0.00     0.041 A 
ATOM     17  C   UNL A   1      41.478  28.579  31.075  1.00  0.00     0.014 A 
ATOM     18  C   UNL A   1      41.351  30.306  32.783  1.00  0.00     0.034 A 
ATOM     19  C   UNL A   1      42.516  29.269  30.446  1.00  0.00     0.002 A 
ATOM     20  C   UNL A   1      42.375  30.995  32.132  1.00  0.00     0.041 A 
ATOM     21  C   UNL A   1      42.976  30.469  30.985  1.00  0.00     0.020 A 
ATOM     22  Cl  UNL A   1      42.960  32.473  32.788  1.00  0.00    -0.084 Cl
ENDBRANCH  14  16
ENDBRANCH   7  12
BRANCH  11  23
ATOM     23  N   UNL A   1      36.123  31.910  29.562  1.00  0.00    -0.360 N 
ATOM     24  C   UNL A   1      36.363  33.365  29.553  1.00  0.00     0.178 C 
ATOM     25  C   UNL A   1      34.740  31.538  29.250  1.00  0.00     0.178 C 
ATOM     26  C   UNL A   1      35.702  34.055  28.319  1.00  0.00     0.284 C 
ATOM     27  C   UNL A   1      34.269  32.151  27.933  1.00  0.00     0.284 C 
ATOM     28  N   UNL A   1      34.354  33.609  27.911  1.00  0.00    -0.324 N 
ATOM     29  H   UNL A   1      34.255  33.915  26.944  1.00  0.00     0.348 HD
BRANCH  28  30
ATOM     30  C   UNL A   1      33.200  34.313  28.492  1.00  0.00     0.363 C 
BRANCH  30  31
ATOM     31  C   UNL A   1      33.453  35.673  29.158  1.00  0.00     0.277 C 
ATOM     32  O   UNL A   1      33.498  36.697  28.466  1.00  0.00    -0.268 OA
ATOM     33  N   UNL A   1      33.525  35.747  30.550  1.00  0.00    -0.333 N 
ATOM     34  C   UNL A   1      34.073  34.700  31.418  1.00  0.00     0.148 C 
ATOM     35  C   UNL A   1      33.507  37.080  31.159  1.00  0.00     0.148 C 
ATOM     36  C   UNL A   1      33.600  34.783  32.869  1.00  0.00     0.181 C 
ATOM     37  C   UNL A   1      33.023  37.045  32.612  1.00  0.00     0.181 C 
ATOM     38  O   UNL A   1      33.781  36.106  33.387  1.00  0.00    -0.378 OA
ENDBRANCH  30  31
ENDBRANCH  28  30
ENDBRANCH  11  23
ENDBRANCH   4   6
ENDBRANCH   3   4
ENDBRANCH   2   3
ENDBRANCH   1   2
BRANCH   1  39
ATOM     39  O   UNL A   1      39.958  27.171  28.477  1.00  0.00    -0.374 OA
BRANCH  39  40
ATOM     40  C   UNL A   1      39.453  25.865  28.173  1.00  0.00     0.202 C 
BRANCH  40  41
ATOM     41  C   UNL A   1      40.155  25.180  27.003  1.00  0.00     0.261 C 
BRANCH  41  42
ATOM     42  O   UNL A   1      41.140  24.273  27.507  1.00  0.00    -0.460 OA
BRANCH  42  43
ATOM     43  C   UNL A   1      42.067  23.885  26.603  1.00  0.00     0.338 C 
ATOM     44  O   UNL A   1      42.005  22.946  25.829  1.00  0.00    -0.246 OA
BRANCH  43  45
ATOM     45  C   UNL A   1      43.109  24.928  26.542  1.00  0.00     0.060 A 
ATOM     46  C   UNL A   1      43.662  25.355  27.756  1.00  0.00     0.016 A 
ATOM     47  C   UNL A   1      43.571  25.443  25.327  1.00  0.00     0.016 A 
ATOM     48  C   UNL A   1      44.657  26.325  27.761  1.00  0.00     0.010 A 
ATOM     49  C   UNL A   1      44.565  26.420  25.331  1.00  0.00     0.010 A 
ATOM     50  C   UNL A   1      45.087  26.882  26.550  1.00  0.00    -0.014 A 
BRANCH  50  51
ATOM     51  C   UNL A   1      45.969  28.064  26.567  1.00  0.00     0.031 A 
ATOM     52  C   UNL A   1      47.440  27.855  26.363  1.00  0.00     0.074 A 
ATOM     53  C   UNL A   1      45.461  29.293  26.751  1.00  0.00     0.049 A 
ATOM     54  N   UNL A   1      48.412  28.729  26.373  1.00  0.00    -0.248 NA
ATOM     55  C   UNL A   1      47.874  26.470  26.115  1.00  0.00     0.031 C 
ATOM     56  C   UNL A   1      44.045  29.601  26.930  1.00  0.00     0.029 A 
ATOM     57  N   UNL A   1      46.087  30.510  26.831  1.00  0.00    -0.354 N 
ATOM     58  C   UNL A   1      49.568  28.002  26.129  1.00  0.00     0.074 A 
ATOM     59  C   UNL A   1      49.185  26.613  26.009  1.00  0.00     0.031 C 
ATOM     60  C   UNL A   1      43.909  30.925  27.116  1.00  0.00     0.029 A 
ATOM     61  C   UNL A   1      45.230  31.548  27.098  1.00  0.00     0.049 A 
ATOM     62  H   UNL A   1      47.056  30.627  26.708  1.00  0.00     0.167 HD
ATOM     63  C   UNL A   1      50.835  28.460  26.007  1.00  0.00     0.037 A 
ATOM     64  C   UNL A   1      45.495  32.848  27.325  1.00  0.00     0.037 A 
ATOM     65  C   UNL A   1      51.203  29.843  26.142  1.00  0.00     0.049 A 
ATOM     66  C   UNL A   1      46.922  33.321  27.259  1.00  0.00     0.074 A 
ATOM     67  C   UNL A   1      52.453  30.421  26.024  1.00  0.00     0.029 A 
ATOM     68  N   UNL A   1      50.313  30.865  26.441  1.00  0.00    -0.354 N 
ATOM     69  N   UNL A   1      48.010  32.637  26.993  1.00  0.00    -0.248 NA
ATOM     70  C   UNL A   1      47.161  34.746  27.521  1.00  0.00     0.031 C 
ATOM     71  C   UNL A   1      52.327  31.787  26.295  1.00  0.00     0.029 A 
ATOM     72  C   UNL A   1      50.991  32.069  26.538  1.00  0.00     0.049 A 
ATOM     73  H   UNL A   1      49.343  30.751  26.565  1.00  0.00     0.167 HD
ATOM     74  C   UNL A   1      49.056  33.548  27.036  1.00  0.00     0.074 A 
ATOM     75  C   UNL A   1      48.471  34.838  27.340  1.00  0.00     0.031 C 
ATOM     76  C   UNL A   1      50.382  33.338  26.842  1.00  0.00     0.037 A 
BRANCH  63  77
ATOM     77  C   UNL A   1      51.909  27.450  25.735  1.00  0.00     0.064 A 
ATOM     78  C   UNL A   1      52.612  26.827  26.777  1.00  0.00     0.173 A 
ATOM     79  C   UNL A   1      52.234  27.094  24.418  1.00  0.00     0.173 A 
ATOM     80  F   UNL A   1      52.352  27.149  28.054  1.00  0.00    -0.203 F 
ATOM     81  C   UNL A   1      53.617  25.901  26.510  1.00  0.00     0.198 A 
ATOM     82  C   UNL A   1      53.221  26.150  24.155  1.00  0.00     0.198 A 
ATOM     83  F   UNL A   1      51.594  27.665  23.386  1.00  0.00    -0.203 F 
ATOM     84  F   UNL A   1      54.306  25.352  27.520  1.00  0.00    -0.200 F 
ATOM     85  C   UNL A   1      53.916  25.559  25.200  1.00  0.00     0.200 A 
ATOM     86  F   UNL A   1      53.506  25.816  22.889  1.00  0.00    -0.200 F 
ATOM     87  F   UNL A   1      54.882  24.666  24.944  1.00  0.00    -0.200 F 
ENDBRANCH  63  77
BRANCH  64  88
ATOM     88  C   UNL A   1      44.388  33.783  27.647  1.00  0.00     0.064 A 
ATOM     89  C   UNL A   1      43.883  33.886  28.951  1.00  0.00     0.173 A 
ATOM     90  C   UNL A   1      43.810  34.593  26.658  1.00  0.00     0.173 A 
ATOM     91  F   UNL A   1      44.387  33.114  29.925  1.00  0.00    -0.203 F 
ATOM     92  C   UNL A   1      42.835  34.753  29.250  1.00  0.00     0.198 A 
ATOM     93  C   UNL A   1      42.778  35.479  26.964  1.00  0.00     0.198 A 
ATOM     94  F   UNL A   1      44.253  34.529  25.394  1.00  0.00    -0.203 F 
ATOM     95  F   UNL A   1      42.344  34.802  30.496  1.00  0.00    -0.200 F 
ATOM     96  C   UNL A   1      42.287  35.553  28.258  1.00  0.00     0.200 A 
ATOM     97  F   UNL A   1      42.256  36.254  26.004  1.00  0.00    -0.200 F 
ATOM     98  F   UNL A   1      41.280  36.388  28.548  1.00  0.00    -0.200 F 
ENDBRANCH  64  88
BRANCH  76  99
ATOM     99  C   UNL A   1      51.284  34.531  26.935  1.00  0.00     0.064 A 
ATOM    100  C   UNL A   1      51.511  35.364  25.830  1.00  0.00     0.173 A 
ATOM    101  C   UNL A   1      51.886  34.875  28.155  1.00  0.00     0.173 A 
ATOM    102  F   UNL A   1      50.969  35.068  24.639  1.00  0.00    -0.203 F 
ATOM    103  C   UNL A   1      52.323  36.490  25.939  1.00  0.00     0.198 A 
ATOM    104  C   UNL A   1      52.676  36.015  28.267  1.00  0.00     0.198 A 
ATOM    105  F   UNL A   1      51.693  34.112  29.241  1.00  0.00    -0.203 F 
ATOM    106  F   UNL A   1      52.558  37.251  24.862  1.00  0.00    -0.200 F 
ATOM    107  C   UNL A   1      52.898  36.818  27.159  1.00  0.00     0.200 A 
ATOM    108  F   UNL A   1      53.219  36.338  29.448  1.00  0.00    -0.200 F 
ATOM    109  F   UNL A   1      53.670  37.907  27.264  1.00  0.00    -0.200 F 
ENDBRANCH  76  99
ENDBRANCH  50  51
ENDBRANCH  43  45
ENDBRANCH  42  43
ENDBRANCH  41  42
ENDBRANCH  40  41
ENDBRANCH  39  40
ENDBRANCH   1  39
TORSDOF 19
ENDMDL
