MODEL 1
REMARK VINA RESULT:     -12.0      0.000      0.000
REMARK SMILES Cc1ccc(N2C(=O)/C(=C3\C(=O)N(CC(=O)OCCOCCOC(=O)c4ccc(-c5c6nc(c(-c7c(F)c(F)c(F)c(F)c7F)c7ccc([nH]7)c(-c7c(F)c(F)c(F)c(F)c7F)c7nc(c(-c8c(F)c(F)c(F)c(F)c8F)c8ccc5[nH]8)C=C7)C=C6)cc4)c4ccccc43)SC2=S)c(C)c1
REMARK SMILES IDX 20 1 19 2 18 3 17 4 15 5 16 6 14 7 13 8 6 9 7 10 96 11 8 12
REMARK SMILES IDX 9 13 95 14 97 15 10 16 11 17 94 18 12 19 89 20 93 21 90 22
REMARK SMILES IDX 92 23 91 24 5 25 1 26 2 27 3 28 100 29 4 30 98 31 99 32
REMARK SMILES IDX 21 33 22 34 23 35 24 36 25 37 26 38 27 39 88 40 28 41 87 42
REMARK SMILES IDX 29 43 30 44 31 45 81 46 32 47 86 48 80 49 82 50 33 51 85 52
REMARK SMILES IDX 79 53 78 54 34 56 66 57 46 58 65 59 47 60 50 61 64 62 83 63
REMARK SMILES IDX 48 64 49 65 63 67 84 68 51 69 35 70 36 71 44 72 37 73 38 74
REMARK SMILES IDX 42 75 45 76 39 77 40 78 43 79 41 80 67 81 68 82 76 83 69 84
REMARK SMILES IDX 70 85 74 86 77 87 71 88 72 89 75 90 73 91 52 92 53 93 61 94
REMARK SMILES IDX 54 95 55 96 59 97 62 98 56 99 57 100 60 101 58 102
REMARK H PARENT 82 55 50 66
REMARK Flexibility Score: inf
ROOT
ATOM      1  O   UNL A   1      32.386  30.558  26.921  1.00  0.00    -0.374 OA
ENDROOT
BRANCH   1   2
ATOM      2  C   UNL A   1      33.086  29.319  26.884  1.00  0.00     0.202 C 
BRANCH   2   3
ATOM      3  C   UNL A   1      33.814  28.932  25.586  1.00  0.00     0.261 C 
BRANCH   3   4
ATOM      4  O   UNL A   1      33.229  29.462  24.371  1.00  0.00    -0.462 OA
BRANCH   4   5
ATOM      5  C   UNL A   1      33.667  28.872  23.221  1.00  0.00     0.326 C 
ATOM      6  O   UNL A   1      34.819  28.970  22.799  1.00  0.00    -0.250 OA
BRANCH   5   7
ATOM      7  C   UNL A   1      32.661  27.960  22.507  1.00  0.00     0.248 C 
BRANCH   7   8
ATOM      8  N   UNL A   1      32.360  26.628  22.992  1.00  0.00    -0.296 N 
ATOM      9  N   UNL A   1      34.863  21.872  24.386  1.00  0.00    -0.261 N 
ATOM     10  C   UNL A   1      34.517  22.821  23.411  1.00  0.00     0.271 C 
ATOM     11  C   UNL A   1      33.811  21.195  24.982  1.00  0.00     0.152 C 
ATOM     12  O   UNL A   1      35.277  23.333  22.608  1.00  0.00    -0.268 OA
ATOM     13  C   UNL A   1      33.051  23.131  23.535  1.00  0.00     0.094 C 
ATOM     14  S   UNL A   1      32.304  21.770  24.297  1.00  0.00    -0.053 SA
ATOM     15  S   UNL A   1      33.782  20.099  26.246  1.00  0.00    -0.051 S 
ATOM     16  C   UNL A   1      32.491  24.346  23.366  1.00  0.00     0.069 C 
ATOM     17  C   UNL A   1      33.081  25.505  22.598  1.00  0.00     0.260 C 
ATOM     18  C   UNL A   1      31.337  24.902  24.119  1.00  0.00     0.012 A 
ATOM     19  O   UNL A   1      33.960  25.478  21.754  1.00  0.00    -0.269 OA
ATOM     20  C   UNL A   1      31.395  26.295  23.954  1.00  0.00     0.053 A 
ATOM     21  C   UNL A   1      30.397  24.355  24.987  1.00  0.00     0.011 A 
ATOM     22  C   UNL A   1      30.613  27.152  24.714  1.00  0.00     0.027 A 
ATOM     23  C   UNL A   1      29.572  25.206  25.726  1.00  0.00     0.001 A 
ATOM     24  C   UNL A   1      29.699  26.595  25.614  1.00  0.00     0.002 A 
BRANCH   9  25
ATOM     25  C   UNL A   1      36.228  21.680  24.768  1.00  0.00     0.054 A 
ATOM     26  C   UNL A   1      40.223  20.846  26.226  1.00  0.00     0.044 C 
ATOM     27  C   UNL A   1      38.850  21.130  25.691  1.00  0.00    -0.051 A 
ATOM     28  C   UNL A   1      38.132  20.161  24.995  1.00  0.00     0.005 A 
ATOM     29  C   UNL A   1      38.264  22.382  25.901  1.00  0.00     0.009 A 
ATOM     30  C   UNL A   1      36.843  20.437  24.530  1.00  0.00     0.027 A 
ATOM     31  C   UNL A   1      36.953  22.670  25.467  1.00  0.00    -0.027 A 
ATOM     32  C   UNL A   1      36.409  24.024  25.837  1.00  0.00     0.046 C 
ENDBRANCH   9  25
ENDBRANCH   7   8
ENDBRANCH   5   7
ENDBRANCH   4   5
ENDBRANCH   3   4
ENDBRANCH   2   3
ENDBRANCH   1   2
BRANCH   1  33
ATOM     33  C   UNL A   1      33.105  31.713  27.334  1.00  0.00     0.202 C 
BRANCH  33  34
ATOM     34  C   UNL A   1      32.312  33.005  27.562  1.00  0.00     0.261 C 
BRANCH  34  35
ATOM     35  O   UNL A   1      33.071  34.209  27.418  1.00  0.00    -0.460 OA
BRANCH  35  36
ATOM     36  C   UNL A   1      33.163  34.943  28.552  1.00  0.00     0.338 C 
ATOM     37  O   UNL A   1      32.387  35.790  28.963  1.00  0.00    -0.246 OA
BRANCH  36  38
ATOM     38  C   UNL A   1      34.304  34.463  29.341  1.00  0.00     0.060 A 
ATOM     39  C   UNL A   1      34.119  33.927  30.616  1.00  0.00     0.016 A 
ATOM     40  C   UNL A   1      35.571  34.500  28.748  1.00  0.00     0.016 A 
ATOM     41  C   UNL A   1      35.219  33.397  31.292  1.00  0.00     0.010 A 
ATOM     42  C   UNL A   1      36.664  33.966  29.423  1.00  0.00     0.010 A 
ATOM     43  C   UNL A   1      36.490  33.391  30.690  1.00  0.00    -0.014 A 
BRANCH  43  44
ATOM     44  C   UNL A   1      37.619  32.671  31.326  1.00  0.00     0.031 A 
ATOM     45  C   UNL A   1      38.199  33.136  32.625  1.00  0.00     0.074 A 
ATOM     46  C   UNL A   1      38.139  31.607  30.685  1.00  0.00     0.049 A 
ATOM     47  N   UNL A   1      39.184  32.621  33.317  1.00  0.00    -0.248 NA
ATOM     48  C   UNL A   1      37.607  34.341  33.225  1.00  0.00     0.031 C 
ATOM     49  C   UNL A   1      37.670  31.095  29.395  1.00  0.00     0.029 A 
ATOM     50  N   UNL A   1      39.166  30.766  31.023  1.00  0.00    -0.354 N 
ATOM     51  C   UNL A   1      39.317  33.424  34.441  1.00  0.00     0.074 A 
ATOM     52  C   UNL A   1      38.351  34.494  34.313  1.00  0.00     0.031 C 
ATOM     53  C   UNL A   1      38.384  30.008  29.069  1.00  0.00     0.029 A 
ATOM     54  C   UNL A   1      39.386  29.769  30.104  1.00  0.00     0.049 A 
ATOM     55  H   UNL A   1      39.696  30.865  31.848  1.00  0.00     0.167 HD
ATOM     56  C   UNL A   1      40.155  33.259  35.492  1.00  0.00     0.037 A 
ATOM     57  C   UNL A   1      40.294  28.776  30.096  1.00  0.00     0.037 A 
ATOM     58  C   UNL A   1      41.119  32.193  35.601  1.00  0.00     0.049 A 
ATOM     59  C   UNL A   1      41.251  28.656  31.251  1.00  0.00     0.074 A 
ATOM     60  C   UNL A   1      41.997  31.929  36.637  1.00  0.00     0.029 A 
ATOM     61  N   UNL A   1      41.334  31.219  34.637  1.00  0.00    -0.354 N 
ATOM     62  N   UNL A   1      41.326  29.383  32.339  1.00  0.00    -0.248 NA
ATOM     63  C   UNL A   1      42.248  27.580  31.177  1.00  0.00     0.031 C 
ATOM     64  C   UNL A   1      42.780  30.830  36.278  1.00  0.00     0.029 A 
ATOM     65  C   UNL A   1      42.352  30.369  35.044  1.00  0.00     0.049 A 
ATOM     66  H   UNL A   1      40.840  31.143  33.789  1.00  0.00     0.167 HD
ATOM     67  C   UNL A   1      42.357  28.836  33.091  1.00  0.00     0.074 A 
ATOM     68  C   UNL A   1      42.865  27.706  32.344  1.00  0.00     0.031 C 
ATOM     69  C   UNL A   1      42.842  29.241  34.291  1.00  0.00     0.037 A 
BRANCH  56  70
ATOM     70  C   UNL A   1      40.063  34.239  36.627  1.00  0.00     0.064 A 
ATOM     71  C   UNL A   1      39.243  33.989  37.737  1.00  0.00     0.173 A 
ATOM     72  C   UNL A   1      40.870  35.386  36.653  1.00  0.00     0.173 A 
ATOM     73  F   UNL A   1      38.447  32.909  37.759  1.00  0.00    -0.203 F 
ATOM     74  C   UNL A   1      39.226  34.857  38.826  1.00  0.00     0.198 A 
ATOM     75  C   UNL A   1      40.872  36.236  37.756  1.00  0.00     0.198 A 
ATOM     76  F   UNL A   1      41.680  35.668  35.621  1.00  0.00    -0.203 F 
ATOM     77  F   UNL A   1      38.415  34.610  39.865  1.00  0.00    -0.200 F 
ATOM     78  C   UNL A   1      40.050  35.972  38.841  1.00  0.00     0.200 A 
ATOM     79  F   UNL A   1      41.682  37.304  37.776  1.00  0.00    -0.200 F 
ATOM     80  F   UNL A   1      40.050  36.793  39.900  1.00  0.00    -0.200 F 
ENDBRANCH  56  70
BRANCH  57  81
ATOM     81  C   UNL A   1      40.314  27.800  28.977  1.00  0.00     0.064 A 
ATOM     82  C   UNL A   1      39.580  26.608  29.053  1.00  0.00     0.173 A 
ATOM     83  C   UNL A   1      41.047  28.039  27.805  1.00  0.00     0.173 A 
ATOM     84  F   UNL A   1      38.877  26.324  30.159  1.00  0.00    -0.203 F 
ATOM     85  C   UNL A   1      39.593  25.685  28.008  1.00  0.00     0.198 A 
ATOM     86  C   UNL A   1      41.033  27.131  26.748  1.00  0.00     0.198 A 
ATOM     87  F   UNL A   1      41.762  29.167  27.677  1.00  0.00    -0.203 F 
ATOM     88  F   UNL A   1      38.915  24.535  28.126  1.00  0.00    -0.200 F 
ATOM     89  C   UNL A   1      40.312  25.953  26.854  1.00  0.00     0.200 A 
ATOM     90  F   UNL A   1      41.715  27.401  25.626  1.00  0.00    -0.200 F 
ATOM     91  F   UNL A   1      40.315  25.070  25.845  1.00  0.00    -0.200 F 
ENDBRANCH  57  81
BRANCH  69  92
ATOM     92  C   UNL A   1      43.969  28.449  34.887  1.00  0.00     0.064 A 
ATOM     93  C   UNL A   1      43.731  27.333  35.703  1.00  0.00     0.173 A 
ATOM     94  C   UNL A   1      45.302  28.761  34.575  1.00  0.00     0.173 A 
ATOM     95  F   UNL A   1      42.476  27.001  36.043  1.00  0.00    -0.203 F 
ATOM     96  C   UNL A   1      44.784  26.568  36.195  1.00  0.00     0.198 A 
ATOM     97  C   UNL A   1      46.351  27.973  35.040  1.00  0.00     0.198 A 
ATOM     98  F   UNL A   1      45.585  29.813  33.792  1.00  0.00    -0.203 F 
ATOM     99  F   UNL A   1      44.535  25.529  37.004  1.00  0.00    -0.200 F 
ATOM    100  C   UNL A   1      46.092  26.881  35.853  1.00  0.00     0.200 A 
ATOM    101  F   UNL A   1      47.611  28.267  34.694  1.00  0.00    -0.200 F 
ATOM    102  F   UNL A   1      47.103  26.130  36.311  1.00  0.00    -0.200 F 
ENDBRANCH  69  92
ENDBRANCH  43  44
ENDBRANCH  36  38
ENDBRANCH  35  36
ENDBRANCH  34  35
ENDBRANCH  33  34
ENDBRANCH   1  33
TORSDOF 16
ENDMDL
MODEL 2
REMARK VINA RESULT:     -12.0      0.456      6.998
REMARK SMILES Cc1ccc(N2C(=O)/C(=C3\C(=O)N(CC(=O)OCCOCCOC(=O)c4ccc(-c5c6nc(c(-c7c(F)c(F)c(F)c(F)c7F)c7ccc([nH]7)c(-c7c(F)c(F)c(F)c(F)c7F)c7nc(c(-c8c(F)c(F)c(F)c(F)c8F)c8ccc5[nH]8)C=C7)C=C6)cc4)c4ccccc43)SC2=S)c(C)c1
REMARK SMILES IDX 20 1 19 2 18 3 17 4 15 5 16 6 14 7 13 8 6 9 7 10 96 11 8 12
REMARK SMILES IDX 9 13 95 14 97 15 10 16 11 17 94 18 12 19 89 20 93 21 90 22
REMARK SMILES IDX 92 23 91 24 5 25 1 26 2 27 3 28 100 29 4 30 98 31 99 32
REMARK SMILES IDX 21 33 22 34 23 35 24 36 25 37 26 38 27 39 88 40 28 41 87 42
REMARK SMILES IDX 29 43 30 44 31 45 81 46 32 47 86 48 80 49 82 50 33 51 85 52
REMARK SMILES IDX 79 53 78 54 34 56 66 57 46 58 65 59 47 60 50 61 64 62 83 63
REMARK SMILES IDX 48 64 49 65 63 67 84 68 51 69 35 70 36 71 44 72 37 73 38 74
REMARK SMILES IDX 42 75 45 76 39 77 40 78 43 79 41 80 67 81 68 82 76 83 69 84
REMARK SMILES IDX 70 85 74 86 77 87 71 88 72 89 75 90 73 91 52 92 53 93 61 94
REMARK SMILES IDX 54 95 55 96 59 97 62 98 56 99 57 100 60 101 58 102
REMARK H PARENT 82 55 50 66
REMARK Flexibility Score: inf
ROOT
ATOM      1  O   UNL A   1      32.987  30.512  27.077  1.00  0.00    -0.374 OA
ENDROOT
BRANCH   1   2
ATOM      2  C   UNL A   1      33.874  29.405  26.957  1.00  0.00     0.202 C 
BRANCH   2   3
ATOM      3  C   UNL A   1      33.888  28.623  25.632  1.00  0.00     0.261 C 
BRANCH   3   4
ATOM      4  O   UNL A   1      33.297  29.313  24.503  1.00  0.00    -0.462 OA
BRANCH   4   5
ATOM      5  C   UNL A   1      33.657  28.824  23.282  1.00  0.00     0.326 C 
ATOM      6  O   UNL A   1      34.770  28.985  22.782  1.00  0.00    -0.250 OA
BRANCH   5   7
ATOM      7  C   UNL A   1      32.619  27.940  22.579  1.00  0.00     0.248 C 
BRANCH   7   8
ATOM      8  N   UNL A   1      32.339  26.589  23.024  1.00  0.00    -0.296 N 
ATOM      9  N   UNL A   1      34.923  21.859  24.353  1.00  0.00    -0.261 N 
ATOM     10  C   UNL A   1      34.576  22.824  23.395  1.00  0.00     0.271 C 
ATOM     11  C   UNL A   1      33.876  21.143  24.908  1.00  0.00     0.152 C 
ATOM     12  O   UNL A   1      35.341  23.373  22.621  1.00  0.00    -0.268 OA
ATOM     13  C   UNL A   1      33.101  23.096  23.495  1.00  0.00     0.094 C 
ATOM     14  S   UNL A   1      32.370  21.700  24.206  1.00  0.00    -0.053 SA
ATOM     15  S   UNL A   1      33.846  20.015  26.144  1.00  0.00    -0.051 S 
ATOM     16  C   UNL A   1      32.516  24.302  23.344  1.00  0.00     0.069 C 
ATOM     17  C   UNL A   1      33.094  25.493  22.617  1.00  0.00     0.260 C 
ATOM     18  C   UNL A   1      31.333  24.812  24.086  1.00  0.00     0.012 A 
ATOM     19  O   UNL A   1      33.991  25.508  21.793  1.00  0.00    -0.269 OA
ATOM     20  C   UNL A   1      31.362  26.209  23.956  1.00  0.00     0.053 A 
ATOM     21  C   UNL A   1      30.389  24.221  24.919  1.00  0.00     0.011 A 
ATOM     22  C   UNL A   1      30.545  27.029  24.721  1.00  0.00     0.027 A 
ATOM     23  C   UNL A   1      29.528  25.034  25.661  1.00  0.00     0.001 A 
ATOM     24  C   UNL A   1      29.625  26.429  25.586  1.00  0.00     0.002 A 
BRANCH   9  25
ATOM     25  C   UNL A   1      36.284  21.688  24.760  1.00  0.00     0.054 A 
ATOM     26  C   UNL A   1      40.266  20.915  26.285  1.00  0.00     0.044 C 
ATOM     27  C   UNL A   1      38.899  21.178  25.727  1.00  0.00    -0.051 A 
ATOM     28  C   UNL A   1      38.213  20.203  25.006  1.00  0.00     0.005 A 
ATOM     29  C   UNL A   1      38.284  22.416  25.939  1.00  0.00     0.009 A 
ATOM     30  C   UNL A   1      36.928  20.460  24.520  1.00  0.00     0.027 A 
ATOM     31  C   UNL A   1      36.976  22.684  25.483  1.00  0.00    -0.027 A 
ATOM     32  C   UNL A   1      36.399  24.023  25.858  1.00  0.00     0.046 C 
ENDBRANCH   9  25
ENDBRANCH   7   8
ENDBRANCH   5   7
ENDBRANCH   4   5
ENDBRANCH   3   4
ENDBRANCH   2   3
ENDBRANCH   1   2
BRANCH   1  33
ATOM     33  C   UNL A   1      33.503  31.717  27.627  1.00  0.00     0.202 C 
BRANCH  33  34
ATOM     34  C   UNL A   1      32.580  32.941  27.657  1.00  0.00     0.261 C 
BRANCH  34  35
ATOM     35  O   UNL A   1      33.249  34.201  27.549  1.00  0.00    -0.460 OA
BRANCH  35  36
ATOM     36  C   UNL A   1      33.284  34.908  28.703  1.00  0.00     0.338 C 
ATOM     37  O   UNL A   1      32.485  35.741  29.096  1.00  0.00    -0.246 OA
BRANCH  36  38
ATOM     38  C   UNL A   1      34.390  34.416  29.533  1.00  0.00     0.060 A 
ATOM     39  C   UNL A   1      34.148  33.840  30.782  1.00  0.00     0.016 A 
ATOM     40  C   UNL A   1      35.684  34.483  29.005  1.00  0.00     0.016 A 
ATOM     41  C   UNL A   1      35.219  33.301  31.495  1.00  0.00     0.010 A 
ATOM     42  C   UNL A   1      36.748  33.939  29.718  1.00  0.00     0.010 A 
ATOM     43  C   UNL A   1      36.518  33.324  30.957  1.00  0.00    -0.014 A 
BRANCH  43  44
ATOM     44  C   UNL A   1      37.622  32.597  31.627  1.00  0.00     0.031 A 
ATOM     45  C   UNL A   1      38.240  31.384  31.004  1.00  0.00     0.074 A 
ATOM     46  C   UNL A   1      38.030  33.030  32.834  1.00  0.00     0.049 A 
ATOM     47  N   UNL A   1      39.213  30.634  31.454  1.00  0.00    -0.248 NA
ATOM     48  C   UNL A   1      37.692  30.948  29.711  1.00  0.00     0.031 C 
ATOM     49  C   UNL A   1      37.467  34.180  33.546  1.00  0.00     0.029 A 
ATOM     50  N   UNL A   1      39.008  32.565  33.675  1.00  0.00    -0.354 N 
ATOM     51  C   UNL A   1      39.409  29.650  30.495  1.00  0.00     0.074 A 
ATOM     52  C   UNL A   1      38.416  29.864  29.463  1.00  0.00     0.031 C 
ATOM     53  C   UNL A   1      38.132  34.351  34.698  1.00  0.00     0.029 A 
ATOM     54  C   UNL A   1      39.139  33.302  34.827  1.00  0.00     0.049 A 
ATOM     55  H   UNL A   1      39.564  31.777  33.473  1.00  0.00     0.167 HD
ATOM     56  C   UNL A   1      40.350  28.678  30.472  1.00  0.00     0.037 A 
ATOM     57  C   UNL A   1      39.976  33.147  35.869  1.00  0.00     0.037 A 
ATOM     58  C   UNL A   1      41.327  28.472  31.513  1.00  0.00     0.049 A 
ATOM     59  C   UNL A   1      40.972  32.019  35.841  1.00  0.00     0.074 A 
ATOM     60  C   UNL A   1      42.336  27.527  31.571  1.00  0.00     0.029 A 
ATOM     61  N   UNL A   1      41.411  29.219  32.679  1.00  0.00    -0.354 N 
ATOM     62  N   UNL A   1      41.190  31.135  34.900  1.00  0.00    -0.248 NA
ATOM     63  C   UNL A   1      41.837  31.870  37.019  1.00  0.00     0.031 C 
ATOM     64  C   UNL A   1      42.997  27.667  32.794  1.00  0.00     0.029 A 
ATOM     65  C   UNL A   1      42.440  28.737  33.475  1.00  0.00     0.049 A 
ATOM     66  H   UNL A   1      40.828  29.977  32.908  1.00  0.00     0.167 HD
ATOM     67  C   UNL A   1      42.233  30.341  35.358  1.00  0.00     0.074 A 
ATOM     68  C   UNL A   1      42.617  30.862  36.653  1.00  0.00     0.031 C 
ATOM     69  C   UNL A   1      42.815  29.273  34.760  1.00  0.00     0.037 A 
BRANCH  56  70
ATOM     70  C   UNL A   1      40.394  27.766  29.280  1.00  0.00     0.064 A 
ATOM     71  C   UNL A   1      39.584  26.622  29.212  1.00  0.00     0.173 A 
ATOM     72  C   UNL A   1      41.173  28.085  28.159  1.00  0.00     0.173 A 
ATOM     73  F   UNL A   1      38.824  26.269  30.260  1.00  0.00    -0.203 F 
ATOM     74  C   UNL A   1      39.563  25.826  28.070  1.00  0.00     0.198 A 
ATOM     75  C   UNL A   1      41.127  27.303  27.008  1.00  0.00     0.198 A 
ATOM     76  F   UNL A   1      41.958  29.173  28.167  1.00  0.00    -0.203 F 
ATOM     77  F   UNL A   1      38.801  24.723  28.037  1.00  0.00    -0.200 F 
ATOM     78  C   UNL A   1      40.324  26.174  26.964  1.00  0.00     0.200 A 
ATOM     79  F   UNL A   1      41.850  27.650  25.933  1.00  0.00    -0.200 F 
ATOM     80  F   UNL A   1      40.283  25.420  25.857  1.00  0.00    -0.200 F 
ENDBRANCH  56  70
BRANCH  57  81
ATOM     81  C   UNL A   1      39.931  34.106  37.003  1.00  0.00     0.064 A 
ATOM     82  C   UNL A   1      40.716  35.267  36.991  1.00  0.00     0.173 A 
ATOM     83  C   UNL A   1      39.097  33.894  38.111  1.00  0.00     0.173 A 
ATOM     84  F   UNL A   1      41.543  35.506  35.962  1.00  0.00    -0.203 F 
ATOM     85  C   UNL A   1      40.681  36.172  38.051  1.00  0.00     0.198 A 
ATOM     86  C   UNL A   1      39.038  34.817  39.155  1.00  0.00     0.198 A 
ATOM     87  F   UNL A   1      38.320  32.803  38.171  1.00  0.00    -0.203 F 
ATOM     88  F   UNL A   1      41.473  37.253  38.032  1.00  0.00    -0.200 F 
ATOM     89  C   UNL A   1      39.835  35.950  39.127  1.00  0.00     0.200 A 
ATOM     90  F   UNL A   1      38.207  34.607  40.185  1.00  0.00    -0.200 F 
ATOM     91  F   UNL A   1      39.794  36.825  40.141  1.00  0.00    -0.200 F 
ENDBRANCH  57  81
BRANCH  69  92
ATOM     92  C   UNL A   1      43.944  28.600  35.486  1.00  0.00     0.064 A 
ATOM     93  C   UNL A   1      45.276  29.000  35.303  1.00  0.00     0.173 A 
ATOM     94  C   UNL A   1      43.684  27.599  36.435  1.00  0.00     0.173 A 
ATOM     95  F   UNL A   1      45.579  29.943  34.397  1.00  0.00    -0.203 F 
ATOM     96  C   UNL A   1      46.306  28.414  36.032  1.00  0.00     0.198 A 
ATOM     97  C   UNL A   1      44.713  27.038  37.187  1.00  0.00     0.198 A 
ATOM     98  F   UNL A   1      42.427  27.185  36.655  1.00  0.00    -0.203 F 
ATOM     99  F   UNL A   1      47.575  28.784  35.812  1.00  0.00    -0.200 F 
ATOM    100  C   UNL A   1      46.023  27.442  36.981  1.00  0.00     0.200 A 
ATOM    101  F   UNL A   1      44.435  26.114  38.116  1.00  0.00    -0.200 F 
ATOM    102  F   UNL A   1      47.014  26.894  37.697  1.00  0.00    -0.200 F 
ENDBRANCH  69  92
ENDBRANCH  43  44
ENDBRANCH  36  38
ENDBRANCH  35  36
ENDBRANCH  34  35
ENDBRANCH  33  34
ENDBRANCH   1  33
TORSDOF 16
ENDMDL
MODEL 3
REMARK VINA RESULT:     -11.8      2.349      7.700
REMARK SMILES Cc1ccc(N2C(=O)/C(=C3\C(=O)N(CC(=O)OCCOCCOC(=O)c4ccc(-c5c6nc(c(-c7c(F)c(F)c(F)c(F)c7F)c7ccc([nH]7)c(-c7c(F)c(F)c(F)c(F)c7F)c7nc(c(-c8c(F)c(F)c(F)c(F)c8F)c8ccc5[nH]8)C=C7)C=C6)cc4)c4ccccc43)SC2=S)c(C)c1
REMARK SMILES IDX 20 1 19 2 18 3 17 4 15 5 16 6 14 7 13 8 6 9 7 10 96 11 8 12
REMARK SMILES IDX 9 13 95 14 97 15 10 16 11 17 94 18 12 19 89 20 93 21 90 22
REMARK SMILES IDX 92 23 91 24 5 25 1 26 2 27 3 28 100 29 4 30 98 31 99 32
REMARK SMILES IDX 21 33 22 34 23 35 24 36 25 37 26 38 27 39 88 40 28 41 87 42
REMARK SMILES IDX 29 43 30 44 31 45 81 46 32 47 86 48 80 49 82 50 33 51 85 52
REMARK SMILES IDX 79 53 78 54 34 56 66 57 46 58 65 59 47 60 50 61 64 62 83 63
REMARK SMILES IDX 48 64 49 65 63 67 84 68 51 69 35 70 36 71 44 72 37 73 38 74
REMARK SMILES IDX 42 75 45 76 39 77 40 78 43 79 41 80 67 81 68 82 76 83 69 84
REMARK SMILES IDX 70 85 74 86 77 87 71 88 72 89 75 90 73 91 52 92 53 93 61 94
REMARK SMILES IDX 54 95 55 96 59 97 62 98 56 99 57 100 60 101 58 102
REMARK H PARENT 82 55 50 66
REMARK Flexibility Score: inf
ROOT
ATOM      1  O   UNL A   1      30.333  30.692  24.685  1.00  0.00    -0.374 OA
ENDROOT
BRANCH   1   2
ATOM      2  C   UNL A   1      29.293  31.229  23.874  1.00  0.00     0.202 C 
BRANCH   2   3
ATOM      3  C   UNL A   1      28.760  30.374  22.712  1.00  0.00     0.261 C 
BRANCH   3   4
ATOM      4  O   UNL A   1      27.627  29.530  23.038  1.00  0.00    -0.462 OA
BRANCH   4   5
ATOM      5  C   UNL A   1      27.941  28.228  23.298  1.00  0.00     0.326 C 
ATOM      6  O   UNL A   1      27.219  27.466  23.941  1.00  0.00    -0.250 OA
BRANCH   5   7
ATOM      7  C   UNL A   1      29.224  27.701  22.642  1.00  0.00     0.248 C 
BRANCH   7   8
ATOM      8  N   UNL A   1      30.362  27.269  23.429  1.00  0.00    -0.296 N 
ATOM      9  N   UNL A   1      32.790  22.655  25.336  1.00  0.00    -0.261 N 
ATOM     10  C   UNL A   1      31.697  23.535  25.326  1.00  0.00     0.271 C 
ATOM     11  C   UNL A   1      33.987  23.171  25.803  1.00  0.00     0.152 C 
ATOM     12  O   UNL A   1      30.526  23.223  25.195  1.00  0.00    -0.268 OA
ATOM     13  C   UNL A   1      32.206  24.942  25.474  1.00  0.00     0.094 C 
ATOM     14  S   UNL A   1      33.748  24.847  26.253  1.00  0.00    -0.053 SA
ATOM     15  S   UNL A   1      35.523  22.509  25.864  1.00  0.00    -0.051 S 
ATOM     16  C   UNL A   1      31.704  26.027  24.850  1.00  0.00     0.069 C 
ATOM     17  C   UNL A   1      30.315  26.164  24.273  1.00  0.00     0.260 C 
ATOM     18  C   UNL A   1      32.472  27.193  24.344  1.00  0.00     0.012 A 
ATOM     19  O   UNL A   1      29.326  25.499  24.528  1.00  0.00    -0.269 OA
ATOM     20  C   UNL A   1      31.650  27.823  23.396  1.00  0.00     0.053 A 
ATOM     21  C   UNL A   1      33.779  27.636  24.517  1.00  0.00     0.011 A 
ATOM     22  C   UNL A   1      32.137  28.807  22.548  1.00  0.00     0.027 A 
ATOM     23  C   UNL A   1      34.269  28.658  23.700  1.00  0.00     0.001 A 
ATOM     24  C   UNL A   1      33.464  29.219  22.701  1.00  0.00     0.002 A 
BRANCH   9  25
ATOM     25  C   UNL A   1      32.662  21.323  24.828  1.00  0.00     0.054 A 
ATOM     26  C   UNL A   1      32.678  17.244  23.367  1.00  0.00     0.044 C 
ATOM     27  C   UNL A   1      32.646  18.650  23.889  1.00  0.00    -0.051 A 
ATOM     28  C   UNL A   1      32.756  18.916  25.252  1.00  0.00     0.005 A 
ATOM     29  C   UNL A   1      32.517  19.722  23.002  1.00  0.00     0.009 A 
ATOM     30  C   UNL A   1      32.752  20.235  25.715  1.00  0.00     0.027 A 
ATOM     31  C   UNL A   1      32.543  21.061  23.446  1.00  0.00    -0.027 A 
ATOM     32  C   UNL A   1      32.487  22.121  22.378  1.00  0.00     0.046 C 
ENDBRANCH   9  25
ENDBRANCH   7   8
ENDBRANCH   5   7
ENDBRANCH   4   5
ENDBRANCH   3   4
ENDBRANCH   2   3
ENDBRANCH   1   2
BRANCH   1  33
ATOM     33  C   UNL A   1      30.890  31.531  25.688  1.00  0.00     0.202 C 
BRANCH  33  34
ATOM     34  C   UNL A   1      31.749  30.872  26.773  1.00  0.00     0.261 C 
BRANCH  34  35
ATOM     35  O   UNL A   1      33.160  31.040  26.607  1.00  0.00    -0.460 OA
BRANCH  35  36
ATOM     36  C   UNL A   1      33.698  32.002  27.392  1.00  0.00     0.338 C 
ATOM     37  O   UNL A   1      33.198  33.064  27.726  1.00  0.00    -0.246 OA
BRANCH  36  38
ATOM     38  C   UNL A   1      34.973  31.519  27.938  1.00  0.00     0.060 A 
ATOM     39  C   UNL A   1      36.053  32.385  28.110  1.00  0.00     0.016 A 
ATOM     40  C   UNL A   1      35.046  30.181  28.338  1.00  0.00     0.016 A 
ATOM     41  C   UNL A   1      37.213  31.905  28.719  1.00  0.00     0.010 A 
ATOM     42  C   UNL A   1      36.203  29.707  28.950  1.00  0.00     0.010 A 
ATOM     43  C   UNL A   1      37.285  30.572  29.164  1.00  0.00    -0.014 A 
BRANCH  43  44
ATOM     44  C   UNL A   1      38.441  30.111  29.968  1.00  0.00     0.031 A 
ATOM     45  C   UNL A   1      39.429  29.132  29.413  1.00  0.00     0.074 A 
ATOM     46  C   UNL A   1      38.562  30.564  31.230  1.00  0.00     0.049 A 
ATOM     47  N   UNL A   1      40.495  28.628  29.980  1.00  0.00    -0.248 NA
ATOM     48  C   UNL A   1      39.186  28.645  28.047  1.00  0.00     0.031 C 
ATOM     49  C   UNL A   1      37.632  31.491  31.879  1.00  0.00     0.029 A 
ATOM     50  N   UNL A   1      39.507  30.314  32.190  1.00  0.00    -0.354 N 
ATOM     51  C   UNL A   1      41.062  27.782  29.037  1.00  0.00     0.074 A 
ATOM     52  C   UNL A   1      40.192  27.796  27.881  1.00  0.00     0.031 C 
ATOM     53  C   UNL A   1      38.073  31.758  33.117  1.00  0.00     0.029 A 
ATOM     54  C   UNL A   1      39.290  30.993  33.365  1.00  0.00     0.049 A 
ATOM     55  H   UNL A   1      40.269  29.706  32.052  1.00  0.00     0.167 HD
ATOM     56  C   UNL A   1      42.217  27.083  29.128  1.00  0.00     0.037 A 
ATOM     57  C   UNL A   1      39.995  30.996  34.511  1.00  0.00     0.037 A 
ATOM     58  C   UNL A   1      43.068  27.072  30.291  1.00  0.00     0.049 A 
ATOM     59  C   UNL A   1      41.243  30.161  34.601  1.00  0.00     0.074 A 
ATOM     60  C   UNL A   1      44.272  26.411  30.472  1.00  0.00     0.029 A 
ATOM     61  N   UNL A   1      42.803  27.748  31.474  1.00  0.00    -0.354 N 
ATOM     62  N   UNL A   1      41.805  29.415  33.681  1.00  0.00    -0.248 NA
ATOM     63  C   UNL A   1      41.955  30.169  35.886  1.00  0.00     0.031 C 
ATOM     64  C   UNL A   1      44.707  26.644  31.778  1.00  0.00     0.029 A 
ATOM     65  C   UNL A   1      43.807  27.497  32.397  1.00  0.00     0.049 A 
ATOM     66  H   UNL A   1      42.018  28.320  31.634  1.00  0.00     0.167 HD
ATOM     67  C   UNL A   1      42.948  28.886  34.265  1.00  0.00     0.074 A 
ATOM     68  C   UNL A   1      43.010  29.413  35.612  1.00  0.00     0.031 C 
ATOM     69  C   UNL A   1      43.859  28.036  33.733  1.00  0.00     0.037 A 
BRANCH  56  70
ATOM     70  C   UNL A   1      42.651  26.281  27.935  1.00  0.00     0.064 A 
ATOM     71  C   UNL A   1      43.490  26.832  26.955  1.00  0.00     0.173 A 
ATOM     72  C   UNL A   1      42.309  24.925  27.817  1.00  0.00     0.173 A 
ATOM     73  F   UNL A   1      43.842  28.126  27.018  1.00  0.00    -0.203 F 
ATOM     74  C   UNL A   1      43.961  26.060  25.896  1.00  0.00     0.198 A 
ATOM     75  C   UNL A   1      42.805  24.149  26.773  1.00  0.00     0.198 A 
ATOM     76  F   UNL A   1      41.518  24.345  28.732  1.00  0.00    -0.203 F 
ATOM     77  F   UNL A   1      44.740  26.616  24.958  1.00  0.00    -0.200 F 
ATOM     78  C   UNL A   1      43.629  24.717  25.813  1.00  0.00     0.200 A 
ATOM     79  F   UNL A   1      42.497  22.846  26.703  1.00  0.00    -0.200 F 
ATOM     80  F   UNL A   1      44.102  23.969  24.806  1.00  0.00    -0.200 F 
ENDBRANCH  56  70
BRANCH  57  81
ATOM     81  C   UNL A   1      39.555  31.846  35.648  1.00  0.00     0.064 A 
ATOM     82  C   UNL A   1      40.099  33.123  35.840  1.00  0.00     0.173 A 
ATOM     83  C   UNL A   1      38.576  31.412  36.554  1.00  0.00     0.173 A 
ATOM     84  F   UNL A   1      41.051  33.577  35.011  1.00  0.00    -0.203 F 
ATOM     85  C   UNL A   1      39.693  33.927  36.904  1.00  0.00     0.198 A 
ATOM     86  C   UNL A   1      38.147  32.230  37.598  1.00  0.00     0.198 A 
ATOM     87  F   UNL A   1      38.017  30.201  36.413  1.00  0.00    -0.203 F 
ATOM     88  F   UNL A   1      40.261  35.128  37.087  1.00  0.00    -0.200 F 
ATOM     89  C   UNL A   1      38.711  33.483  37.776  1.00  0.00     0.200 A 
ATOM     90  F   UNL A   1      37.185  31.804  38.428  1.00  0.00    -0.200 F 
ATOM     91  F   UNL A   1      38.314  34.261  38.792  1.00  0.00    -0.200 F 
ENDBRANCH  57  81
BRANCH  69  92
ATOM     92  C   UNL A   1      45.019  27.631  34.597  1.00  0.00     0.064 A 
ATOM     93  C   UNL A   1      44.963  26.491  35.412  1.00  0.00     0.173 A 
ATOM     94  C   UNL A   1      46.226  28.346  34.549  1.00  0.00     0.173 A 
ATOM     95  F   UNL A   1      43.827  25.782  35.504  1.00  0.00    -0.203 F 
ATOM     96  C   UNL A   1      46.067  26.089  36.157  1.00  0.00     0.198 A 
ATOM     97  C   UNL A   1      47.339  27.922  35.270  1.00  0.00     0.198 A 
ATOM     98  F   UNL A   1      46.336  29.439  33.780  1.00  0.00    -0.203 F 
ATOM     99  F   UNL A   1      45.979  25.019  36.959  1.00  0.00    -0.200 F 
ATOM    100  C   UNL A   1      47.257  26.798  36.076  1.00  0.00     0.200 A 
ATOM    101  F   UNL A   1      48.493  28.596  35.175  1.00  0.00    -0.200 F 
ATOM    102  F   UNL A   1      48.326  26.396  36.779  1.00  0.00    -0.200 F 
ENDBRANCH  69  92
ENDBRANCH  43  44
ENDBRANCH  36  38
ENDBRANCH  35  36
ENDBRANCH  34  35
ENDBRANCH  33  34
ENDBRANCH   1  33
TORSDOF 16
ENDMDL
