MODEL 1
REMARK VINA RESULT:     -11.8      0.000      0.000
REMARK SMILES CC(C)(C)OC(=O)N1CCC[C@](Cc2ccccc2)(C(=O)OCCOCCOC(=O)c2ccc(-c3c4nc(c(-c5c(F)c(F)c(F)c(F)c5F)c5ccc([nH]5)c(-c5c(F)c(F)c(F)c(F)c5F)c5nc(c(-c6c(F)c(F)c(F)c(F)c6F)c6ccc3[nH]6)C=C5)C=C4)cc2)C1
REMARK SMILES IDX 24 1 23 2 22 3 20 4 21 5 12 6 8 7 9 8 94 9 10 10 11 11 6 12
REMARK SMILES IDX 7 13 5 14 2 15 1 16 3 17 4 18 13 19 14 20 15 21 19 22 16 23
REMARK SMILES IDX 18 24 17 25 25 26 26 27 27 28 28 29 29 30 30 31 31 32 32 33
REMARK SMILES IDX 93 34 33 35 92 36 34 37 35 38 36 39 86 40 37 41 91 42 85 43
REMARK SMILES IDX 87 44 38 45 90 46 84 47 83 48 39 50 71 51 51 52 70 53 52 54
REMARK SMILES IDX 55 55 69 56 88 57 53 58 54 59 68 61 89 62 56 63 40 64 41 65
REMARK SMILES IDX 49 66 42 67 43 68 47 69 50 70 44 71 45 72 48 73 46 74 72 75
REMARK SMILES IDX 73 76 81 77 74 78 75 79 79 80 82 81 76 82 77 83 80 84 78 85
REMARK SMILES IDX 57 86 58 87 66 88 59 89 60 90 64 91 67 92 61 93 62 94 65 95
REMARK SMILES IDX 63 96
REMARK H PARENT 87 49 55 60
REMARK Flexibility Score: inf
ROOT
ATOM      1  C   UNL A   1      32.924  26.710  25.209  1.00  0.00     0.202 C 
ENDROOT
BRANCH   1   2
ATOM      2  C   UNL A   1      32.611  25.615  24.187  1.00  0.00     0.261 C 
BRANCH   2   3
ATOM      3  O   UNL A   1      33.000  24.299  24.640  1.00  0.00    -0.463 OA
BRANCH   3   4
ATOM      4  C   UNL A   1      34.111  23.785  24.052  1.00  0.00     0.314 C 
ATOM      5  O   UNL A   1      34.374  23.949  22.864  1.00  0.00    -0.252 OA
BRANCH   4   6
ATOM      6  C   UNL A   1      35.050  23.035  25.019  1.00  0.00     0.090 C 
ATOM      7  N   UNL A   1      33.741  20.996  25.751  1.00  0.00    -0.307 N 
ATOM      8  C   UNL A   1      33.672  21.452  27.126  1.00  0.00     0.123 C 
ATOM      9  C   UNL A   1      34.857  21.495  24.943  1.00  0.00     0.142 C 
ATOM     10  C   UNL A   1      33.613  22.961  27.171  1.00  0.00     0.023 C 
ATOM     11  C   UNL A   1      34.815  23.578  26.454  1.00  0.00     0.023 C 
BRANCH   7  12
ATOM     12  C   UNL A   1      32.854  20.021  25.335  1.00  0.00     0.410 C 
ATOM     13  O   UNL A   1      31.753  20.277  24.863  1.00  0.00    -0.224 OA
BRANCH  12  14
ATOM     14  O   UNL A   1      33.312  18.771  25.594  1.00  0.00    -0.444 OA
BRANCH  14  15
ATOM     15  C   UNL A   1      33.411  17.758  24.554  1.00  0.00     0.106 C 
ATOM     16  C   UNL A   1      32.769  16.504  25.167  1.00  0.00     0.056 C 
ATOM     17  C   UNL A   1      34.892  17.496  24.276  1.00  0.00     0.056 C 
ATOM     18  C   UNL A   1      32.654  18.080  23.255  1.00  0.00     0.056 C 
ENDBRANCH  14  15
ENDBRANCH  12  14
ENDBRANCH   7  12
BRANCH   6  19
ATOM     19  C   UNL A   1      36.476  23.431  24.495  1.00  0.00     0.056 C 
BRANCH  19  20
ATOM     20  C   UNL A   1      37.675  23.141  25.367  1.00  0.00    -0.047 A 
ATOM     21  C   UNL A   1      38.227  21.850  25.393  1.00  0.00     0.004 A 
ATOM     22  C   UNL A   1      38.224  24.128  26.193  1.00  0.00     0.004 A 
ATOM     23  C   UNL A   1      39.317  21.559  26.212  1.00  0.00     0.000 A 
ATOM     24  C   UNL A   1      39.321  23.837  27.005  1.00  0.00     0.000 A 
ATOM     25  C   UNL A   1      39.868  22.555  27.014  1.00  0.00     0.000 A 
ENDBRANCH  19  20
ENDBRANCH   6  19
ENDBRANCH   4   6
ENDBRANCH   3   4
ENDBRANCH   2   3
ENDBRANCH   1   2
BRANCH   1  26
ATOM     26  O   UNL A   1      32.480  28.027  24.877  1.00  0.00    -0.374 OA
BRANCH  26  27
ATOM     27  C   UNL A   1      31.456  28.581  25.700  1.00  0.00     0.202 C 
BRANCH  27  28
ATOM     28  C   UNL A   1      31.826  29.888  26.413  1.00  0.00     0.261 C 
BRANCH  28  29
ATOM     29  O   UNL A   1      33.253  30.074  26.450  1.00  0.00    -0.460 OA
BRANCH  29  30
ATOM     30  C   UNL A   1      33.663  31.112  27.217  1.00  0.00     0.338 C 
ATOM     31  O   UNL A   1      32.968  32.000  27.684  1.00  0.00    -0.246 OA
BRANCH  30  32
ATOM     32  C   UNL A   1      35.081  30.954  27.599  1.00  0.00     0.060 A 
ATOM     33  C   UNL A   1      35.569  29.643  27.646  1.00  0.00     0.016 A 
ATOM     34  C   UNL A   1      35.897  32.023  27.976  1.00  0.00     0.016 A 
ATOM     35  C   UNL A   1      36.838  29.388  28.155  1.00  0.00     0.010 A 
ATOM     36  C   UNL A   1      37.176  31.765  28.493  1.00  0.00     0.010 A 
ATOM     37  C   UNL A   1      37.629  30.441  28.636  1.00  0.00    -0.014 A 
BRANCH  37  38
ATOM     38  C   UNL A   1      38.839  30.091  29.421  1.00  0.00     0.031 A 
ATOM     39  C   UNL A   1      38.961  30.586  30.838  1.00  0.00     0.074 A 
ATOM     40  C   UNL A   1      39.755  29.236  28.929  1.00  0.00     0.049 A 
ATOM     41  N   UNL A   1      39.819  30.245  31.767  1.00  0.00    -0.248 NA
ATOM     42  C   UNL A   1      37.981  31.596  31.271  1.00  0.00     0.031 C 
ATOM     43  C   UNL A   1      39.751  28.682  27.578  1.00  0.00     0.029 A 
ATOM     44  N   UNL A   1      40.852  28.667  29.527  1.00  0.00    -0.354 N 
ATOM     45  C   UNL A   1      39.478  30.986  32.890  1.00  0.00     0.074 A 
ATOM     46  C   UNL A   1      38.358  31.824  32.521  1.00  0.00     0.031 C 
ATOM     47  C   UNL A   1      40.793  27.841  27.450  1.00  0.00     0.029 A 
ATOM     48  C   UNL A   1      41.534  27.799  28.710  1.00  0.00     0.049 A 
ATOM     49  H   UNL A   1      41.125  28.862  30.452  1.00  0.00     0.167 HD
ATOM     50  C   UNL A   1      40.037  30.960  34.124  1.00  0.00     0.037 A 
ATOM     51  C   UNL A   1      42.624  27.047  28.957  1.00  0.00     0.037 A 
ATOM     52  C   UNL A   1      41.140  30.118  34.503  1.00  0.00     0.049 A 
ATOM     53  C   UNL A   1      43.231  27.044  30.338  1.00  0.00     0.074 A 
ATOM     54  C   UNL A   1      41.734  29.980  35.746  1.00  0.00     0.029 A 
ATOM     55  N   UNL A   1      41.821  29.275  33.639  1.00  0.00    -0.354 N 
ATOM     56  N   UNL A   1      42.845  27.683  31.415  1.00  0.00    -0.248 NA
ATOM     57  C   UNL A   1      44.415  26.197  30.539  1.00  0.00     0.031 C 
ATOM     58  C   UNL A   1      42.806  29.091  35.623  1.00  0.00     0.029 A 
ATOM     59  C   UNL A   1      42.851  28.640  34.314  1.00  0.00     0.049 A 
ATOM     60  H   UNL A   1      41.606  29.148  32.687  1.00  0.00     0.167 HD
ATOM     61  C   UNL A   1      43.722  27.301  32.421  1.00  0.00     0.074 A 
ATOM     62  C   UNL A   1      44.644  26.353  31.834  1.00  0.00     0.031 C 
ATOM     63  C   UNL A   1      43.764  27.701  33.716  1.00  0.00     0.037 A 
BRANCH  50  64
ATOM     64  C   UNL A   1      39.473  31.880  35.164  1.00  0.00     0.064 A 
ATOM     65  C   UNL A   1      38.588  31.420  36.150  1.00  0.00     0.173 A 
ATOM     66  C   UNL A   1      39.877  33.223  35.215  1.00  0.00     0.173 A 
ATOM     67  F   UNL A   1      38.165  30.147  36.138  1.00  0.00    -0.203 F 
ATOM     68  C   UNL A   1      38.117  32.276  37.143  1.00  0.00     0.198 A 
ATOM     69  C   UNL A   1      39.423  34.069  36.223  1.00  0.00     0.198 A 
ATOM     70  F   UNL A   1      40.726  33.708  34.297  1.00  0.00    -0.203 F 
ATOM     71  F   UNL A   1      37.253  31.824  38.062  1.00  0.00    -0.200 F 
ATOM     72  C   UNL A   1      38.542  33.596  37.184  1.00  0.00     0.200 A 
ATOM     73  F   UNL A   1      39.842  35.341  36.267  1.00  0.00    -0.200 F 
ATOM     74  F   UNL A   1      38.100  34.414  38.150  1.00  0.00    -0.200 F 
ENDBRANCH  50  64
BRANCH  51  75
ATOM     75  C   UNL A   1      43.218  26.220  27.875  1.00  0.00     0.064 A 
ATOM     76  C   UNL A   1      44.049  26.783  26.897  1.00  0.00     0.173 A 
ATOM     77  C   UNL A   1      42.926  24.851  27.774  1.00  0.00     0.173 A 
ATOM     78  F   UNL A   1      44.336  28.093  26.936  1.00  0.00    -0.203 F 
ATOM     79  C   UNL A   1      44.543  26.015  25.844  1.00  0.00     0.198 A 
ATOM     80  C   UNL A   1      43.443  24.079  26.737  1.00  0.00     0.198 A 
ATOM     81  F   UNL A   1      42.135  24.264  28.684  1.00  0.00    -0.203 F 
ATOM     82  F   UNL A   1      45.288  26.591  24.891  1.00  0.00    -0.200 F 
ATOM     83  C   UNL A   1      44.243  24.664  25.766  1.00  0.00     0.200 A 
ATOM     84  F   UNL A   1      43.158  22.772  26.672  1.00  0.00    -0.200 F 
ATOM     85  F   UNL A   1      44.712  23.928  24.751  1.00  0.00    -0.200 F 
ENDBRANCH  51  75
BRANCH  63  86
ATOM     86  C   UNL A   1      44.833  27.105  34.586  1.00  0.00     0.064 A 
ATOM     87  C   UNL A   1      44.635  25.892  35.262  1.00  0.00     0.173 A 
ATOM     88  C   UNL A   1      46.074  27.744  34.731  1.00  0.00     0.173 A 
ATOM     89  F   UNL A   1      43.462  25.250  35.166  1.00  0.00    -0.203 F 
ATOM     90  C   UNL A   1      45.629  25.357  36.078  1.00  0.00     0.198 A 
ATOM     91  C   UNL A   1      47.075  27.190  35.525  1.00  0.00     0.198 A 
ATOM     92  F   UNL A   1      46.318  28.901  34.100  1.00  0.00    -0.203 F 
ATOM     93  F   UNL A   1      45.397  24.225  36.757  1.00  0.00    -0.200 F 
ATOM     94  C   UNL A   1      46.848  26.003  36.205  1.00  0.00     0.200 A 
ATOM     95  F   UNL A   1      48.258  27.810  35.638  1.00  0.00    -0.200 F 
ATOM     96  F   UNL A   1      47.802  25.487  36.992  1.00  0.00    -0.200 F 
ENDBRANCH  63  86
ENDBRANCH  37  38
ENDBRANCH  30  32
ENDBRANCH  29  30
ENDBRANCH  28  29
ENDBRANCH  27  28
ENDBRANCH  26  27
ENDBRANCH   1  26
TORSDOF 19
ENDMDL
MODEL 2
REMARK VINA RESULT:     -11.8      2.472      4.648
REMARK SMILES CC(C)(C)OC(=O)N1CCC[C@](Cc2ccccc2)(C(=O)OCCOCCOC(=O)c2ccc(-c3c4nc(c(-c5c(F)c(F)c(F)c(F)c5F)c5ccc([nH]5)c(-c5c(F)c(F)c(F)c(F)c5F)c5nc(c(-c6c(F)c(F)c(F)c(F)c6F)c6ccc3[nH]6)C=C5)C=C4)cc2)C1
REMARK SMILES IDX 24 1 23 2 22 3 20 4 21 5 12 6 8 7 9 8 94 9 10 10 11 11 6 12
REMARK SMILES IDX 7 13 5 14 2 15 1 16 3 17 4 18 13 19 14 20 15 21 19 22 16 23
REMARK SMILES IDX 18 24 17 25 25 26 26 27 27 28 28 29 29 30 30 31 31 32 32 33
REMARK SMILES IDX 93 34 33 35 92 36 34 37 35 38 36 39 86 40 37 41 91 42 85 43
REMARK SMILES IDX 87 44 38 45 90 46 84 47 83 48 39 50 71 51 51 52 70 53 52 54
REMARK SMILES IDX 55 55 69 56 88 57 53 58 54 59 68 61 89 62 56 63 40 64 41 65
REMARK SMILES IDX 49 66 42 67 43 68 47 69 50 70 44 71 45 72 48 73 46 74 72 75
REMARK SMILES IDX 73 76 81 77 74 78 75 79 79 80 82 81 76 82 77 83 80 84 78 85
REMARK SMILES IDX 57 86 58 87 66 88 59 89 60 90 64 91 67 92 61 93 62 94 65 95
REMARK SMILES IDX 63 96
REMARK H PARENT 87 49 55 60
REMARK Flexibility Score: inf
ROOT
ATOM      1  C   UNL A   1      33.101  30.649  27.220  1.00  0.00     0.202 C 
ENDROOT
BRANCH   1   2
ATOM      2  C   UNL A   1      33.470  29.208  26.859  1.00  0.00     0.261 C 
BRANCH   2   3
ATOM      3  O   UNL A   1      32.468  28.561  26.044  1.00  0.00    -0.463 OA
BRANCH   3   4
ATOM      4  C   UNL A   1      31.877  27.472  26.599  1.00  0.00     0.314 C 
ATOM      5  O   UNL A   1      31.305  27.505  27.685  1.00  0.00    -0.252 OA
BRANCH   4   6
ATOM      6  C   UNL A   1      31.925  26.206  25.720  1.00  0.00     0.090 C 
ATOM      7  N   UNL A   1      31.137  26.967  23.438  1.00  0.00    -0.307 N 
ATOM      8  C   UNL A   1      29.943  26.147  23.503  1.00  0.00     0.123 C 
ATOM      9  C   UNL A   1      32.283  26.535  24.243  1.00  0.00     0.142 C 
ATOM     10  C   UNL A   1      29.465  26.038  24.933  1.00  0.00     0.023 C 
ATOM     11  C   UNL A   1      30.562  25.473  25.836  1.00  0.00     0.023 C 
BRANCH   7  12
ATOM     12  C   UNL A   1      31.175  28.003  22.523  1.00  0.00     0.410 C 
ATOM     13  O   UNL A   1      32.206  28.595  22.226  1.00  0.00    -0.224 OA
BRANCH  12  14
ATOM     14  O   UNL A   1      29.939  28.332  22.074  1.00  0.00    -0.444 OA
BRANCH  14  15
ATOM     15  C   UNL A   1      29.231  29.506  22.561  1.00  0.00     0.106 C 
ATOM     16  C   UNL A   1      27.820  29.001  22.896  1.00  0.00     0.056 C 
ATOM     17  C   UNL A   1      29.157  30.529  21.425  1.00  0.00     0.056 C 
ATOM     18  C   UNL A   1      29.814  30.138  23.835  1.00  0.00     0.056 C 
ENDBRANCH  14  15
ENDBRANCH  12  14
ENDBRANCH   7  12
BRANCH   6  19
ATOM     19  C   UNL A   1      33.074  25.366  26.382  1.00  0.00     0.056 C 
BRANCH  19  20
ATOM     20  C   UNL A   1      33.759  24.299  25.561  1.00  0.00    -0.047 A 
ATOM     21  C   UNL A   1      35.084  24.485  25.136  1.00  0.00     0.004 A 
ATOM     22  C   UNL A   1      33.080  23.140  25.168  1.00  0.00     0.004 A 
ATOM     23  C   UNL A   1      35.723  23.522  24.355  1.00  0.00     0.000 A 
ATOM     24  C   UNL A   1      33.723  22.174  24.395  1.00  0.00     0.000 A 
ATOM     25  C   UNL A   1      35.043  22.364  23.990  1.00  0.00     0.000 A 
ENDBRANCH  19  20
ENDBRANCH   6  19
ENDBRANCH   4   6
ENDBRANCH   3   4
ENDBRANCH   2   3
ENDBRANCH   1   2
BRANCH   1  26
ATOM     26  O   UNL A   1      31.734  31.015  27.032  1.00  0.00    -0.374 OA
BRANCH  26  27
ATOM     27  C   UNL A   1      31.477  32.381  26.710  1.00  0.00     0.202 C 
BRANCH  27  28
ATOM     28  C   UNL A   1      32.541  33.376  27.190  1.00  0.00     0.261 C 
BRANCH  28  29
ATOM     29  O   UNL A   1      32.299  33.779  28.551  1.00  0.00    -0.460 OA
BRANCH  29  30
ATOM     30  C   UNL A   1      33.275  34.548  29.089  1.00  0.00     0.338 C 
ATOM     31  O   UNL A   1      33.155  35.672  29.550  1.00  0.00    -0.246 OA
BRANCH  30  32
ATOM     32  C   UNL A   1      34.529  33.780  29.233  1.00  0.00     0.060 A 
ATOM     33  C   UNL A   1      34.476  32.655  30.063  1.00  0.00     0.016 A 
ATOM     34  C   UNL A   1      35.737  34.171  28.652  1.00  0.00     0.016 A 
ATOM     35  C   UNL A   1      35.643  31.973  30.389  1.00  0.00     0.010 A 
ATOM     36  C   UNL A   1      36.916  33.483  28.983  1.00  0.00     0.010 A 
ATOM     37  C   UNL A   1      36.880  32.415  29.897  1.00  0.00    -0.014 A 
BRANCH  37  38
ATOM     38  C   UNL A   1      38.107  31.834  30.496  1.00  0.00     0.031 A 
ATOM     39  C   UNL A   1      38.489  32.218  31.901  1.00  0.00     0.074 A 
ATOM     40  C   UNL A   1      38.801  30.878  29.851  1.00  0.00     0.049 A 
ATOM     41  N   UNL A   1      39.393  31.692  32.691  1.00  0.00    -0.248 NA
ATOM     42  C   UNL A   1      37.750  33.341  32.502  1.00  0.00     0.031 C 
ATOM     43  C   UNL A   1      38.534  30.413  28.493  1.00  0.00     0.029 A 
ATOM     44  N   UNL A   1      39.859  30.110  30.271  1.00  0.00    -0.354 N 
ATOM     45  C   UNL A   1      39.323  32.410  33.878  1.00  0.00     0.074 A 
ATOM     46  C   UNL A   1      38.317  33.432  33.697  1.00  0.00     0.031 C 
ATOM     47  C   UNL A   1      39.399  29.430  28.192  1.00  0.00     0.029 A 
ATOM     48  C   UNL A   1      40.279  29.197  29.336  1.00  0.00     0.049 A 
ATOM     49  H   UNL A   1      40.276  30.204  31.157  1.00  0.00     0.167 HD
ATOM     50  C   UNL A   1      40.024  32.223  35.021  1.00  0.00     0.037 A 
ATOM     51  C   UNL A   1      41.255  28.270  29.403  1.00  0.00     0.037 A 
ATOM     52  C   UNL A   1      41.015  31.197  35.213  1.00  0.00     0.049 A 
ATOM     53  C   UNL A   1      42.026  28.091  30.687  1.00  0.00     0.074 A 
ATOM     54  C   UNL A   1      41.734  30.895  36.358  1.00  0.00     0.029 A 
ATOM     55  N   UNL A   1      41.434  30.312  34.233  1.00  0.00    -0.354 N 
ATOM     56  N   UNL A   1      41.891  28.716  31.831  1.00  0.00    -0.248 NA
ATOM     57  C   UNL A   1      43.073  27.058  30.692  1.00  0.00     0.031 C 
ATOM     58  C   UNL A   1      42.623  29.858  36.056  1.00  0.00     0.029 A 
ATOM     59  C   UNL A   1      42.425  29.484  34.736  1.00  0.00     0.049 A 
ATOM     60  H   UNL A   1      41.080  30.277  33.315  1.00  0.00     0.167 HD
ATOM     61  C   UNL A   1      42.816  28.142  32.692  1.00  0.00     0.074 A 
ATOM     62  C   UNL A   1      43.489  27.099  31.949  1.00  0.00     0.031 C 
ATOM     63  C   UNL A   1      43.089  28.452  33.984  1.00  0.00     0.037 A 
BRANCH  50  64
ATOM     64  C   UNL A   1      39.756  33.155  36.164  1.00  0.00     0.064 A 
ATOM     65  C   UNL A   1      40.434  34.376  36.291  1.00  0.00     0.173 A 
ATOM     66  C   UNL A   1      38.760  32.853  37.104  1.00  0.00     0.173 A 
ATOM     67  F   UNL A   1      41.401  34.706  35.422  1.00  0.00    -0.203 F 
ATOM     68  C   UNL A   1      40.133  35.256  37.328  1.00  0.00     0.198 A 
ATOM     69  C   UNL A   1      38.446  33.745  38.125  1.00  0.00     0.198 A 
ATOM     70  F   UNL A   1      38.081  31.699  37.022  1.00  0.00    -0.203 F 
ATOM     71  F   UNL A   1      40.809  36.407  37.447  1.00  0.00    -0.200 F 
ATOM     72  C   UNL A   1      39.133  34.944  38.238  1.00  0.00     0.200 A 
ATOM     73  F   UNL A   1      37.473  33.447  38.997  1.00  0.00    -0.200 F 
ATOM     74  F   UNL A   1      38.834  35.799  39.226  1.00  0.00    -0.200 F 
ENDBRANCH  50  64
BRANCH  51  75
ATOM     75  C   UNL A   1      41.563  27.427  28.219  1.00  0.00     0.064 A 
ATOM     76  C   UNL A   1      42.460  27.855  27.230  1.00  0.00     0.173 A 
ATOM     77  C   UNL A   1      40.927  26.190  28.032  1.00  0.00     0.173 A 
ATOM     78  F   UNL A   1      43.074  29.041  27.351  1.00  0.00    -0.203 F 
ATOM     79  C   UNL A   1      42.688  27.091  26.087  1.00  0.00     0.198 A 
ATOM     80  C   UNL A   1      41.176  25.416  26.903  1.00  0.00     0.198 A 
ATOM     81  F   UNL A   1      40.059  25.737  28.948  1.00  0.00    -0.203 F 
ATOM     82  F   UNL A   1      43.507  27.550  25.131  1.00  0.00    -0.200 F 
ATOM     83  C   UNL A   1      42.049  25.871  25.926  1.00  0.00     0.200 A 
ATOM     84  F   UNL A   1      40.564  24.233  26.756  1.00  0.00    -0.200 F 
ATOM     85  F   UNL A   1      42.263  25.140  24.824  1.00  0.00    -0.200 F 
ENDBRANCH  51  75
BRANCH  63  86
ATOM     86  C   UNL A   1      44.149  27.646  34.676  1.00  0.00     0.064 A 
ATOM     87  C   UNL A   1      45.485  28.077  34.719  1.00  0.00     0.173 A 
ATOM     88  C   UNL A   1      43.826  26.442  35.319  1.00  0.00     0.173 A 
ATOM     89  F   UNL A   1      45.846  29.215  34.109  1.00  0.00    -0.203 F 
ATOM     90  C   UNL A   1      46.462  27.314  35.352  1.00  0.00     0.198 A 
ATOM     91  C   UNL A   1      44.802  25.696  35.974  1.00  0.00     0.198 A 
ATOM     92  F   UNL A   1      42.564  25.990  35.315  1.00  0.00    -0.203 F 
ATOM     93  F   UNL A   1      47.740  27.718  35.332  1.00  0.00    -0.200 F 
ATOM     94  C   UNL A   1      46.120  26.128  35.982  1.00  0.00     0.200 A 
ATOM     95  F   UNL A   1      44.468  24.555  36.594  1.00  0.00    -0.200 F 
ATOM     96  F   UNL A   1      47.063  25.394  36.589  1.00  0.00    -0.200 F 
ENDBRANCH  63  86
ENDBRANCH  37  38
ENDBRANCH  30  32
ENDBRANCH  29  30
ENDBRANCH  28  29
ENDBRANCH  27  28
ENDBRANCH  26  27
ENDBRANCH   1  26
TORSDOF 19
ENDMDL
MODEL 3
REMARK VINA RESULT:     -11.7      2.637      5.223
REMARK SMILES CC(C)(C)OC(=O)N1CCC[C@](Cc2ccccc2)(C(=O)OCCOCCOC(=O)c2ccc(-c3c4nc(c(-c5c(F)c(F)c(F)c(F)c5F)c5ccc([nH]5)c(-c5c(F)c(F)c(F)c(F)c5F)c5nc(c(-c6c(F)c(F)c(F)c(F)c6F)c6ccc3[nH]6)C=C5)C=C4)cc2)C1
REMARK SMILES IDX 24 1 23 2 22 3 20 4 21 5 12 6 8 7 9 8 94 9 10 10 11 11 6 12
REMARK SMILES IDX 7 13 5 14 2 15 1 16 3 17 4 18 13 19 14 20 15 21 19 22 16 23
REMARK SMILES IDX 18 24 17 25 25 26 26 27 27 28 28 29 29 30 30 31 31 32 32 33
REMARK SMILES IDX 93 34 33 35 92 36 34 37 35 38 36 39 86 40 37 41 91 42 85 43
REMARK SMILES IDX 87 44 38 45 90 46 84 47 83 48 39 50 71 51 51 52 70 53 52 54
REMARK SMILES IDX 55 55 69 56 88 57 53 58 54 59 68 61 89 62 56 63 40 64 41 65
REMARK SMILES IDX 49 66 42 67 43 68 47 69 50 70 44 71 45 72 48 73 46 74 72 75
REMARK SMILES IDX 73 76 81 77 74 78 75 79 79 80 82 81 76 82 77 83 80 84 78 85
REMARK SMILES IDX 57 86 58 87 66 88 59 89 60 90 64 91 67 92 61 93 62 94 65 95
REMARK SMILES IDX 63 96
REMARK H PARENT 87 49 55 60
REMARK Flexibility Score: inf
ROOT
ATOM      1  C   UNL A   1      33.418  28.857  26.871  1.00  0.00     0.202 C 
ENDROOT
BRANCH   1   2
ATOM      2  C   UNL A   1      31.892  28.743  26.928  1.00  0.00     0.261 C 
BRANCH   2   3
ATOM      3  O   UNL A   1      31.271  28.893  25.632  1.00  0.00    -0.463 OA
BRANCH   3   4
ATOM      4  C   UNL A   1      30.951  27.735  25.000  1.00  0.00     0.314 C 
ATOM      5  O   UNL A   1      30.702  26.694  25.601  1.00  0.00    -0.252 OA
BRANCH   4   6
ATOM      6  C   UNL A   1      30.858  27.855  23.465  1.00  0.00     0.090 C 
ATOM      7  N   UNL A   1      32.545  26.190  22.577  1.00  0.00    -0.307 N 
ATOM      8  C   UNL A   1      33.376  27.233  22.008  1.00  0.00     0.123 C 
ATOM      9  C   UNL A   1      31.124  26.497  22.757  1.00  0.00     0.142 C 
ATOM     10  C   UNL A   1      33.295  28.482  22.856  1.00  0.00     0.023 C 
ATOM     11  C   UNL A   1      31.848  28.956  22.997  1.00  0.00     0.023 C 
BRANCH   7  12
ATOM     12  C   UNL A   1      33.102  24.939  22.775  1.00  0.00     0.410 C 
ATOM     13  O   UNL A   1      33.807  24.383  21.941  1.00  0.00    -0.224 OA
BRANCH  12  14
ATOM     14  O   UNL A   1      32.703  24.383  23.946  1.00  0.00    -0.444 OA
BRANCH  14  15
ATOM     15  C   UNL A   1      33.608  24.240  25.076  1.00  0.00     0.106 C 
ATOM     16  C   UNL A   1      32.707  23.827  26.249  1.00  0.00     0.056 C 
ATOM     17  C   UNL A   1      34.238  25.604  25.364  1.00  0.00     0.056 C 
ATOM     18  C   UNL A   1      34.687  23.156  24.915  1.00  0.00     0.056 C 
ENDBRANCH  14  15
ENDBRANCH  12  14
ENDBRANCH   7  12
BRANCH   6  19
ATOM     19  C   UNL A   1      29.371  28.304  23.240  1.00  0.00     0.056 C 
BRANCH  19  20
ATOM     20  C   UNL A   1      29.099  29.727  22.816  1.00  0.00    -0.047 A 
ATOM     21  C   UNL A   1      29.131  30.760  23.766  1.00  0.00     0.004 A 
ATOM     22  C   UNL A   1      28.764  30.037  21.493  1.00  0.00     0.004 A 
ATOM     23  C   UNL A   1      28.856  32.076  23.397  1.00  0.00     0.000 A 
ATOM     24  C   UNL A   1      28.499  31.355  21.123  1.00  0.00     0.000 A 
ATOM     25  C   UNL A   1      28.546  32.374  22.073  1.00  0.00     0.000 A 
ENDBRANCH  19  20
ENDBRANCH   6  19
ENDBRANCH   4   6
ENDBRANCH   3   4
ENDBRANCH   2   3
ENDBRANCH   1   2
BRANCH   1  26
ATOM     26  O   UNL A   1      33.956  30.174  26.992  1.00  0.00    -0.374 OA
BRANCH  26  27
ATOM     27  C   UNL A   1      33.030  31.217  27.291  1.00  0.00     0.202 C 
BRANCH  27  28
ATOM     28  C   UNL A   1      33.658  32.526  27.785  1.00  0.00     0.261 C 
BRANCH  28  29
ATOM     29  O   UNL A   1      32.662  33.555  27.938  1.00  0.00    -0.460 OA
BRANCH  29  30
ATOM     30  C   UNL A   1      33.085  34.647  28.619  1.00  0.00     0.338 C 
ATOM     31  O   UNL A   1      32.505  35.716  28.726  1.00  0.00    -0.246 OA
BRANCH  30  32
ATOM     32  C   UNL A   1      34.295  34.337  29.408  1.00  0.00     0.060 A 
ATOM     33  C   UNL A   1      35.522  34.624  28.800  1.00  0.00     0.016 A 
ATOM     34  C   UNL A   1      34.256  33.718  30.659  1.00  0.00     0.016 A 
ATOM     35  C   UNL A   1      36.709  34.213  29.396  1.00  0.00     0.010 A 
ATOM     36  C   UNL A   1      35.455  33.300  31.258  1.00  0.00     0.010 A 
ATOM     37  C   UNL A   1      36.682  33.498  30.601  1.00  0.00    -0.014 A 
BRANCH  37  38
ATOM     38  C   UNL A   1      37.939  32.842  31.042  1.00  0.00     0.031 A 
ATOM     39  C   UNL A   1      38.601  33.306  32.313  1.00  0.00     0.074 A 
ATOM     40  C   UNL A   1      38.415  31.762  30.395  1.00  0.00     0.049 A 
ATOM     41  N   UNL A   1      39.579  32.758  32.989  1.00  0.00    -0.248 NA
ATOM     42  C   UNL A   1      38.088  34.552  32.906  1.00  0.00     0.031 C 
ATOM     43  C   UNL A   1      37.867  31.210  29.160  1.00  0.00     0.029 A 
ATOM     44  N   UNL A   1      39.456  30.924  30.709  1.00  0.00    -0.354 N 
ATOM     45  C   UNL A   1      39.791  33.582  34.087  1.00  0.00     0.074 A 
ATOM     46  C   UNL A   1      38.866  34.688  33.971  1.00  0.00     0.031 C 
ATOM     47  C   UNL A   1      38.570  30.114  28.823  1.00  0.00     0.029 A 
ATOM     48  C   UNL A   1      39.616  29.890  29.820  1.00  0.00     0.049 A 
ATOM     49  H   UNL A   1      40.033  31.051  31.496  1.00  0.00     0.167 HD
ATOM     50  C   UNL A   1      40.665  33.423  35.108  1.00  0.00     0.037 A 
ATOM     51  C   UNL A   1      40.499  28.873  29.819  1.00  0.00     0.037 A 
ATOM     52  C   UNL A   1      41.577  32.317  35.238  1.00  0.00     0.049 A 
ATOM     53  C   UNL A   1      41.468  28.726  30.966  1.00  0.00     0.074 A 
ATOM     54  C   UNL A   1      42.458  32.041  36.270  1.00  0.00     0.029 A 
ATOM     55  N   UNL A   1      41.729  31.307  34.302  1.00  0.00    -0.354 N 
ATOM     56  N   UNL A   1      41.599  29.462  32.042  1.00  0.00    -0.248 NA
ATOM     57  C   UNL A   1      42.400  27.590  30.904  1.00  0.00     0.031 C 
ATOM     58  C   UNL A   1      43.179  30.891  35.935  1.00  0.00     0.029 A 
ATOM     59  C   UNL A   1      42.714  30.425  34.715  1.00  0.00     0.049 A 
ATOM     60  H   UNL A   1      41.215  31.229  33.466  1.00  0.00     0.167 HD
ATOM     61  C   UNL A   1      42.608  28.870  32.791  1.00  0.00     0.074 A 
ATOM     62  C   UNL A   1      43.037  27.698  32.060  1.00  0.00     0.031 C 
ATOM     63  C   UNL A   1      43.135  29.263  33.977  1.00  0.00     0.037 A 
BRANCH  50  64
ATOM     64  C   UNL A   1      40.693  34.478  36.173  1.00  0.00     0.064 A 
ATOM     65  C   UNL A   1      39.816  34.442  37.266  1.00  0.00     0.173 A 
ATOM     66  C   UNL A   1      41.655  35.498  36.132  1.00  0.00     0.173 A 
ATOM     67  F   UNL A   1      38.873  33.491  37.345  1.00  0.00    -0.203 F 
ATOM     68  C   UNL A   1      39.893  35.398  38.276  1.00  0.00     0.198 A 
ATOM     69  C   UNL A   1      41.744  36.439  37.154  1.00  0.00     0.198 A 
ATOM     70  F   UNL A   1      42.520  35.572  35.109  1.00  0.00    -0.203 F 
ATOM     71  F   UNL A   1      39.029  35.361  39.300  1.00  0.00    -0.200 F 
ATOM     72  C   UNL A   1      40.862  36.390  38.223  1.00  0.00     0.200 A 
ATOM     73  F   UNL A   1      42.687  37.390  37.108  1.00  0.00    -0.200 F 
ATOM     74  F   UNL A   1      40.944  37.300  39.204  1.00  0.00    -0.200 F 
ENDBRANCH  50  64
BRANCH  51  75
ATOM     75  C   UNL A   1      40.511  27.898  28.698  1.00  0.00     0.064 A 
ATOM     76  C   UNL A   1      41.228  28.149  27.519  1.00  0.00     0.173 A 
ATOM     77  C   UNL A   1      39.763  26.713  28.768  1.00  0.00     0.173 A 
ATOM     78  F   UNL A   1      41.936  29.281  27.394  1.00  0.00    -0.203 F 
ATOM     79  C   UNL A   1      41.174  27.264  26.444  1.00  0.00     0.198 A 
ATOM     80  C   UNL A   1      39.733  25.817  27.703  1.00  0.00     0.198 A 
ATOM     81  F   UNL A   1      39.059  26.428  29.873  1.00  0.00    -0.203 F 
ATOM     82  F   UNL A   1      41.823  27.555  25.308  1.00  0.00    -0.200 F 
ATOM     83  C   UNL A   1      40.430  26.097  26.537  1.00  0.00     0.200 A 
ATOM     84  F   UNL A   1      39.021  24.686  27.802  1.00  0.00    -0.200 F 
ATOM     85  F   UNL A   1      40.374  25.251  25.501  1.00  0.00    -0.200 F 
ENDBRANCH  51  75
BRANCH  63  86
ATOM     86  C   UNL A   1      44.224  28.411  34.561  1.00  0.00     0.064 A 
ATOM     87  C   UNL A   1      43.933  27.325  35.401  1.00  0.00     0.173 A 
ATOM     88  C   UNL A   1      45.571  28.671  34.265  1.00  0.00     0.173 A 
ATOM     89  F   UNL A   1      42.662  27.044  35.724  1.00  0.00    -0.203 F 
ATOM     90  C   UNL A   1      44.953  26.552  35.949  1.00  0.00     0.198 A 
ATOM     91  C   UNL A   1      46.585  27.877  34.793  1.00  0.00     0.198 A 
ATOM     92  F   UNL A   1      45.903  29.692  33.461  1.00  0.00    -0.203 F 
ATOM     93  F   UNL A   1      44.654  25.554  36.793  1.00  0.00    -0.200 F 
ATOM     94  C   UNL A   1      46.276  26.824  35.641  1.00  0.00     0.200 A 
ATOM     95  F   UNL A   1      47.864  28.135  34.485  1.00  0.00    -0.200 F 
ATOM     96  F   UNL A   1      47.256  26.080  36.171  1.00  0.00    -0.200 F 
ENDBRANCH  63  86
ENDBRANCH  37  38
ENDBRANCH  30  32
ENDBRANCH  29  30
ENDBRANCH  28  29
ENDBRANCH  27  28
ENDBRANCH  26  27
ENDBRANCH   1  26
TORSDOF 19
ENDMDL
