MODEL 1
REMARK VINA RESULT:     -12.1      0.000      0.000
REMARK SMILES Cc1cccc(-c2cc(C(=O)OCCOCCOC(=O)c3ccc(-c4c5nc(c(-c6c(F)c(F)c(F)c(F)c6F)c6ccc([nH]6)c(-c6c(F)c(F)c(F)c(F)c6F)c6nc(c(-c7c(F)c(F)c(F)c(F)c7F)c7ccc4[nH]7)C=C6)C=C5)cc3)ccn2)c1
REMARK SMILES IDX 16 1 15 2 14 3 13 4 12 5 10 6 11 7 9 8 7 9 8 10 86 11 85 12
REMARK SMILES IDX 84 13 6 14 1 15 2 16 3 17 87 18 4 19 5 20 17 21 18 22 19 23
REMARK SMILES IDX 20 24 21 25 22 26 83 27 23 28 82 29 24 30 25 31 26 32 76 33
REMARK SMILES IDX 27 34 81 35 75 36 77 37 28 38 80 39 74 40 73 41 29 43 61 44
REMARK SMILES IDX 41 45 60 46 42 47 45 48 59 49 78 50 43 51 44 52 58 54 79 55
REMARK SMILES IDX 46 56 30 57 31 58 39 59 32 60 33 61 37 62 40 63 34 64 35 65
REMARK SMILES IDX 38 66 36 67 62 68 63 69 71 70 64 71 65 72 69 73 72 74 66 75
REMARK SMILES IDX 67 76 70 77 68 78 47 79 48 80 56 81 49 82 50 83 54 84 57 85
REMARK SMILES IDX 51 86 52 87 55 88 53 89
REMARK H PARENT 77 42 45 53
REMARK Flexibility Score: inf
ROOT
ATOM      1  C   UNL A   1      45.089  19.344  25.414  1.00  0.00     0.202 C 
ENDROOT
BRANCH   1   2
ATOM      2  O   UNL A   1      44.131  18.368  25.071  1.00  0.00    -0.374 OA
BRANCH   2   3
ATOM      3  C   UNL A   1      42.929  18.399  25.811  1.00  0.00     0.202 C 
BRANCH   3   4
ATOM      4  C   UNL A   1      42.788  19.812  26.282  1.00  0.00     0.261 C 
BRANCH   4   5
ATOM      5  O   UNL A   1      41.501  20.052  26.888  1.00  0.00    -0.460 OA
BRANCH   5   6
ATOM      6  C   UNL A   1      40.299  20.073  26.239  1.00  0.00     0.338 C 
ATOM      7  O   UNL A   1      39.741  19.200  25.620  1.00  0.00    -0.246 OA
BRANCH   6   8
ATOM      8  C   UNL A   1      39.724  21.407  26.525  1.00  0.00     0.063 A 
ATOM      9  C   UNL A   1      38.142  23.092  25.896  1.00  0.00     0.071 A 
ATOM     10  C   UNL A   1      38.568  21.781  25.856  1.00  0.00     0.044 A 
ATOM     11  N   UNL A   1      38.800  24.034  26.603  1.00  0.00    -0.256 NA
ATOM     12  C   UNL A   1      39.882  23.626  27.320  1.00  0.00     0.112 A 
ATOM     13  C   UNL A   1      40.383  22.332  27.319  1.00  0.00     0.036 A 
BRANCH   9  14
ATOM     14  C   UNL A   1      36.982  23.441  25.074  1.00  0.00     0.000 A 
ATOM     15  C   UNL A   1      33.716  25.342  25.633  1.00  0.00     0.044 C 
ATOM     16  C   UNL A   1      34.756  24.473  24.994  1.00  0.00    -0.050 A 
ATOM     17  C   UNL A   1      34.519  23.830  23.778  1.00  0.00     0.003 A 
ATOM     18  C   UNL A   1      35.994  24.292  25.613  1.00  0.00     0.013 A 
ATOM     19  C   UNL A   1      35.494  23.002  23.212  1.00  0.00     0.001 A 
ATOM     20  C   UNL A   1      36.718  22.804  23.858  1.00  0.00     0.010 A 
ENDBRANCH   9  14
ENDBRANCH   6   8
ENDBRANCH   5   6
ENDBRANCH   4   5
ENDBRANCH   3   4
ENDBRANCH   2   3
ENDBRANCH   1   2
BRANCH   1  21
ATOM     21  C   UNL A   1      46.102  19.553  24.287  1.00  0.00     0.261 C 
BRANCH  21  22
ATOM     22  O   UNL A   1      46.529  20.936  24.252  1.00  0.00    -0.460 OA
BRANCH  22  23
ATOM     23  C   UNL A   1      45.544  21.874  24.375  1.00  0.00     0.338 C 
ATOM     24  O   UNL A   1      44.580  21.980  23.635  1.00  0.00    -0.246 OA
BRANCH  23  25
ATOM     25  C   UNL A   1      45.957  22.924  25.355  1.00  0.00     0.060 A 
ATOM     26  C   UNL A   1      45.513  22.865  26.694  1.00  0.00     0.016 A 
ATOM     27  C   UNL A   1      46.454  24.116  24.845  1.00  0.00     0.016 A 
ATOM     28  C   UNL A   1      45.399  24.040  27.456  1.00  0.00     0.010 A 
ATOM     29  C   UNL A   1      46.191  25.275  25.537  1.00  0.00     0.010 A 
ATOM     30  C   UNL A   1      45.646  25.260  26.836  1.00  0.00    -0.014 A 
BRANCH  30  31
ATOM     31  C   UNL A   1      45.385  26.605  27.363  1.00  0.00     0.031 A 
ATOM     32  C   UNL A   1      43.976  27.068  27.311  1.00  0.00     0.074 A 
ATOM     33  C   UNL A   1      46.264  27.211  28.202  1.00  0.00     0.049 A 
ATOM     34  N   UNL A   1      43.557  28.174  27.809  1.00  0.00    -0.248 NA
ATOM     35  C   UNL A   1      42.899  26.310  26.675  1.00  0.00     0.031 C 
ATOM     36  C   UNL A   1      45.958  28.106  29.324  1.00  0.00     0.029 A 
ATOM     37  N   UNL A   1      47.662  27.130  28.258  1.00  0.00    -0.354 N 
ATOM     38  C   UNL A   1      42.184  28.126  27.878  1.00  0.00     0.074 A 
ATOM     39  C   UNL A   1      41.821  26.993  27.070  1.00  0.00     0.031 C 
ATOM     40  C   UNL A   1      47.084  28.703  29.753  1.00  0.00     0.029 A 
ATOM     41  C   UNL A   1      48.141  28.318  28.839  1.00  0.00     0.049 A 
ATOM     42  H   UNL A   1      48.211  26.374  27.946  1.00  0.00     0.167 HD
ATOM     43  C   UNL A   1      41.572  29.006  28.724  1.00  0.00     0.037 A 
ATOM     44  C   UNL A   1      48.971  29.143  28.148  1.00  0.00     0.037 A 
ATOM     45  C   UNL A   1      42.561  29.984  29.214  1.00  0.00     0.049 A 
ATOM     46  C   UNL A   1      48.248  30.431  27.907  1.00  0.00     0.074 A 
ATOM     47  C   UNL A   1      43.213  30.167  30.422  1.00  0.00     0.029 A 
ATOM     48  N   UNL A   1      43.269  30.740  28.274  1.00  0.00    -0.354 N 
ATOM     49  N   UNL A   1      46.943  30.500  27.868  1.00  0.00    -0.248 NA
ATOM     50  C   UNL A   1      48.888  31.739  27.849  1.00  0.00     0.031 C 
ATOM     51  C   UNL A   1      44.359  30.983  30.179  1.00  0.00     0.029 A 
ATOM     52  C   UNL A   1      44.394  31.317  28.833  1.00  0.00     0.049 A 
ATOM     53  H   UNL A   1      43.000  30.848  27.334  1.00  0.00     0.167 HD
ATOM     54  C   UNL A   1      46.565  31.804  27.912  1.00  0.00     0.074 A 
ATOM     55  C   UNL A   1      47.813  32.547  27.843  1.00  0.00     0.031 C 
ATOM     56  C   UNL A   1      45.264  32.187  28.044  1.00  0.00     0.037 A 
BRANCH  43  57
ATOM     57  C   UNL A   1      40.151  28.912  29.263  1.00  0.00     0.064 A 
ATOM     58  C   UNL A   1      39.055  29.263  28.439  1.00  0.00     0.173 A 
ATOM     59  C   UNL A   1      39.780  28.554  30.577  1.00  0.00     0.173 A 
ATOM     60  F   UNL A   1      39.228  29.609  27.157  1.00  0.00    -0.203 F 
ATOM     61  C   UNL A   1      37.730  29.281  28.897  1.00  0.00     0.198 A 
ATOM     62  C   UNL A   1      38.455  28.567  31.034  1.00  0.00     0.198 A 
ATOM     63  F   UNL A   1      40.663  28.165  31.494  1.00  0.00    -0.203 F 
ATOM     64  F   UNL A   1      36.744  29.645  28.065  1.00  0.00    -0.200 F 
ATOM     65  C   UNL A   1      37.429  28.936  30.196  1.00  0.00     0.200 A 
ATOM     66  F   UNL A   1      38.191  28.220  32.303  1.00  0.00    -0.200 F 
ATOM     67  F   UNL A   1      36.165  28.954  30.637  1.00  0.00    -0.200 F 
ENDBRANCH  43  57
BRANCH  44  68
ATOM     68  C   UNL A   1      49.896  28.369  27.268  1.00  0.00     0.064 A 
ATOM     69  C   UNL A   1      51.017  27.795  27.910  1.00  0.00     0.173 A 
ATOM     70  C   UNL A   1      49.437  27.740  26.100  1.00  0.00     0.173 A 
ATOM     71  F   UNL A   1      51.488  28.339  29.045  1.00  0.00    -0.203 F 
ATOM     72  C   UNL A   1      51.542  26.568  27.502  1.00  0.00     0.198 A 
ATOM     73  C   UNL A   1      49.963  26.505  25.700  1.00  0.00     0.198 A 
ATOM     74  F   UNL A   1      48.370  28.222  25.448  1.00  0.00    -0.203 F 
ATOM     75  F   UNL A   1      52.492  25.969  28.236  1.00  0.00    -0.200 F 
ATOM     76  C   UNL A   1      50.982  25.903  26.425  1.00  0.00     0.200 A 
ATOM     77  F   UNL A   1      49.406  25.838  24.679  1.00  0.00    -0.200 F 
ATOM     78  F   UNL A   1      51.371  24.651  26.137  1.00  0.00    -0.200 F 
ENDBRANCH  44  68
BRANCH  56  79
ATOM     79  C   UNL A   1      44.736  33.484  27.496  1.00  0.00     0.064 A 
ATOM     80  C   UNL A   1      44.043  33.574  26.276  1.00  0.00     0.173 A 
ATOM     81  C   UNL A   1      44.744  34.659  28.281  1.00  0.00     0.173 A 
ATOM     82  F   UNL A   1      43.826  32.499  25.505  1.00  0.00    -0.203 F 
ATOM     83  C   UNL A   1      43.487  34.770  25.829  1.00  0.00     0.198 A 
ATOM     84  C   UNL A   1      44.115  35.830  27.868  1.00  0.00     0.198 A 
ATOM     85  F   UNL A   1      45.320  34.703  29.490  1.00  0.00    -0.203 F 
ATOM     86  F   UNL A   1      42.897  34.814  24.627  1.00  0.00    -0.200 F 
ATOM     87  C   UNL A   1      43.513  35.894  26.630  1.00  0.00     0.200 A 
ATOM     88  F   UNL A   1      44.077  36.886  28.691  1.00  0.00    -0.200 F 
ATOM     89  F   UNL A   1      42.934  37.028  26.218  1.00  0.00    -0.200 F 
ENDBRANCH  56  79
ENDBRANCH  30  31
ENDBRANCH  23  25
ENDBRANCH  22  23
ENDBRANCH  21  22
ENDBRANCH   1  21
TORSDOF 15
ENDMDL
MODEL 2
REMARK VINA RESULT:     -11.9      4.955     10.380
REMARK SMILES Cc1cccc(-c2cc(C(=O)OCCOCCOC(=O)c3ccc(-c4c5nc(c(-c6c(F)c(F)c(F)c(F)c6F)c6ccc([nH]6)c(-c6c(F)c(F)c(F)c(F)c6F)c6nc(c(-c7c(F)c(F)c(F)c(F)c7F)c7ccc4[nH]7)C=C6)C=C5)cc3)ccn2)c1
REMARK SMILES IDX 16 1 15 2 14 3 13 4 12 5 10 6 11 7 9 8 7 9 8 10 86 11 85 12
REMARK SMILES IDX 84 13 6 14 1 15 2 16 3 17 87 18 4 19 5 20 17 21 18 22 19 23
REMARK SMILES IDX 20 24 21 25 22 26 83 27 23 28 82 29 24 30 25 31 26 32 76 33
REMARK SMILES IDX 27 34 81 35 75 36 77 37 28 38 80 39 74 40 73 41 29 43 61 44
REMARK SMILES IDX 41 45 60 46 42 47 45 48 59 49 78 50 43 51 44 52 58 54 79 55
REMARK SMILES IDX 46 56 30 57 31 58 39 59 32 60 33 61 37 62 40 63 34 64 35 65
REMARK SMILES IDX 38 66 36 67 62 68 63 69 71 70 64 71 65 72 69 73 72 74 66 75
REMARK SMILES IDX 67 76 70 77 68 78 47 79 48 80 56 81 49 82 50 83 54 84 57 85
REMARK SMILES IDX 51 86 52 87 55 88 53 89
REMARK H PARENT 77 42 45 53
REMARK Flexibility Score: inf
ROOT
ATOM      1  C   UNL A   1      32.180  30.127  26.777  1.00  0.00     0.202 C 
ENDROOT
BRANCH   1   2
ATOM      2  O   UNL A   1      31.729  28.886  26.280  1.00  0.00    -0.374 OA
BRANCH   2   3
ATOM      3  C   UNL A   1      32.604  28.224  25.392  1.00  0.00     0.202 C 
BRANCH   3   4
ATOM      4  C   UNL A   1      32.023  28.433  24.030  1.00  0.00     0.261 C 
BRANCH   4   5
ATOM      5  O   UNL A   1      31.938  27.200  23.285  1.00  0.00    -0.460 OA
BRANCH   5   6
ATOM      6  C   UNL A   1      32.956  26.609  22.592  1.00  0.00     0.338 C 
ATOM      7  O   UNL A   1      33.707  27.078  21.772  1.00  0.00    -0.246 OA
BRANCH   6   8
ATOM      8  C   UNL A   1      33.040  25.230  23.124  1.00  0.00     0.063 A 
ATOM      9  C   UNL A   1      34.441  23.492  23.994  1.00  0.00     0.071 A 
ATOM     10  C   UNL A   1      34.228  24.826  23.716  1.00  0.00     0.044 A 
ATOM     11  N   UNL A   1      33.507  22.553  23.740  1.00  0.00    -0.256 NA
ATOM     12  C   UNL A   1      32.317  22.983  23.239  1.00  0.00     0.112 A 
ATOM     13  C   UNL A   1      32.031  24.302  22.917  1.00  0.00     0.036 A 
BRANCH   9  14
ATOM     14  C   UNL A   1      35.761  23.121  24.510  1.00  0.00     0.000 A 
ATOM     15  C   UNL A   1      37.759  19.879  24.809  1.00  0.00     0.044 C 
ATOM     16  C   UNL A   1      37.343  21.308  24.992  1.00  0.00    -0.050 A 
ATOM     17  C   UNL A   1      38.058  22.172  25.821  1.00  0.00     0.003 A 
ATOM     18  C   UNL A   1      36.219  21.799  24.326  1.00  0.00     0.013 A 
ATOM     19  C   UNL A   1      37.637  23.495  25.997  1.00  0.00     0.001 A 
ATOM     20  C   UNL A   1      36.491  23.967  25.349  1.00  0.00     0.010 A 
ENDBRANCH   9  14
ENDBRANCH   6   8
ENDBRANCH   5   6
ENDBRANCH   4   5
ENDBRANCH   3   4
ENDBRANCH   2   3
ENDBRANCH   1   2
BRANCH   1  21
ATOM     21  C   UNL A   1      33.708  30.177  26.847  1.00  0.00     0.261 C 
BRANCH  21  22
ATOM     22  O   UNL A   1      34.128  31.012  27.952  1.00  0.00    -0.460 OA
BRANCH  22  23
ATOM     23  C   UNL A   1      35.437  31.398  27.953  1.00  0.00     0.338 C 
ATOM     24  O   UNL A   1      35.852  32.475  27.559  1.00  0.00    -0.246 OA
BRANCH  23  25
ATOM     25  C   UNL A   1      36.317  30.221  28.225  1.00  0.00     0.060 A 
ATOM     26  C   UNL A   1      36.304  29.597  29.491  1.00  0.00     0.016 A 
ATOM     27  C   UNL A   1      37.383  30.004  27.360  1.00  0.00     0.016 A 
ATOM     28  C   UNL A   1      37.438  28.909  29.955  1.00  0.00     0.010 A 
ATOM     29  C   UNL A   1      38.539  29.470  27.880  1.00  0.00     0.010 A 
ATOM     30  C   UNL A   1      38.593  28.936  29.182  1.00  0.00    -0.014 A 
BRANCH  30  31
ATOM     31  C   UNL A   1      39.936  28.480  29.558  1.00  0.00     0.031 A 
ATOM     32  C   UNL A   1      40.315  27.115  29.114  1.00  0.00     0.074 A 
ATOM     33  C   UNL A   1      40.903  29.365  29.914  1.00  0.00     0.049 A 
ATOM     34  N   UNL A   1      41.476  26.594  29.276  1.00  0.00    -0.248 NA
ATOM     35  C   UNL A   1      39.393  26.200  28.442  1.00  0.00     0.031 C 
ATOM     36  C   UNL A   1      42.343  29.274  29.644  1.00  0.00     0.029 A 
ATOM     37  N   UNL A   1      40.802  30.592  30.581  1.00  0.00    -0.354 N 
ATOM     38  C   UNL A   1      41.571  25.485  28.469  1.00  0.00     0.074 A 
ATOM     39  C   UNL A   1      40.219  25.226  28.051  1.00  0.00     0.031 C 
ATOM     40  C   UNL A   1      43.003  30.198  30.365  1.00  0.00     0.029 A 
ATOM     41  C   UNL A   1      42.028  30.835  31.228  1.00  0.00     0.049 A 
ATOM     42  H   UNL A   1      40.012  31.181  30.596  1.00  0.00     0.167 HD
ATOM     43  C   UNL A   1      42.826  25.025  28.187  1.00  0.00     0.037 A 
ATOM     44  C   UNL A   1      42.086  30.962  32.580  1.00  0.00     0.037 A 
ATOM     45  C   UNL A   1      43.807  25.730  29.032  1.00  0.00     0.049 A 
ATOM     46  C   UNL A   1      42.881  29.814  33.120  1.00  0.00     0.074 A 
ATOM     47  C   UNL A   1      44.743  26.724  28.792  1.00  0.00     0.029 A 
ATOM     48  N   UNL A   1      43.651  25.674  30.420  1.00  0.00    -0.354 N 
ATOM     49  N   UNL A   1      42.979  28.677  32.483  1.00  0.00    -0.248 NA
ATOM     50  C   UNL A   1      43.736  29.883  34.296  1.00  0.00     0.031 C 
ATOM     51  C   UNL A   1      45.089  27.308  30.048  1.00  0.00     0.029 A 
ATOM     52  C   UNL A   1      44.386  26.659  31.053  1.00  0.00     0.049 A 
ATOM     53  H   UNL A   1      43.088  25.017  30.888  1.00  0.00     0.167 HD
ATOM     54  C   UNL A   1      43.964  27.933  33.052  1.00  0.00     0.074 A 
ATOM     55  C   UNL A   1      44.373  28.702  34.216  1.00  0.00     0.031 C 
ATOM     56  C   UNL A   1      44.406  26.764  32.510  1.00  0.00     0.037 A 
BRANCH  43  57
ATOM     57  C   UNL A   1      43.218  24.088  27.053  1.00  0.00     0.064 A 
ATOM     58  C   UNL A   1      42.825  22.729  27.088  1.00  0.00     0.173 A 
ATOM     59  C   UNL A   1      44.021  24.417  25.940  1.00  0.00     0.173 A 
ATOM     60  F   UNL A   1      42.043  22.253  28.066  1.00  0.00    -0.203 F 
ATOM     61  C   UNL A   1      43.223  21.794  26.122  1.00  0.00     0.198 A 
ATOM     62  C   UNL A   1      44.415  23.484  24.972  1.00  0.00     0.198 A 
ATOM     63  F   UNL A   1      44.467  25.651  25.713  1.00  0.00    -0.203 F 
ATOM     64  F   UNL A   1      42.829  20.517  26.231  1.00  0.00    -0.200 F 
ATOM     65  C   UNL A   1      44.021  22.170  25.064  1.00  0.00     0.200 A 
ATOM     66  F   UNL A   1      45.188  23.880  23.949  1.00  0.00    -0.200 F 
ATOM     67  F   UNL A   1      44.404  21.279  24.141  1.00  0.00    -0.200 F 
ENDBRANCH  43  57
BRANCH  44  68
ATOM     68  C   UNL A   1      40.865  31.635  33.115  1.00  0.00     0.064 A 
ATOM     69  C   UNL A   1      40.732  33.006  32.799  1.00  0.00     0.173 A 
ATOM     70  C   UNL A   1      39.683  30.917  33.357  1.00  0.00     0.173 A 
ATOM     71  F   UNL A   1      41.826  33.740  32.534  1.00  0.00    -0.203 F 
ATOM     72  C   UNL A   1      39.482  33.585  32.574  1.00  0.00     0.198 A 
ATOM     73  C   UNL A   1      38.432  31.501  33.122  1.00  0.00     0.198 A 
ATOM     74  F   UNL A   1      39.735  29.610  33.648  1.00  0.00    -0.203 F 
ATOM     75  F   UNL A   1      39.399  34.841  32.109  1.00  0.00    -0.200 F 
ATOM     76  C   UNL A   1      38.336  32.817  32.690  1.00  0.00     0.200 A 
ATOM     77  F   UNL A   1      37.320  30.757  33.200  1.00  0.00    -0.200 F 
ATOM     78  F   UNL A   1      37.152  33.321  32.310  1.00  0.00    -0.200 F 
ENDBRANCH  44  68
BRANCH  56  79
ATOM     79  C   UNL A   1      44.982  25.648  33.338  1.00  0.00     0.064 A 
ATOM     80  C   UNL A   1      46.355  25.345  33.367  1.00  0.00     0.173 A 
ATOM     81  C   UNL A   1      44.186  24.963  34.284  1.00  0.00     0.173 A 
ATOM     82  F   UNL A   1      47.244  26.028  32.632  1.00  0.00    -0.203 F 
ATOM     83  C   UNL A   1      46.877  24.364  34.206  1.00  0.00     0.198 A 
ATOM     84  C   UNL A   1      44.726  24.043  35.178  1.00  0.00     0.198 A 
ATOM     85  F   UNL A   1      42.871  25.191  34.406  1.00  0.00    -0.203 F 
ATOM     86  F   UNL A   1      48.183  24.071  34.142  1.00  0.00    -0.200 F 
ATOM     87  C   UNL A   1      46.066  23.723  35.119  1.00  0.00     0.200 A 
ATOM     88  F   UNL A   1      43.942  23.490  36.113  1.00  0.00    -0.200 F 
ATOM     89  F   UNL A   1      46.581  22.817  35.958  1.00  0.00    -0.200 F 
ENDBRANCH  56  79
ENDBRANCH  30  31
ENDBRANCH  23  25
ENDBRANCH  22  23
ENDBRANCH  21  22
ENDBRANCH   1  21
TORSDOF 15
ENDMDL
MODEL 3
REMARK VINA RESULT:     -11.8      5.055     10.453
REMARK SMILES Cc1cccc(-c2cc(C(=O)OCCOCCOC(=O)c3ccc(-c4c5nc(c(-c6c(F)c(F)c(F)c(F)c6F)c6ccc([nH]6)c(-c6c(F)c(F)c(F)c(F)c6F)c6nc(c(-c7c(F)c(F)c(F)c(F)c7F)c7ccc4[nH]7)C=C6)C=C5)cc3)ccn2)c1
REMARK SMILES IDX 16 1 15 2 14 3 13 4 12 5 10 6 11 7 9 8 7 9 8 10 86 11 85 12
REMARK SMILES IDX 84 13 6 14 1 15 2 16 3 17 87 18 4 19 5 20 17 21 18 22 19 23
REMARK SMILES IDX 20 24 21 25 22 26 83 27 23 28 82 29 24 30 25 31 26 32 76 33
REMARK SMILES IDX 27 34 81 35 75 36 77 37 28 38 80 39 74 40 73 41 29 43 61 44
REMARK SMILES IDX 41 45 60 46 42 47 45 48 59 49 78 50 43 51 44 52 58 54 79 55
REMARK SMILES IDX 46 56 30 57 31 58 39 59 32 60 33 61 37 62 40 63 34 64 35 65
REMARK SMILES IDX 38 66 36 67 62 68 63 69 71 70 64 71 65 72 69 73 72 74 66 75
REMARK SMILES IDX 67 76 70 77 68 78 47 79 48 80 56 81 49 82 50 83 54 84 57 85
REMARK SMILES IDX 51 86 52 87 55 88 53 89
REMARK H PARENT 77 42 45 53
REMARK Flexibility Score: inf
ROOT
ATOM      1  C   UNL A   1      32.303  29.765  25.447  1.00  0.00     0.202 C 
ENDROOT
BRANCH   1   2
ATOM      2  O   UNL A   1      31.259  28.826  25.309  1.00  0.00    -0.374 OA
BRANCH   2   3
ATOM      3  C   UNL A   1      31.658  27.481  25.156  1.00  0.00     0.202 C 
BRANCH   3   4
ATOM      4  C   UNL A   1      30.822  26.705  26.123  1.00  0.00     0.261 C 
BRANCH   4   5
ATOM      5  O   UNL A   1      31.526  25.560  26.647  1.00  0.00    -0.460 OA
BRANCH   5   6
ATOM      6  C   UNL A   1      31.107  24.261  26.581  1.00  0.00     0.338 C 
ATOM      7  O   UNL A   1      30.261  23.689  27.224  1.00  0.00    -0.246 OA
BRANCH   6   8
ATOM      8  C   UNL A   1      31.855  23.667  25.450  1.00  0.00     0.063 A 
ATOM      9  C   UNL A   1      33.991  23.064  24.547  1.00  0.00     0.071 A 
ATOM     10  C   UNL A   1      33.200  23.376  25.632  1.00  0.00     0.044 A 
ATOM     11  N   UNL A   1      33.490  22.995  23.296  1.00  0.00    -0.256 NA
ATOM     12  C   UNL A   1      32.152  23.199  23.153  1.00  0.00     0.112 A 
ATOM     13  C   UNL A   1      31.293  23.534  24.190  1.00  0.00     0.036 A 
BRANCH   9  14
ATOM     14  C   UNL A   1      35.423  22.884  24.796  1.00  0.00     0.000 A 
ATOM     15  C   UNL A   1      37.826  19.915  24.859  1.00  0.00     0.044 C 
ATOM     16  C   UNL A   1      37.281  21.300  25.041  1.00  0.00    -0.050 A 
ATOM     17  C   UNL A   1      38.036  22.303  25.651  1.00  0.00     0.003 A 
ATOM     18  C   UNL A   1      35.995  21.609  24.597  1.00  0.00     0.013 A 
ATOM     19  C   UNL A   1      37.498  23.581  25.834  1.00  0.00     0.001 A 
ATOM     20  C   UNL A   1      36.196  23.870  25.413  1.00  0.00     0.010 A 
ENDBRANCH   9  14
ENDBRANCH   6   8
ENDBRANCH   5   6
ENDBRANCH   4   5
ENDBRANCH   3   4
ENDBRANCH   2   3
ENDBRANCH   1   2
BRANCH   1  21
ATOM     21  C   UNL A   1      32.283  30.422  26.830  1.00  0.00     0.261 C 
BRANCH  21  22
ATOM     22  O   UNL A   1      33.636  30.637  27.297  1.00  0.00    -0.460 OA
BRANCH  22  23
ATOM     23  C   UNL A   1      34.357  29.515  27.591  1.00  0.00     0.338 C 
ATOM     24  O   UNL A   1      33.891  28.395  27.715  1.00  0.00    -0.246 OA
BRANCH  23  25
ATOM     25  C   UNL A   1      35.736  29.892  28.026  1.00  0.00     0.060 A 
ATOM     26  C   UNL A   1      36.759  30.077  27.072  1.00  0.00     0.016 A 
ATOM     27  C   UNL A   1      36.065  29.690  29.360  1.00  0.00     0.016 A 
ATOM     28  C   UNL A   1      38.105  29.877  27.426  1.00  0.00     0.010 A 
ATOM     29  C   UNL A   1      37.361  29.342  29.660  1.00  0.00     0.010 A 
ATOM     30  C   UNL A   1      38.392  29.409  28.703  1.00  0.00    -0.014 A 
BRANCH  30  31
ATOM     31  C   UNL A   1      39.681  28.931  29.216  1.00  0.00     0.031 A 
ATOM     32  C   UNL A   1      40.040  27.529  28.884  1.00  0.00     0.074 A 
ATOM     33  C   UNL A   1      40.650  29.802  29.599  1.00  0.00     0.049 A 
ATOM     34  N   UNL A   1      41.164  26.980  29.172  1.00  0.00    -0.248 NA
ATOM     35  C   UNL A   1      39.142  26.608  28.191  1.00  0.00     0.031 C 
ATOM     36  C   UNL A   1      42.102  29.646  29.457  1.00  0.00     0.029 A 
ATOM     37  N   UNL A   1      40.543  31.071  30.185  1.00  0.00    -0.354 N 
ATOM     38  C   UNL A   1      41.281  25.821  28.441  1.00  0.00     0.074 A 
ATOM     39  C   UNL A   1      39.958  25.584  27.928  1.00  0.00     0.031 C 
ATOM     40  C   UNL A   1      42.737  30.589  30.175  1.00  0.00     0.029 A 
ATOM     41  C   UNL A   1      41.721  31.310  30.916  1.00  0.00     0.049 A 
ATOM     42  H   UNL A   1      39.779  31.686  30.099  1.00  0.00     0.167 HD
ATOM     43  C   UNL A   1      42.534  25.302  28.292  1.00  0.00     0.037 A 
ATOM     44  C   UNL A   1      41.674  31.517  32.258  1.00  0.00     0.037 A 
ATOM     45  C   UNL A   1      43.471  26.023  29.174  1.00  0.00     0.049 A 
ATOM     46  C   UNL A   1      42.376  30.377  32.928  1.00  0.00     0.074 A 
ATOM     47  C   UNL A   1      44.461  26.967  28.957  1.00  0.00     0.029 A 
ATOM     48  N   UNL A   1      43.200  26.057  30.546  1.00  0.00    -0.354 N 
ATOM     49  N   UNL A   1      42.482  29.200  32.369  1.00  0.00    -0.248 NA
ATOM     50  C   UNL A   1      43.135  30.488  34.166  1.00  0.00     0.031 C 
ATOM     51  C   UNL A   1      44.727  27.615  30.201  1.00  0.00     0.029 A 
ATOM     52  C   UNL A   1      43.920  27.052  31.180  1.00  0.00     0.049 A 
ATOM     53  H   UNL A   1      42.576  25.449  31.002  1.00  0.00     0.167 HD
ATOM     54  C   UNL A   1      43.387  28.459  33.060  1.00  0.00     0.074 A 
ATOM     55  C   UNL A   1      43.729  29.283  34.208  1.00  0.00     0.031 C 
ATOM     56  C   UNL A   1      43.825  27.245  32.625  1.00  0.00     0.037 A 
BRANCH  43  57
ATOM     57  C   UNL A   1      42.981  24.285  27.251  1.00  0.00     0.064 A 
ATOM     58  C   UNL A   1      42.625  22.922  27.393  1.00  0.00     0.173 A 
ATOM     59  C   UNL A   1      43.802  24.543  26.132  1.00  0.00     0.173 A 
ATOM     60  F   UNL A   1      41.833  22.508  28.390  1.00  0.00    -0.203 F 
ATOM     61  C   UNL A   1      43.072  21.922  26.519  1.00  0.00     0.198 A 
ATOM     62  C   UNL A   1      44.245  23.544  25.256  1.00  0.00     0.198 A 
ATOM     63  F   UNL A   1      44.219  25.766  25.812  1.00  0.00    -0.203 F 
ATOM     64  F   UNL A   1      42.711  20.647  26.727  1.00  0.00    -0.200 F 
ATOM     65  C   UNL A   1      43.886  22.231  25.451  1.00  0.00     0.200 A 
ATOM     66  F   UNL A   1      45.031  23.875  24.220  1.00  0.00    -0.200 F 
ATOM     67  F   UNL A   1      44.316  21.277  24.616  1.00  0.00    -0.200 F 
ENDBRANCH  43  57
BRANCH  44  68
ATOM     68  C   UNL A   1      40.441  32.262  32.650  1.00  0.00     0.064 A 
ATOM     69  C   UNL A   1      39.422  31.488  33.252  1.00  0.00     0.173 A 
ATOM     70  C   UNL A   1      40.485  33.626  32.978  1.00  0.00     0.173 A 
ATOM     71  F   UNL A   1      39.342  30.172  32.995  1.00  0.00    -0.203 F 
ATOM     72  C   UNL A   1      38.601  32.014  34.251  1.00  0.00     0.198 A 
ATOM     73  C   UNL A   1      39.664  34.146  33.987  1.00  0.00     0.198 A 
ATOM     74  F   UNL A   1      41.433  34.416  32.454  1.00  0.00    -0.203 F 
ATOM     75  F   UNL A   1      37.763  31.208  34.921  1.00  0.00    -0.200 F 
ATOM     76  C   UNL A   1      38.757  33.330  34.650  1.00  0.00     0.200 A 
ATOM     77  F   UNL A   1      39.830  35.409  34.402  1.00  0.00    -0.200 F 
ATOM     78  F   UNL A   1      38.091  33.788  35.721  1.00  0.00    -0.200 F 
ENDBRANCH  44  68
BRANCH  56  79
ATOM     79  C   UNL A   1      44.287  26.162  33.561  1.00  0.00     0.064 A 
ATOM     80  C   UNL A   1      43.432  25.526  34.478  1.00  0.00     0.173 A 
ATOM     81  C   UNL A   1      45.574  25.592  33.431  1.00  0.00     0.173 A 
ATOM     82  F   UNL A   1      42.139  25.864  34.590  1.00  0.00    -0.203 F 
ATOM     83  C   UNL A   1      43.860  24.467  35.274  1.00  0.00     0.198 A 
ATOM     84  C   UNL A   1      45.970  24.481  34.169  1.00  0.00     0.198 A 
ATOM     85  F   UNL A   1      46.475  26.062  32.557  1.00  0.00    -0.203 F 
ATOM     86  F   UNL A   1      43.021  23.943  36.179  1.00  0.00    -0.200 F 
ATOM     87  C   UNL A   1      45.123  23.937  35.111  1.00  0.00     0.200 A 
ATOM     88  F   UNL A   1      47.168  23.928  33.942  1.00  0.00    -0.200 F 
ATOM     89  F   UNL A   1      45.513  22.887  35.844  1.00  0.00    -0.200 F 
ENDBRANCH  56  79
ENDBRANCH  30  31
ENDBRANCH  23  25
ENDBRANCH  22  23
ENDBRANCH  21  22
ENDBRANCH   1  21
TORSDOF 15
ENDMDL
