MODEL 1
REMARK VINA RESULT:     -11.9      0.000      0.000
REMARK SMILES NC(=O)C[C@H](NC(=O)C1(c2ccccc2)CCN(C(=O)[C@@H]2CCC[NH2+]2)CC1)C(=O)OCCOCCOC(=O)c1ccc(-c2c3nc(c(-c4c(F)c(F)c(F)c(F)c4F)c4ccc([nH]4)c(-c4c(F)c(F)c(F)c(F)c4F)c4nc(c(-c5c(F)c(F)c(F)c(F)c5F)c5ccc2[nH]5)C=C4)C=C3)cc1
REMARK SMILES IDX 32 1 31 2 30 3 28 4 29 5 5 6 4 7 2 8 1 9 3 12 6 13 7 14 8 16
REMARK SMILES IDX 9 17 16 18 27 19 17 20 26 21 18 22 19 23 20 24 10 25 11 26
REMARK SMILES IDX 15 27 12 28 14 29 13 30 21 31 22 32 25 33 23 34 24 35 33 38
REMARK SMILES IDX 34 39 35 40 36 41 37 42 38 43 39 44 40 45 101 46 41 47
REMARK SMILES IDX 100 48 42 49 43 50 44 51 94 52 45 53 99 54 93 55 95 56 46 57
REMARK SMILES IDX 98 58 92 59 91 60 47 62 79 63 59 64 78 65 60 66 63 67 77 68
REMARK SMILES IDX 96 69 61 70 62 71 76 73 97 74 64 75 48 76 49 77 57 78 50 79
REMARK SMILES IDX 51 80 55 81 58 82 52 83 53 84 56 85 54 86 80 87 81 88 89 89
REMARK SMILES IDX 82 90 83 91 87 92 90 93 84 94 85 95 88 96 86 97 65 98 66 99
REMARK SMILES IDX 74 100 67 101 68 102 72 103 75 104 69 105 70 106 73 107
REMARK SMILES IDX 71 108
REMARK H PARENT 1 10 1 11 6 15 25 36 25 37 95 61 63 72
REMARK Flexibility Score: inf
ROOT
ATOM      1  C   UNL A   1      41.173  20.731  27.338  1.00  0.00     0.202 C 
ENDROOT
BRANCH   1   2
ATOM      2  C   UNL A   1      40.375  20.191  26.151  1.00  0.00     0.261 C 
BRANCH   2   3
ATOM      3  O   UNL A   1      39.260  21.032  25.819  1.00  0.00    -0.462 OA
BRANCH   3   4
ATOM      4  C   UNL A   1      38.181  20.381  25.298  1.00  0.00     0.329 C 
ATOM      5  O   UNL A   1      38.140  19.194  25.001  1.00  0.00    -0.250 OA
BRANCH   4   6
ATOM      6  C   UNL A   1      37.033  21.345  24.968  1.00  0.00     0.201 C 
BRANCH   6   7
ATOM      7  C   UNL A   1      37.599  22.767  24.844  1.00  0.00     0.136 C 
BRANCH   7   8
ATOM      8  C   UNL A   1      37.275  23.655  26.024  1.00  0.00     0.220 C 
ATOM      9  N   UNL A   1      38.220  23.720  27.001  1.00  0.00    -0.370 N 
ATOM     10  H   UNL A   1      38.068  24.282  27.795  1.00  0.00     0.159 HD
ATOM     11  H   UNL A   1      39.055  23.208  26.914  1.00  0.00     0.159 HD
ATOM     12  O   UNL A   1      36.245  24.312  26.105  1.00  0.00    -0.275 OA
ENDBRANCH   7   8
ENDBRANCH   6   7
BRANCH   6  13
ATOM     13  N   UNL A   1      35.919  21.319  25.928  1.00  0.00    -0.342 N 
ATOM     14  C   UNL A   1      34.579  21.500  25.856  1.00  0.00     0.231 C 
ATOM     15  H   UNL A   1      36.221  21.121  26.845  1.00  0.00     0.164 HD
ATOM     16  O   UNL A   1      34.044  21.591  26.974  1.00  0.00    -0.274 OA
BRANCH  14  17
ATOM     17  C   UNL A   1      33.668  21.570  24.569  1.00  0.00     0.077 C 
ATOM     18  C   UNL A   1      34.164  22.202  23.254  1.00  0.00     0.043 C 
ATOM     19  C   UNL A   1      32.407  22.384  24.989  1.00  0.00     0.043 C 
ATOM     20  C   UNL A   1      34.260  23.720  23.210  1.00  0.00     0.121 C 
ATOM     21  C   UNL A   1      32.716  23.870  25.139  1.00  0.00     0.121 C 
ATOM     22  N   UNL A   1      33.187  24.441  23.881  1.00  0.00    -0.337 N 
ATOM     23  C   UNL A   1      32.958  25.739  23.417  1.00  0.00     0.280 C 
ATOM     24  O   UNL A   1      33.646  26.197  22.495  1.00  0.00    -0.268 OA
BRANCH  17  25
ATOM     25  C   UNL A   1      33.323  20.098  24.169  1.00  0.00    -0.032 A 
ATOM     26  C   UNL A   1      32.321  19.766  23.238  1.00  0.00     0.005 A 
ATOM     27  C   UNL A   1      34.119  19.045  24.667  1.00  0.00     0.005 A 
ATOM     28  C   UNL A   1      32.155  18.451  22.790  1.00  0.00     0.000 A 
ATOM     29  C   UNL A   1      33.948  17.731  24.220  1.00  0.00     0.000 A 
ATOM     30  C   UNL A   1      32.974  17.437  23.272  1.00  0.00     0.000 A 
ENDBRANCH  17  25
BRANCH  23  31
ATOM     31  C   UNL A   1      31.895  26.656  24.039  1.00  0.00     0.272 C 
ATOM     32  C   UNL A   1      30.483  26.480  23.515  1.00  0.00     0.081 C 
ATOM     33  N   UNL A   1      32.214  28.099  23.967  1.00  0.00    -0.336 N 
ATOM     34  C   UNL A   1      29.845  27.806  23.873  1.00  0.00     0.068 C 
ATOM     35  C   UNL A   1      30.968  28.810  23.670  1.00  0.00     0.261 C 
ATOM     36  H   UNL A   1      32.897  28.268  23.228  1.00  0.00     0.346 HD
ATOM     37  H   UNL A   1      32.612  28.424  24.848  1.00  0.00     0.346 HD
ENDBRANCH  23  31
ENDBRANCH  14  17
ENDBRANCH   6  13
ENDBRANCH   4   6
ENDBRANCH   3   4
ENDBRANCH   2   3
ENDBRANCH   1   2
BRANCH   1  38
ATOM     38  O   UNL A   1      42.530  21.072  27.076  1.00  0.00    -0.374 OA
BRANCH  38  39
ATOM     39  C   UNL A   1      42.952  21.136  25.712  1.00  0.00     0.202 C 
BRANCH  39  40
ATOM     40  C   UNL A   1      44.368  21.669  25.454  1.00  0.00     0.261 C 
BRANCH  40  41
ATOM     41  O   UNL A   1      44.663  22.862  26.211  1.00  0.00    -0.460 OA
BRANCH  41  42
ATOM     42  C   UNL A   1      44.421  24.019  25.554  1.00  0.00     0.338 C 
ATOM     43  O   UNL A   1      44.725  24.297  24.396  1.00  0.00    -0.246 OA
BRANCH  42  44
ATOM     44  C   UNL A   1      43.593  24.927  26.360  1.00  0.00     0.060 A 
ATOM     45  C   UNL A   1      44.063  26.229  26.570  1.00  0.00     0.016 A 
ATOM     46  C   UNL A   1      42.466  24.462  27.042  1.00  0.00     0.016 A 
ATOM     47  C   UNL A   1      43.438  27.055  27.503  1.00  0.00     0.010 A 
ATOM     48  C   UNL A   1      41.842  25.292  27.983  1.00  0.00     0.010 A 
ATOM     49  C   UNL A   1      42.350  26.577  28.247  1.00  0.00    -0.014 A 
BRANCH  49  50
ATOM     50  C   UNL A   1      41.841  27.384  29.386  1.00  0.00     0.031 A 
ATOM     51  C   UNL A   1      42.564  27.344  30.705  1.00  0.00     0.074 A 
ATOM     52  C   UNL A   1      40.771  28.184  29.231  1.00  0.00     0.049 A 
ATOM     53  N   UNL A   1      42.313  28.002  31.809  1.00  0.00    -0.248 NA
ATOM     54  C   UNL A   1      43.725  26.445  30.791  1.00  0.00     0.031 C 
ATOM     55  C   UNL A   1      39.998  28.329  28.000  1.00  0.00     0.029 A 
ATOM     56  N   UNL A   1      40.154  29.028  30.120  1.00  0.00    -0.354 N 
ATOM     57  C   UNL A   1      43.284  27.602  32.718  1.00  0.00     0.074 A 
ATOM     58  C   UNL A   1      44.109  26.618  32.048  1.00  0.00     0.031 C 
ATOM     59  C   UNL A   1      39.004  29.208  28.212  1.00  0.00     0.029 A 
ATOM     60  C   UNL A   1      39.064  29.675  29.596  1.00  0.00     0.049 A 
ATOM     61  H   UNL A   1      40.465  29.158  31.045  1.00  0.00     0.167 HD
ATOM     62  C   UNL A   1      43.479  28.023  33.990  1.00  0.00     0.037 A 
ATOM     63  C   UNL A   1      38.207  30.542  30.171  1.00  0.00     0.037 A 
ATOM     64  C   UNL A   1      42.665  29.004  34.660  1.00  0.00     0.049 A 
ATOM     65  C   UNL A   1      38.421  30.963  31.600  1.00  0.00     0.074 A 
ATOM     66  C   UNL A   1      42.806  29.517  35.938  1.00  0.00     0.029 A 
ATOM     67  N   UNL A   1      41.551  29.614  34.107  1.00  0.00    -0.354 N 
ATOM     68  N   UNL A   1      39.366  30.609  32.435  1.00  0.00    -0.248 NA
ATOM     69  C   UNL A   1      37.450  31.913  32.163  1.00  0.00     0.031 C 
ATOM     70  C   UNL A   1      41.752  30.408  36.172  1.00  0.00     0.029 A 
ATOM     71  C   UNL A   1      40.979  30.481  35.025  1.00  0.00     0.049 A 
ATOM     72  H   UNL A   1      41.214  29.456  33.194  1.00  0.00     0.167 HD
ATOM     73  C   UNL A   1      39.119  31.306  33.612  1.00  0.00     0.074 A 
ATOM     74  C   UNL A   1      37.942  32.116  33.377  1.00  0.00     0.031 C 
ATOM     75  C   UNL A   1      39.804  31.277  34.780  1.00  0.00     0.037 A 
BRANCH  62  76
ATOM     76  C   UNL A   1      44.618  27.413  34.754  1.00  0.00     0.064 A 
ATOM     77  C   UNL A   1      45.889  28.002  34.771  1.00  0.00     0.173 A 
ATOM     78  C   UNL A   1      44.423  26.246  35.507  1.00  0.00     0.173 A 
ATOM     79  F   UNL A   1      46.129  29.113  34.057  1.00  0.00    -0.203 F 
ATOM     80  C   UNL A   1      46.932  27.434  35.499  1.00  0.00     0.198 A 
ATOM     81  C   UNL A   1      45.461  25.693  36.253  1.00  0.00     0.198 A 
ATOM     82  F   UNL A   1      43.223  25.646  35.528  1.00  0.00    -0.203 F 
ATOM     83  F   UNL A   1      48.150  27.994  35.471  1.00  0.00    -0.200 F 
ATOM     84  C   UNL A   1      46.715  26.284  36.244  1.00  0.00     0.200 A 
ATOM     85  F   UNL A   1      45.247  24.588  36.979  1.00  0.00    -0.200 F 
ATOM     86  F   UNL A   1      47.718  25.741  36.948  1.00  0.00    -0.200 F 
ENDBRANCH  62  76
BRANCH  63  87
ATOM     87  C   UNL A   1      37.064  31.076  29.387  1.00  0.00     0.064 A 
ATOM     88  C   UNL A   1      37.035  32.412  28.966  1.00  0.00     0.173 A 
ATOM     89  C   UNL A   1      35.973  30.259  29.055  1.00  0.00     0.173 A 
ATOM     90  F   UNL A   1      38.045  33.235  29.284  1.00  0.00    -0.203 F 
ATOM     91  C   UNL A   1      35.949  32.916  28.254  1.00  0.00     0.198 A 
ATOM     92  C   UNL A   1      34.900  30.759  28.322  1.00  0.00     0.198 A 
ATOM     93  F   UNL A   1      35.955  28.974  29.438  1.00  0.00    -0.203 F 
ATOM     94  F   UNL A   1      35.927  34.208  27.898  1.00  0.00    -0.200 F 
ATOM     95  C   UNL A   1      34.886  32.088  27.928  1.00  0.00     0.200 A 
ATOM     96  F   UNL A   1      33.878  29.953  28.002  1.00  0.00    -0.200 F 
ATOM     97  F   UNL A   1      33.843  32.573  27.240  1.00  0.00    -0.200 F 
ENDBRANCH  63  87
BRANCH  75  98
ATOM     98  C   UNL A   1      39.308  32.158  35.889  1.00  0.00     0.064 A 
ATOM     99  C   UNL A   1      39.784  33.466  36.054  1.00  0.00     0.173 A 
ATOM    100  C   UNL A   1      38.325  31.699  36.780  1.00  0.00     0.173 A 
ATOM    101  F   UNL A   1      40.734  33.948  35.238  1.00  0.00    -0.203 F 
ATOM    102  C   UNL A   1      39.316  34.274  37.088  1.00  0.00     0.198 A 
ATOM    103  C   UNL A   1      37.841  32.517  37.796  1.00  0.00     0.198 A 
ATOM    104  F   UNL A   1      37.832  30.456  36.660  1.00  0.00    -0.203 F 
ATOM    105  F   UNL A   1      39.820  35.504  37.256  1.00  0.00    -0.200 F 
ATOM    106  C   UNL A   1      38.341  33.800  37.954  1.00  0.00     0.200 A 
ATOM    107  F   UNL A   1      36.892  32.061  38.626  1.00  0.00    -0.200 F 
ATOM    108  F   UNL A   1      37.891  34.579  38.948  1.00  0.00    -0.200 F 
ENDBRANCH  75  98
ENDBRANCH  49  50
ENDBRANCH  42  44
ENDBRANCH  41  42
ENDBRANCH  40  41
ENDBRANCH  39  40
ENDBRANCH  38  39
ENDBRANCH   1  38
TORSDOF 20
ENDMDL
MODEL 2
REMARK VINA RESULT:     -11.6      2.543      8.838
REMARK SMILES NC(=O)C[C@H](NC(=O)C1(c2ccccc2)CCN(C(=O)[C@@H]2CCC[NH2+]2)CC1)C(=O)OCCOCCOC(=O)c1ccc(-c2c3nc(c(-c4c(F)c(F)c(F)c(F)c4F)c4ccc([nH]4)c(-c4c(F)c(F)c(F)c(F)c4F)c4nc(c(-c5c(F)c(F)c(F)c(F)c5F)c5ccc2[nH]5)C=C4)C=C3)cc1
REMARK SMILES IDX 32 1 31 2 30 3 28 4 29 5 5 6 4 7 2 8 1 9 3 12 6 13 7 14 8 16
REMARK SMILES IDX 9 17 16 18 27 19 17 20 26 21 18 22 19 23 20 24 10 25 11 26
REMARK SMILES IDX 15 27 12 28 14 29 13 30 21 31 22 32 25 33 23 34 24 35 33 38
REMARK SMILES IDX 34 39 35 40 36 41 37 42 38 43 39 44 40 45 101 46 41 47
REMARK SMILES IDX 100 48 42 49 43 50 44 51 94 52 45 53 99 54 93 55 95 56 46 57
REMARK SMILES IDX 98 58 92 59 91 60 47 62 79 63 59 64 78 65 60 66 63 67 77 68
REMARK SMILES IDX 96 69 61 70 62 71 76 73 97 74 64 75 48 76 49 77 57 78 50 79
REMARK SMILES IDX 51 80 55 81 58 82 52 83 53 84 56 85 54 86 80 87 81 88 89 89
REMARK SMILES IDX 82 90 83 91 87 92 90 93 84 94 85 95 88 96 86 97 65 98 66 99
REMARK SMILES IDX 74 100 67 101 68 102 72 103 75 104 69 105 70 106 73 107
REMARK SMILES IDX 71 108
REMARK H PARENT 1 10 1 11 6 15 25 36 25 37 95 61 63 72
REMARK Flexibility Score: inf
ROOT
ATOM      1  C   UNL A   1      31.364  27.538  26.058  1.00  0.00     0.202 C 
ENDROOT
BRANCH   1   2
ATOM      2  C   UNL A   1      31.341  26.089  25.574  1.00  0.00     0.261 C 
BRANCH   2   3
ATOM      3  O   UNL A   1      31.276  25.996  24.143  1.00  0.00    -0.462 OA
BRANCH   3   4
ATOM      4  C   UNL A   1      32.091  25.053  23.588  1.00  0.00     0.329 C 
ATOM      5  O   UNL A   1      31.718  24.048  22.996  1.00  0.00    -0.250 OA
BRANCH   4   6
ATOM      6  C   UNL A   1      33.569  25.306  23.918  1.00  0.00     0.201 C 
BRANCH   6   7
ATOM      7  C   UNL A   1      33.926  26.747  23.527  1.00  0.00     0.136 C 
BRANCH   7   8
ATOM      8  C   UNL A   1      33.653  27.068  22.076  1.00  0.00     0.220 C 
ATOM      9  N   UNL A   1      33.471  28.382  21.777  1.00  0.00    -0.370 N 
ATOM     10  H   UNL A   1      33.290  28.655  20.848  1.00  0.00     0.159 HD
ATOM     11  H   UNL A   1      33.521  29.061  22.487  1.00  0.00     0.159 HD
ATOM     12  O   UNL A   1      33.625  26.216  21.196  1.00  0.00    -0.275 OA
ENDBRANCH   7   8
ENDBRANCH   6   7
BRANCH   6  13
ATOM     13  N   UNL A   1      34.504  24.359  23.294  1.00  0.00    -0.342 N 
ATOM     14  C   UNL A   1      35.332  23.385  23.742  1.00  0.00     0.231 C 
ATOM     15  H   UNL A   1      34.536  24.456  22.315  1.00  0.00     0.164 HD
ATOM     16  O   UNL A   1      36.106  22.969  22.863  1.00  0.00    -0.274 OA
BRANCH  14  17
ATOM     17  C   UNL A   1      35.392  22.733  25.178  1.00  0.00     0.077 C 
ATOM     18  C   UNL A   1      35.990  23.479  26.387  1.00  0.00     0.043 C 
ATOM     19  C   UNL A   1      36.233  21.431  25.016  1.00  0.00     0.043 C 
ATOM     20  C   UNL A   1      37.505  23.609  26.436  1.00  0.00     0.121 C 
ATOM     21  C   UNL A   1      37.716  21.734  24.835  1.00  0.00     0.121 C 
ATOM     22  N   UNL A   1      38.255  22.443  25.991  1.00  0.00    -0.337 N 
ATOM     23  C   UNL A   1      39.547  22.330  26.511  1.00  0.00     0.280 C 
ATOM     24  O   UNL A   1      39.976  23.187  27.294  1.00  0.00    -0.268 OA
BRANCH  17  25
ATOM     25  C   UNL A   1      33.917  22.441  25.612  1.00  0.00    -0.032 A 
ATOM     26  C   UNL A   1      33.273  23.120  26.663  1.00  0.00     0.005 A 
ATOM     27  C   UNL A   1      33.142  21.540  24.851  1.00  0.00     0.005 A 
ATOM     28  C   UNL A   1      31.908  22.942  26.912  1.00  0.00     0.000 A 
ATOM     29  C   UNL A   1      31.778  21.362  25.105  1.00  0.00     0.000 A 
ATOM     30  C   UNL A   1      31.159  22.072  26.127  1.00  0.00     0.000 A 
ENDBRANCH  17  25
BRANCH  23  31
ATOM     31  C   UNL A   1      40.493  21.187  26.114  1.00  0.00     0.272 C 
ATOM     32  C   UNL A   1      40.956  20.291  27.247  1.00  0.00     0.081 C 
ATOM     33  N   UNL A   1      41.699  21.618  25.374  1.00  0.00    -0.336 N 
ATOM     34  C   UNL A   1      42.218  19.681  26.673  1.00  0.00     0.068 C 
ATOM     35  C   UNL A   1      42.823  20.813  25.858  1.00  0.00     0.261 C 
ATOM     36  H   UNL A   1      41.879  22.608  25.548  1.00  0.00     0.346 HD
ATOM     37  H   UNL A   1      41.571  21.491  24.371  1.00  0.00     0.346 HD
ENDBRANCH  23  31
ENDBRANCH  14  17
ENDBRANCH   6  13
ENDBRANCH   4   6
ENDBRANCH   3   4
ENDBRANCH   2   3
ENDBRANCH   1   2
BRANCH   1  38
ATOM     38  O   UNL A   1      31.190  28.535  25.057  1.00  0.00    -0.374 OA
BRANCH  38  39
ATOM     39  C   UNL A   1      31.585  29.873  25.368  1.00  0.00     0.202 C 
BRANCH  39  40
ATOM     40  C   UNL A   1      33.010  30.063  25.904  1.00  0.00     0.261 C 
BRANCH  40  41
ATOM     41  O   UNL A   1      33.039  30.435  27.298  1.00  0.00    -0.460 OA
BRANCH  41  42
ATOM     42  C   UNL A   1      33.831  31.495  27.582  1.00  0.00     0.338 C 
ATOM     43  O   UNL A   1      33.502  32.678  27.636  1.00  0.00    -0.246 OA
BRANCH  42  44
ATOM     44  C   UNL A   1      35.181  31.063  27.972  1.00  0.00     0.060 A 
ATOM     45  C   UNL A   1      35.347  29.739  28.395  1.00  0.00     0.016 A 
ATOM     46  C   UNL A   1      36.227  31.982  28.089  1.00  0.00     0.016 A 
ATOM     47  C   UNL A   1      36.546  29.340  28.985  1.00  0.00     0.010 A 
ATOM     48  C   UNL A   1      37.428  31.581  28.688  1.00  0.00     0.010 A 
ATOM     49  C   UNL A   1      37.578  30.269  29.176  1.00  0.00    -0.014 A 
BRANCH  49  50
ATOM     50  C   UNL A   1      38.752  29.888  30.002  1.00  0.00     0.031 A 
ATOM     51  C   UNL A   1      38.875  30.417  31.406  1.00  0.00     0.074 A 
ATOM     52  C   UNL A   1      39.678  29.039  29.522  1.00  0.00     0.049 A 
ATOM     53  N   UNL A   1      39.794  30.174  32.306  1.00  0.00    -0.248 NA
ATOM     54  C   UNL A   1      37.821  31.340  31.855  1.00  0.00     0.031 C 
ATOM     55  C   UNL A   1      39.662  28.440  28.190  1.00  0.00     0.029 A 
ATOM     56  N   UNL A   1      40.809  28.530  30.109  1.00  0.00    -0.354 N 
ATOM     57  C   UNL A   1      39.429  30.908  33.428  1.00  0.00     0.074 A 
ATOM     58  C   UNL A   1      38.223  31.632  33.084  1.00  0.00     0.031 C 
ATOM     59  C   UNL A   1      40.739  27.647  28.057  1.00  0.00     0.029 A 
ATOM     60  C   UNL A   1      41.524  27.694  29.288  1.00  0.00     0.049 A 
ATOM     61  H   UNL A   1      41.082  28.744  31.030  1.00  0.00     0.167 HD
ATOM     62  C   UNL A   1      40.035  30.965  34.638  1.00  0.00     0.037 A 
ATOM     63  C   UNL A   1      42.685  27.045  29.506  1.00  0.00     0.037 A 
ATOM     64  C   UNL A   1      41.231  30.245  34.987  1.00  0.00     0.049 A 
ATOM     65  C   UNL A   1      43.361  27.158  30.846  1.00  0.00     0.074 A 
ATOM     66  C   UNL A   1      41.900  30.215  36.199  1.00  0.00     0.029 A 
ATOM     67  N   UNL A   1      41.943  29.431  34.120  1.00  0.00    -0.354 N 
ATOM     68  N   UNL A   1      42.985  27.821  31.911  1.00  0.00    -0.248 NA
ATOM     69  C   UNL A   1      44.623  26.421  31.015  1.00  0.00     0.031 C 
ATOM     70  C   UNL A   1      43.040  29.416  36.052  1.00  0.00     0.029 A 
ATOM     71  C   UNL A   1      43.058  28.915  34.761  1.00  0.00     0.049 A 
ATOM     72  H   UNL A   1      41.694  29.247  33.185  1.00  0.00     0.167 HD
ATOM     73  C   UNL A   1      43.946  27.568  32.881  1.00  0.00     0.074 A 
ATOM     74  C   UNL A   1      44.917  26.676  32.282  1.00  0.00     0.031 C 
ATOM     75  C   UNL A   1      44.019  28.032  34.152  1.00  0.00     0.037 A 
BRANCH  62  76
ATOM     76  C   UNL A   1      39.418  31.852  35.679  1.00  0.00     0.064 A 
ATOM     77  C   UNL A   1      38.487  31.361  36.604  1.00  0.00     0.173 A 
ATOM     78  C   UNL A   1      39.792  33.201  35.774  1.00  0.00     0.173 A 
ATOM     79  F   UNL A   1      38.089  30.080  36.547  1.00  0.00    -0.203 F 
ATOM     80  C   UNL A   1      37.936  32.192  37.577  1.00  0.00     0.198 A 
ATOM     81  C   UNL A   1      39.257  34.024  36.762  1.00  0.00     0.198 A 
ATOM     82  F   UNL A   1      40.682  33.719  34.915  1.00  0.00    -0.203 F 
ATOM     83  F   UNL A   1      37.021  31.710  38.428  1.00  0.00    -0.200 F 
ATOM     84  C   UNL A   1      38.327  33.521  37.658  1.00  0.00     0.200 A 
ATOM     85  F   UNL A   1      39.642  35.305  36.845  1.00  0.00    -0.200 F 
ATOM     86  F   UNL A   1      37.800  34.318  38.597  1.00  0.00    -0.200 F 
ENDBRANCH  62  76
BRANCH  63  87
ATOM     87  C   UNL A   1      43.281  26.222  28.423  1.00  0.00     0.064 A 
ATOM     88  C   UNL A   1      43.229  24.823  28.464  1.00  0.00     0.173 A 
ATOM     89  C   UNL A   1      43.927  26.823  27.333  1.00  0.00     0.173 A 
ATOM     90  F   UNL A   1      42.645  24.205  29.501  1.00  0.00    -0.203 F 
ATOM     91  C   UNL A   1      43.813  24.053  27.460  1.00  0.00     0.198 A 
ATOM     92  C   UNL A   1      44.488  26.052  26.318  1.00  0.00     0.198 A 
ATOM     93  F   UNL A   1      44.004  28.159  27.251  1.00  0.00    -0.203 F 
ATOM     94  F   UNL A   1      43.784  22.716  27.542  1.00  0.00    -0.200 F 
ATOM     95  C   UNL A   1      44.437  24.668  26.385  1.00  0.00     0.200 A 
ATOM     96  F   UNL A   1      45.083  26.651  25.277  1.00  0.00    -0.200 F 
ATOM     97  F   UNL A   1      44.996  23.928  25.419  1.00  0.00    -0.200 F 
ENDBRANCH  63  87
BRANCH  75  98
ATOM     98  C   UNL A   1      45.179  27.571  34.985  1.00  0.00     0.064 A 
ATOM     99  C   UNL A   1      45.113  26.396  35.746  1.00  0.00     0.173 A 
ATOM    100  C   UNL A   1      46.379  28.299  35.002  1.00  0.00     0.173 A 
ATOM    101  F   UNL A   1      43.983  25.672  35.775  1.00  0.00    -0.203 F 
ATOM    102  C   UNL A   1      46.196  25.979  36.517  1.00  0.00     0.198 A 
ATOM    103  C   UNL A   1      47.468  27.867  35.753  1.00  0.00     0.198 A 
ATOM    104  F   UNL A   1      46.495  29.428  34.285  1.00  0.00    -0.203 F 
ATOM    105  F   UNL A   1      46.094  24.879  37.274  1.00  0.00    -0.200 F 
ATOM    106  C   UNL A   1      47.374  26.712  36.514  1.00  0.00     0.200 A 
ATOM    107  F   UNL A   1      48.609  28.570  35.742  1.00  0.00    -0.200 F 
ATOM    108  F   UNL A   1      48.416  26.310  37.256  1.00  0.00    -0.200 F 
ENDBRANCH  75  98
ENDBRANCH  49  50
ENDBRANCH  42  44
ENDBRANCH  41  42
ENDBRANCH  40  41
ENDBRANCH  39  40
ENDBRANCH  38  39
ENDBRANCH   1  38
TORSDOF 20
ENDMDL
MODEL 3
REMARK VINA RESULT:     -11.4      4.122      5.736
REMARK SMILES NC(=O)C[C@H](NC(=O)C1(c2ccccc2)CCN(C(=O)[C@@H]2CCC[NH2+]2)CC1)C(=O)OCCOCCOC(=O)c1ccc(-c2c3nc(c(-c4c(F)c(F)c(F)c(F)c4F)c4ccc([nH]4)c(-c4c(F)c(F)c(F)c(F)c4F)c4nc(c(-c5c(F)c(F)c(F)c(F)c5F)c5ccc2[nH]5)C=C4)C=C3)cc1
REMARK SMILES IDX 32 1 31 2 30 3 28 4 29 5 5 6 4 7 2 8 1 9 3 12 6 13 7 14 8 16
REMARK SMILES IDX 9 17 16 18 27 19 17 20 26 21 18 22 19 23 20 24 10 25 11 26
REMARK SMILES IDX 15 27 12 28 14 29 13 30 21 31 22 32 25 33 23 34 24 35 33 38
REMARK SMILES IDX 34 39 35 40 36 41 37 42 38 43 39 44 40 45 101 46 41 47
REMARK SMILES IDX 100 48 42 49 43 50 44 51 94 52 45 53 99 54 93 55 95 56 46 57
REMARK SMILES IDX 98 58 92 59 91 60 47 62 79 63 59 64 78 65 60 66 63 67 77 68
REMARK SMILES IDX 96 69 61 70 62 71 76 73 97 74 64 75 48 76 49 77 57 78 50 79
REMARK SMILES IDX 51 80 55 81 58 82 52 83 53 84 56 85 54 86 80 87 81 88 89 89
REMARK SMILES IDX 82 90 83 91 87 92 90 93 84 94 85 95 88 96 86 97 65 98 66 99
REMARK SMILES IDX 74 100 67 101 68 102 72 103 75 104 69 105 70 106 73 107
REMARK SMILES IDX 71 108
REMARK H PARENT 1 10 1 11 6 15 25 36 25 37 95 61 63 72
REMARK Flexibility Score: inf
ROOT
ATOM      1  C   UNL A   1      40.936  20.078  26.681  1.00  0.00     0.202 C 
ENDROOT
BRANCH   1   2
ATOM      2  C   UNL A   1      40.299  21.242  25.922  1.00  0.00     0.261 C 
BRANCH   2   3
ATOM      3  O   UNL A   1      38.898  21.373  26.207  1.00  0.00    -0.462 OA
BRANCH   3   4
ATOM      4  C   UNL A   1      38.072  20.690  25.364  1.00  0.00     0.329 C 
ATOM      5  O   UNL A   1      38.295  19.583  24.889  1.00  0.00    -0.250 OA
BRANCH   4   6
ATOM      6  C   UNL A   1      36.863  21.534  24.936  1.00  0.00     0.201 C 
BRANCH   6   7
ATOM      7  C   UNL A   1      37.321  22.983  24.720  1.00  0.00     0.136 C 
BRANCH   7   8
ATOM      8  C   UNL A   1      36.968  23.908  25.862  1.00  0.00     0.220 C 
ATOM      9  N   UNL A   1      37.910  24.048  26.833  1.00  0.00    -0.370 N 
ATOM     10  H   UNL A   1      37.739  24.636  27.603  1.00  0.00     0.159 HD
ATOM     11  H   UNL A   1      38.763  23.561  26.766  1.00  0.00     0.159 HD
ATOM     12  O   UNL A   1      35.916  24.532  25.917  1.00  0.00    -0.275 OA
ENDBRANCH   7   8
ENDBRANCH   6   7
BRANCH   6  13
ATOM     13  N   UNL A   1      35.727  21.488  25.868  1.00  0.00    -0.342 N 
ATOM     14  C   UNL A   1      34.381  21.600  25.754  1.00  0.00     0.231 C 
ATOM     15  H   UNL A   1      36.012  21.341  26.799  1.00  0.00     0.164 HD
ATOM     16  O   UNL A   1      33.813  21.707  26.854  1.00  0.00    -0.274 OA
BRANCH  14  17
ATOM     17  C   UNL A   1      33.504  21.576  24.443  1.00  0.00     0.077 C 
ATOM     18  C   UNL A   1      33.997  22.198  23.122  1.00  0.00     0.043 C 
ATOM     19  C   UNL A   1      32.185  22.324  24.805  1.00  0.00     0.043 C 
ATOM     20  C   UNL A   1      34.002  23.717  23.033  1.00  0.00     0.121 C 
ATOM     21  C   UNL A   1      32.400  23.830  24.915  1.00  0.00     0.121 C 
ATOM     22  N   UNL A   1      32.870  24.391  23.653  1.00  0.00    -0.337 N 
ATOM     23  C   UNL A   1      32.577  25.658  23.142  1.00  0.00     0.280 C 
ATOM     24  O   UNL A   1      33.261  26.129  22.224  1.00  0.00    -0.268 OA
BRANCH  17  25
ATOM     25  C   UNL A   1      33.258  20.074  24.081  1.00  0.00    -0.032 A 
ATOM     26  C   UNL A   1      32.324  19.656  23.115  1.00  0.00     0.005 A 
ATOM     27  C   UNL A   1      34.084  19.085  24.655  1.00  0.00     0.005 A 
ATOM     28  C   UNL A   1      32.251  18.320  22.708  1.00  0.00     0.000 A 
ATOM     29  C   UNL A   1      34.006  17.749  24.248  1.00  0.00     0.000 A 
ATOM     30  C   UNL A   1      33.099  17.369  23.266  1.00  0.00     0.000 A 
ENDBRANCH  17  25
BRANCH  23  31
ATOM     31  C   UNL A   1      31.444  26.527  23.708  1.00  0.00     0.272 C 
ATOM     32  C   UNL A   1      30.613  27.276  22.684  1.00  0.00     0.081 C 
ATOM     33  N   UNL A   1      31.875  27.509  24.727  1.00  0.00    -0.336 N 
ATOM     34  C   UNL A   1      30.014  28.391  23.516  1.00  0.00     0.068 C 
ATOM     35  C   UNL A   1      31.125  28.745  24.492  1.00  0.00     0.261 C 
ATOM     36  H   UNL A   1      32.876  27.686  24.637  1.00  0.00     0.346 HD
ATOM     37  H   UNL A   1      31.699  27.154  25.666  1.00  0.00     0.346 HD
ENDBRANCH  23  31
ENDBRANCH  14  17
ENDBRANCH   6  13
ENDBRANCH   4   6
ENDBRANCH   3   4
ENDBRANCH   2   3
ENDBRANCH   1   2
BRANCH   1  38
ATOM     38  O   UNL A   1      41.532  19.062  25.882  1.00  0.00    -0.374 OA
BRANCH  38  39
ATOM     39  C   UNL A   1      42.753  18.478  26.342  1.00  0.00     0.202 C 
BRANCH  39  40
ATOM     40  C   UNL A   1      43.869  18.308  25.303  1.00  0.00     0.261 C 
BRANCH  40  41
ATOM     41  O   UNL A   1      44.840  19.375  25.343  1.00  0.00    -0.460 OA
BRANCH  41  42
ATOM     42  C   UNL A   1      44.628  20.363  24.443  1.00  0.00     0.338 C 
ATOM     43  O   UNL A   1      44.594  20.260  23.218  1.00  0.00    -0.246 OA
BRANCH  42  44
ATOM     44  C   UNL A   1      44.290  21.629  25.109  1.00  0.00     0.060 A 
ATOM     45  C   UNL A   1      44.294  22.796  24.334  1.00  0.00     0.016 A 
ATOM     46  C   UNL A   1      44.143  21.698  26.496  1.00  0.00     0.016 A 
ATOM     47  C   UNL A   1      44.203  24.042  24.952  1.00  0.00     0.010 A 
ATOM     48  C   UNL A   1      44.058  22.952  27.115  1.00  0.00     0.010 A 
ATOM     49  C   UNL A   1      44.129  24.131  26.349  1.00  0.00    -0.014 A 
BRANCH  49  50
ATOM     50  C   UNL A   1      44.258  25.460  26.999  1.00  0.00     0.031 A 
ATOM     51  C   UNL A   1      45.625  26.057  27.203  1.00  0.00     0.074 A 
ATOM     52  C   UNL A   1      43.164  26.153  27.360  1.00  0.00     0.049 A 
ATOM     53  N   UNL A   1      45.956  27.219  27.707  1.00  0.00    -0.248 NA
ATOM     54  C   UNL A   1      46.770  25.236  26.780  1.00  0.00     0.031 C 
ATOM     55  C   UNL A   1      41.786  25.697  27.197  1.00  0.00     0.029 A 
ATOM     56  N   UNL A   1      43.044  27.393  27.937  1.00  0.00    -0.354 N 
ATOM     57  C   UNL A   1      47.344  27.271  27.659  1.00  0.00     0.074 A 
ATOM     58  C   UNL A   1      47.794  26.011  27.108  1.00  0.00     0.031 C 
ATOM     59  C   UNL A   1      40.956  26.643  27.668  1.00  0.00     0.029 A 
ATOM     60  C   UNL A   1      41.745  27.763  28.178  1.00  0.00     0.049 A 
ATOM     61  H   UNL A   1      43.817  27.963  28.157  1.00  0.00     0.167 HD
ATOM     62  C   UNL A   1      48.167  28.281  28.029  1.00  0.00     0.037 A 
ATOM     63  C   UNL A   1      41.250  28.878  28.750  1.00  0.00     0.037 A 
ATOM     64  C   UNL A   1      47.725  29.538  28.574  1.00  0.00     0.049 A 
ATOM     65  C   UNL A   1      42.189  29.968  29.191  1.00  0.00     0.074 A 
ATOM     66  C   UNL A   1      48.485  30.633  28.948  1.00  0.00     0.029 A 
ATOM     67  N   UNL A   1      46.403  29.864  28.831  1.00  0.00    -0.354 N 
ATOM     68  N   UNL A   1      43.495  30.024  29.102  1.00  0.00    -0.248 NA
ATOM     69  C   UNL A   1      41.580  31.158  29.806  1.00  0.00     0.031 C 
ATOM     70  C   UNL A   1      47.625  31.606  29.470  1.00  0.00     0.029 A 
ATOM     71  C   UNL A   1      46.326  31.133  29.382  1.00  0.00     0.049 A 
ATOM     72  H   UNL A   1      45.631  29.279  28.649  1.00  0.00     0.167 HD
ATOM     73  C   UNL A   1      43.864  31.256  29.628  1.00  0.00     0.074 A 
ATOM     74  C   UNL A   1      42.640  31.924  30.019  1.00  0.00     0.031 C 
ATOM     75  C   UNL A   1      45.102  31.785  29.772  1.00  0.00     0.037 A 
BRANCH  62  76
ATOM     76  C   UNL A   1      49.643  28.063  27.868  1.00  0.00     0.064 A 
ATOM     77  C   UNL A   1      50.457  27.714  28.954  1.00  0.00     0.173 A 
ATOM     78  C   UNL A   1      50.242  28.168  26.603  1.00  0.00     0.173 A 
ATOM     79  F   UNL A   1      49.933  27.613  30.186  1.00  0.00    -0.203 F 
ATOM     80  C   UNL A   1      51.823  27.497  28.786  1.00  0.00     0.198 A 
ATOM     81  C   UNL A   1      51.603  27.927  26.434  1.00  0.00     0.198 A 
ATOM     82  F   UNL A   1      49.506  28.495  25.530  1.00  0.00    -0.203 F 
ATOM     83  F   UNL A   1      52.589  27.200  29.845  1.00  0.00    -0.200 F 
ATOM     84  C   UNL A   1      52.392  27.598  27.525  1.00  0.00     0.200 A 
ATOM     85  F   UNL A   1      52.151  28.016  25.214  1.00  0.00    -0.200 F 
ATOM     86  F   UNL A   1      53.705  27.384  27.363  1.00  0.00    -0.200 F 
ENDBRANCH  62  76
BRANCH  63  87
ATOM     87  C   UNL A   1      39.783  29.021  28.935  1.00  0.00     0.064 A 
ATOM     88  C   UNL A   1      38.958  29.441  27.885  1.00  0.00     0.173 A 
ATOM     89  C   UNL A   1      39.183  28.749  30.173  1.00  0.00     0.173 A 
ATOM     90  F   UNL A   1      39.493  29.737  26.691  1.00  0.00    -0.203 F 
ATOM     91  C   UNL A   1      37.586  29.599  28.069  1.00  0.00     0.198 A 
ATOM     92  C   UNL A   1      37.808  28.884  30.349  1.00  0.00     0.198 A 
ATOM     93  F   UNL A   1      39.932  28.346  31.210  1.00  0.00    -0.203 F 
ATOM     94  F   UNL A   1      36.823  30.042  27.060  1.00  0.00    -0.200 F 
ATOM     95  C   UNL A   1      37.012  29.315  29.299  1.00  0.00     0.200 A 
ATOM     96  F   UNL A   1      37.257  28.601  31.537  1.00  0.00    -0.200 F 
ATOM     97  F   UNL A   1      35.692  29.465  29.475  1.00  0.00    -0.200 F 
ENDBRANCH  63  87
BRANCH  75  98
ATOM     98  C   UNL A   1      45.196  33.161  30.366  1.00  0.00     0.064 A 
ATOM     99  C   UNL A   1      45.372  33.354  31.743  1.00  0.00     0.173 A 
ATOM    100  C   UNL A   1      45.135  34.297  29.545  1.00  0.00     0.173 A 
ATOM    101  F   UNL A   1      45.421  32.299  32.572  1.00  0.00    -0.203 F 
ATOM    102  C   UNL A   1      45.456  34.635  32.282  1.00  0.00     0.198 A 
ATOM    103  C   UNL A   1      45.245  35.576  30.083  1.00  0.00     0.198 A 
ATOM    104  F   UNL A   1      44.974  34.166  28.219  1.00  0.00    -0.203 F 
ATOM    105  F   UNL A   1      45.577  34.797  33.606  1.00  0.00    -0.200 F 
ATOM    106  C   UNL A   1      45.399  35.745  31.450  1.00  0.00     0.200 A 
ATOM    107  F   UNL A   1      45.199  36.646  29.278  1.00  0.00    -0.200 F 
ATOM    108  F   UNL A   1      45.481  36.977  31.970  1.00  0.00    -0.200 F 
ENDBRANCH  75  98
ENDBRANCH  49  50
ENDBRANCH  42  44
ENDBRANCH  41  42
ENDBRANCH  40  41
ENDBRANCH  39  40
ENDBRANCH  38  39
ENDBRANCH   1  38
TORSDOF 20
ENDMDL
