MODEL 1
REMARK VINA RESULT:     -12.6      0.000      0.000
REMARK SMILES O=C(OCCOCCOC(=O)c1cc(-c2ccccn2)nc2ccc(F)cc12)c1ccc(-c2c3nc(c(-c4c(F)c(F)c(F)c(F)c4F)c4ccc([nH]4)c(-c4c(F)c(F)c(F)c(F)c4F)c4nc(c(-c5c(F)c(F)c(F)c(F)c5F)c5ccc2[nH]5)C=C4)C=C3)cc1
REMARK SMILES IDX 5 1 4 2 3 3 2 4 1 5 29 6 30 7 91 8 31 9 90 10 32 11 33 12
REMARK SMILES IDX 34 13 84 14 35 15 89 16 83 17 85 18 36 19 88 20 82 21 81 22
REMARK SMILES IDX 37 24 69 25 49 26 68 27 50 28 53 29 67 30 86 31 51 32 52 33
REMARK SMILES IDX 66 35 87 36 54 37 38 38 39 39 47 40 40 41 41 42 45 43 48 44
REMARK SMILES IDX 42 45 43 46 46 47 44 48 70 49 71 50 79 51 72 52 73 53 77 54
REMARK SMILES IDX 80 55 74 56 75 57 78 58 76 59 55 60 56 61 64 62 57 63 58 64
REMARK SMILES IDX 62 65 65 66 59 67 60 68 63 69 61 70 6 71 7 72 8 73 9 74
REMARK SMILES IDX 10 75 11 76 12 77 13 78 28 79 14 80 22 81 27 82 21 83 23 84
REMARK SMILES IDX 25 85 24 86 26 87 15 88 16 89 20 90 17 91 19 92 18 93
REMARK H PARENT 85 23 53 34
REMARK Flexibility Score: inf
ROOT
ATOM      1  C   UNL A   1      31.299  32.289  26.737  1.00  0.00     0.202 C 
ENDROOT
BRANCH   1   2
ATOM      2  C   UNL A   1      32.570  33.068  27.073  1.00  0.00     0.261 C 
BRANCH   2   3
ATOM      3  O   UNL A   1      32.271  34.274  27.784  1.00  0.00    -0.460 OA
BRANCH   3   4
ATOM      4  C   UNL A   1      32.977  34.843  28.786  1.00  0.00     0.338 C 
ATOM      5  O   UNL A   1      32.648  35.975  29.142  1.00  0.00    -0.246 OA
BRANCH   4   6
ATOM      6  C   UNL A   1      34.115  34.194  29.528  1.00  0.00     0.060 A 
ATOM      7  C   UNL A   1      35.400  34.464  29.018  1.00  0.00     0.016 A 
ATOM      8  C   UNL A   1      34.028  33.296  30.599  1.00  0.00     0.016 A 
ATOM      9  C   UNL A   1      36.531  33.814  29.514  1.00  0.00     0.010 A 
ATOM     10  C   UNL A   1      35.146  32.631  31.093  1.00  0.00     0.010 A 
ATOM     11  C   UNL A   1      36.397  32.876  30.539  1.00  0.00    -0.014 A 
BRANCH  11  12
ATOM     12  C   UNL A   1      37.569  32.232  31.141  1.00  0.00     0.031 A 
ATOM     13  C   UNL A   1      38.066  32.643  32.488  1.00  0.00     0.074 A 
ATOM     14  C   UNL A   1      38.223  31.339  30.381  1.00  0.00     0.049 A 
ATOM     15  N   UNL A   1      39.022  32.115  33.204  1.00  0.00    -0.248 NA
ATOM     16  C   UNL A   1      37.429  33.818  33.105  1.00  0.00     0.031 C 
ATOM     17  C   UNL A   1      37.856  30.997  29.003  1.00  0.00     0.029 A 
ATOM     18  N   UNL A   1      39.322  30.571  30.638  1.00  0.00    -0.354 N 
ATOM     19  C   UNL A   1      39.086  32.871  34.366  1.00  0.00     0.074 A 
ATOM     20  C   UNL A   1      38.117  33.936  34.234  1.00  0.00     0.031 C 
ATOM     21  C   UNL A   1      38.705  30.069  28.543  1.00  0.00     0.029 A 
ATOM     22  C   UNL A   1      39.663  29.750  29.595  1.00  0.00     0.049 A 
ATOM     23  H   UNL A   1      39.819  30.604  31.487  1.00  0.00     0.167 HD
ATOM     24  C   UNL A   1      39.878  32.662  35.442  1.00  0.00     0.037 A 
ATOM     25  C   UNL A   1      40.630  28.819  29.516  1.00  0.00     0.037 A 
ATOM     26  C   UNL A   1      40.842  31.591  35.509  1.00  0.00     0.049 A 
ATOM     27  C   UNL A   1      41.456  28.565  30.742  1.00  0.00     0.074 A 
ATOM     28  C   UNL A   1      41.638  31.206  36.571  1.00  0.00     0.029 A 
ATOM     29  N   UNL A   1      41.148  30.744  34.449  1.00  0.00    -0.354 N 
ATOM     30  N   UNL A   1      41.411  29.177  31.903  1.00  0.00    -0.248 NA
ATOM     31  C   UNL A   1      42.443  27.485  30.665  1.00  0.00     0.031 C 
ATOM     32  C   UNL A   1      42.463  30.163  36.137  1.00  0.00     0.029 A 
ATOM     33  C   UNL A   1      42.145  29.860  34.821  1.00  0.00     0.049 A 
ATOM     34  H   UNL A   1      40.717  30.770  33.563  1.00  0.00     0.167 HD
ATOM     35  C   UNL A   1      42.358  28.558  32.699  1.00  0.00     0.074 A 
ATOM     36  C   UNL A   1      42.944  27.501  31.894  1.00  0.00     0.031 C 
ATOM     37  C   UNL A   1      42.718  28.838  33.977  1.00  0.00     0.037 A 
BRANCH  24  38
ATOM     38  C   UNL A   1      39.727  33.569  36.631  1.00  0.00     0.064 A 
ATOM     39  C   UNL A   1      40.391  34.804  36.698  1.00  0.00     0.173 A 
ATOM     40  C   UNL A   1      38.845  33.248  37.675  1.00  0.00     0.173 A 
ATOM     41  F   UNL A   1      41.248  35.164  35.732  1.00  0.00    -0.203 F 
ATOM     42  C   UNL A   1      40.192  35.673  37.769  1.00  0.00     0.198 A 
ATOM     43  C   UNL A   1      38.626  34.132  38.731  1.00  0.00     0.198 A 
ATOM     44  F   UNL A   1      38.176  32.086  37.663  1.00  0.00    -0.203 F 
ATOM     45  F   UNL A   1      40.861  36.833  37.823  1.00  0.00    -0.200 F 
ATOM     46  C   UNL A   1      39.302  35.342  38.778  1.00  0.00     0.200 A 
ATOM     47  F   UNL A   1      37.754  33.817  39.698  1.00  0.00    -0.200 F 
ATOM     48  F   UNL A   1      39.095  36.189  39.797  1.00  0.00    -0.200 F 
ENDBRANCH  24  38
BRANCH  25  49
ATOM     49  C   UNL A   1      40.748  28.021  28.273  1.00  0.00     0.064 A 
ATOM     50  C   UNL A   1      41.589  28.441  27.234  1.00  0.00     0.173 A 
ATOM     51  C   UNL A   1      40.142  26.761  28.156  1.00  0.00     0.173 A 
ATOM     52  F   UNL A   1      42.190  29.638  27.302  1.00  0.00    -0.203 F 
ATOM     53  C   UNL A   1      41.825  27.628  26.128  1.00  0.00     0.198 A 
ATOM     54  C   UNL A   1      40.399  25.938  27.061  1.00  0.00     0.198 A 
ATOM     55  F   UNL A   1      39.352  26.303  29.138  1.00  0.00    -0.203 F 
ATOM     56  F   UNL A   1      42.634  28.053  25.148  1.00  0.00    -0.200 F 
ATOM     57  C   UNL A   1      41.242  26.373  26.049  1.00  0.00     0.200 A 
ATOM     58  F   UNL A   1      39.857  24.715  27.002  1.00  0.00    -0.200 F 
ATOM     59  F   UNL A   1      41.500  25.576  25.001  1.00  0.00    -0.200 F 
ENDBRANCH  25  49
BRANCH  37  60
ATOM     60  C   UNL A   1      43.817  28.009  34.566  1.00  0.00     0.064 A 
ATOM     61  C   UNL A   1      45.147  28.454  34.544  1.00  0.00     0.173 A 
ATOM     62  C   UNL A   1      43.531  26.809  35.231  1.00  0.00     0.173 A 
ATOM     63  F   UNL A   1      45.468  29.591  33.906  1.00  0.00    -0.203 F 
ATOM     64  C   UNL A   1      46.154  27.719  35.158  1.00  0.00     0.198 A 
ATOM     65  C   UNL A   1      44.536  26.092  35.871  1.00  0.00     0.198 A 
ATOM     66  F   UNL A   1      42.271  26.350  35.287  1.00  0.00    -0.203 F 
ATOM     67  F   UNL A   1      47.423  28.146  35.099  1.00  0.00    -0.200 F 
ATOM     68  C   UNL A   1      45.846  26.546  35.831  1.00  0.00     0.200 A 
ATOM     69  F   UNL A   1      44.236  24.967  36.535  1.00  0.00    -0.200 F 
ATOM     70  F   UNL A   1      46.815  25.849  36.441  1.00  0.00    -0.200 F 
ENDBRANCH  37  60
ENDBRANCH  11  12
ENDBRANCH   4   6
ENDBRANCH   3   4
ENDBRANCH   2   3
ENDBRANCH   1   2
BRANCH   1  71
ATOM     71  O   UNL A   1      31.516  30.881  26.658  1.00  0.00    -0.374 OA
BRANCH  71  72
ATOM     72  C   UNL A   1      32.876  30.459  26.756  1.00  0.00     0.202 C 
BRANCH  72  73
ATOM     73  C   UNL A   1      32.942  29.069  27.381  1.00  0.00     0.261 C 
BRANCH  73  74
ATOM     74  O   UNL A   1      32.944  28.088  26.335  1.00  0.00    -0.460 OA
BRANCH  74  75
ATOM     75  C   UNL A   1      31.780  27.438  26.074  1.00  0.00     0.338 C 
ATOM     76  O   UNL A   1      31.028  26.917  26.876  1.00  0.00    -0.246 OA
BRANCH  75  77
ATOM     77  C   UNL A   1      31.533  27.583  24.617  1.00  0.00     0.071 A 
ATOM     78  C   UNL A   1      30.715  28.642  24.243  1.00  0.00     0.047 A 
ATOM     79  C   UNL A   1      32.005  26.673  23.646  1.00  0.00     0.018 A 
ATOM     80  C   UNL A   1      30.361  28.796  22.918  1.00  0.00     0.090 A 
ATOM     81  C   UNL A   1      31.539  26.875  22.325  1.00  0.00     0.072 A 
ATOM     82  C   UNL A   1      32.865  25.575  23.905  1.00  0.00     0.050 A 
ATOM     83  N   UNL A   1      30.753  27.912  21.972  1.00  0.00    -0.246 NA
ATOM     84  C   UNL A   1      31.895  25.953  21.344  1.00  0.00     0.032 A 
ATOM     85  C   UNL A   1      33.188  24.672  22.902  1.00  0.00     0.123 A 
ATOM     86  C   UNL A   1      32.702  24.846  21.621  1.00  0.00     0.041 A 
ATOM     87  F   UNL A   1      33.960  23.614  23.185  1.00  0.00    -0.207 F 
BRANCH  80  88
ATOM     88  C   UNL A   1      29.555  29.971  22.548  1.00  0.00     0.089 A 
ATOM     89  C   UNL A   1      29.084  30.828  23.551  1.00  0.00     0.030 A 
ATOM     90  N   UNL A   1      29.125  30.060  21.266  1.00  0.00    -0.255 NA
ATOM     91  C   UNL A   1      28.112  31.771  23.245  1.00  0.00     0.004 A 
ATOM     92  C   UNL A   1      28.197  31.006  20.993  1.00  0.00     0.112 A 
ATOM     93  C   UNL A   1      27.653  31.860  21.940  1.00  0.00     0.020 A 
ENDBRANCH  80  88
ENDBRANCH  75  77
ENDBRANCH  74  75
ENDBRANCH  73  74
ENDBRANCH  72  73
ENDBRANCH  71  72
ENDBRANCH   1  71
TORSDOF 15
ENDMDL
MODEL 2
REMARK VINA RESULT:     -12.5      0.312      1.155
REMARK SMILES O=C(OCCOCCOC(=O)c1cc(-c2ccccn2)nc2ccc(F)cc12)c1ccc(-c2c3nc(c(-c4c(F)c(F)c(F)c(F)c4F)c4ccc([nH]4)c(-c4c(F)c(F)c(F)c(F)c4F)c4nc(c(-c5c(F)c(F)c(F)c(F)c5F)c5ccc2[nH]5)C=C4)C=C3)cc1
REMARK SMILES IDX 5 1 4 2 3 3 2 4 1 5 29 6 30 7 91 8 31 9 90 10 32 11 33 12
REMARK SMILES IDX 34 13 84 14 35 15 89 16 83 17 85 18 36 19 88 20 82 21 81 22
REMARK SMILES IDX 37 24 69 25 49 26 68 27 50 28 53 29 67 30 86 31 51 32 52 33
REMARK SMILES IDX 66 35 87 36 54 37 38 38 39 39 47 40 40 41 41 42 45 43 48 44
REMARK SMILES IDX 42 45 43 46 46 47 44 48 70 49 71 50 79 51 72 52 73 53 77 54
REMARK SMILES IDX 80 55 74 56 75 57 78 58 76 59 55 60 56 61 64 62 57 63 58 64
REMARK SMILES IDX 62 65 65 66 59 67 60 68 63 69 61 70 6 71 7 72 8 73 9 74
REMARK SMILES IDX 10 75 11 76 12 77 13 78 28 79 14 80 22 81 27 82 21 83 23 84
REMARK SMILES IDX 25 85 24 86 26 87 15 88 16 89 20 90 17 91 19 92 18 93
REMARK H PARENT 85 23 53 34
REMARK Flexibility Score: inf
ROOT
ATOM      1  C   UNL A   1      31.432  32.073  26.838  1.00  0.00     0.202 C 
ENDROOT
BRANCH   1   2
ATOM      2  C   UNL A   1      32.651  32.971  27.047  1.00  0.00     0.261 C 
BRANCH   2   3
ATOM      3  O   UNL A   1      32.344  34.078  27.901  1.00  0.00    -0.460 OA
BRANCH   3   4
ATOM      4  C   UNL A   1      33.178  34.735  28.738  1.00  0.00     0.338 C 
ATOM      5  O   UNL A   1      32.984  35.940  28.901  1.00  0.00    -0.246 OA
BRANCH   4   6
ATOM      6  C   UNL A   1      34.305  34.109  29.515  1.00  0.00     0.060 A 
ATOM      7  C   UNL A   1      35.600  34.437  29.068  1.00  0.00     0.016 A 
ATOM      8  C   UNL A   1      34.204  33.183  30.560  1.00  0.00     0.016 A 
ATOM      9  C   UNL A   1      36.732  33.815  29.598  1.00  0.00     0.010 A 
ATOM     10  C   UNL A   1      35.324  32.546  31.087  1.00  0.00     0.010 A 
ATOM     11  C   UNL A   1      36.587  32.849  30.596  1.00  0.00    -0.014 A 
BRANCH  11  12
ATOM     12  C   UNL A   1      37.756  32.232  31.234  1.00  0.00     0.031 A 
ATOM     13  C   UNL A   1      38.233  32.691  32.572  1.00  0.00     0.074 A 
ATOM     14  C   UNL A   1      38.424  31.318  30.512  1.00  0.00     0.049 A 
ATOM     15  N   UNL A   1      39.181  32.192  33.318  1.00  0.00    -0.248 NA
ATOM     16  C   UNL A   1      37.581  33.882  33.141  1.00  0.00     0.031 C 
ATOM     17  C   UNL A   1      38.077  30.928  29.142  1.00  0.00     0.029 A 
ATOM     18  N   UNL A   1      39.524  30.566  30.809  1.00  0.00    -0.354 N 
ATOM     19  C   UNL A   1      39.227  32.988  34.454  1.00  0.00     0.074 A 
ATOM     20  C   UNL A   1      38.253  34.042  34.274  1.00  0.00     0.031 C 
ATOM     21  C   UNL A   1      38.937  29.990  28.724  1.00  0.00     0.029 A 
ATOM     22  C   UNL A   1      39.883  29.713  29.798  1.00  0.00     0.049 A 
ATOM     23  H   UNL A   1      40.009  30.630  31.663  1.00  0.00     0.167 HD
ATOM     24  C   UNL A   1      40.006  32.819  35.547  1.00  0.00     0.037 A 
ATOM     25  C   UNL A   1      40.856  28.785  29.764  1.00  0.00     0.037 A 
ATOM     26  C   UNL A   1      40.974  31.757  35.662  1.00  0.00     0.049 A 
ATOM     27  C   UNL A   1      41.667  28.577  31.008  1.00  0.00     0.074 A 
ATOM     28  C   UNL A   1      41.759  31.413  36.747  1.00  0.00     0.029 A 
ATOM     29  N   UNL A   1      41.298  30.877  34.635  1.00  0.00    -0.354 N 
ATOM     30  N   UNL A   1      41.604  29.227  32.147  1.00  0.00    -0.248 NA
ATOM     31  C   UNL A   1      42.661  27.501  30.979  1.00  0.00     0.031 C 
ATOM     32  C   UNL A   1      42.595  30.361  36.359  1.00  0.00     0.029 A 
ATOM     33  C   UNL A   1      42.296  30.012  35.049  1.00  0.00     0.049 A 
ATOM     34  H   UNL A   1      40.879  30.870  33.744  1.00  0.00     0.167 HD
ATOM     35  C   UNL A   1      42.544  28.640  32.975  1.00  0.00     0.074 A 
ATOM     36  C   UNL A   1      43.146  27.561  32.214  1.00  0.00     0.031 C 
ATOM     37  C   UNL A   1      42.885  28.966  34.248  1.00  0.00     0.037 A 
BRANCH  24  38
ATOM     38  C   UNL A   1      39.833  33.765  36.703  1.00  0.00     0.064 A 
ATOM     39  C   UNL A   1      40.455  35.024  36.717  1.00  0.00     0.173 A 
ATOM     40  C   UNL A   1      38.973  33.453  37.768  1.00  0.00     0.173 A 
ATOM     41  F   UNL A   1      41.289  35.377  35.728  1.00  0.00    -0.203 F 
ATOM     42  C   UNL A   1      40.235  35.925  37.757  1.00  0.00     0.198 A 
ATOM     43  C   UNL A   1      38.733  34.368  38.792  1.00  0.00     0.198 A 
ATOM     44  F   UNL A   1      38.345  32.268  37.806  1.00  0.00    -0.203 F 
ATOM     45  F   UNL A   1      40.864  37.109  37.760  1.00  0.00    -0.200 F 
ATOM     46  C   UNL A   1      39.367  35.602  38.787  1.00  0.00     0.200 A 
ATOM     47  F   UNL A   1      37.882  34.060  39.780  1.00  0.00    -0.200 F 
ATOM     48  F   UNL A   1      39.140  36.478  39.775  1.00  0.00    -0.200 F 
ENDBRANCH  24  38
BRANCH  25  49
ATOM     49  C   UNL A   1      40.995  27.947  28.550  1.00  0.00     0.064 A 
ATOM     50  C   UNL A   1      40.231  26.783  28.395  1.00  0.00     0.173 A 
ATOM     51  C   UNL A   1      41.781  28.362  27.464  1.00  0.00     0.173 A 
ATOM     52  F   UNL A   1      39.463  26.348  29.405  1.00  0.00    -0.203 F 
ATOM     53  C   UNL A   1      40.241  26.070  27.199  1.00  0.00     0.198 A 
ATOM     54  C   UNL A   1      41.771  27.662  26.259  1.00  0.00     0.198 A 
ATOM     55  F   UNL A   1      42.509  29.485  27.553  1.00  0.00    -0.203 F 
ATOM     56  F   UNL A   1      39.499  24.961  27.077  1.00  0.00    -0.200 F 
ATOM     57  C   UNL A   1      40.999  26.517  26.127  1.00  0.00     0.200 A 
ATOM     58  F   UNL A   1      42.483  28.113  25.217  1.00  0.00    -0.200 F 
ATOM     59  F   UNL A   1      40.979  25.851  24.964  1.00  0.00    -0.200 F 
ENDBRANCH  25  49
BRANCH  37  60
ATOM     60  C   UNL A   1      43.981  28.164  34.879  1.00  0.00     0.064 A 
ATOM     61  C   UNL A   1      45.313  28.602  34.835  1.00  0.00     0.173 A 
ATOM     62  C   UNL A   1      43.690  26.999  35.603  1.00  0.00     0.173 A 
ATOM     63  F   UNL A   1      45.638  29.705  34.142  1.00  0.00    -0.203 F 
ATOM     64  C   UNL A   1      46.317  27.895  35.487  1.00  0.00     0.198 A 
ATOM     65  C   UNL A   1      44.693  26.312  36.278  1.00  0.00     0.198 A 
ATOM     66  F   UNL A   1      42.429  26.547  35.680  1.00  0.00    -0.203 F 
ATOM     67  F   UNL A   1      47.587  28.314  35.407  1.00  0.00    -0.200 F 
ATOM     68  C   UNL A   1      46.004  26.758  36.217  1.00  0.00     0.200 A 
ATOM     69  F   UNL A   1      44.388  25.222  36.997  1.00  0.00    -0.200 F 
ATOM     70  F   UNL A   1      46.970  26.090  36.862  1.00  0.00    -0.200 F 
ENDBRANCH  37  60
ENDBRANCH  11  12
ENDBRANCH   4   6
ENDBRANCH   3   4
ENDBRANCH   2   3
ENDBRANCH   1   2
BRANCH   1  71
ATOM     71  O   UNL A   1      31.765  30.686  26.803  1.00  0.00    -0.374 OA
BRANCH  71  72
ATOM     72  C   UNL A   1      33.160  30.385  26.797  1.00  0.00     0.202 C 
BRANCH  72  73
ATOM     73  C   UNL A   1      33.389  28.982  27.348  1.00  0.00     0.261 C 
BRANCH  73  74
ATOM     74  O   UNL A   1      33.312  28.040  26.270  1.00  0.00    -0.460 OA
BRANCH  74  75
ATOM     75  C   UNL A   1      32.137  27.384  26.085  1.00  0.00     0.338 C 
ATOM     76  O   UNL A   1      31.431  26.875  26.935  1.00  0.00    -0.246 OA
BRANCH  75  77
ATOM     77  C   UNL A   1      31.808  27.508  24.642  1.00  0.00     0.071 A 
ATOM     78  C   UNL A   1      30.941  28.540  24.303  1.00  0.00     0.047 A 
ATOM     79  C   UNL A   1      32.254  26.601  23.655  1.00  0.00     0.018 A 
ATOM     80  C   UNL A   1      30.513  28.670  22.998  1.00  0.00     0.090 A 
ATOM     81  C   UNL A   1      31.712  26.777  22.359  1.00  0.00     0.072 A 
ATOM     82  C   UNL A   1      33.157  25.530  23.877  1.00  0.00     0.050 A 
ATOM     83  N   UNL A   1      30.879  27.788  22.040  1.00  0.00    -0.246 NA
ATOM     84  C   UNL A   1      32.041  25.855  21.368  1.00  0.00     0.032 A 
ATOM     85  C   UNL A   1      33.451  24.627  22.865  1.00  0.00     0.123 A 
ATOM     86  C   UNL A   1      32.893  24.774  21.611  1.00  0.00     0.041 A 
ATOM     87  F   UNL A   1      34.267  23.594  23.116  1.00  0.00    -0.207 F 
BRANCH  80  88
ATOM     88  C   UNL A   1      29.655  29.818  22.662  1.00  0.00     0.089 A 
ATOM     89  C   UNL A   1      29.301  30.731  23.663  1.00  0.00     0.030 A 
ATOM     90  N   UNL A   1      29.071  29.829  21.439  1.00  0.00    -0.255 NA
ATOM     91  C   UNL A   1      28.289  31.651  23.424  1.00  0.00     0.004 A 
ATOM     92  C   UNL A   1      28.107  30.754  21.227  1.00  0.00     0.112 A 
ATOM     93  C   UNL A   1      27.673  31.661  22.182  1.00  0.00     0.020 A 
ENDBRANCH  80  88
ENDBRANCH  75  77
ENDBRANCH  74  75
ENDBRANCH  73  74
ENDBRANCH  72  73
ENDBRANCH  71  72
ENDBRANCH   1  71
TORSDOF 15
ENDMDL
MODEL 3
REMARK VINA RESULT:     -12.3      4.261      9.660
REMARK SMILES O=C(OCCOCCOC(=O)c1cc(-c2ccccn2)nc2ccc(F)cc12)c1ccc(-c2c3nc(c(-c4c(F)c(F)c(F)c(F)c4F)c4ccc([nH]4)c(-c4c(F)c(F)c(F)c(F)c4F)c4nc(c(-c5c(F)c(F)c(F)c(F)c5F)c5ccc2[nH]5)C=C4)C=C3)cc1
REMARK SMILES IDX 5 1 4 2 3 3 2 4 1 5 29 6 30 7 91 8 31 9 90 10 32 11 33 12
REMARK SMILES IDX 34 13 84 14 35 15 89 16 83 17 85 18 36 19 88 20 82 21 81 22
REMARK SMILES IDX 37 24 69 25 49 26 68 27 50 28 53 29 67 30 86 31 51 32 52 33
REMARK SMILES IDX 66 35 87 36 54 37 38 38 39 39 47 40 40 41 41 42 45 43 48 44
REMARK SMILES IDX 42 45 43 46 46 47 44 48 70 49 71 50 79 51 72 52 73 53 77 54
REMARK SMILES IDX 80 55 74 56 75 57 78 58 76 59 55 60 56 61 64 62 57 63 58 64
REMARK SMILES IDX 62 65 65 66 59 67 60 68 63 69 61 70 6 71 7 72 8 73 9 74
REMARK SMILES IDX 10 75 11 76 12 77 13 78 28 79 14 80 22 81 27 82 21 83 23 84
REMARK SMILES IDX 25 85 24 86 26 87 15 88 16 89 20 90 17 91 19 92 18 93
REMARK H PARENT 85 23 53 34
REMARK Flexibility Score: inf
ROOT
ATOM      1  C   UNL A   1      41.670  21.357  26.557  1.00  0.00     0.202 C 
ENDROOT
BRANCH   1   2
ATOM      2  C   UNL A   1      42.886  21.832  25.761  1.00  0.00     0.261 C 
BRANCH   2   3
ATOM      3  O   UNL A   1      42.602  23.036  25.041  1.00  0.00    -0.460 OA
BRANCH   3   4
ATOM      4  C   UNL A   1      43.011  24.291  25.330  1.00  0.00     0.338 C 
ATOM      5  O   UNL A   1      43.899  24.774  24.627  1.00  0.00    -0.246 OA
BRANCH   4   6
ATOM      6  C   UNL A   1      42.450  25.161  26.423  1.00  0.00     0.060 A 
ATOM      7  C   UNL A   1      43.036  26.436  26.539  1.00  0.00     0.016 A 
ATOM      8  C   UNL A   1      41.484  24.812  27.375  1.00  0.00     0.016 A 
ATOM      9  C   UNL A   1      42.718  27.289  27.597  1.00  0.00     0.010 A 
ATOM     10  C   UNL A   1      41.168  25.647  28.442  1.00  0.00     0.010 A 
ATOM     11  C   UNL A   1      41.797  26.880  28.564  1.00  0.00    -0.014 A 
BRANCH  11  12
ATOM     12  C   UNL A   1      41.377  27.779  29.645  1.00  0.00     0.031 A 
ATOM     13  C   UNL A   1      40.199  28.681  29.481  1.00  0.00     0.074 A 
ATOM     14  C   UNL A   1      42.162  27.819  30.734  1.00  0.00     0.049 A 
ATOM     15  N   UNL A   1      39.636  29.461  30.364  1.00  0.00    -0.248 NA
ATOM     16  C   UNL A   1      39.585  28.742  28.144  1.00  0.00     0.031 C 
ATOM     17  C   UNL A   1      43.402  27.054  30.892  1.00  0.00     0.029 A 
ATOM     18  N   UNL A   1      42.051  28.526  31.896  1.00  0.00    -0.354 N 
ATOM     19  C   UNL A   1      38.587  30.085  29.703  1.00  0.00     0.074 A 
ATOM     20  C   UNL A   1      38.629  29.643  28.327  1.00  0.00     0.031 C 
ATOM     21  C   UNL A   1      43.928  27.318  32.094  1.00  0.00     0.029 A 
ATOM     22  C   UNL A   1      43.058  28.260  32.788  1.00  0.00     0.049 A 
ATOM     23  H   UNL A   1      41.323  29.164  32.076  1.00  0.00     0.167 HD
ATOM     24  C   UNL A   1      37.671  30.931  30.227  1.00  0.00     0.037 A 
ATOM     25  C   UNL A   1      43.234  28.709  34.042  1.00  0.00     0.037 A 
ATOM     26  C   UNL A   1      37.691  31.351  31.606  1.00  0.00     0.049 A 
ATOM     27  C   UNL A   1      42.175  29.599  34.621  1.00  0.00     0.074 A 
ATOM     28  C   UNL A   1      36.773  32.126  32.290  1.00  0.00     0.029 A 
ATOM     29  N   UNL A   1      38.705  31.039  32.506  1.00  0.00    -0.354 N 
ATOM     30  N   UNL A   1      41.091  30.066  34.044  1.00  0.00    -0.248 NA
ATOM     31  C   UNL A   1      42.339  30.005  36.019  1.00  0.00     0.031 C 
ATOM     32  C   UNL A   1      37.258  32.326  33.587  1.00  0.00     0.029 A 
ATOM     33  C   UNL A   1      38.452  31.633  33.730  1.00  0.00     0.049 A 
ATOM     34  H   UNL A   1      39.487  30.477  32.302  1.00  0.00     0.167 HD
ATOM     35  C   UNL A   1      40.440  30.818  35.006  1.00  0.00     0.074 A 
ATOM     36  C   UNL A   1      41.238  30.722  36.214  1.00  0.00     0.031 C 
ATOM     37  C   UNL A   1      39.289  31.530  34.901  1.00  0.00     0.037 A 
BRANCH  24  38
ATOM     38  C   UNL A   1      36.567  31.433  29.337  1.00  0.00     0.064 A 
ATOM     39  C   UNL A   1      35.533  30.587  28.906  1.00  0.00     0.173 A 
ATOM     40  C   UNL A   1      36.490  32.789  28.980  1.00  0.00     0.173 A 
ATOM     41  F   UNL A   1      35.555  29.282  29.214  1.00  0.00    -0.203 F 
ATOM     42  C   UNL A   1      34.475  31.074  28.140  1.00  0.00     0.198 A 
ATOM     43  C   UNL A   1      35.416  33.279  28.239  1.00  0.00     0.198 A 
ATOM     44  F   UNL A   1      37.445  33.647  29.370  1.00  0.00    -0.203 F 
ATOM     45  F   UNL A   1      33.516  30.239  27.718  1.00  0.00    -0.200 F 
ATOM     46  C   UNL A   1      34.412  32.420  27.817  1.00  0.00     0.200 A 
ATOM     47  F   UNL A   1      35.348  34.583  27.940  1.00  0.00    -0.200 F 
ATOM     48  F   UNL A   1      33.382  32.891  27.099  1.00  0.00    -0.200 F 
ENDBRANCH  24  38
BRANCH  25  49
ATOM     49  C   UNL A   1      44.394  28.212  34.819  1.00  0.00     0.064 A 
ATOM     50  C   UNL A   1      44.335  26.977  35.478  1.00  0.00     0.173 A 
ATOM     51  C   UNL A   1      45.625  28.886  34.801  1.00  0.00     0.173 A 
ATOM     52  F   UNL A   1      43.180  26.297  35.520  1.00  0.00    -0.203 F 
ATOM     53  C   UNL A   1      45.464  26.431  36.083  1.00  0.00     0.198 A 
ATOM     54  C   UNL A   1      46.760  28.326  35.385  1.00  0.00     0.198 A 
ATOM     55  F   UNL A   1      45.740  30.058  34.159  1.00  0.00    -0.203 F 
ATOM     56  F   UNL A   1      45.380  25.247  36.705  1.00  0.00    -0.200 F 
ATOM     57  C   UNL A   1      46.678  27.098  36.024  1.00  0.00     0.200 A 
ATOM     58  F   UNL A   1      47.937  28.960  35.302  1.00  0.00    -0.200 F 
ATOM     59  F   UNL A   1      47.772  26.553  36.575  1.00  0.00    -0.200 F 
ENDBRANCH  25  49
BRANCH  37  60
ATOM     60  C   UNL A   1      38.849  32.285  36.118  1.00  0.00     0.064 A 
ATOM     61  C   UNL A   1      38.119  31.652  37.134  1.00  0.00     0.173 A 
ATOM     62  C   UNL A   1      39.233  33.620  36.310  1.00  0.00     0.173 A 
ATOM     63  F   UNL A   1      37.719  30.379  36.986  1.00  0.00    -0.203 F 
ATOM     64  C   UNL A   1      37.778  32.335  38.296  1.00  0.00     0.198 A 
ATOM     65  C   UNL A   1      38.916  34.289  37.487  1.00  0.00     0.198 A 
ATOM     66  F   UNL A   1      39.942  34.262  35.369  1.00  0.00    -0.203 F 
ATOM     67  F   UNL A   1      37.053  31.721  39.242  1.00  0.00    -0.200 F 
ATOM     68  C   UNL A   1      38.187  33.648  38.476  1.00  0.00     0.200 A 
ATOM     69  F   UNL A   1      39.325  35.552  37.668  1.00  0.00    -0.200 F 
ATOM     70  F   UNL A   1      37.875  34.297  39.607  1.00  0.00    -0.200 F 
ENDBRANCH  37  60
ENDBRANCH  11  12
ENDBRANCH   4   6
ENDBRANCH   3   4
ENDBRANCH   2   3
ENDBRANCH   1   2
BRANCH   1  71
ATOM     71  O   UNL A   1      40.498  21.229  25.755  1.00  0.00    -0.374 OA
BRANCH  71  72
ATOM     72  C   UNL A   1      39.330  21.875  26.259  1.00  0.00     0.202 C 
BRANCH  72  73
ATOM     73  C   UNL A   1      38.131  21.539  25.378  1.00  0.00     0.261 C 
BRANCH  73  74
ATOM     74  O   UNL A   1      37.410  22.745  25.094  1.00  0.00    -0.460 OA
BRANCH  74  75
ATOM     75  C   UNL A   1      36.474  22.707  24.109  1.00  0.00     0.338 C 
ATOM     76  O   UNL A   1      36.635  22.941  22.926  1.00  0.00    -0.246 OA
BRANCH  75  77
ATOM     77  C   UNL A   1      35.224  22.206  24.734  1.00  0.00     0.071 A 
ATOM     78  C   UNL A   1      34.999  20.839  24.630  1.00  0.00     0.047 A 
ATOM     79  C   UNL A   1      34.253  23.043  25.328  1.00  0.00     0.018 A 
ATOM     80  C   UNL A   1      33.819  20.303  25.105  1.00  0.00     0.090 A 
ATOM     81  C   UNL A   1      33.050  22.413  25.728  1.00  0.00     0.072 A 
ATOM     82  C   UNL A   1      34.384  24.443  25.514  1.00  0.00     0.050 A 
ATOM     83  N   UNL A   1      32.847  21.084  25.631  1.00  0.00    -0.246 NA
ATOM     84  C   UNL A   1      32.020  23.203  26.231  1.00  0.00     0.032 A 
ATOM     85  C   UNL A   1      33.330  25.196  26.010  1.00  0.00     0.123 A 
ATOM     86  C   UNL A   1      32.141  24.589  26.363  1.00  0.00     0.041 A 
ATOM     87  F   UNL A   1      33.461  26.524  26.126  1.00  0.00    -0.207 F 
BRANCH  80  88
ATOM     88  C   UNL A   1      33.648  18.843  25.045  1.00  0.00     0.089 A 
ATOM     89  C   UNL A   1      34.512  18.078  24.251  1.00  0.00     0.030 A 
ATOM     90  N   UNL A   1      32.527  18.318  25.598  1.00  0.00    -0.255 NA
ATOM     91  C   UNL A   1      34.199  16.754  23.976  1.00  0.00     0.004 A 
ATOM     92  C   UNL A   1      32.262  17.018  25.334  1.00  0.00     0.112 A 
ATOM     93  C   UNL A   1      33.046  16.211  24.523  1.00  0.00     0.020 A 
ENDBRANCH  80  88
ENDBRANCH  75  77
ENDBRANCH  74  75
ENDBRANCH  73  74
ENDBRANCH  72  73
ENDBRANCH  71  72
ENDBRANCH   1  71
TORSDOF 15
ENDMDL
