MODEL 1
REMARK VINA RESULT:     -13.0      0.000      0.000
REMARK SMILES Cc1ccc(S(=O)(=O)n2cc(C(=O)C(=O)NCC(=O)OCCOCCOC(=O)c3ccc(-c4c5nc(c(-c6c(F)c(F)c(F)c(F)c6F)c6ccc([nH]6)c(-c6c(F)c(F)c(F)c(F)c6F)c6nc(c(-c7c(F)c(F)c(F)c(F)c7F)c7ccc4[nH]7)C=C6)C=C5)cc3)c3ccccc32)cc1
REMARK SMILES IDX 21 1 20 2 18 3 19 4 17 5 16 6 14 7 15 8 12 10 13 11 11 12
REMARK SMILES IDX 9 13 10 14 97 15 92 16 96 17 93 18 95 19 94 20 6 21 7 22
REMARK SMILES IDX 8 23 5 24 1 25 2 26 3 27 99 28 4 29 98 30 22 31 23 32 24 33
REMARK SMILES IDX 25 34 26 35 27 36 28 37 29 38 30 39 91 40 31 41 90 42 32 43
REMARK SMILES IDX 33 44 34 45 84 46 35 47 89 48 83 49 85 50 36 51 88 52 82 53
REMARK SMILES IDX 81 54 37 56 69 57 49 58 68 59 50 60 53 61 67 62 86 63 51 64
REMARK SMILES IDX 52 65 66 67 87 68 54 69 38 70 39 71 47 72 40 73 41 74 45 75
REMARK SMILES IDX 48 76 42 77 43 78 46 79 44 80 70 81 71 82 79 83 72 84 73 85
REMARK SMILES IDX 77 86 80 87 74 88 75 89 78 90 76 91 55 92 56 93 64 94 57 95
REMARK SMILES IDX 58 96 62 97 65 98 59 99 60 100 63 101 61 102
REMARK H PARENT 16 9 85 55 53 66
REMARK Flexibility Score: inf
ROOT
ATOM      1  C   UNL A   1      33.166  34.585  29.114  1.00  0.00     0.261 C 
ENDROOT
BRANCH   1   2
ATOM      2  O   UNL A   1      34.271  33.885  29.698  1.00  0.00    -0.462 OA
BRANCH   2   3
ATOM      3  C   UNL A   1      34.978  32.991  28.936  1.00  0.00     0.325 C 
ATOM      4  O   UNL A   1      36.191  32.849  28.944  1.00  0.00    -0.250 OA
BRANCH   3   5
ATOM      5  C   UNL A   1      34.037  32.218  28.015  1.00  0.00     0.239 C 
BRANCH   5   6
ATOM      6  N   UNL A   1      34.743  31.090  27.412  1.00  0.00    -0.338 N 
ATOM      7  C   UNL A   1      34.205  29.878  27.032  1.00  0.00     0.292 C 
ATOM      8  O   UNL A   1      34.969  28.934  26.854  1.00  0.00    -0.265 OA
ATOM      9  H   UNL A   1      35.709  31.208  27.261  1.00  0.00     0.164 HD
BRANCH   7  10
ATOM     10  C   UNL A   1      32.665  29.719  26.885  1.00  0.00     0.252 C 
ATOM     11  O   UNL A   1      31.938  30.632  27.268  1.00  0.00    -0.283 OA
BRANCH  10  12
ATOM     12  C   UNL A   1      32.080  28.531  26.265  1.00  0.00     0.054 A 
ATOM     13  N   UNL A   1      31.516  26.425  25.809  1.00  0.00    -0.240 N 
ATOM     14  C   UNL A   1      32.171  27.226  26.706  1.00  0.00     0.117 A 
ATOM     15  C   UNL A   1      30.985  27.164  24.774  1.00  0.00     0.065 A 
ATOM     16  C   UNL A   1      31.323  28.497  25.043  1.00  0.00     0.012 A 
ATOM     17  C   UNL A   1      30.283  26.799  23.611  1.00  0.00     0.028 A 
ATOM     18  C   UNL A   1      30.924  29.492  24.123  1.00  0.00     0.011 A 
ATOM     19  C   UNL A   1      29.932  27.806  22.706  1.00  0.00     0.002 A 
ATOM     20  C   UNL A   1      30.243  29.135  22.958  1.00  0.00     0.001 A 
BRANCH  13  21
ATOM     21  S   UNL A   1      31.532  24.728  25.907  1.00  0.00     0.268 S 
ATOM     22  O   UNL A   1      30.469  24.288  25.017  1.00  0.00    -0.201 OA
ATOM     23  O   UNL A   1      31.534  24.407  27.317  1.00  0.00    -0.201 OA
BRANCH  21  24
ATOM     24  C   UNL A   1      33.071  24.162  25.233  1.00  0.00     0.088 A 
ATOM     25  C   UNL A   1      36.639  22.888  23.203  1.00  0.00     0.044 C 
ATOM     26  C   UNL A   1      35.401  23.312  23.938  1.00  0.00    -0.051 A 
ATOM     27  C   UNL A   1      34.152  22.824  23.535  1.00  0.00     0.005 A 
ATOM     28  C   UNL A   1      35.474  24.196  25.021  1.00  0.00     0.005 A 
ATOM     29  C   UNL A   1      32.989  23.250  24.176  1.00  0.00     0.022 A 
ATOM     30  C   UNL A   1      34.314  24.613  25.680  1.00  0.00     0.022 A 
ENDBRANCH  21  24
ENDBRANCH  13  21
ENDBRANCH  10  12
ENDBRANCH   7  10
ENDBRANCH   5   6
ENDBRANCH   3   5
ENDBRANCH   2   3
ENDBRANCH   1   2
BRANCH   1  31
ATOM     31  C   UNL A   1      33.450  36.060  29.042  1.00  0.00     0.202 C 
BRANCH  31  32
ATOM     32  O   UNL A   1      32.646  36.655  30.052  1.00  0.00    -0.374 OA
BRANCH  32  33
ATOM     33  C   UNL A   1      33.315  37.027  31.242  1.00  0.00     0.202 C 
BRANCH  33  34
ATOM     34  C   UNL A   1      32.886  36.230  32.484  1.00  0.00     0.261 C 
BRANCH  34  35
ATOM     35  O   UNL A   1      34.048  35.773  33.208  1.00  0.00    -0.460 OA
BRANCH  35  36
ATOM     36  C   UNL A   1      34.307  34.436  33.148  1.00  0.00     0.338 C 
ATOM     37  O   UNL A   1      33.467  33.553  33.179  1.00  0.00    -0.246 OA
BRANCH  36  38
ATOM     38  C   UNL A   1      35.770  34.205  33.334  1.00  0.00     0.060 A 
ATOM     39  C   UNL A   1      36.691  34.628  32.356  1.00  0.00     0.016 A 
ATOM     40  C   UNL A   1      36.158  33.280  34.294  1.00  0.00     0.016 A 
ATOM     41  C   UNL A   1      37.945  34.001  32.249  1.00  0.00     0.010 A 
ATOM     42  C   UNL A   1      37.314  32.565  34.083  1.00  0.00     0.010 A 
ATOM     43  C   UNL A   1      38.213  32.901  33.056  1.00  0.00    -0.014 A 
BRANCH  43  44
ATOM     44  C   UNL A   1      39.350  31.980  32.964  1.00  0.00     0.031 A 
ATOM     45  C   UNL A   1      39.169  30.794  32.083  1.00  0.00     0.074 A 
ATOM     46  C   UNL A   1      40.604  32.351  33.338  1.00  0.00     0.049 A 
ATOM     47  N   UNL A   1      40.063  29.895  31.890  1.00  0.00    -0.248 NA
ATOM     48  C   UNL A   1      37.945  30.515  31.334  1.00  0.00     0.031 C 
ATOM     49  C   UNL A   1      41.875  31.876  32.775  1.00  0.00     0.029 A 
ATOM     50  N   UNL A   1      41.042  33.274  34.307  1.00  0.00    -0.354 N 
ATOM     51  C   UNL A   1      39.702  29.145  30.795  1.00  0.00     0.074 A 
ATOM     52  C   UNL A   1      38.338  29.521  30.533  1.00  0.00     0.031 C 
ATOM     53  C   UNL A   1      42.890  32.223  33.584  1.00  0.00     0.029 A 
ATOM     54  C   UNL A   1      42.294  32.809  34.766  1.00  0.00     0.049 A 
ATOM     55  H   UNL A   1      40.569  34.085  34.606  1.00  0.00     0.167 HD
ATOM     56  C   UNL A   1      40.672  28.383  30.211  1.00  0.00     0.037 A 
ATOM     57  C   UNL A   1      42.484  32.429  36.058  1.00  0.00     0.037 A 
ATOM     58  C   UNL A   1      41.902  28.447  31.015  1.00  0.00     0.049 A 
ATOM     59  C   UNL A   1      42.889  30.985  36.093  1.00  0.00     0.074 A 
ATOM     60  C   UNL A   1      43.111  29.109  30.872  1.00  0.00     0.029 A 
ATOM     61  N   UNL A   1      41.847  28.024  32.342  1.00  0.00    -0.354 N 
ATOM     62  N   UNL A   1      42.578  30.147  35.141  1.00  0.00    -0.248 NA
ATOM     63  C   UNL A   1      43.751  30.394  37.106  1.00  0.00     0.031 C 
ATOM     64  C   UNL A   1      43.777  29.079  32.132  1.00  0.00     0.029 A 
ATOM     65  C   UNL A   1      42.982  28.387  33.034  1.00  0.00     0.049 A 
ATOM     66  H   UNL A   1      41.092  27.530  32.735  1.00  0.00     0.167 HD
ATOM     67  C   UNL A   1      43.243  28.972  35.334  1.00  0.00     0.074 A 
ATOM     68  C   UNL A   1      43.936  29.162  36.595  1.00  0.00     0.031 C 
ATOM     69  C   UNL A   1      43.181  27.961  34.418  1.00  0.00     0.037 A 
BRANCH  56  70
ATOM     70  C   UNL A   1      40.613  27.701  28.855  1.00  0.00     0.064 A 
ATOM     71  C   UNL A   1      39.831  26.534  28.680  1.00  0.00     0.173 A 
ATOM     72  C   UNL A   1      41.302  28.106  27.694  1.00  0.00     0.173 A 
ATOM     73  F   UNL A   1      39.080  26.037  29.671  1.00  0.00    -0.203 F 
ATOM     74  C   UNL A   1      39.783  25.822  27.476  1.00  0.00     0.198 A 
ATOM     75  C   UNL A   1      41.270  27.383  26.495  1.00  0.00     0.198 A 
ATOM     76  F   UNL A   1      42.007  29.234  27.638  1.00  0.00    -0.203 F 
ATOM     77  F   UNL A   1      39.025  24.720  27.385  1.00  0.00    -0.200 F 
ATOM     78  C   UNL A   1      40.513  26.240  26.385  1.00  0.00     0.200 A 
ATOM     79  F   UNL A   1      41.978  27.819  25.441  1.00  0.00    -0.200 F 
ATOM     80  F   UNL A   1      40.474  25.558  25.233  1.00  0.00    -0.200 F 
ENDBRANCH  56  70
BRANCH  57  81
ATOM     81  C   UNL A   1      41.597  33.192  36.982  1.00  0.00     0.064 A 
ATOM     82  C   UNL A   1      42.059  34.472  37.368  1.00  0.00     0.173 A 
ATOM     83  C   UNL A   1      40.212  32.980  36.990  1.00  0.00     0.173 A 
ATOM     84  F   UNL A   1      43.376  34.732  37.378  1.00  0.00    -0.203 F 
ATOM     85  C   UNL A   1      41.177  35.536  37.550  1.00  0.00     0.198 A 
ATOM     86  C   UNL A   1      39.332  34.049  37.196  1.00  0.00     0.198 A 
ATOM     87  F   UNL A   1      39.708  31.789  36.640  1.00  0.00    -0.203 F 
ATOM     88  F   UNL A   1      41.651  36.779  37.724  1.00  0.00    -0.200 F 
ATOM     89  C   UNL A   1      39.815  35.331  37.417  1.00  0.00     0.200 A 
ATOM     90  F   UNL A   1      38.010  33.861  37.063  1.00  0.00    -0.200 F 
ATOM     91  F   UNL A   1      38.974  36.377  37.435  1.00  0.00    -0.200 F 
ENDBRANCH  57  81
BRANCH  69  92
ATOM     92  C   UNL A   1      43.368  26.489  34.715  1.00  0.00     0.064 A 
ATOM     93  C   UNL A   1      42.334  25.627  35.114  1.00  0.00     0.173 A 
ATOM     94  C   UNL A   1      44.599  25.843  34.423  1.00  0.00     0.173 A 
ATOM     95  F   UNL A   1      41.082  26.058  35.301  1.00  0.00    -0.203 F 
ATOM     96  C   UNL A   1      42.529  24.254  35.276  1.00  0.00     0.198 A 
ATOM     97  C   UNL A   1      44.765  24.463  34.505  1.00  0.00     0.198 A 
ATOM     98  F   UNL A   1      45.681  26.514  34.006  1.00  0.00    -0.203 F 
ATOM     99  F   UNL A   1      41.516  23.494  35.714  1.00  0.00    -0.200 F 
ATOM    100  C   UNL A   1      43.737  23.670  34.954  1.00  0.00     0.200 A 
ATOM    101  F   UNL A   1      45.925  23.911  34.117  1.00  0.00    -0.200 F 
ATOM    102  F   UNL A   1      43.900  22.344  35.056  1.00  0.00    -0.200 F 
ENDBRANCH  69  92
ENDBRANCH  43  44
ENDBRANCH  36  38
ENDBRANCH  35  36
ENDBRANCH  34  35
ENDBRANCH  33  34
ENDBRANCH  32  33
ENDBRANCH  31  32
ENDBRANCH   1  31
TORSDOF 19
ENDMDL
MODEL 2
REMARK VINA RESULT:     -12.6      5.413     11.221
REMARK SMILES Cc1ccc(S(=O)(=O)n2cc(C(=O)C(=O)NCC(=O)OCCOCCOC(=O)c3ccc(-c4c5nc(c(-c6c(F)c(F)c(F)c(F)c6F)c6ccc([nH]6)c(-c6c(F)c(F)c(F)c(F)c6F)c6nc(c(-c7c(F)c(F)c(F)c(F)c7F)c7ccc4[nH]7)C=C6)C=C5)cc3)c3ccccc32)cc1
REMARK SMILES IDX 21 1 20 2 18 3 19 4 17 5 16 6 14 7 15 8 12 10 13 11 11 12
REMARK SMILES IDX 9 13 10 14 97 15 92 16 96 17 93 18 95 19 94 20 6 21 7 22
REMARK SMILES IDX 8 23 5 24 1 25 2 26 3 27 99 28 4 29 98 30 22 31 23 32 24 33
REMARK SMILES IDX 25 34 26 35 27 36 28 37 29 38 30 39 91 40 31 41 90 42 32 43
REMARK SMILES IDX 33 44 34 45 84 46 35 47 89 48 83 49 85 50 36 51 88 52 82 53
REMARK SMILES IDX 81 54 37 56 69 57 49 58 68 59 50 60 53 61 67 62 86 63 51 64
REMARK SMILES IDX 52 65 66 67 87 68 54 69 38 70 39 71 47 72 40 73 41 74 45 75
REMARK SMILES IDX 48 76 42 77 43 78 46 79 44 80 70 81 71 82 79 83 72 84 73 85
REMARK SMILES IDX 77 86 80 87 74 88 75 89 78 90 76 91 55 92 56 93 64 94 57 95
REMARK SMILES IDX 58 96 62 97 65 98 59 99 60 100 63 101 61 102
REMARK H PARENT 16 9 85 55 53 66
REMARK Flexibility Score: inf
ROOT
ATOM      1  C   UNL A   1      39.820  21.606  25.998  1.00  0.00     0.261 C 
ENDROOT
BRANCH   1   2
ATOM      2  O   UNL A   1      38.422  21.552  26.306  1.00  0.00    -0.462 OA
BRANCH   2   3
ATOM      3  C   UNL A   1      37.510  21.925  25.354  1.00  0.00     0.325 C 
ATOM      4  O   UNL A   1      37.577  21.671  24.161  1.00  0.00    -0.250 OA
BRANCH   3   5
ATOM      5  C   UNL A   1      36.402  22.768  25.983  1.00  0.00     0.239 C 
BRANCH   5   6
ATOM      6  N   UNL A   1      35.538  21.924  26.804  1.00  0.00    -0.338 N 
ATOM      7  C   UNL A   1      34.241  21.541  26.528  1.00  0.00     0.292 C 
ATOM      8  O   UNL A   1      33.552  21.119  27.451  1.00  0.00    -0.265 OA
ATOM      9  H   UNL A   1      35.923  21.592  27.648  1.00  0.00     0.164 HD
BRANCH   7  10
ATOM     10  C   UNL A   1      33.672  21.695  25.089  1.00  0.00     0.252 C 
ATOM     11  O   UNL A   1      33.786  20.757  24.305  1.00  0.00    -0.283 OA
BRANCH  10  12
ATOM     12  C   UNL A   1      32.974  22.912  24.675  1.00  0.00     0.054 A 
ATOM     13  N   UNL A   1      32.432  24.810  23.645  1.00  0.00    -0.240 N 
ATOM     14  C   UNL A   1      33.336  23.783  23.668  1.00  0.00     0.117 A 
ATOM     15  C   UNL A   1      31.467  24.649  24.615  1.00  0.00     0.065 A 
ATOM     16  C   UNL A   1      31.784  23.454  25.275  1.00  0.00     0.012 A 
ATOM     17  C   UNL A   1      30.376  25.444  25.011  1.00  0.00     0.028 A 
ATOM     18  C   UNL A   1      30.968  23.040  26.351  1.00  0.00     0.011 A 
ATOM     19  C   UNL A   1      29.609  25.022  26.101  1.00  0.00     0.002 A 
ATOM     20  C   UNL A   1      29.896  23.835  26.760  1.00  0.00     0.001 A 
BRANCH  13  21
ATOM     21  S   UNL A   1      32.614  26.176  22.648  1.00  0.00     0.268 S 
ATOM     22  O   UNL A   1      31.451  26.163  21.773  1.00  0.00    -0.201 OA
ATOM     23  O   UNL A   1      33.963  26.119  22.132  1.00  0.00    -0.201 OA
BRANCH  21  24
ATOM     24  C   UNL A   1      32.501  27.614  23.677  1.00  0.00     0.088 A 
ATOM     25  C   UNL A   1      31.834  30.952  26.301  1.00  0.00     0.044 C 
ATOM     26  C   UNL A   1      32.087  29.807  25.367  1.00  0.00    -0.051 A 
ATOM     27  C   UNL A   1      31.112  29.445  24.429  1.00  0.00     0.005 A 
ATOM     28  C   UNL A   1      33.286  29.086  25.420  1.00  0.00     0.005 A 
ATOM     29  C   UNL A   1      31.314  28.350  23.590  1.00  0.00     0.022 A 
ATOM     30  C   UNL A   1      33.503  27.999  24.569  1.00  0.00     0.022 A 
ENDBRANCH  21  24
ENDBRANCH  13  21
ENDBRANCH  10  12
ENDBRANCH   7  10
ENDBRANCH   5   6
ENDBRANCH   3   5
ENDBRANCH   2   3
ENDBRANCH   1   2
BRANCH   1  31
ATOM     31  C   UNL A   1      40.391  20.220  25.876  1.00  0.00     0.202 C 
BRANCH  31  32
ATOM     32  O   UNL A   1      40.966  19.930  27.143  1.00  0.00    -0.374 OA
BRANCH  32  33
ATOM     33  C   UNL A   1      42.049  19.018  27.141  1.00  0.00     0.202 C 
BRANCH  33  34
ATOM     34  C   UNL A   1      42.945  19.105  25.895  1.00  0.00     0.261 C 
BRANCH  34  35
ATOM     35  O   UNL A   1      43.938  20.138  26.068  1.00  0.00    -0.460 OA
BRANCH  35  36
ATOM     36  C   UNL A   1      44.048  21.041  25.053  1.00  0.00     0.338 C 
ATOM     37  O   UNL A   1      44.736  20.902  24.056  1.00  0.00    -0.246 OA
BRANCH  36  38
ATOM     38  C   UNL A   1      43.441  22.338  25.475  1.00  0.00     0.060 A 
ATOM     39  C   UNL A   1      43.379  23.424  24.581  1.00  0.00     0.016 A 
ATOM     40  C   UNL A   1      43.267  22.553  26.836  1.00  0.00     0.016 A 
ATOM     41  C   UNL A   1      43.303  24.739  25.072  1.00  0.00     0.010 A 
ATOM     42  C   UNL A   1      43.354  23.841  27.311  1.00  0.00     0.010 A 
ATOM     43  C   UNL A   1      43.388  24.947  26.444  1.00  0.00    -0.014 A 
BRANCH  43  44
ATOM     44  C   UNL A   1      43.544  26.224  27.147  1.00  0.00     0.031 A 
ATOM     45  C   UNL A   1      42.291  26.961  27.463  1.00  0.00     0.074 A 
ATOM     46  C   UNL A   1      44.693  26.545  27.801  1.00  0.00     0.049 A 
ATOM     47  N   UNL A   1      42.251  28.088  28.074  1.00  0.00    -0.248 NA
ATOM     48  C   UNL A   1      40.955  26.485  27.109  1.00  0.00     0.031 C 
ATOM     49  C   UNL A   1      44.826  27.382  29.000  1.00  0.00     0.029 A 
ATOM     50  N   UNL A   1      46.028  26.168  27.559  1.00  0.00    -0.354 N 
ATOM     51  C   UNL A   1      40.959  28.318  28.486  1.00  0.00     0.074 A 
ATOM     52  C   UNL A   1      40.177  27.329  27.793  1.00  0.00     0.031 C 
ATOM     53  C   UNL A   1      46.115  27.722  29.178  1.00  0.00     0.029 A 
ATOM     54  C   UNL A   1      46.834  27.232  28.021  1.00  0.00     0.049 A 
ATOM     55  H   UNL A   1      46.339  25.329  27.148  1.00  0.00     0.167 HD
ATOM     56  C   UNL A   1      40.769  29.267  29.448  1.00  0.00     0.037 A 
ATOM     57  C   UNL A   1      47.620  27.951  27.176  1.00  0.00     0.037 A 
ATOM     58  C   UNL A   1      42.042  29.945  29.733  1.00  0.00     0.049 A 
ATOM     59  C   UNL A   1      47.189  29.388  27.205  1.00  0.00     0.074 A 
ATOM     60  C   UNL A   1      42.960  29.872  30.768  1.00  0.00     0.029 A 
ATOM     61  N   UNL A   1      42.690  30.602  28.688  1.00  0.00    -0.354 N 
ATOM     62  N   UNL A   1      45.980  29.751  27.535  1.00  0.00    -0.248 NA
ATOM     63  C   UNL A   1      48.078  30.520  26.986  1.00  0.00     0.031 C 
ATOM     64  C   UNL A   1      44.166  30.490  30.328  1.00  0.00     0.029 A 
ATOM     65  C   UNL A   1      43.977  30.953  29.034  1.00  0.00     0.049 A 
ATOM     66  H   UNL A   1      42.280  30.790  27.814  1.00  0.00     0.167 HD
ATOM     67  C   UNL A   1      45.932  31.107  27.673  1.00  0.00     0.074 A 
ATOM     68  C   UNL A   1      47.260  31.547  27.284  1.00  0.00     0.031 C 
ATOM     69  C   UNL A   1      44.808  31.737  28.123  1.00  0.00     0.037 A 
BRANCH  56  70
ATOM     70  C   UNL A   1      39.510  29.509  30.263  1.00  0.00     0.064 A 
ATOM     71  C   UNL A   1      38.774  30.707  30.095  1.00  0.00     0.173 A 
ATOM     72  C   UNL A   1      38.974  28.642  31.236  1.00  0.00     0.173 A 
ATOM     73  F   UNL A   1      39.121  31.623  29.181  1.00  0.00    -0.203 F 
ATOM     74  C   UNL A   1      37.643  31.021  30.859  1.00  0.00     0.198 A 
ATOM     75  C   UNL A   1      37.854  28.964  32.014  1.00  0.00     0.198 A 
ATOM     76  F   UNL A   1      39.472  27.428  31.463  1.00  0.00    -0.203 F 
ATOM     77  F   UNL A   1      36.999  32.177  30.649  1.00  0.00    -0.200 F 
ATOM     78  C   UNL A   1      37.189  30.153  31.828  1.00  0.00     0.200 A 
ATOM     79  F   UNL A   1      37.423  28.096  32.942  1.00  0.00    -0.200 F 
ATOM     80  F   UNL A   1      36.111  30.453  32.564  1.00  0.00    -0.200 F 
ENDBRANCH  56  70
BRANCH  57  81
ATOM     81  C   UNL A   1      48.085  27.119  26.030  1.00  0.00     0.064 A 
ATOM     82  C   UNL A   1      47.520  27.429  24.771  1.00  0.00     0.173 A 
ATOM     83  C   UNL A   1      49.357  26.531  26.035  1.00  0.00     0.173 A 
ATOM     84  F   UNL A   1      46.304  27.994  24.705  1.00  0.00    -0.203 F 
ATOM     85  C   UNL A   1      48.271  27.344  23.599  1.00  0.00     0.198 A 
ATOM     86  C   UNL A   1      50.097  26.429  24.852  1.00  0.00     0.198 A 
ATOM     87  F   UNL A   1      49.948  26.208  27.194  1.00  0.00    -0.203 F 
ATOM     88  F   UNL A   1      47.776  27.826  22.449  1.00  0.00    -0.200 F 
ATOM     89  C   UNL A   1      49.576  26.888  23.650  1.00  0.00     0.200 A 
ATOM     90  F   UNL A   1      51.366  25.993  24.892  1.00  0.00    -0.200 F 
ATOM     91  F   UNL A   1      50.352  26.953  22.557  1.00  0.00    -0.200 F 
ENDBRANCH  57  81
BRANCH  69  92
ATOM     92  C   UNL A   1      44.412  33.164  27.811  1.00  0.00     0.064 A 
ATOM     93  C   UNL A   1      43.929  33.595  26.565  1.00  0.00     0.173 A 
ATOM     94  C   UNL A   1      44.336  34.136  28.845  1.00  0.00     0.173 A 
ATOM     95  F   UNL A   1      43.811  32.765  25.523  1.00  0.00    -0.203 F 
ATOM     96  C   UNL A   1      43.476  34.899  26.352  1.00  0.00     0.198 A 
ATOM     97  C   UNL A   1      43.806  35.408  28.648  1.00  0.00     0.198 A 
ATOM     98  F   UNL A   1      44.732  33.882  30.099  1.00  0.00    -0.203 F 
ATOM     99  F   UNL A   1      43.080  35.264  25.125  1.00  0.00    -0.200 F 
ATOM    100  C   UNL A   1      43.397  35.798  27.395  1.00  0.00     0.200 A 
ATOM    101  F   UNL A   1      43.671  36.239  29.692  1.00  0.00    -0.200 F 
ATOM    102  F   UNL A   1      42.907  37.028  27.196  1.00  0.00    -0.200 F 
ENDBRANCH  69  92
ENDBRANCH  43  44
ENDBRANCH  36  38
ENDBRANCH  35  36
ENDBRANCH  34  35
ENDBRANCH  33  34
ENDBRANCH  32  33
ENDBRANCH  31  32
ENDBRANCH   1  31
TORSDOF 19
ENDMDL
MODEL 3
REMARK VINA RESULT:     -12.6      5.649     11.529
REMARK SMILES Cc1ccc(S(=O)(=O)n2cc(C(=O)C(=O)NCC(=O)OCCOCCOC(=O)c3ccc(-c4c5nc(c(-c6c(F)c(F)c(F)c(F)c6F)c6ccc([nH]6)c(-c6c(F)c(F)c(F)c(F)c6F)c6nc(c(-c7c(F)c(F)c(F)c(F)c7F)c7ccc4[nH]7)C=C6)C=C5)cc3)c3ccccc32)cc1
REMARK SMILES IDX 21 1 20 2 18 3 19 4 17 5 16 6 14 7 15 8 12 10 13 11 11 12
REMARK SMILES IDX 9 13 10 14 97 15 92 16 96 17 93 18 95 19 94 20 6 21 7 22
REMARK SMILES IDX 8 23 5 24 1 25 2 26 3 27 99 28 4 29 98 30 22 31 23 32 24 33
REMARK SMILES IDX 25 34 26 35 27 36 28 37 29 38 30 39 91 40 31 41 90 42 32 43
REMARK SMILES IDX 33 44 34 45 84 46 35 47 89 48 83 49 85 50 36 51 88 52 82 53
REMARK SMILES IDX 81 54 37 56 69 57 49 58 68 59 50 60 53 61 67 62 86 63 51 64
REMARK SMILES IDX 52 65 66 67 87 68 54 69 38 70 39 71 47 72 40 73 41 74 45 75
REMARK SMILES IDX 48 76 42 77 43 78 46 79 44 80 70 81 71 82 79 83 72 84 73 85
REMARK SMILES IDX 77 86 80 87 74 88 75 89 78 90 76 91 55 92 56 93 64 94 57 95
REMARK SMILES IDX 58 96 62 97 65 98 59 99 60 100 63 101 61 102
REMARK H PARENT 16 9 85 55 53 66
REMARK Flexibility Score: inf
ROOT
ATOM      1  C   UNL A   1      40.139  21.253  26.380  1.00  0.00     0.261 C 
ENDROOT
BRANCH   1   2
ATOM      2  O   UNL A   1      39.130  21.595  25.422  1.00  0.00    -0.462 OA
BRANCH   2   3
ATOM      3  C   UNL A   1      38.003  20.821  25.327  1.00  0.00     0.325 C 
ATOM      4  O   UNL A   1      37.960  19.670  24.919  1.00  0.00    -0.250 OA
BRANCH   3   5
ATOM      5  C   UNL A   1      36.773  21.619  25.753  1.00  0.00     0.239 C 
BRANCH   5   6
ATOM      6  N   UNL A   1      35.558  20.880  25.420  1.00  0.00    -0.338 N 
ATOM      7  C   UNL A   1      34.274  21.154  25.843  1.00  0.00     0.292 C 
ATOM      8  O   UNL A   1      33.431  20.268  25.751  1.00  0.00    -0.265 OA
ATOM      9  H   UNL A   1      35.668  20.100  24.829  1.00  0.00     0.164 HD
BRANCH   7  10
ATOM     10  C   UNL A   1      33.936  22.540  26.462  1.00  0.00     0.252 C 
ATOM     11  O   UNL A   1      33.855  22.637  27.684  1.00  0.00    -0.283 OA
BRANCH  10  12
ATOM     12  C   UNL A   1      33.758  23.724  25.622  1.00  0.00     0.054 A 
ATOM     13  N   UNL A   1      33.479  25.824  24.933  1.00  0.00    -0.240 N 
ATOM     14  C   UNL A   1      33.698  25.041  26.034  1.00  0.00     0.117 A 
ATOM     15  C   UNL A   1      33.391  25.062  23.787  1.00  0.00     0.065 A 
ATOM     16  C   UNL A   1      33.569  23.734  24.197  1.00  0.00     0.012 A 
ATOM     17  C   UNL A   1      33.131  25.393  22.445  1.00  0.00     0.028 A 
ATOM     18  C   UNL A   1      33.503  22.713  23.222  1.00  0.00     0.011 A 
ATOM     19  C   UNL A   1      33.039  24.356  21.513  1.00  0.00     0.002 A 
ATOM     20  C   UNL A   1      33.227  23.034  21.892  1.00  0.00     0.001 A 
BRANCH  13  21
ATOM     21  S   UNL A   1      33.186  27.495  25.035  1.00  0.00     0.268 S 
ATOM     22  O   UNL A   1      34.201  28.109  24.192  1.00  0.00    -0.201 OA
ATOM     23  O   UNL A   1      33.073  27.798  26.444  1.00  0.00    -0.201 OA
BRANCH  21  24
ATOM     24  C   UNL A   1      31.606  27.812  24.297  1.00  0.00     0.088 A 
ATOM     25  C   UNL A   1      27.599  28.499  22.902  1.00  0.00     0.044 C 
ATOM     26  C   UNL A   1      29.007  28.251  23.357  1.00  0.00    -0.051 A 
ATOM     27  C   UNL A   1      29.316  27.076  24.053  1.00  0.00     0.005 A 
ATOM     28  C   UNL A   1      30.020  29.182  23.101  1.00  0.00     0.005 A 
ATOM     29  C   UNL A   1      30.609  26.858  24.526  1.00  0.00     0.022 A 
ATOM     30  C   UNL A   1      31.323  28.961  23.557  1.00  0.00     0.022 A 
ENDBRANCH  21  24
ENDBRANCH  13  21
ENDBRANCH  10  12
ENDBRANCH   7  10
ENDBRANCH   5   6
ENDBRANCH   3   5
ENDBRANCH   2   3
ENDBRANCH   1   2
BRANCH   1  31
ATOM     31  C   UNL A   1      40.613  19.842  26.170  1.00  0.00     0.202 C 
BRANCH  31  32
ATOM     32  O   UNL A   1      42.030  19.895  26.273  1.00  0.00    -0.374 OA
BRANCH  32  33
ATOM     33  C   UNL A   1      42.728  18.731  25.871  1.00  0.00     0.202 C 
BRANCH  33  34
ATOM     34  C   UNL A   1      43.916  18.999  24.934  1.00  0.00     0.261 C 
BRANCH  34  35
ATOM     35  O   UNL A   1      44.997  19.615  25.666  1.00  0.00    -0.460 OA
BRANCH  35  36
ATOM     36  C   UNL A   1      45.702  20.575  25.002  1.00  0.00     0.338 C 
ATOM     37  O   UNL A   1      46.832  20.443  24.564  1.00  0.00    -0.246 OA
BRANCH  36  38
ATOM     38  C   UNL A   1      45.009  21.888  25.147  1.00  0.00     0.060 A 
ATOM     39  C   UNL A   1      45.302  22.953  24.272  1.00  0.00     0.016 A 
ATOM     40  C   UNL A   1      44.351  22.140  26.344  1.00  0.00     0.016 A 
ATOM     41  C   UNL A   1      45.077  24.280  24.675  1.00  0.00     0.010 A 
ATOM     42  C   UNL A   1      44.284  23.438  26.793  1.00  0.00     0.010 A 
ATOM     43  C   UNL A   1      44.657  24.522  25.978  1.00  0.00    -0.014 A 
BRANCH  43  44
ATOM     44  C   UNL A   1      44.569  25.814  26.665  1.00  0.00     0.031 A 
ATOM     45  C   UNL A   1      43.237  26.477  26.657  1.00  0.00     0.074 A 
ATOM     46  C   UNL A   1      45.510  26.212  27.564  1.00  0.00     0.049 A 
ATOM     47  N   UNL A   1      42.989  27.606  27.213  1.00  0.00    -0.248 NA
ATOM     48  C   UNL A   1      42.052  25.916  26.010  1.00  0.00     0.031 C 
ATOM     49  C   UNL A   1      45.307  27.070  28.738  1.00  0.00     0.029 A 
ATOM     50  N   UNL A   1      46.883  25.914  27.653  1.00  0.00    -0.354 N 
ATOM     51  C   UNL A   1      41.626  27.762  27.301  1.00  0.00     0.074 A 
ATOM     52  C   UNL A   1      41.088  26.719  26.469  1.00  0.00     0.031 C 
ATOM     53  C   UNL A   1      46.495  27.489  29.206  1.00  0.00     0.029 A 
ATOM     54  C   UNL A   1      47.495  27.031  28.265  1.00  0.00     0.049 A 
ATOM     55  H   UNL A   1      47.330  25.091  27.350  1.00  0.00     0.167 HD
ATOM     56  C   UNL A   1      41.159  28.709  28.167  1.00  0.00     0.037 A 
ATOM     57  C   UNL A   1      48.417  27.786  27.612  1.00  0.00     0.037 A 
ATOM     58  C   UNL A   1      42.288  29.466  28.727  1.00  0.00     0.049 A 
ATOM     59  C   UNL A   1      47.912  29.195  27.501  1.00  0.00     0.074 A 
ATOM     60  C   UNL A   1      42.937  29.461  29.951  1.00  0.00     0.029 A 
ATOM     61  N   UNL A   1      43.127  30.149  27.848  1.00  0.00    -0.354 N 
ATOM     62  N   UNL A   1      46.640  29.487  27.527  1.00  0.00    -0.248 NA
ATOM     63  C   UNL A   1      48.762  30.376  27.469  1.00  0.00     0.031 C 
ATOM     64  C   UNL A   1      44.177  30.146  29.792  1.00  0.00     0.029 A 
ATOM     65  C   UNL A   1      44.274  30.582  28.479  1.00  0.00     0.049 A 
ATOM     66  H   UNL A   1      42.927  30.301  26.897  1.00  0.00     0.167 HD
ATOM     67  C   UNL A   1      46.484  30.839  27.614  1.00  0.00     0.074 A 
ATOM     68  C   UNL A   1      47.839  31.355  27.538  1.00  0.00     0.031 C 
ATOM     69  C   UNL A   1      45.251  31.404  27.770  1.00  0.00     0.037 A 
BRANCH  56  70
ATOM     70  C   UNL A   1      39.732  28.883  28.655  1.00  0.00     0.064 A 
ATOM     71  C   UNL A   1      38.742  29.404  27.787  1.00  0.00     0.173 A 
ATOM     72  C   UNL A   1      39.258  28.592  29.950  1.00  0.00     0.173 A 
ATOM     73  F   UNL A   1      39.013  29.696  26.508  1.00  0.00    -0.203 F 
ATOM     74  C   UNL A   1      37.425  29.650  28.192  1.00  0.00     0.198 A 
ATOM     75  C   UNL A   1      37.945  28.855  30.362  1.00  0.00     0.198 A 
ATOM     76  F   UNL A   1      40.017  28.004  30.873  1.00  0.00    -0.203 F 
ATOM     77  F   UNL A   1      36.542  30.151  27.316  1.00  0.00    -0.200 F 
ATOM     78  C   UNL A   1      37.028  29.386  29.485  1.00  0.00     0.200 A 
ATOM     79  F   UNL A   1      37.579  28.576  31.622  1.00  0.00    -0.200 F 
ATOM     80  F   UNL A   1      35.770  29.625  29.877  1.00  0.00    -0.200 F 
ENDBRANCH  56  70
BRANCH  57  81
ATOM     81  C   UNL A   1      49.187  26.971  26.629  1.00  0.00     0.064 A 
ATOM     82  C   UNL A   1      48.895  27.206  25.265  1.00  0.00     0.173 A 
ATOM     83  C   UNL A   1      50.467  26.490  26.937  1.00  0.00     0.173 A 
ATOM     84  F   UNL A   1      47.685  27.667  24.911  1.00  0.00    -0.203 F 
ATOM     85  C   UNL A   1      49.891  27.158  24.292  1.00  0.00     0.198 A 
ATOM     86  C   UNL A   1      51.457  26.424  25.951  1.00  0.00     0.198 A 
ATOM     87  F   UNL A   1      50.808  26.242  28.210  1.00  0.00    -0.203 F 
ATOM     88  F   UNL A   1      49.630  27.573  23.043  1.00  0.00    -0.200 F 
ATOM     89  C   UNL A   1      51.183  26.812  24.646  1.00  0.00     0.200 A 
ATOM     90  F   UNL A   1      52.714  26.095  26.286  1.00  0.00    -0.200 F 
ATOM     91  F   UNL A   1      52.176  26.918  23.750  1.00  0.00    -0.200 F 
ENDBRANCH  57  81
BRANCH  69  92
ATOM     92  C   UNL A   1      44.861  32.801  27.336  1.00  0.00     0.064 A 
ATOM     93  C   UNL A   1      44.104  33.089  26.190  1.00  0.00     0.173 A 
ATOM     94  C   UNL A   1      45.093  33.914  28.188  1.00  0.00     0.173 A 
ATOM     95  F   UNL A   1      43.689  32.132  25.353  1.00  0.00    -0.203 F 
ATOM     96  C   UNL A   1      43.677  34.383  25.884  1.00  0.00     0.198 A 
ATOM     97  C   UNL A   1      44.594  35.186  27.922  1.00  0.00     0.198 A 
ATOM     98  F   UNL A   1      45.777  33.810  29.336  1.00  0.00    -0.203 F 
ATOM     99  F   UNL A   1      43.005  34.601  24.745  1.00  0.00    -0.200 F 
ATOM    100  C   UNL A   1      43.905  35.427  26.757  1.00  0.00     0.200 A 
ATOM    101  F   UNL A   1      44.765  36.167  28.821  1.00  0.00    -0.200 F 
ATOM    102  F   UNL A   1      43.441  36.653  26.487  1.00  0.00    -0.200 F 
ENDBRANCH  69  92
ENDBRANCH  43  44
ENDBRANCH  36  38
ENDBRANCH  35  36
ENDBRANCH  34  35
ENDBRANCH  33  34
ENDBRANCH  32  33
ENDBRANCH  31  32
ENDBRANCH   1  31
TORSDOF 19
ENDMDL
