MODEL 1
REMARK VINA RESULT:     -10.4      0.000      0.000
REMARK SMILES Cc1cc(C)cc(-c2ccc([C@@H](C)C(=O)OCCOCCOC(=O)c3ccc(-c4c5nc(c(-c6c(F)c(F)c(F)c(F)c6F)c6ccc([nH]6)c(-c6c(F)c(F)c(F)c(F)c6F)c6nc(c(-c7c(F)c(F)c(F)c(F)c7F)c7ccc4[nH]7)C=C6)C=C5)cc3)cc2F)c1
REMARK SMILES IDX 19 1 18 2 17 3 16 4 14 5 15 6 12 7 13 8 11 9 8 10 9 11 89 12
REMARK SMILES IDX 10 13 88 14 90 15 7 16 1 17 2 18 3 19 91 20 4 21 5 22 6 23
REMARK SMILES IDX 20 24 21 25 22 26 23 27 24 28 25 29 26 30 87 31 27 32 86 33
REMARK SMILES IDX 28 34 29 35 30 36 80 37 31 38 85 39 79 40 81 41 32 42 84 43
REMARK SMILES IDX 78 44 77 45 33 47 65 48 45 49 64 50 46 51 49 52 63 53 82 54
REMARK SMILES IDX 47 55 48 56 62 58 83 59 50 60 34 61 35 62 43 63 36 64 37 65
REMARK SMILES IDX 41 66 44 67 38 68 39 69 42 70 40 71 66 72 67 73 75 74 68 75
REMARK SMILES IDX 69 76 73 77 76 78 70 79 71 80 74 81 72 82 51 83 52 84 60 85
REMARK SMILES IDX 53 86 54 87 58 88 61 89 55 90 56 91 59 92 57 93
REMARK H PARENT 81 46 49 57
REMARK Flexibility Score: inf
ROOT
ATOM      1  O   UNL A   1      32.772  34.613  29.694  1.00  0.00    -0.374 OA
ENDROOT
BRANCH   1   2
ATOM      2  C   UNL A   1      33.009  35.846  30.372  1.00  0.00     0.202 C 
BRANCH   2   3
ATOM      3  C   UNL A   1      33.056  35.768  31.900  1.00  0.00     0.261 C 
BRANCH   3   4
ATOM      4  O   UNL A   1      34.319  35.246  32.356  1.00  0.00    -0.463 OA
BRANCH   4   5
ATOM      5  C   UNL A   1      34.294  33.977  32.839  1.00  0.00     0.313 C 
ATOM      6  O   UNL A   1      33.278  33.297  32.950  1.00  0.00    -0.252 OA
BRANCH   5   7
ATOM      7  C   UNL A   1      35.652  33.462  33.291  1.00  0.00     0.126 C 
ATOM      8  C   UNL A   1      35.855  33.823  34.761  1.00  0.00     0.025 C 
BRANCH   7   9
ATOM      9  C   UNL A   1      36.872  33.818  32.445  1.00  0.00    -0.031 A 
ATOM     10  C   UNL A   1      39.213  34.196  30.852  1.00  0.00     0.017 A 
ATOM     11  C   UNL A   1      39.179  34.576  32.205  1.00  0.00     0.012 A 
ATOM     12  C   UNL A   1      38.033  33.675  30.306  1.00  0.00     0.131 A 
ATOM     13  C   UNL A   1      38.029  34.391  32.988  1.00  0.00     0.005 A 
ATOM     14  C   UNL A   1      36.884  33.487  31.080  1.00  0.00     0.044 A 
ATOM     15  F   UNL A   1      37.992  33.298  29.019  1.00  0.00    -0.206 F 
BRANCH  10  16
ATOM     16  C   UNL A   1      40.458  34.285  30.070  1.00  0.00    -0.015 A 
ATOM     17  C   UNL A   1      43.804  32.472  29.670  1.00  0.00     0.044 C 
ATOM     18  C   UNL A   1      42.690  33.463  29.493  1.00  0.00    -0.050 A 
ATOM     19  C   UNL A   1      42.843  34.517  28.586  1.00  0.00     0.006 A 
ATOM     20  C   UNL A   1      41.500  33.358  30.231  1.00  0.00     0.012 A 
ATOM     21  C   UNL A   1      41.828  35.463  28.411  1.00  0.00    -0.050 A 
ATOM     22  C   UNL A   1      42.020  36.597  27.448  1.00  0.00     0.044 C 
ATOM     23  C   UNL A   1      40.643  35.335  29.149  1.00  0.00     0.012 A 
ENDBRANCH  10  16
ENDBRANCH   7   9
ENDBRANCH   5   7
ENDBRANCH   4   5
ENDBRANCH   3   4
ENDBRANCH   2   3
ENDBRANCH   1   2
BRANCH   1  24
ATOM     24  C   UNL A   1      33.340  34.462  28.392  1.00  0.00     0.202 C 
BRANCH  24  25
ATOM     25  C   UNL A   1      34.621  33.624  28.308  1.00  0.00     0.261 C 
BRANCH  25  26
ATOM     26  O   UNL A   1      34.490  32.365  28.996  1.00  0.00    -0.460 OA
BRANCH  26  27
ATOM     27  C   UNL A   1      34.575  31.270  28.206  1.00  0.00     0.338 C 
ATOM     28  O   UNL A   1      33.851  30.970  27.268  1.00  0.00    -0.246 OA
BRANCH  27  29
ATOM     29  C   UNL A   1      35.809  30.524  28.513  1.00  0.00     0.060 A 
ATOM     30  C   UNL A   1      35.887  29.888  29.760  1.00  0.00     0.016 A 
ATOM     31  C   UNL A   1      36.897  30.506  27.638  1.00  0.00     0.016 A 
ATOM     32  C   UNL A   1      37.069  29.264  30.153  1.00  0.00     0.010 A 
ATOM     33  C   UNL A   1      38.088  29.889  28.041  1.00  0.00     0.010 A 
ATOM     34  C   UNL A   1      38.188  29.291  29.310  1.00  0.00    -0.014 A 
BRANCH  34  35
ATOM     35  C   UNL A   1      39.494  28.798  29.809  1.00  0.00     0.031 A 
ATOM     36  C   UNL A   1      40.167  29.518  30.944  1.00  0.00     0.074 A 
ATOM     37  C   UNL A   1      40.063  27.703  29.275  1.00  0.00     0.049 A 
ATOM     38  N   UNL A   1      41.329  29.287  31.501  1.00  0.00    -0.248 NA
ATOM     39  C   UNL A   1      39.430  30.649  31.533  1.00  0.00     0.031 C 
ATOM     40  C   UNL A   1      39.485  26.890  28.209  1.00  0.00     0.029 A 
ATOM     41  N   UNL A   1      41.259  27.090  29.557  1.00  0.00    -0.354 N 
ATOM     42  C   UNL A   1      41.464  30.241  32.499  1.00  0.00     0.074 A 
ATOM     43  C   UNL A   1      40.278  31.070  32.461  1.00  0.00     0.031 C 
ATOM     44  C   UNL A   1      40.332  25.889  27.917  1.00  0.00     0.029 A 
ATOM     45  C   UNL A   1      41.527  26.012  28.751  1.00  0.00     0.049 A 
ATOM     46  H   UNL A   1      41.867  27.395  30.270  1.00  0.00     0.167 HD
ATOM     47  C   UNL A   1      42.483  30.404  33.375  1.00  0.00     0.037 A 
ATOM     48  C   UNL A   1      42.622  25.230  28.678  1.00  0.00     0.037 A 
ATOM     49  C   UNL A   1      43.657  29.574  33.419  1.00  0.00     0.049 A 
ATOM     50  C   UNL A   1      43.780  25.484  29.607  1.00  0.00     0.074 A 
ATOM     51  C   UNL A   1      44.729  29.645  34.292  1.00  0.00     0.029 A 
ATOM     52  N   UNL A   1      43.916  28.525  32.551  1.00  0.00    -0.354 N 
ATOM     53  N   UNL A   1      43.895  26.379  30.558  1.00  0.00    -0.248 NA
ATOM     54  C   UNL A   1      44.964  24.625  29.450  1.00  0.00     0.031 C 
ATOM     55  C   UNL A   1      45.660  28.671  33.920  1.00  0.00     0.029 A 
ATOM     56  C   UNL A   1      45.147  27.962  32.847  1.00  0.00     0.049 A 
ATOM     57  H   UNL A   1      43.315  28.225  31.830  1.00  0.00     0.167 HD
ATOM     58  C   UNL A   1      45.149  26.182  31.122  1.00  0.00     0.074 A 
ATOM     59  C   UNL A   1      45.756  25.073  30.415  1.00  0.00     0.031 C 
ATOM     60  C   UNL A   1      45.741  26.859  32.135  1.00  0.00     0.037 A 
BRANCH  47  61
ATOM     61  C   UNL A   1      42.392  31.533  34.356  1.00  0.00     0.064 A 
ATOM     62  C   UNL A   1      41.737  31.354  35.582  1.00  0.00     0.173 A 
ATOM     63  C   UNL A   1      42.879  32.812  34.049  1.00  0.00     0.173 A 
ATOM     64  F   UNL A   1      41.249  30.150  35.919  1.00  0.00    -0.203 F 
ATOM     65  C   UNL A   1      41.558  32.418  36.461  1.00  0.00     0.198 A 
ATOM     66  C   UNL A   1      42.719  33.870  34.940  1.00  0.00     0.198 A 
ATOM     67  F   UNL A   1      43.522  33.030  32.892  1.00  0.00    -0.203 F 
ATOM     68  F   UNL A   1      40.902  32.231  37.615  1.00  0.00    -0.200 F 
ATOM     69  C   UNL A   1      42.051  33.674  36.140  1.00  0.00     0.200 A 
ATOM     70  F   UNL A   1      43.212  35.079  34.639  1.00  0.00    -0.200 F 
ATOM     71  F   UNL A   1      41.882  34.698  36.988  1.00  0.00    -0.200 F 
ENDBRANCH  47  61
BRANCH  48  72
ATOM     72  C   UNL A   1      42.677  24.140  27.671  1.00  0.00     0.064 A 
ATOM     73  C   UNL A   1      42.182  22.860  27.961  1.00  0.00     0.173 A 
ATOM     74  C   UNL A   1      43.238  24.352  26.405  1.00  0.00     0.173 A 
ATOM     75  F   UNL A   1      41.632  22.608  29.159  1.00  0.00    -0.203 F 
ATOM     76  C   UNL A   1      42.269  21.828  27.031  1.00  0.00     0.198 A 
ATOM     77  C   UNL A   1      43.302  23.325  25.466  1.00  0.00     0.198 A 
ATOM     78  F   UNL A   1      43.699  25.566  26.072  1.00  0.00    -0.203 F 
ATOM     79  F   UNL A   1      41.818  20.605  27.346  1.00  0.00    -0.200 F 
ATOM     80  C   UNL A   1      42.826  22.061  25.783  1.00  0.00     0.200 A 
ATOM     81  F   UNL A   1      43.818  23.560  24.252  1.00  0.00    -0.200 F 
ATOM     82  F   UNL A   1      42.899  21.070  24.884  1.00  0.00    -0.200 F 
ENDBRANCH  48  72
BRANCH  60  83
ATOM     83  C   UNL A   1      47.113  26.427  32.561  1.00  0.00     0.064 A 
ATOM     84  C   UNL A   1      48.252  27.011  31.987  1.00  0.00     0.173 A 
ATOM     85  C   UNL A   1      47.297  25.369  33.461  1.00  0.00     0.173 A 
ATOM     86  F   UNL A   1      48.127  28.021  31.113  1.00  0.00    -0.203 F 
ATOM     87  C   UNL A   1      49.526  26.534  32.282  1.00  0.00     0.198 A 
ATOM     88  C   UNL A   1      48.574  24.911  33.773  1.00  0.00     0.198 A 
ATOM     89  F   UNL A   1      46.238  24.787  34.045  1.00  0.00    -0.203 F 
ATOM     90  F   UNL A   1      50.599  27.080  31.692  1.00  0.00    -0.200 F 
ATOM     91  C   UNL A   1      49.686  25.486  33.175  1.00  0.00     0.200 A 
ATOM     92  F   UNL A   1      48.729  23.910  34.651  1.00  0.00    -0.200 F 
ATOM     93  F   UNL A   1      50.913  25.027  33.459  1.00  0.00    -0.200 F 
ENDBRANCH  60  83
ENDBRANCH  34  35
ENDBRANCH  27  29
ENDBRANCH  26  27
ENDBRANCH  25  26
ENDBRANCH  24  25
ENDBRANCH   1  24
TORSDOF 16
ENDMDL
MODEL 2
REMARK VINA RESULT:     -10.3      4.121     11.188
REMARK SMILES Cc1cc(C)cc(-c2ccc([C@@H](C)C(=O)OCCOCCOC(=O)c3ccc(-c4c5nc(c(-c6c(F)c(F)c(F)c(F)c6F)c6ccc([nH]6)c(-c6c(F)c(F)c(F)c(F)c6F)c6nc(c(-c7c(F)c(F)c(F)c(F)c7F)c7ccc4[nH]7)C=C6)C=C5)cc3)cc2F)c1
REMARK SMILES IDX 19 1 18 2 17 3 16 4 14 5 15 6 12 7 13 8 11 9 8 10 9 11 89 12
REMARK SMILES IDX 10 13 88 14 90 15 7 16 1 17 2 18 3 19 91 20 4 21 5 22 6 23
REMARK SMILES IDX 20 24 21 25 22 26 23 27 24 28 25 29 26 30 87 31 27 32 86 33
REMARK SMILES IDX 28 34 29 35 30 36 80 37 31 38 85 39 79 40 81 41 32 42 84 43
REMARK SMILES IDX 78 44 77 45 33 47 65 48 45 49 64 50 46 51 49 52 63 53 82 54
REMARK SMILES IDX 47 55 48 56 62 58 83 59 50 60 34 61 35 62 43 63 36 64 37 65
REMARK SMILES IDX 41 66 44 67 38 68 39 69 42 70 40 71 66 72 67 73 75 74 68 75
REMARK SMILES IDX 69 76 73 77 76 78 70 79 71 80 74 81 72 82 51 83 52 84 60 85
REMARK SMILES IDX 53 86 54 87 58 88 61 89 55 90 56 91 59 92 57 93
REMARK H PARENT 81 46 49 57
REMARK Flexibility Score: inf
ROOT
ATOM      1  O   UNL A   1      42.233  19.098  25.345  1.00  0.00    -0.374 OA
ENDROOT
BRANCH   1   2
ATOM      2  C   UNL A   1      43.600  19.204  25.741  1.00  0.00     0.202 C 
BRANCH   2   3
ATOM      3  C   UNL A   1      44.533  19.889  24.739  1.00  0.00     0.261 C 
BRANCH   3   4
ATOM      4  O   UNL A   1      44.997  21.156  25.244  1.00  0.00    -0.463 OA
BRANCH   4   5
ATOM      5  C   UNL A   1      44.676  22.243  24.495  1.00  0.00     0.313 C 
ATOM      6  O   UNL A   1      44.175  22.190  23.376  1.00  0.00    -0.252 OA
BRANCH   5   7
ATOM      7  C   UNL A   1      45.043  23.569  25.143  1.00  0.00     0.126 C 
ATOM      8  C   UNL A   1      46.412  24.012  24.631  1.00  0.00     0.025 C 
BRANCH   7   9
ATOM      9  C   UNL A   1      44.943  23.675  26.663  1.00  0.00    -0.031 A 
ATOM     10  C   UNL A   1      44.610  24.124  29.464  1.00  0.00     0.017 A 
ATOM     11  C   UNL A   1      45.864  24.262  28.845  1.00  0.00     0.012 A 
ATOM     12  C   UNL A   1      43.544  23.704  28.659  1.00  0.00     0.131 A 
ATOM     13  C   UNL A   1      46.029  24.042  27.469  1.00  0.00     0.005 A 
ATOM     14  C   UNL A   1      43.700  23.483  27.288  1.00  0.00     0.044 A 
ATOM     15  F   UNL A   1      42.320  23.544  29.186  1.00  0.00    -0.206 F 
BRANCH  10  16
ATOM     16  C   UNL A   1      44.422  24.470  30.885  1.00  0.00    -0.015 A 
ATOM     17  C   UNL A   1      43.894  22.767  34.270  1.00  0.00     0.044 C 
ATOM     18  C   UNL A   1      44.066  23.825  33.218  1.00  0.00    -0.050 A 
ATOM     19  C   UNL A   1      44.019  25.175  33.583  1.00  0.00     0.006 A 
ATOM     20  C   UNL A   1      44.263  23.483  31.871  1.00  0.00     0.012 A 
ATOM     21  C   UNL A   1      44.162  26.180  32.623  1.00  0.00    -0.050 A 
ATOM     22  C   UNL A   1      44.087  27.622  33.032  1.00  0.00     0.044 C 
ATOM     23  C   UNL A   1      44.368  25.819  31.284  1.00  0.00     0.012 A 
ENDBRANCH  10  16
ENDBRANCH   7   9
ENDBRANCH   5   7
ENDBRANCH   4   5
ENDBRANCH   3   4
ENDBRANCH   2   3
ENDBRANCH   1   2
BRANCH   1  24
ATOM     24  C   UNL A   1      41.261  19.743  26.169  1.00  0.00     0.202 C 
BRANCH  24  25
ATOM     25  C   UNL A   1      41.266  21.276  26.144  1.00  0.00     0.261 C 
BRANCH  25  26
ATOM     26  O   UNL A   1      40.304  21.835  27.058  1.00  0.00    -0.460 OA
BRANCH  26  27
ATOM     27  C   UNL A   1      39.391  22.659  26.496  1.00  0.00     0.338 C 
ATOM     28  O   UNL A   1      38.429  22.347  25.808  1.00  0.00    -0.246 OA
BRANCH  27  29
ATOM     29  C   UNL A   1      39.599  24.040  26.970  1.00  0.00     0.060 A 
ATOM     30  C   UNL A   1      40.184  24.948  26.078  1.00  0.00     0.016 A 
ATOM     31  C   UNL A   1      39.301  24.421  28.280  1.00  0.00     0.016 A 
ATOM     32  C   UNL A   1      40.511  26.234  26.505  1.00  0.00     0.010 A 
ATOM     33  C   UNL A   1      39.642  25.710  28.710  1.00  0.00     0.010 A 
ATOM     34  C   UNL A   1      40.273  26.611  27.833  1.00  0.00    -0.014 A 
BRANCH  34  35
ATOM     35  C   UNL A   1      40.795  27.906  28.332  1.00  0.00     0.031 A 
ATOM     36  C   UNL A   1      42.281  28.122  28.401  1.00  0.00     0.074 A 
ATOM     37  C   UNL A   1      39.954  28.890  28.695  1.00  0.00     0.049 A 
ATOM     38  N   UNL A   1      42.949  29.155  28.849  1.00  0.00    -0.248 NA
ATOM     39  C   UNL A   1      43.128  27.029  27.896  1.00  0.00     0.031 C 
ATOM     40  C   UNL A   1      38.497  28.821  28.624  1.00  0.00     0.029 A 
ATOM     41  N   UNL A   1      40.209  30.142  29.201  1.00  0.00    -0.354 N 
ATOM     42  C   UNL A   1      44.290  28.836  28.682  1.00  0.00     0.074 A 
ATOM     43  C   UNL A   1      44.345  27.507  28.114  1.00  0.00     0.031 C 
ATOM     44  C   UNL A   1      37.984  29.975  29.081  1.00  0.00     0.029 A 
ATOM     45  C   UNL A   1      39.075  30.850  29.508  1.00  0.00     0.049 A 
ATOM     46  H   UNL A   1      41.119  30.496  29.330  1.00  0.00     0.167 HD
ATOM     47  C   UNL A   1      45.376  29.591  28.970  1.00  0.00     0.037 A 
ATOM     48  C   UNL A   1      38.933  32.057  30.092  1.00  0.00     0.037 A 
ATOM     49  C   UNL A   1      45.320  30.917  29.527  1.00  0.00     0.049 A 
ATOM     50  C   UNL A   1      40.158  32.843  30.481  1.00  0.00     0.074 A 
ATOM     51  C   UNL A   1      46.369  31.770  29.823  1.00  0.00     0.029 A 
ATOM     52  N   UNL A   1      44.154  31.579  29.874  1.00  0.00    -0.354 N 
ATOM     53  N   UNL A   1      41.422  32.541  30.308  1.00  0.00    -0.248 NA
ATOM     54  C   UNL A   1      39.938  34.133  31.153  1.00  0.00     0.031 C 
ATOM     55  C   UNL A   1      45.839  32.928  30.399  1.00  0.00     0.029 A 
ATOM     56  C   UNL A   1      44.459  32.818  30.414  1.00  0.00     0.049 A 
ATOM     57  H   UNL A   1      43.243  31.222  29.756  1.00  0.00     0.167 HD
ATOM     58  C   UNL A   1      42.145  33.605  30.830  1.00  0.00     0.074 A 
ATOM     59  C   UNL A   1      41.180  34.569  31.318  1.00  0.00     0.031 C 
ATOM     60  C   UNL A   1      43.489  33.768  30.897  1.00  0.00     0.037 A 
BRANCH  47  61
ATOM     61  C   UNL A   1      46.729  29.003  28.707  1.00  0.00     0.064 A 
ATOM     62  C   UNL A   1      47.334  29.156  27.452  1.00  0.00     0.173 A 
ATOM     63  C   UNL A   1      47.388  28.221  29.667  1.00  0.00     0.173 A 
ATOM     64  F   UNL A   1      46.740  29.890  26.499  1.00  0.00    -0.203 F 
ATOM     65  C   UNL A   1      48.545  28.533  27.161  1.00  0.00     0.198 A 
ATOM     66  C   UNL A   1      48.610  27.619  29.380  1.00  0.00     0.198 A 
ATOM     67  F   UNL A   1      46.852  28.055  30.885  1.00  0.00    -0.203 F 
ATOM     68  F   UNL A   1      49.091  28.667  25.944  1.00  0.00    -0.200 F 
ATOM     69  C   UNL A   1      49.182  27.767  28.125  1.00  0.00     0.200 A 
ATOM     70  F   UNL A   1      49.235  26.894  30.318  1.00  0.00    -0.200 F 
ATOM     71  F   UNL A   1      50.349  27.171  27.845  1.00  0.00    -0.200 F 
ENDBRANCH  47  61
BRANCH  48  72
ATOM     72  C   UNL A   1      37.571  32.586  30.357  1.00  0.00     0.064 A 
ATOM     73  C   UNL A   1      36.895  32.282  31.548  1.00  0.00     0.173 A 
ATOM     74  C   UNL A   1      36.913  33.393  29.421  1.00  0.00     0.173 A 
ATOM     75  F   UNL A   1      37.484  31.515  32.479  1.00  0.00    -0.203 F 
ATOM     76  C   UNL A   1      35.603  32.745  31.780  1.00  0.00     0.198 A 
ATOM     77  C   UNL A   1      35.629  33.877  29.664  1.00  0.00     0.198 A 
ATOM     78  F   UNL A   1      37.530  33.733  28.280  1.00  0.00    -0.203 F 
ATOM     79  F   UNL A   1      34.966  32.412  32.912  1.00  0.00    -0.200 F 
ATOM     80  C   UNL A   1      34.972  33.545  30.840  1.00  0.00     0.200 A 
ATOM     81  F   UNL A   1      35.032  34.670  28.765  1.00  0.00    -0.200 F 
ATOM     82  F   UNL A   1      33.732  33.999  31.068  1.00  0.00    -0.200 F 
ENDBRANCH  48  72
BRANCH  60  83
ATOM     83  C   UNL A   1      44.014  35.033  31.508  1.00  0.00     0.064 A 
ATOM     84  C   UNL A   1      44.183  36.184  30.723  1.00  0.00     0.173 A 
ATOM     85  C   UNL A   1      44.442  35.075  32.841  1.00  0.00     0.173 A 
ATOM     86  F   UNL A   1      43.797  36.190  29.438  1.00  0.00    -0.203 F 
ATOM     87  C   UNL A   1      44.784  37.325  31.247  1.00  0.00     0.198 A 
ATOM     88  C   UNL A   1      45.020  36.227  33.369  1.00  0.00     0.198 A 
ATOM     89  F   UNL A   1      44.291  34.003  33.633  1.00  0.00    -0.203 F 
ATOM     90  F   UNL A   1      44.971  38.400  30.469  1.00  0.00    -0.200 F 
ATOM     91  C   UNL A   1      45.201  37.346  32.569  1.00  0.00     0.200 A 
ATOM     92  F   UNL A   1      45.406  36.252  34.652  1.00  0.00    -0.200 F 
ATOM     93  F   UNL A   1      45.779  38.445  33.073  1.00  0.00    -0.200 F 
ENDBRANCH  60  83
ENDBRANCH  34  35
ENDBRANCH  27  29
ENDBRANCH  26  27
ENDBRANCH  25  26
ENDBRANCH  24  25
ENDBRANCH   1  24
TORSDOF 16
ENDMDL
MODEL 3
REMARK VINA RESULT:     -10.2      3.822      9.885
REMARK SMILES Cc1cc(C)cc(-c2ccc([C@@H](C)C(=O)OCCOCCOC(=O)c3ccc(-c4c5nc(c(-c6c(F)c(F)c(F)c(F)c6F)c6ccc([nH]6)c(-c6c(F)c(F)c(F)c(F)c6F)c6nc(c(-c7c(F)c(F)c(F)c(F)c7F)c7ccc4[nH]7)C=C6)C=C5)cc3)cc2F)c1
REMARK SMILES IDX 19 1 18 2 17 3 16 4 14 5 15 6 12 7 13 8 11 9 8 10 9 11 89 12
REMARK SMILES IDX 10 13 88 14 90 15 7 16 1 17 2 18 3 19 91 20 4 21 5 22 6 23
REMARK SMILES IDX 20 24 21 25 22 26 23 27 24 28 25 29 26 30 87 31 27 32 86 33
REMARK SMILES IDX 28 34 29 35 30 36 80 37 31 38 85 39 79 40 81 41 32 42 84 43
REMARK SMILES IDX 78 44 77 45 33 47 65 48 45 49 64 50 46 51 49 52 63 53 82 54
REMARK SMILES IDX 47 55 48 56 62 58 83 59 50 60 34 61 35 62 43 63 36 64 37 65
REMARK SMILES IDX 41 66 44 67 38 68 39 69 42 70 40 71 66 72 67 73 75 74 68 75
REMARK SMILES IDX 69 76 73 77 76 78 70 79 71 80 74 81 72 82 51 83 52 84 60 85
REMARK SMILES IDX 53 86 54 87 58 88 61 89 55 90 56 91 59 92 57 93
REMARK H PARENT 81 46 49 57
REMARK Flexibility Score: inf
ROOT
ATOM      1  O   UNL A   1      31.469  26.989  27.006  1.00  0.00    -0.374 OA
ENDROOT
BRANCH   1   2
ATOM      2  C   UNL A   1      32.250  26.370  25.984  1.00  0.00     0.202 C 
BRANCH   2   3
ATOM      3  C   UNL A   1      31.662  25.095  25.375  1.00  0.00     0.261 C 
BRANCH   3   4
ATOM      4  O   UNL A   1      32.280  24.789  24.111  1.00  0.00    -0.463 OA
BRANCH   4   5
ATOM      5  C   UNL A   1      31.718  23.770  23.410  1.00  0.00     0.313 C 
ATOM      6  O   UNL A   1      30.509  23.604  23.278  1.00  0.00    -0.252 OA
BRANCH   5   7
ATOM      7  C   UNL A   1      32.727  22.793  22.826  1.00  0.00     0.126 C 
ATOM      8  C   UNL A   1      32.061  21.428  22.666  1.00  0.00     0.025 C 
BRANCH   7   9
ATOM      9  C   UNL A   1      34.092  22.684  23.500  1.00  0.00    -0.031 A 
ATOM     10  C   UNL A   1      36.548  22.672  24.958  1.00  0.00     0.017 A 
ATOM     11  C   UNL A   1      36.453  23.268  23.689  1.00  0.00     0.012 A 
ATOM     12  C   UNL A   1      35.402  22.037  25.452  1.00  0.00     0.131 A 
ATOM     13  C   UNL A   1      35.247  23.274  22.972  1.00  0.00     0.005 A 
ATOM     14  C   UNL A   1      34.197  22.039  24.744  1.00  0.00     0.044 A 
ATOM     15  F   UNL A   1      35.424  21.441  26.654  1.00  0.00    -0.206 F 
BRANCH  10  16
ATOM     16  C   UNL A   1      37.785  22.772  25.754  1.00  0.00    -0.015 A 
ATOM     17  C   UNL A   1      40.885  20.705  26.622  1.00  0.00     0.044 C 
ATOM     18  C   UNL A   1      39.887  21.825  26.574  1.00  0.00    -0.050 A 
ATOM     19  C   UNL A   1      40.116  22.985  27.323  1.00  0.00     0.006 A 
ATOM     20  C   UNL A   1      38.721  21.727  25.798  1.00  0.00     0.012 A 
ATOM     21  C   UNL A   1      39.197  24.038  27.308  1.00  0.00    -0.050 A 
ATOM     22  C   UNL A   1      39.451  25.265  28.134  1.00  0.00     0.044 C 
ATOM     23  C   UNL A   1      38.044  23.925  26.519  1.00  0.00     0.012 A 
ENDBRANCH  10  16
ENDBRANCH   7   9
ENDBRANCH   5   7
ENDBRANCH   4   5
ENDBRANCH   3   4
ENDBRANCH   2   3
ENDBRANCH   1   2
BRANCH   1  24
ATOM     24  C   UNL A   1      31.990  28.180  27.597  1.00  0.00     0.202 C 
BRANCH  24  25
ATOM     25  C   UNL A   1      31.931  29.444  26.731  1.00  0.00     0.261 C 
BRANCH  25  26
ATOM     26  O   UNL A   1      33.243  29.971  26.454  1.00  0.00    -0.460 OA
BRANCH  26  27
ATOM     27  C   UNL A   1      33.594  31.048  27.192  1.00  0.00     0.338 C 
ATOM     28  O   UNL A   1      32.884  31.985  27.528  1.00  0.00    -0.246 OA
BRANCH  27  29
ATOM     29  C   UNL A   1      34.961  30.875  27.717  1.00  0.00     0.060 A 
ATOM     30  C   UNL A   1      35.339  29.587  28.121  1.00  0.00     0.016 A 
ATOM     31  C   UNL A   1      35.830  31.955  27.883  1.00  0.00     0.016 A 
ATOM     32  C   UNL A   1      36.575  29.381  28.731  1.00  0.00     0.010 A 
ATOM     33  C   UNL A   1      37.066  31.748  28.507  1.00  0.00     0.010 A 
ATOM     34  C   UNL A   1      37.432  30.467  28.960  1.00  0.00    -0.014 A 
BRANCH  34  35
ATOM     35  C   UNL A   1      38.653  30.277  29.777  1.00  0.00     0.031 A 
ATOM     36  C   UNL A   1      39.799  29.484  29.213  1.00  0.00     0.074 A 
ATOM     37  C   UNL A   1      38.753  30.829  30.999  1.00  0.00     0.049 A 
ATOM     38  N   UNL A   1      40.937  29.157  29.773  1.00  0.00    -0.248 NA
ATOM     39  C   UNL A   1      39.644  28.997  27.833  1.00  0.00     0.031 C 
ATOM     40  C   UNL A   1      37.733  31.661  31.633  1.00  0.00     0.029 A 
ATOM     41  N   UNL A   1      39.763  30.766  31.928  1.00  0.00    -0.354 N 
ATOM     42  C   UNL A   1      41.629  28.427  28.818  1.00  0.00     0.074 A 
ATOM     43  C   UNL A   1      40.780  28.336  27.650  1.00  0.00     0.031 C 
ATOM     44  C   UNL A   1      38.164  32.023  32.853  1.00  0.00     0.029 A 
ATOM     45  C   UNL A   1      39.473  31.420  33.099  1.00  0.00     0.049 A 
ATOM     46  H   UNL A   1      40.614  30.296  31.768  1.00  0.00     0.167 HD
ATOM     47  C   UNL A   1      42.868  27.887  28.907  1.00  0.00     0.037 A 
ATOM     48  C   UNL A   1      40.174  31.501  34.248  1.00  0.00     0.037 A 
ATOM     49  C   UNL A   1      43.716  27.984  30.065  1.00  0.00     0.049 A 
ATOM     50  C   UNL A   1      41.513  30.821  34.351  1.00  0.00     0.074 A 
ATOM     51  C   UNL A   1      44.999  27.495  30.234  1.00  0.00     0.029 A 
ATOM     52  N   UNL A   1      43.365  28.610  31.251  1.00  0.00    -0.354 N 
ATOM     53  N   UNL A   1      42.168  30.143  33.440  1.00  0.00    -0.248 NA
ATOM     54  C   UNL A   1      42.210  30.909  35.644  1.00  0.00     0.031 C 
ATOM     55  C   UNL A   1      45.405  27.779  31.542  1.00  0.00     0.029 A 
ATOM     56  C   UNL A   1      44.395  28.489  32.169  1.00  0.00     0.049 A 
ATOM     57  H   UNL A   1      42.510  29.070  31.416  1.00  0.00     0.167 HD
ATOM     58  C   UNL A   1      43.355  29.741  34.039  1.00  0.00     0.074 A 
ATOM     59  C   UNL A   1      43.338  30.259  35.391  1.00  0.00     0.031 C 
ATOM     60  C   UNL A   1      44.366  29.009  33.512  1.00  0.00     0.037 A 
BRANCH  47  61
ATOM     61  C   UNL A   1      43.386  27.123  27.726  1.00  0.00     0.064 A 
ATOM     62  C   UNL A   1      43.220  25.732  27.656  1.00  0.00     0.173 A 
ATOM     63  C   UNL A   1      44.117  27.753  26.709  1.00  0.00     0.173 A 
ATOM     64  F   UNL A   1      42.534  25.084  28.608  1.00  0.00    -0.203 F 
ATOM     65  C   UNL A   1      43.781  24.997  26.615  1.00  0.00     0.198 A 
ATOM     66  C   UNL A   1      44.657  27.017  25.657  1.00  0.00     0.198 A 
ATOM     67  F   UNL A   1      44.293  29.082  26.729  1.00  0.00    -0.203 F 
ATOM     68  F   UNL A   1      43.636  23.665  26.584  1.00  0.00    -0.200 F 
ATOM     69  C   UNL A   1      44.497  25.640  25.617  1.00  0.00     0.200 A 
ATOM     70  F   UNL A   1      45.333  27.640  24.683  1.00  0.00    -0.200 F 
ATOM     71  F   UNL A   1      45.033  24.931  24.614  1.00  0.00    -0.200 F 
ENDBRANCH  47  61
BRANCH  48  72
ATOM     72  C   UNL A   1      39.606  32.247  35.399  1.00  0.00     0.064 A 
ATOM     73  C   UNL A   1      38.741  31.624  36.311  1.00  0.00     0.173 A 
ATOM     74  C   UNL A   1      39.904  33.600  35.604  1.00  0.00     0.173 A 
ATOM     75  F   UNL A   1      38.426  30.328  36.160  1.00  0.00    -0.203 F 
ATOM     76  C   UNL A   1      38.177  32.333  37.368  1.00  0.00     0.198 A 
ATOM     77  C   UNL A   1      39.359  34.303  36.677  1.00  0.00     0.198 A 
ATOM     78  F   UNL A   1      40.748  34.232  34.775  1.00  0.00    -0.203 F 
ATOM     79  F   UNL A   1      37.327  31.721  38.205  1.00  0.00    -0.200 F 
ATOM     80  C   UNL A   1      38.489  33.671  37.552  1.00  0.00     0.200 A 
ATOM     81  F   UNL A   1      39.682  35.589  36.866  1.00  0.00    -0.200 F 
ATOM     82  F   UNL A   1      37.955  34.350  38.576  1.00  0.00    -0.200 F 
ENDBRANCH  48  72
BRANCH  60  83
ATOM     83  C   UNL A   1      45.553  28.723  34.384  1.00  0.00     0.064 A 
ATOM     84  C   UNL A   1      46.665  29.579  34.372  1.00  0.00     0.173 A 
ATOM     85  C   UNL A   1      45.630  27.553  35.150  1.00  0.00     0.173 A 
ATOM     86  F   UNL A   1      46.643  30.707  33.646  1.00  0.00    -0.203 F 
ATOM     87  C   UNL A   1      47.820  29.260  35.080  1.00  0.00     0.198 A 
ATOM     88  C   UNL A   1      46.777  27.249  35.877  1.00  0.00     0.198 A 
ATOM     89  F   UNL A   1      44.587  26.710  35.201  1.00  0.00    -0.203 F 
ATOM     90  F   UNL A   1      48.886  30.072  35.024  1.00  0.00    -0.200 F 
ATOM     91  C   UNL A   1      47.876  28.097  35.833  1.00  0.00     0.200 A 
ATOM     92  F   UNL A   1      46.823  26.134  36.620  1.00  0.00    -0.200 F 
ATOM     93  F   UNL A   1      48.988  27.790  36.515  1.00  0.00    -0.200 F 
ENDBRANCH  60  83
ENDBRANCH  34  35
ENDBRANCH  27  29
ENDBRANCH  26  27
ENDBRANCH  25  26
ENDBRANCH  24  25
ENDBRANCH   1  24
TORSDOF 16
ENDMDL
