MODEL 1
REMARK VINA RESULT:     -10.9      0.000      0.000
REMARK SMILES CN(CC(N)=O)S(=O)(=O)c1ccc(C(=O)OCCOCCOC(=O)c2ccc(-c3c4nc(c(-c5c(F)c(F)c(F)c(F)c5F)c5ccc([nH]5)c(-c5c(F)c(F)c(F)c(F)c5F)c5nc(c(-c6c(F)c(F)c(F)c(F)c6F)c6ccc3[nH]6)C=C5)C=C4)cc2)cc1Br
REMARK SMILES IDX 18 1 17 2 16 3 14 4 15 5 13 6 10 7 11 8 89 9 12 10 88 11
REMARK SMILES IDX 90 12 7 13 8 14 9 15 2 16 1 17 3 18 4 19 5 20 6 21 19 24
REMARK SMILES IDX 20 25 21 26 22 27 23 28 24 29 25 30 26 31 87 32 27 33 86 34
REMARK SMILES IDX 28 35 29 36 30 37 80 38 31 39 85 40 79 41 81 42 32 43 84 44
REMARK SMILES IDX 78 45 77 46 33 48 65 49 45 50 64 51 46 52 49 53 63 54 82 55
REMARK SMILES IDX 47 56 48 57 62 59 83 60 50 61 34 62 35 63 43 64 36 65 37 66
REMARK SMILES IDX 41 67 44 68 38 69 39 70 42 71 40 72 66 73 67 74 75 75 68 76
REMARK SMILES IDX 69 77 73 78 76 79 70 80 71 81 74 82 72 83 51 84 52 85 60 86
REMARK SMILES IDX 53 87 54 88 58 89 61 90 55 91 56 92 59 93 57 94
REMARK H PARENT 5 22 5 23 81 47 49 58
REMARK Flexibility Score: inf
ROOT
ATOM      1  C   UNL A   1      40.568  20.428  26.402  1.00  0.00     0.202 C 
ENDROOT
BRANCH   1   2
ATOM      2  C   UNL A   1      39.987  21.816  26.683  1.00  0.00     0.261 C 
BRANCH   2   3
ATOM      3  O   UNL A   1      38.823  22.042  25.863  1.00  0.00    -0.460 OA
BRANCH   3   4
ATOM      4  C   UNL A   1      38.163  23.197  26.112  1.00  0.00     0.338 C 
ATOM      5  O   UNL A   1      38.584  24.175  26.705  1.00  0.00    -0.246 OA
BRANCH   4   6
ATOM      6  C   UNL A   1      36.860  23.195  25.409  1.00  0.00     0.061 A 
ATOM      7  C   UNL A   1      34.474  23.346  23.939  1.00  0.00     0.096 A 
ATOM      8  C   UNL A   1      35.699  23.081  23.297  1.00  0.00     0.024 A 
ATOM      9  C   UNL A   1      34.444  23.508  25.328  1.00  0.00     0.038 A 
ATOM     10  C   UNL A   1      36.886  23.023  24.025  1.00  0.00     0.017 A 
ATOM     11  C   UNL A   1      35.641  23.404  26.065  1.00  0.00     0.032 A 
ATOM     12  Br  UNL A   1      32.905  23.952  26.342  1.00  0.00    -0.049 Br
BRANCH   7  13
ATOM     13  S   UNL A   1      33.104  23.622  22.835  1.00  0.00     0.244 S 
ATOM     14  O   UNL A   1      32.045  22.737  23.272  1.00  0.00    -0.207 OA
ATOM     15  O   UNL A   1      33.659  23.515  21.502  1.00  0.00    -0.207 OA
BRANCH  13  16
ATOM     16  N   UNL A   1      32.532  25.200  23.055  1.00  0.00    -0.192 NA
ATOM     17  C   UNL A   1      33.390  26.220  22.397  1.00  0.00     0.125 C 
BRANCH  16  18
ATOM     18  C   UNL A   1      31.087  25.441  22.829  1.00  0.00     0.201 C 
BRANCH  18  19
ATOM     19  C   UNL A   1      30.380  26.291  23.874  1.00  0.00     0.232 C 
ATOM     20  N   UNL A   1      29.445  25.654  24.637  1.00  0.00    -0.369 N 
ATOM     21  O   UNL A   1      30.634  27.478  24.064  1.00  0.00    -0.274 OA
ATOM     22  H   UNL A   1      29.247  24.703  24.480  1.00  0.00     0.159 HD
ATOM     23  H   UNL A   1      28.970  26.146  25.345  1.00  0.00     0.159 HD
ENDBRANCH  18  19
ENDBRANCH  16  18
ENDBRANCH  13  16
ENDBRANCH   7  13
ENDBRANCH   4   6
ENDBRANCH   3   4
ENDBRANCH   2   3
ENDBRANCH   1   2
BRANCH   1  24
ATOM     24  O   UNL A   1      41.766  20.464  25.620  1.00  0.00    -0.374 OA
BRANCH  24  25
ATOM     25  C   UNL A   1      42.894  21.076  26.250  1.00  0.00     0.202 C 
BRANCH  25  26
ATOM     26  C   UNL A   1      43.693  21.983  25.311  1.00  0.00     0.261 C 
BRANCH  26  27
ATOM     27  O   UNL A   1      42.948  23.184  25.038  1.00  0.00    -0.460 OA
BRANCH  27  28
ATOM     28  C   UNL A   1      43.652  24.333  25.176  1.00  0.00     0.338 C 
ATOM     29  O   UNL A   1      44.615  24.691  24.520  1.00  0.00    -0.246 OA
BRANCH  28  30
ATOM     30  C   UNL A   1      42.996  25.211  26.168  1.00  0.00     0.060 A 
ATOM     31  C   UNL A   1      43.410  26.548  26.201  1.00  0.00     0.016 A 
ATOM     32  C   UNL A   1      42.038  24.747  27.075  1.00  0.00     0.016 A 
ATOM     33  C   UNL A   1      42.914  27.408  27.178  1.00  0.00     0.010 A 
ATOM     34  C   UNL A   1      41.542  25.611  28.058  1.00  0.00     0.010 A 
ATOM     35  C   UNL A   1      42.007  26.934  28.136  1.00  0.00    -0.014 A 
BRANCH  35  36
ATOM     36  C   UNL A   1      41.682  27.804  29.292  1.00  0.00     0.031 A 
ATOM     37  C   UNL A   1      40.449  28.662  29.235  1.00  0.00     0.074 A 
ATOM     38  C   UNL A   1      42.427  27.769  30.410  1.00  0.00     0.049 A 
ATOM     39  N   UNL A   1      39.908  29.402  30.169  1.00  0.00    -0.248 NA
ATOM     40  C   UNL A   1      39.726  28.686  27.953  1.00  0.00     0.031 C 
ATOM     41  C   UNL A   1      43.637  26.971  30.594  1.00  0.00     0.029 A 
ATOM     42  N   UNL A   1      42.262  28.415  31.609  1.00  0.00    -0.354 N 
ATOM     43  C   UNL A   1      38.776  29.965  29.595  1.00  0.00     0.074 A 
ATOM     44  C   UNL A   1      38.727  29.515  28.220  1.00  0.00     0.031 C 
ATOM     45  C   UNL A   1      44.104  27.171  31.839  1.00  0.00     0.029 A 
ATOM     46  C   UNL A   1      43.227  28.112  32.535  1.00  0.00     0.049 A 
ATOM     47  H   UNL A   1      41.520  29.038  31.788  1.00  0.00     0.167 HD
ATOM     48  C   UNL A   1      37.850  30.769  30.167  1.00  0.00     0.037 A 
ATOM     49  C   UNL A   1      43.380  28.540  33.803  1.00  0.00     0.037 A 
ATOM     50  C   UNL A   1      37.893  31.223  31.531  1.00  0.00     0.049 A 
ATOM     51  C   UNL A   1      42.354  29.464  34.404  1.00  0.00     0.074 A 
ATOM     52  C   UNL A   1      36.988  32.023  32.206  1.00  0.00     0.029 A 
ATOM     53  N   UNL A   1      38.905  30.918  32.428  1.00  0.00    -0.354 N 
ATOM     54  N   UNL A   1      41.259  29.946  33.870  1.00  0.00    -0.248 NA
ATOM     55  C   UNL A   1      42.582  29.891  35.793  1.00  0.00     0.031 C 
ATOM     56  C   UNL A   1      37.470  32.231  33.503  1.00  0.00     0.029 A 
ATOM     57  C   UNL A   1      38.657  31.532  33.645  1.00  0.00     0.049 A 
ATOM     58  H   UNL A   1      39.683  30.349  32.230  1.00  0.00     0.167 HD
ATOM     59  C   UNL A   1      40.658  30.713  34.859  1.00  0.00     0.074 A 
ATOM     60  C   UNL A   1      41.502  30.621  36.032  1.00  0.00     0.031 C 
ATOM     61  C   UNL A   1      39.507  31.429  34.802  1.00  0.00     0.037 A 
BRANCH  48  62
ATOM     62  C   UNL A   1      36.707  31.217  29.308  1.00  0.00     0.064 A 
ATOM     63  C   UNL A   1      36.639  32.526  28.808  1.00  0.00     0.173 A 
ATOM     64  C   UNL A   1      35.686  30.323  28.957  1.00  0.00     0.173 A 
ATOM     65  F   UNL A   1      37.585  33.421  29.130  1.00  0.00    -0.203 F 
ATOM     66  C   UNL A   1      35.579  32.928  28.000  1.00  0.00     0.198 A 
ATOM     67  C   UNL A   1      34.638  30.723  28.134  1.00  0.00     0.198 A 
ATOM     68  F   UNL A   1      35.707  29.061  29.413  1.00  0.00    -0.203 F 
ATOM     69  F   UNL A   1      35.514  34.192  27.562  1.00  0.00    -0.200 F 
ATOM     70  C   UNL A   1      34.582  32.026  27.660  1.00  0.00     0.200 A 
ATOM     71  F   UNL A   1      33.678  29.849  27.802  1.00  0.00    -0.200 F 
ATOM     72  F   UNL A   1      33.563  32.413  26.881  1.00  0.00    -0.200 F 
ENDBRANCH  48  62
BRANCH  49  73
ATOM     73  C   UNL A   1      44.545  28.083  34.601  1.00  0.00     0.064 A 
ATOM     74  C   UNL A   1      44.494  26.892  35.336  1.00  0.00     0.173 A 
ATOM     75  C   UNL A   1      45.723  28.840  34.656  1.00  0.00     0.173 A 
ATOM     76  F   UNL A   1      43.378  26.149  35.333  1.00  0.00    -0.203 F 
ATOM     77  C   UNL A   1      45.578  26.480  36.109  1.00  0.00     0.198 A 
ATOM     78  C   UNL A   1      46.813  28.417  35.413  1.00  0.00     0.198 A 
ATOM     79  F   UNL A   1      45.816  29.988  33.970  1.00  0.00    -0.203 F 
ATOM     80  F   UNL A   1      45.492  25.356  36.835  1.00  0.00    -0.200 F 
ATOM     81  C   UNL A   1      46.737  27.241  36.144  1.00  0.00     0.200 A 
ATOM     82  F   UNL A   1      47.934  29.150  35.439  1.00  0.00    -0.200 F 
ATOM     83  F   UNL A   1      47.779  26.845  36.888  1.00  0.00    -0.200 F 
ENDBRANCH  49  73
BRANCH  61  84
ATOM     84  C   UNL A   1      39.090  32.154  36.046  1.00  0.00     0.064 A 
ATOM     85  C   UNL A   1      39.509  33.467  36.303  1.00  0.00     0.173 A 
ATOM     86  C   UNL A   1      38.235  31.541  36.974  1.00  0.00     0.173 A 
ATOM     87  F   UNL A   1      40.339  34.088  35.452  1.00  0.00    -0.203 F 
ATOM     88  C   UNL A   1      39.107  34.133  37.458  1.00  0.00     0.198 A 
ATOM     89  C   UNL A   1      37.816  32.218  38.116  1.00  0.00     0.198 A 
ATOM     90  F   UNL A   1      37.801  30.288  36.769  1.00  0.00    -0.203 F 
ATOM     91  F   UNL A   1      39.554  35.371  37.704  1.00  0.00    -0.200 F 
ATOM     92  C   UNL A   1      38.257  33.510  38.360  1.00  0.00     0.200 A 
ATOM     93  F   UNL A   1      36.989  31.619  38.984  1.00  0.00    -0.200 F 
ATOM     94  F   UNL A   1      37.870  34.153  39.471  1.00  0.00    -0.200 F 
ENDBRANCH  61  84
ENDBRANCH  35  36
ENDBRANCH  28  30
ENDBRANCH  27  28
ENDBRANCH  26  27
ENDBRANCH  25  26
ENDBRANCH  24  25
ENDBRANCH   1  24
TORSDOF 18
ENDMDL
MODEL 2
REMARK VINA RESULT:     -10.6      4.758      7.389
REMARK SMILES CN(CC(N)=O)S(=O)(=O)c1ccc(C(=O)OCCOCCOC(=O)c2ccc(-c3c4nc(c(-c5c(F)c(F)c(F)c(F)c5F)c5ccc([nH]5)c(-c5c(F)c(F)c(F)c(F)c5F)c5nc(c(-c6c(F)c(F)c(F)c(F)c6F)c6ccc3[nH]6)C=C5)C=C4)cc2)cc1Br
REMARK SMILES IDX 18 1 17 2 16 3 14 4 15 5 13 6 10 7 11 8 89 9 12 10 88 11
REMARK SMILES IDX 90 12 7 13 8 14 9 15 2 16 1 17 3 18 4 19 5 20 6 21 19 24
REMARK SMILES IDX 20 25 21 26 22 27 23 28 24 29 25 30 26 31 87 32 27 33 86 34
REMARK SMILES IDX 28 35 29 36 30 37 80 38 31 39 85 40 79 41 81 42 32 43 84 44
REMARK SMILES IDX 78 45 77 46 33 48 65 49 45 50 64 51 46 52 49 53 63 54 82 55
REMARK SMILES IDX 47 56 48 57 62 59 83 60 50 61 34 62 35 63 43 64 36 65 37 66
REMARK SMILES IDX 41 67 44 68 38 69 39 70 42 71 40 72 66 73 67 74 75 75 68 76
REMARK SMILES IDX 69 77 73 78 76 79 70 80 71 81 74 82 72 83 51 84 52 85 60 86
REMARK SMILES IDX 53 87 54 88 58 89 61 90 55 91 56 92 59 93 57 94
REMARK H PARENT 5 22 5 23 81 47 49 58
REMARK Flexibility Score: inf
ROOT
ATOM      1  C   UNL A   1      35.553  20.489  24.942  1.00  0.00     0.202 C 
ENDROOT
BRANCH   1   2
ATOM      2  C   UNL A   1      34.263  19.684  24.770  1.00  0.00     0.261 C 
BRANCH   2   3
ATOM      3  O   UNL A   1      33.376  20.358  23.854  1.00  0.00    -0.460 OA
BRANCH   3   4
ATOM      4  C   UNL A   1      32.341  21.010  24.435  1.00  0.00     0.338 C 
ATOM      5  O   UNL A   1      31.686  20.646  25.396  1.00  0.00    -0.246 OA
BRANCH   4   6
ATOM      6  C   UNL A   1      32.192  22.356  23.835  1.00  0.00     0.061 A 
ATOM      7  C   UNL A   1      32.124  24.941  22.745  1.00  0.00     0.096 A 
ATOM      8  C   UNL A   1      33.071  23.997  22.302  1.00  0.00     0.024 A 
ATOM      9  C   UNL A   1      31.190  24.575  23.721  1.00  0.00     0.038 A 
ATOM     10  C   UNL A   1      33.115  22.720  22.855  1.00  0.00     0.017 A 
ATOM     11  C   UNL A   1      31.211  23.266  24.244  1.00  0.00     0.032 A 
ATOM     12  Br  UNL A   1      29.905  25.736  24.492  1.00  0.00    -0.049 Br
BRANCH   7  13
ATOM     13  S   UNL A   1      32.363  26.587  22.108  1.00  0.00     0.244 S 
ATOM     14  O   UNL A   1      31.119  26.959  21.466  1.00  0.00    -0.207 OA
ATOM     15  O   UNL A   1      33.599  26.530  21.356  1.00  0.00    -0.207 OA
BRANCH  13  16
ATOM     16  N   UNL A   1      32.571  27.652  23.406  1.00  0.00    -0.192 NA
ATOM     17  C   UNL A   1      33.998  27.976  23.662  1.00  0.00     0.125 C 
BRANCH  16  18
ATOM     18  C   UNL A   1      31.698  28.850  23.454  1.00  0.00     0.201 C 
BRANCH  18  19
ATOM     19  C   UNL A   1      31.390  29.398  24.839  1.00  0.00     0.232 C 
ATOM     20  N   UNL A   1      30.975  30.697  24.895  1.00  0.00    -0.369 N 
ATOM     21  O   UNL A   1      31.472  28.727  25.865  1.00  0.00    -0.274 OA
ATOM     22  H   UNL A   1      30.910  31.229  24.069  1.00  0.00     0.159 HD
ATOM     23  H   UNL A   1      30.740  31.101  25.761  1.00  0.00     0.159 HD
ENDBRANCH  18  19
ENDBRANCH  16  18
ENDBRANCH  13  16
ENDBRANCH   7  13
ENDBRANCH   4   6
ENDBRANCH   3   4
ENDBRANCH   2   3
ENDBRANCH   1   2
BRANCH   1  24
ATOM     24  O   UNL A   1      36.727  19.673  24.997  1.00  0.00    -0.374 OA
BRANCH  24  25
ATOM     25  C   UNL A   1      37.961  20.379  25.143  1.00  0.00     0.202 C 
BRANCH  25  26
ATOM     26  C   UNL A   1      39.116  19.488  25.606  1.00  0.00     0.261 C 
BRANCH  26  27
ATOM     27  O   UNL A   1      40.295  20.285  25.822  1.00  0.00    -0.460 OA
BRANCH  27  28
ATOM     28  C   UNL A   1      40.675  20.399  27.116  1.00  0.00     0.338 C 
ATOM     29  O   UNL A   1      40.852  19.496  27.916  1.00  0.00    -0.246 OA
BRANCH  28  30
ATOM     30  C   UNL A   1      41.009  21.806  27.423  1.00  0.00     0.060 A 
ATOM     31  C   UNL A   1      40.469  22.784  26.579  1.00  0.00     0.016 A 
ATOM     32  C   UNL A   1      41.861  22.172  28.470  1.00  0.00     0.016 A 
ATOM     33  C   UNL A   1      40.824  24.121  26.741  1.00  0.00     0.010 A 
ATOM     34  C   UNL A   1      42.220  23.516  28.632  1.00  0.00     0.010 A 
ATOM     35  C   UNL A   1      41.733  24.489  27.743  1.00  0.00    -0.014 A 
BRANCH  35  36
ATOM     36  C   UNL A   1      42.266  25.872  27.740  1.00  0.00     0.031 A 
ATOM     37  C   UNL A   1      41.497  26.952  28.450  1.00  0.00     0.074 A 
ATOM     38  C   UNL A   1      43.459  26.148  27.185  1.00  0.00     0.049 A 
ATOM     39  N   UNL A   1      41.831  28.197  28.678  1.00  0.00    -0.248 NA
ATOM     40  C   UNL A   1      40.175  26.577  28.976  1.00  0.00     0.031 C 
ATOM     41  C   UNL A   1      44.304  25.188  26.479  1.00  0.00     0.029 A 
ATOM     42  N   UNL A   1      44.169  27.321  27.143  1.00  0.00    -0.354 N 
ATOM     43  C   UNL A   1      40.772  28.747  29.387  1.00  0.00     0.074 A 
ATOM     44  C   UNL A   1      39.766  27.716  29.517  1.00  0.00     0.031 C 
ATOM     45  C   UNL A   1      45.425  25.810  26.077  1.00  0.00     0.029 A 
ATOM     46  C   UNL A   1      45.373  27.211  26.495  1.00  0.00     0.049 A 
ATOM     47  H   UNL A   1      43.846  28.162  27.540  1.00  0.00     0.167 HD
ATOM     48  C   UNL A   1      40.656  29.994  29.899  1.00  0.00     0.037 A 
ATOM     49  C   UNL A   1      46.328  28.135  26.273  1.00  0.00     0.037 A 
ATOM     50  C   UNL A   1      41.651  31.025  29.771  1.00  0.00     0.049 A 
ATOM     51  C   UNL A   1      46.157  29.526  26.823  1.00  0.00     0.074 A 
ATOM     52  C   UNL A   1      41.631  32.314  30.275  1.00  0.00     0.029 A 
ATOM     53  N   UNL A   1      42.845  30.883  29.080  1.00  0.00    -0.354 N 
ATOM     54  N   UNL A   1      45.177  30.021  27.538  1.00  0.00    -0.248 NA
ATOM     55  C   UNL A   1      47.239  30.484  26.545  1.00  0.00     0.031 C 
ATOM     56  C   UNL A   1      42.799  32.964  29.860  1.00  0.00     0.029 A 
ATOM     57  C   UNL A   1      43.561  32.069  29.128  1.00  0.00     0.049 A 
ATOM     58  H   UNL A   1      43.140  30.062  28.625  1.00  0.00     0.167 HD
ATOM     59  C   UNL A   1      45.530  31.335  27.813  1.00  0.00     0.074 A 
ATOM     60  C   UNL A   1      46.823  31.559  27.200  1.00  0.00     0.031 C 
ATOM     61  C   UNL A   1      44.845  32.274  28.512  1.00  0.00     0.037 A 
BRANCH  48  62
ATOM     62  C   UNL A   1      39.398  30.314  30.645  1.00  0.00     0.064 A 
ATOM     63  C   UNL A   1      38.271  30.830  29.988  1.00  0.00     0.173 A 
ATOM     64  C   UNL A   1      39.306  30.076  32.024  1.00  0.00     0.173 A 
ATOM     65  F   UNL A   1      38.316  31.090  28.673  1.00  0.00    -0.203 F 
ATOM     66  C   UNL A   1      37.102  31.113  30.689  1.00  0.00     0.198 A 
ATOM     67  C   UNL A   1      38.129  30.341  32.718  1.00  0.00     0.198 A 
ATOM     68  F   UNL A   1      40.358  29.584  32.695  1.00  0.00    -0.203 F 
ATOM     69  F   UNL A   1      36.048  31.639  30.050  1.00  0.00    -0.200 F 
ATOM     70  C   UNL A   1      37.030  30.863  32.052  1.00  0.00     0.200 A 
ATOM     71  F   UNL A   1      38.059  30.095  34.033  1.00  0.00    -0.200 F 
ATOM     72  F   UNL A   1      35.904  31.133  32.725  1.00  0.00    -0.200 F 
ENDBRANCH  48  62
BRANCH  49  73
ATOM     73  C   UNL A   1      47.544  27.770  25.506  1.00  0.00     0.064 A 
ATOM     74  C   UNL A   1      48.734  27.424  26.160  1.00  0.00     0.173 A 
ATOM     75  C   UNL A   1      47.544  27.777  24.105  1.00  0.00     0.173 A 
ATOM     76  F   UNL A   1      48.788  27.428  27.500  1.00  0.00    -0.203 F 
ATOM     77  C   UNL A   1      49.885  27.111  25.439  1.00  0.00     0.198 A 
ATOM     78  C   UNL A   1      48.688  27.444  23.385  1.00  0.00     0.198 A 
ATOM     79  F   UNL A   1      46.429  28.103  23.436  1.00  0.00    -0.203 F 
ATOM     80  F   UNL A   1      51.021  26.821  26.087  1.00  0.00    -0.200 F 
ATOM     81  C   UNL A   1      49.860  27.118  24.052  1.00  0.00     0.200 A 
ATOM     82  F   UNL A   1      48.659  27.444  22.045  1.00  0.00    -0.200 F 
ATOM     83  F   UNL A   1      50.966  26.817  23.358  1.00  0.00    -0.200 F 
ENDBRANCH  49  73
BRANCH  61  84
ATOM     84  C   UNL A   1      45.488  33.619  28.663  1.00  0.00     0.064 A 
ATOM     85  C   UNL A   1      46.366  33.896  29.721  1.00  0.00     0.173 A 
ATOM     86  C   UNL A   1      45.250  34.633  27.723  1.00  0.00     0.173 A 
ATOM     87  F   UNL A   1      46.613  32.963  30.653  1.00  0.00    -0.203 F 
ATOM     88  C   UNL A   1      46.964  35.147  29.846  1.00  0.00     0.198 A 
ATOM     89  C   UNL A   1      45.867  35.875  27.838  1.00  0.00     0.198 A 
ATOM     90  F   UNL A   1      44.422  34.414  26.690  1.00  0.00    -0.203 F 
ATOM     91  F   UNL A   1      47.766  35.403  30.888  1.00  0.00    -0.200 F 
ATOM     92  C   UNL A   1      46.718  36.133  28.901  1.00  0.00     0.200 A 
ATOM     93  F   UNL A   1      45.635  36.825  26.921  1.00  0.00    -0.200 F 
ATOM     94  F   UNL A   1      47.295  37.337  29.023  1.00  0.00    -0.200 F 
ENDBRANCH  61  84
ENDBRANCH  35  36
ENDBRANCH  28  30
ENDBRANCH  27  28
ENDBRANCH  26  27
ENDBRANCH  25  26
ENDBRANCH  24  25
ENDBRANCH   1  24
TORSDOF 18
ENDMDL
MODEL 3
REMARK VINA RESULT:     -10.6      1.195      7.344
REMARK SMILES CN(CC(N)=O)S(=O)(=O)c1ccc(C(=O)OCCOCCOC(=O)c2ccc(-c3c4nc(c(-c5c(F)c(F)c(F)c(F)c5F)c5ccc([nH]5)c(-c5c(F)c(F)c(F)c(F)c5F)c5nc(c(-c6c(F)c(F)c(F)c(F)c6F)c6ccc3[nH]6)C=C5)C=C4)cc2)cc1Br
REMARK SMILES IDX 18 1 17 2 16 3 14 4 15 5 13 6 10 7 11 8 89 9 12 10 88 11
REMARK SMILES IDX 90 12 7 13 8 14 9 15 2 16 1 17 3 18 4 19 5 20 6 21 19 24
REMARK SMILES IDX 20 25 21 26 22 27 23 28 24 29 25 30 26 31 87 32 27 33 86 34
REMARK SMILES IDX 28 35 29 36 30 37 80 38 31 39 85 40 79 41 81 42 32 43 84 44
REMARK SMILES IDX 78 45 77 46 33 48 65 49 45 50 64 51 46 52 49 53 63 54 82 55
REMARK SMILES IDX 47 56 48 57 62 59 83 60 50 61 34 62 35 63 43 64 36 65 37 66
REMARK SMILES IDX 41 67 44 68 38 69 39 70 42 71 40 72 66 73 67 74 75 75 68 76
REMARK SMILES IDX 69 77 73 78 76 79 70 80 71 81 74 82 72 83 51 84 52 85 60 86
REMARK SMILES IDX 53 87 54 88 58 89 61 90 55 91 56 92 59 93 57 94
REMARK H PARENT 5 22 5 23 81 47 49 58
REMARK Flexibility Score: inf
ROOT
ATOM      1  C   UNL A   1      40.726  20.049  26.399  1.00  0.00     0.202 C 
ENDROOT
BRANCH   1   2
ATOM      2  C   UNL A   1      40.124  21.408  26.762  1.00  0.00     0.261 C 
BRANCH   2   3
ATOM      3  O   UNL A   1      39.173  21.814  25.757  1.00  0.00    -0.460 OA
BRANCH   3   4
ATOM      4  C   UNL A   1      38.340  22.815  26.128  1.00  0.00     0.338 C 
ATOM      5  O   UNL A   1      38.631  23.828  26.740  1.00  0.00    -0.246 OA
BRANCH   4   6
ATOM      6  C   UNL A   1      36.999  22.601  25.537  1.00  0.00     0.061 A 
ATOM      7  C   UNL A   1      34.377  22.331  24.574  1.00  0.00     0.096 A 
ATOM      8  C   UNL A   1      34.959  23.604  24.732  1.00  0.00     0.024 A 
ATOM      9  C   UNL A   1      35.126  21.188  24.875  1.00  0.00     0.038 A 
ATOM     10  C   UNL A   1      36.254  23.738  25.226  1.00  0.00     0.017 A 
ATOM     11  C   UNL A   1      36.453  21.329  25.332  1.00  0.00     0.032 A 
ATOM     12  Br  UNL A   1      34.478  19.408  24.803  1.00  0.00    -0.049 Br
BRANCH   7  13
ATOM     13  S   UNL A   1      32.644  22.354  24.164  1.00  0.00     0.244 S 
ATOM     14  O   UNL A   1      31.953  21.756  25.287  1.00  0.00    -0.207 OA
ATOM     15  O   UNL A   1      32.556  21.770  22.842  1.00  0.00    -0.207 OA
BRANCH  13  16
ATOM     16  N   UNL A   1      32.122  23.961  24.079  1.00  0.00    -0.192 NA
ATOM     17  C   UNL A   1      32.342  24.568  22.740  1.00  0.00     0.125 C 
BRANCH  16  18
ATOM     18  C   UNL A   1      30.783  24.275  24.632  1.00  0.00     0.201 C 
BRANCH  18  19
ATOM     19  C   UNL A   1      30.764  24.930  26.005  1.00  0.00     0.232 C 
ATOM     20  N   UNL A   1      31.515  24.326  26.971  1.00  0.00    -0.369 N 
ATOM     21  O   UNL A   1      30.142  25.959  26.254  1.00  0.00    -0.274 OA
ATOM     22  H   UNL A   1      32.012  23.502  26.765  1.00  0.00     0.159 HD
ATOM     23  H   UNL A   1      31.560  24.716  27.874  1.00  0.00     0.159 HD
ENDBRANCH  18  19
ENDBRANCH  16  18
ENDBRANCH  13  16
ENDBRANCH   7  13
ENDBRANCH   4   6
ENDBRANCH   3   4
ENDBRANCH   2   3
ENDBRANCH   1   2
BRANCH   1  24
ATOM     24  O   UNL A   1      41.950  20.150  25.665  1.00  0.00    -0.374 OA
BRANCH  24  25
ATOM     25  C   UNL A   1      42.878  21.124  26.147  1.00  0.00     0.202 C 
BRANCH  25  26
ATOM     26  C   UNL A   1      43.787  21.688  25.052  1.00  0.00     0.261 C 
BRANCH  26  27
ATOM     27  O   UNL A   1      43.277  22.953  24.592  1.00  0.00    -0.460 OA
BRANCH  27  28
ATOM     28  C   UNL A   1      44.027  24.026  24.934  1.00  0.00     0.338 C 
ATOM     29  O   UNL A   1      45.108  24.349  24.470  1.00  0.00    -0.246 OA
BRANCH  28  30
ATOM     30  C   UNL A   1      43.281  24.884  25.879  1.00  0.00     0.060 A 
ATOM     31  C   UNL A   1      43.834  26.137  26.169  1.00  0.00     0.016 A 
ATOM     32  C   UNL A   1      42.101  24.472  26.507  1.00  0.00     0.016 A 
ATOM     33  C   UNL A   1      43.244  26.955  27.129  1.00  0.00     0.010 A 
ATOM     34  C   UNL A   1      41.509  25.294  27.473  1.00  0.00     0.010 A 
ATOM     35  C   UNL A   1      42.101  26.521  27.815  1.00  0.00    -0.014 A 
BRANCH  35  36
ATOM     36  C   UNL A   1      41.638  27.305  28.985  1.00  0.00     0.031 A 
ATOM     37  C   UNL A   1      42.434  27.253  30.260  1.00  0.00     0.074 A 
ATOM     38  C   UNL A   1      40.572  28.118  28.890  1.00  0.00     0.049 A 
ATOM     39  N   UNL A   1      42.286  27.944  31.361  1.00  0.00    -0.248 NA
ATOM     40  C   UNL A   1      43.550  26.293  30.297  1.00  0.00     0.031 C 
ATOM     41  C   UNL A   1      39.726  28.266  27.708  1.00  0.00     0.029 A 
ATOM     42  N   UNL A   1      40.028  28.982  29.806  1.00  0.00    -0.354 N 
ATOM     43  C   UNL A   1      43.296  27.518  32.213  1.00  0.00     0.074 A 
ATOM     44  C   UNL A   1      44.026  26.479  31.519  1.00  0.00     0.031 C 
ATOM     45  C   UNL A   1      38.770  29.175  27.970  1.00  0.00     0.029 A 
ATOM     46  C   UNL A   1      38.937  29.667  29.336  1.00  0.00     0.049 A 
ATOM     47  H   UNL A   1      40.388  29.100  30.716  1.00  0.00     0.167 HD
ATOM     48  C   UNL A   1      43.599  27.964  33.454  1.00  0.00     0.037 A 
ATOM     49  C   UNL A   1      38.167  30.593  29.940  1.00  0.00     0.037 A 
ATOM     50  C   UNL A   1      42.876  28.995  34.150  1.00  0.00     0.049 A 
ATOM     51  C   UNL A   1      38.504  31.046  31.335  1.00  0.00     0.074 A 
ATOM     52  C   UNL A   1      43.122  29.528  35.403  1.00  0.00     0.029 A 
ATOM     53  N   UNL A   1      41.757  29.642  33.651  1.00  0.00    -0.354 N 
ATOM     54  N   UNL A   1      39.493  30.676  32.110  1.00  0.00    -0.248 NA
ATOM     55  C   UNL A   1      37.622  32.061  31.933  1.00  0.00     0.031 C 
ATOM     56  C   UNL A   1      42.130  30.477  35.677  1.00  0.00     0.029 A 
ATOM     57  C   UNL A   1      41.288  30.557  34.580  1.00  0.00     0.049 A 
ATOM     58  H   UNL A   1      41.355  29.478  32.768  1.00  0.00     0.167 HD
ATOM     59  C   UNL A   1      39.367  31.423  33.274  1.00  0.00     0.074 A 
ATOM     60  C   UNL A   1      38.213  32.280  33.098  1.00  0.00     0.031 C 
ATOM     61  C   UNL A   1      40.138  31.402  34.389  1.00  0.00     0.037 A 
BRANCH  48  62
ATOM     62  C   UNL A   1      44.768  27.331  34.143  1.00  0.00     0.064 A 
ATOM     63  C   UNL A   1      44.614  26.183  34.935  1.00  0.00     0.173 A 
ATOM     64  C   UNL A   1      46.058  27.857  33.988  1.00  0.00     0.173 A 
ATOM     65  F   UNL A   1      43.397  25.653  35.126  1.00  0.00    -0.203 F 
ATOM     66  C   UNL A   1      45.709  25.595  35.561  1.00  0.00     0.198 A 
ATOM     67  C   UNL A   1      47.153  27.255  34.600  1.00  0.00     0.198 A 
ATOM     68  F   UNL A   1      46.255  28.954  33.242  1.00  0.00    -0.203 F 
ATOM     69  F   UNL A   1      45.536  24.520  36.343  1.00  0.00    -0.200 F 
ATOM     70  C   UNL A   1      46.978  26.128  35.390  1.00  0.00     0.200 A 
ATOM     71  F   UNL A   1      48.380  27.768  34.430  1.00  0.00    -0.200 F 
ATOM     72  F   UNL A   1      48.032  25.560  35.991  1.00  0.00    -0.200 F 
ENDBRANCH  48  62
BRANCH  49  73
ATOM     73  C   UNL A   1      37.005  31.170  29.218  1.00  0.00     0.064 A 
ATOM     74  C   UNL A   1      35.858  30.406  28.967  1.00  0.00     0.173 A 
ATOM     75  C   UNL A   1      37.030  32.491  28.750  1.00  0.00     0.173 A 
ATOM     76  F   UNL A   1      35.801  29.129  29.373  1.00  0.00    -0.203 F 
ATOM     77  C   UNL A   1      34.781  30.940  28.261  1.00  0.00     0.198 A 
ATOM     78  C   UNL A   1      35.945  33.030  28.064  1.00  0.00     0.198 A 
ATOM     79  F   UNL A   1      38.108  33.259  28.965  1.00  0.00    -0.203 F 
ATOM     80  F   UNL A   1      33.711  30.178  28.000  1.00  0.00    -0.200 F 
ATOM     81  C   UNL A   1      34.824  32.252  27.814  1.00  0.00     0.200 A 
ATOM     82  F   UNL A   1      35.987  34.300  27.639  1.00  0.00    -0.200 F 
ATOM     83  F   UNL A   1      33.789  32.765  27.135  1.00  0.00    -0.200 F 
ENDBRANCH  49  73
BRANCH  61  84
ATOM     84  C   UNL A   1      39.768  32.343  35.495  1.00  0.00     0.064 A 
ATOM     85  C   UNL A   1      40.318  33.630  35.575  1.00  0.00     0.173 A 
ATOM     86  C   UNL A   1      38.830  31.965  36.468  1.00  0.00     0.173 A 
ATOM     87  F   UNL A   1      41.230  34.030  34.676  1.00  0.00    -0.203 F 
ATOM     88  C   UNL A   1      39.959  34.499  36.603  1.00  0.00     0.198 A 
ATOM     89  C   UNL A   1      38.457  32.844  37.481  1.00  0.00     0.198 A 
ATOM     90  F   UNL A   1      38.272  30.746  36.431  1.00  0.00    -0.203 F 
ATOM     91  F   UNL A   1      40.528  35.709  36.683  1.00  0.00    -0.200 F 
ATOM     92  C   UNL A   1      39.026  34.106  37.551  1.00  0.00     0.200 A 
ATOM     93  F   UNL A   1      37.550  32.467  38.393  1.00  0.00    -0.200 F 
ATOM     94  F   UNL A   1      38.681  34.944  38.540  1.00  0.00    -0.200 F 
ENDBRANCH  61  84
ENDBRANCH  35  36
ENDBRANCH  28  30
ENDBRANCH  27  28
ENDBRANCH  26  27
ENDBRANCH  25  26
ENDBRANCH  24  25
ENDBRANCH   1  24
TORSDOF 18
ENDMDL
