MODEL 1
REMARK VINA RESULT:     -11.7      0.000      0.000
REMARK SMILES O=C(/C=C/c1ccc(Cl)cc1)NC(=S)Nc1cc(C(=O)OCCOCCOC(=O)c2ccc(-c3c4nc(c(-c5c(F)c(F)c(F)c(F)c5F)c5ccc([nH]5)c(-c5c(F)c(F)c(F)c(F)c5F)c5nc(c(-c6c(F)c(F)c(F)c(F)c6F)c6ccc3[nH]6)C=C5)C=C4)cc2)ccc1Cl
REMARK SMILES IDX 22 1 21 2 19 3 20 4 18 5 16 6 17 7 95 8 94 9 96 10 93 11
REMARK SMILES IDX 15 12 13 14 14 15 12 16 1 17 2 18 3 20 4 21 5 22 6 23 11 24
REMARK SMILES IDX 7 25 10 26 8 27 9 28 23 29 24 30 25 31 26 32 27 33 28 34
REMARK SMILES IDX 29 35 30 36 31 37 92 38 32 39 91 40 33 41 34 42 35 43 85 44
REMARK SMILES IDX 36 45 90 46 84 47 86 48 37 49 89 50 83 51 82 52 38 54 70 55
REMARK SMILES IDX 50 56 69 57 51 58 54 59 68 60 87 61 52 62 53 63 67 65 88 66
REMARK SMILES IDX 55 67 39 68 40 69 48 70 41 71 42 72 46 73 49 74 43 75 44 76
REMARK SMILES IDX 47 77 45 78 71 79 72 80 80 81 73 82 74 83 78 84 81 85 75 86
REMARK SMILES IDX 76 87 79 88 77 89 56 90 57 91 65 92 58 93 59 94 63 95 66 96
REMARK SMILES IDX 60 97 61 98 64 99 62 100
REMARK H PARENT 15 13 12 19 86 53 54 64
REMARK Flexibility Score: inf
ROOT
ATOM      1  C   UNL A   1      32.766  26.766  21.693  1.00  0.00     0.261 C 
ENDROOT
BRANCH   1   2
ATOM      2  O   UNL A   1      33.773  25.879  22.206  1.00  0.00    -0.460 OA
BRANCH   2   3
ATOM      3  C   UNL A   1      33.412  24.576  22.240  1.00  0.00     0.338 C 
ATOM      4  O   UNL A   1      33.262  23.835  21.279  1.00  0.00    -0.246 OA
BRANCH   3   5
ATOM      5  C   UNL A   1      33.403  24.093  23.640  1.00  0.00     0.062 A 
ATOM      6  C   UNL A   1      34.609  23.970  25.734  1.00  0.00     0.060 A 
ATOM      7  C   UNL A   1      34.454  24.519  24.461  1.00  0.00     0.043 A 
ATOM      8  C   UNL A   1      33.616  23.111  26.242  1.00  0.00     0.064 A 
ATOM      9  C   UNL A   1      32.514  22.763  25.452  1.00  0.00     0.023 A 
ATOM     10  Cl  UNL A   1      33.664  22.491  27.856  1.00  0.00    -0.082 Cl
ATOM     11  C   UNL A   1      32.418  23.233  24.140  1.00  0.00     0.017 A 
BRANCH   6  12
ATOM     12  N   UNL A   1      35.845  24.218  26.371  1.00  0.00    -0.331 N 
ATOM     13  H   UNL A   1      35.902  25.024  26.935  1.00  0.00     0.169 HD
BRANCH  12  14
ATOM     14  C   UNL A   1      36.967  23.445  26.279  1.00  0.00     0.177 C 
ATOM     15  S   UNL A   1      38.474  24.128  26.496  1.00  0.00    -0.040 S 
BRANCH  14  16
ATOM     16  N   UNL A   1      36.863  22.113  25.968  1.00  0.00    -0.299 N 
ATOM     17  O   UNL A   1      37.092  22.086  23.656  1.00  0.00    -0.270 OA
ATOM     18  C   UNL A   1      36.733  21.569  24.708  1.00  0.00     0.250 C 
ATOM     19  H   UNL A   1      36.883  21.480  26.722  1.00  0.00     0.172 HD
BRANCH  18  20
ATOM     20  C   UNL A   1      36.123  20.229  24.641  1.00  0.00     0.072 C 
ATOM     21  C   UNL A   1      34.803  20.010  24.645  1.00  0.00     0.014 C 
BRANCH  21  22
ATOM     22  C   UNL A   1      34.260  18.657  24.809  1.00  0.00    -0.025 A 
ATOM     23  C   UNL A   1      35.071  17.523  24.636  1.00  0.00     0.009 A 
ATOM     24  C   UNL A   1      32.936  18.487  25.225  1.00  0.00     0.009 A 
ATOM     25  C   UNL A   1      34.562  16.241  24.854  1.00  0.00     0.021 A 
ATOM     26  C   UNL A   1      32.426  17.203  25.446  1.00  0.00     0.021 A 
ATOM     27  C   UNL A   1      33.242  16.087  25.261  1.00  0.00     0.041 A 
ATOM     28  Cl  UNL A   1      32.618  14.511  25.552  1.00  0.00    -0.084 Cl
ENDBRANCH  21  22
ENDBRANCH  18  20
ENDBRANCH  14  16
ENDBRANCH  12  14
ENDBRANCH   6  12
ENDBRANCH   3   5
ENDBRANCH   2   3
ENDBRANCH   1   2
BRANCH   1  29
ATOM     29  C   UNL A   1      31.929  27.339  22.839  1.00  0.00     0.202 C 
BRANCH  29  30
ATOM     30  O   UNL A   1      32.377  28.576  23.397  1.00  0.00    -0.374 OA
BRANCH  30  31
ATOM     31  C   UNL A   1      32.456  28.672  24.818  1.00  0.00     0.202 C 
BRANCH  31  32
ATOM     32  C   UNL A   1      32.241  30.061  25.429  1.00  0.00     0.261 C 
BRANCH  32  33
ATOM     33  O   UNL A   1      32.604  30.103  26.819  1.00  0.00    -0.460 OA
BRANCH  33  34
ATOM     34  C   UNL A   1      33.213  31.248  27.204  1.00  0.00     0.338 C 
ATOM     35  O   UNL A   1      32.719  32.362  27.286  1.00  0.00    -0.246 OA
BRANCH  34  36
ATOM     36  C   UNL A   1      34.571  30.955  27.699  1.00  0.00     0.060 A 
ATOM     37  C   UNL A   1      34.879  29.618  27.978  1.00  0.00     0.016 A 
ATOM     38  C   UNL A   1      35.496  31.968  27.960  1.00  0.00     0.016 A 
ATOM     39  C   UNL A   1      36.097  29.292  28.570  1.00  0.00     0.010 A 
ATOM     40  C   UNL A   1      36.714  31.641  28.564  1.00  0.00     0.010 A 
ATOM     41  C   UNL A   1      37.002  30.307  28.906  1.00  0.00    -0.014 A 
BRANCH  41  42
ATOM     42  C   UNL A   1      38.175  29.986  29.753  1.00  0.00     0.031 A 
ATOM     43  C   UNL A   1      39.217  29.043  29.224  1.00  0.00     0.074 A 
ATOM     44  C   UNL A   1      38.324  30.551  30.963  1.00  0.00     0.049 A 
ATOM     45  N   UNL A   1      40.305  28.594  29.800  1.00  0.00    -0.248 NA
ATOM     46  C   UNL A   1      39.006  28.533  27.859  1.00  0.00     0.031 C 
ATOM     47  C   UNL A   1      37.405  31.512  31.566  1.00  0.00     0.029 A 
ATOM     48  N   UNL A   1      39.311  30.390  31.905  1.00  0.00    -0.354 N 
ATOM     49  C   UNL A   1      40.901  27.750  28.873  1.00  0.00     0.074 A 
ATOM     50  C   UNL A   1      40.041  27.721  27.709  1.00  0.00     0.031 C 
ATOM     51  C   UNL A   1      37.863  31.849  32.784  1.00  0.00     0.029 A 
ATOM     52  C   UNL A   1      39.092  31.104  33.056  1.00  0.00     0.049 A 
ATOM     53  H   UNL A   1      40.100  29.816  31.767  1.00  0.00     0.167 HD
ATOM     54  C   UNL A   1      42.065  27.065  28.980  1.00  0.00     0.037 A 
ATOM     55  C   UNL A   1      39.795  31.135  34.205  1.00  0.00     0.037 A 
ATOM     56  C   UNL A   1      42.920  27.098  30.137  1.00  0.00     0.049 A 
ATOM     57  C   UNL A   1      41.051  30.310  34.325  1.00  0.00     0.074 A 
ATOM     58  C   UNL A   1      44.130  26.456  30.335  1.00  0.00     0.029 A 
ATOM     59  N   UNL A   1      42.649  27.808  31.298  1.00  0.00    -0.354 N 
ATOM     60  N   UNL A   1      41.621  29.532  33.437  1.00  0.00    -0.248 NA
ATOM     61  C   UNL A   1      41.763  30.372  35.610  1.00  0.00     0.031 C 
ATOM     62  C   UNL A   1      44.567  26.739  31.634  1.00  0.00     0.029 A 
ATOM     63  C   UNL A   1      43.655  27.598  32.226  1.00  0.00     0.049 A 
ATOM     64  H   UNL A   1      41.858  28.377  31.440  1.00  0.00     0.167 HD
ATOM     65  C   UNL A   1      42.768  29.036  34.043  1.00  0.00     0.074 A 
ATOM     66  C   UNL A   1      42.820  29.609  35.371  1.00  0.00     0.031 C 
ATOM     67  C   UNL A   1      43.696  28.183  33.542  1.00  0.00     0.037 A 
BRANCH  54  68
ATOM     68  C   UNL A   1      42.470  26.203  27.820  1.00  0.00     0.064 A 
ATOM     69  C   UNL A   1      43.316  26.679  26.807  1.00  0.00     0.173 A 
ATOM     70  C   UNL A   1      42.027  24.874  27.737  1.00  0.00     0.173 A 
ATOM     71  F   UNL A   1      43.753  27.947  26.833  1.00  0.00    -0.203 F 
ATOM     72  C   UNL A   1      43.682  25.864  25.739  1.00  0.00     0.198 A 
ATOM     73  C   UNL A   1      42.418  24.054  26.683  1.00  0.00     0.198 A 
ATOM     74  F   UNL A   1      41.219  24.370  28.681  1.00  0.00    -0.203 F 
ATOM     75  F   UNL A   1      44.454  26.353  24.759  1.00  0.00    -0.200 F 
ATOM     76  C   UNL A   1      43.239  24.550  25.681  1.00  0.00     0.200 A 
ATOM     77  F   UNL A   1      41.998  22.783  26.634  1.00  0.00    -0.200 F 
ATOM     78  F   UNL A   1      43.597  23.766  24.656  1.00  0.00    -0.200 F 
ENDBRANCH  54  68
BRANCH  55  79
ATOM     79  C   UNL A   1      39.324  31.969  35.339  1.00  0.00     0.064 A 
ATOM     80  C   UNL A   1      38.490  31.437  36.333  1.00  0.00     0.173 A 
ATOM     81  C   UNL A   1      39.686  33.320  35.446  1.00  0.00     0.173 A 
ATOM     82  F   UNL A   1      38.096  30.158  36.260  1.00  0.00    -0.203 F 
ATOM     83  C   UNL A   1      38.024  32.229  37.380  1.00  0.00     0.198 A 
ATOM     84  C   UNL A   1      39.242  34.104  36.507  1.00  0.00     0.198 A 
ATOM     85  F   UNL A   1      40.481  33.878  34.520  1.00  0.00    -0.203 F 
ATOM     86  F   UNL A   1      37.193  31.708  38.291  1.00  0.00    -0.200 F 
ATOM     87  C   UNL A   1      38.405  33.560  37.470  1.00  0.00     0.200 A 
ATOM     88  F   UNL A   1      39.621  35.386  36.597  1.00  0.00    -0.200 F 
ATOM     89  F   UNL A   1      37.957  34.320  38.479  1.00  0.00    -0.200 F 
ENDBRANCH  55  79
BRANCH  67  90
ATOM     90  C   UNL A   1      44.867  27.844  34.420  1.00  0.00     0.064 A 
ATOM     91  C   UNL A   1      46.088  28.524  34.312  1.00  0.00     0.173 A 
ATOM     92  C   UNL A   1      44.750  26.856  35.409  1.00  0.00     0.173 A 
ATOM     93  F   UNL A   1      46.256  29.468  33.373  1.00  0.00    -0.203 F 
ATOM     94  C   UNL A   1      47.158  28.211  35.148  1.00  0.00     0.198 A 
ATOM     95  C   UNL A   1      45.810  26.565  36.262  1.00  0.00     0.198 A 
ATOM     96  F   UNL A   1      43.599  26.181  35.558  1.00  0.00    -0.203 F 
ATOM     97  F   UNL A   1      48.330  28.843  34.998  1.00  0.00    -0.200 F 
ATOM     98  C   UNL A   1      47.015  27.238  36.127  1.00  0.00     0.200 A 
ATOM     99  F   UNL A   1      45.667  25.635  37.215  1.00  0.00    -0.200 F 
ATOM    100  F   UNL A   1      48.043  26.943  36.935  1.00  0.00    -0.200 F 
ENDBRANCH  67  90
ENDBRANCH  41  42
ENDBRANCH  34  36
ENDBRANCH  33  34
ENDBRANCH  32  33
ENDBRANCH  31  32
ENDBRANCH  30  31
ENDBRANCH  29  30
ENDBRANCH   1  29
TORSDOF 19
ENDMDL
MODEL 2
REMARK VINA RESULT:     -11.4      0.731      7.094
REMARK SMILES O=C(/C=C/c1ccc(Cl)cc1)NC(=S)Nc1cc(C(=O)OCCOCCOC(=O)c2ccc(-c3c4nc(c(-c5c(F)c(F)c(F)c(F)c5F)c5ccc([nH]5)c(-c5c(F)c(F)c(F)c(F)c5F)c5nc(c(-c6c(F)c(F)c(F)c(F)c6F)c6ccc3[nH]6)C=C5)C=C4)cc2)ccc1Cl
REMARK SMILES IDX 22 1 21 2 19 3 20 4 18 5 16 6 17 7 95 8 94 9 96 10 93 11
REMARK SMILES IDX 15 12 13 14 14 15 12 16 1 17 2 18 3 20 4 21 5 22 6 23 11 24
REMARK SMILES IDX 7 25 10 26 8 27 9 28 23 29 24 30 25 31 26 32 27 33 28 34
REMARK SMILES IDX 29 35 30 36 31 37 92 38 32 39 91 40 33 41 34 42 35 43 85 44
REMARK SMILES IDX 36 45 90 46 84 47 86 48 37 49 89 50 83 51 82 52 38 54 70 55
REMARK SMILES IDX 50 56 69 57 51 58 54 59 68 60 87 61 52 62 53 63 67 65 88 66
REMARK SMILES IDX 55 67 39 68 40 69 48 70 41 71 42 72 46 73 49 74 43 75 44 76
REMARK SMILES IDX 47 77 45 78 71 79 72 80 80 81 73 82 74 83 78 84 81 85 75 86
REMARK SMILES IDX 76 87 79 88 77 89 56 90 57 91 65 92 58 93 59 94 63 95 66 96
REMARK SMILES IDX 60 97 61 98 64 99 62 100
REMARK H PARENT 15 13 12 19 86 53 54 64
REMARK Flexibility Score: inf
ROOT
ATOM      1  C   UNL A   1      32.645  28.106  23.594  1.00  0.00     0.261 C 
ENDROOT
BRANCH   1   2
ATOM      2  O   UNL A   1      33.819  27.340  23.281  1.00  0.00    -0.460 OA
BRANCH   2   3
ATOM      3  C   UNL A   1      33.573  26.116  22.761  1.00  0.00     0.338 C 
ATOM      4  O   UNL A   1      33.612  25.806  21.578  1.00  0.00    -0.246 OA
BRANCH   3   5
ATOM      5  C   UNL A   1      33.428  25.125  23.851  1.00  0.00     0.062 A 
ATOM      6  C   UNL A   1      34.420  24.154  25.832  1.00  0.00     0.060 A 
ATOM      7  C   UNL A   1      34.389  25.161  24.869  1.00  0.00     0.043 A 
ATOM      8  C   UNL A   1      33.387  23.197  25.866  1.00  0.00     0.064 A 
ATOM      9  C   UNL A   1      32.372  23.222  24.903  1.00  0.00     0.023 A 
ATOM     10  Cl  UNL A   1      33.278  21.994  27.104  1.00  0.00    -0.082 Cl
ATOM     11  C   UNL A   1      32.404  24.171  23.878  1.00  0.00     0.017 A 
BRANCH   6  12
ATOM     12  N   UNL A   1      35.584  24.092  26.630  1.00  0.00    -0.331 N 
ATOM     13  H   UNL A   1      35.584  24.622  27.460  1.00  0.00     0.169 HD
BRANCH  12  14
ATOM     14  C   UNL A   1      36.709  23.367  26.356  1.00  0.00     0.177 C 
ATOM     15  S   UNL A   1      38.195  24.123  26.287  1.00  0.00    -0.040 S 
BRANCH  14  16
ATOM     16  N   UNL A   1      36.617  22.023  26.097  1.00  0.00    -0.299 N 
ATOM     17  O   UNL A   1      37.203  21.872  23.853  1.00  0.00    -0.270 OA
ATOM     18  C   UNL A   1      36.670  21.417  24.860  1.00  0.00     0.250 C 
ATOM     19  H   UNL A   1      36.502  21.430  26.874  1.00  0.00     0.172 HD
BRANCH  18  20
ATOM     20  C   UNL A   1      36.041  20.088  24.762  1.00  0.00     0.072 C 
ATOM     21  C   UNL A   1      34.722  19.896  24.640  1.00  0.00     0.014 C 
BRANCH  21  22
ATOM     22  C   UNL A   1      34.136  18.558  24.779  1.00  0.00    -0.025 A 
ATOM     23  C   UNL A   1      34.808  17.418  24.308  1.00  0.00     0.009 A 
ATOM     24  C   UNL A   1      32.928  18.398  25.465  1.00  0.00     0.009 A 
ATOM     25  C   UNL A   1      34.271  16.143  24.500  1.00  0.00     0.021 A 
ATOM     26  C   UNL A   1      32.391  17.121  25.660  1.00  0.00     0.021 A 
ATOM     27  C   UNL A   1      33.066  16.000  25.177  1.00  0.00     0.041 A 
ATOM     28  Cl  UNL A   1      32.414  14.430  25.435  1.00  0.00    -0.084 Cl
ENDBRANCH  21  22
ENDBRANCH  18  20
ENDBRANCH  14  16
ENDBRANCH  12  14
ENDBRANCH   6  12
ENDBRANCH   3   5
ENDBRANCH   2   3
ENDBRANCH   1   2
BRANCH   1  29
ATOM     29  C   UNL A   1      33.010  29.306  24.470  1.00  0.00     0.202 C 
BRANCH  29  30
ATOM     30  O   UNL A   1      31.920  30.057  25.007  1.00  0.00    -0.374 OA
BRANCH  30  31
ATOM     31  C   UNL A   1      31.807  30.140  26.426  1.00  0.00     0.202 C 
BRANCH  31  32
ATOM     32  C   UNL A   1      31.865  31.542  27.043  1.00  0.00     0.261 C 
BRANCH  32  33
ATOM     33  O   UNL A   1      33.053  32.253  26.658  1.00  0.00    -0.460 OA
BRANCH  33  34
ATOM     34  C   UNL A   1      33.634  32.956  27.659  1.00  0.00     0.338 C 
ATOM     35  O   UNL A   1      33.155  33.888  28.287  1.00  0.00    -0.246 OA
BRANCH  34  36
ATOM     36  C   UNL A   1      34.914  32.332  28.037  1.00  0.00     0.060 A 
ATOM     37  C   UNL A   1      34.904  30.958  28.309  1.00  0.00     0.016 A 
ATOM     38  C   UNL A   1      36.081  33.081  28.200  1.00  0.00     0.016 A 
ATOM     39  C   UNL A   1      36.050  30.335  28.798  1.00  0.00     0.010 A 
ATOM     40  C   UNL A   1      37.229  32.457  28.700  1.00  0.00     0.010 A 
ATOM     41  C   UNL A   1      37.205  31.091  29.036  1.00  0.00    -0.014 A 
BRANCH  41  42
ATOM     42  C   UNL A   1      38.332  30.483  29.784  1.00  0.00     0.031 A 
ATOM     43  C   UNL A   1      38.551  30.879  31.216  1.00  0.00     0.074 A 
ATOM     44  C   UNL A   1      39.128  29.568  29.203  1.00  0.00     0.049 A 
ATOM     45  N   UNL A   1      39.489  30.503  32.050  1.00  0.00    -0.248 NA
ATOM     46  C   UNL A   1      37.584  31.829  31.787  1.00  0.00     0.031 C 
ATOM     47  C   UNL A   1      38.989  29.072  27.837  1.00  0.00     0.029 A 
ATOM     48  N   UNL A   1      40.219  28.897  29.698  1.00  0.00    -0.354 N 
ATOM     49  C   UNL A   1      39.226  31.173  33.237  1.00  0.00     0.074 A 
ATOM     50  C   UNL A   1      38.063  32.003  33.009  1.00  0.00     0.031 C 
ATOM     51  C   UNL A   1      39.966  28.181  27.595  1.00  0.00     0.029 A 
ATOM     52  C   UNL A   1      40.815  28.068  28.781  1.00  0.00     0.049 A 
ATOM     53  H   UNL A   1      40.543  29.000  30.622  1.00  0.00     0.167 HD
ATOM     54  C   UNL A   1      39.892  31.097  34.415  1.00  0.00     0.037 A 
ATOM     55  C   UNL A   1      41.931  27.321  28.883  1.00  0.00     0.037 A 
ATOM     56  C   UNL A   1      41.047  30.268  34.640  1.00  0.00     0.049 A 
ATOM     57  C   UNL A   1      42.694  27.306  30.183  1.00  0.00     0.074 A 
ATOM     58  C   UNL A   1      41.779  30.106  35.802  1.00  0.00     0.029 A 
ATOM     59  N   UNL A   1      41.642  29.466  33.677  1.00  0.00    -0.354 N 
ATOM     60  N   UNL A   1      42.427  27.924  31.308  1.00  0.00    -0.248 NA
ATOM     61  C   UNL A   1      43.913  26.486  30.226  1.00  0.00     0.031 C 
ATOM     62  C   UNL A   1      42.846  29.243  35.530  1.00  0.00     0.029 A 
ATOM     63  C   UNL A   1      42.748  28.828  34.211  1.00  0.00     0.049 A 
ATOM     64  H   UNL A   1      41.324  29.366  32.750  1.00  0.00     0.167 HD
ATOM     65  C   UNL A   1      43.426  27.547  32.197  1.00  0.00     0.074 A 
ATOM     66  C   UNL A   1      44.298  26.637  31.485  1.00  0.00     0.031 C 
ATOM     67  C   UNL A   1      43.603  27.919  33.489  1.00  0.00     0.037 A 
BRANCH  54  68
ATOM     68  C   UNL A   1      39.399  31.952  35.544  1.00  0.00     0.064 A 
ATOM     69  C   UNL A   1      38.477  31.470  36.487  1.00  0.00     0.173 A 
ATOM     70  C   UNL A   1      39.876  33.262  35.702  1.00  0.00     0.173 A 
ATOM     71  F   UNL A   1      37.980  30.230  36.371  1.00  0.00    -0.203 F 
ATOM     72  C   UNL A   1      38.032  32.278  37.530  1.00  0.00     0.198 A 
ATOM     73  C   UNL A   1      39.450  34.057  36.762  1.00  0.00     0.198 A 
ATOM     74  F   UNL A   1      40.759  33.769  34.830  1.00  0.00    -0.203 F 
ATOM     75  F   UNL A   1      37.117  31.813  38.392  1.00  0.00    -0.200 F 
ATOM     76  C   UNL A   1      38.524  33.568  37.671  1.00  0.00     0.200 A 
ATOM     77  F   UNL A   1      39.933  35.299  36.902  1.00  0.00    -0.200 F 
ATOM     78  F   UNL A   1      38.098  34.342  38.678  1.00  0.00    -0.200 F 
ENDBRANCH  54  68
BRANCH  55  79
ATOM     79  C   UNL A   1      42.401  26.529  27.719  1.00  0.00     0.064 A 
ATOM     80  C   UNL A   1      41.916  25.236  27.478  1.00  0.00     0.173 A 
ATOM     81  C   UNL A   1      43.358  27.043  26.830  1.00  0.00     0.173 A 
ATOM     82  F   UNL A   1      41.020  24.691  28.314  1.00  0.00    -0.203 F 
ATOM     83  C   UNL A   1      42.382  24.482  26.402  1.00  0.00     0.198 A 
ATOM     84  C   UNL A   1      43.802  26.299  25.741  1.00  0.00     0.198 A 
ATOM     85  F   UNL A   1      43.855  28.274  27.018  1.00  0.00    -0.203 F 
ATOM     86  F   UNL A   1      41.935  23.232  26.221  1.00  0.00    -0.200 F 
ATOM     87  C   UNL A   1      43.320  25.016  25.532  1.00  0.00     0.200 A 
ATOM     88  F   UNL A   1      44.700  26.822  24.895  1.00  0.00    -0.200 F 
ATOM     89  F   UNL A   1      43.765  24.290  24.496  1.00  0.00    -0.200 F 
ENDBRANCH  55  79
BRANCH  67  90
ATOM     90  C   UNL A   1      44.763  27.316  34.229  1.00  0.00     0.064 A 
ATOM     91  C   UNL A   1      46.007  27.958  34.295  1.00  0.00     0.173 A 
ATOM     92  C   UNL A   1      44.612  26.102  34.916  1.00  0.00     0.173 A 
ATOM     93  F   UNL A   1      46.206  29.115  33.644  1.00  0.00    -0.203 F 
ATOM     94  C   UNL A   1      47.066  27.395  35.004  1.00  0.00     0.198 A 
ATOM     95  C   UNL A   1      45.663  25.556  35.646  1.00  0.00     0.198 A 
ATOM     96  F   UNL A   1      43.438  25.451  34.890  1.00  0.00    -0.203 F 
ATOM     97  F   UNL A   1      48.260  28.004  35.016  1.00  0.00    -0.200 F 
ATOM     98  C   UNL A   1      46.891  26.199  35.685  1.00  0.00     0.200 A 
ATOM     99  F   UNL A   1      45.488  24.408  36.315  1.00  0.00    -0.200 F 
ATOM    100  F   UNL A   1      47.909  25.662  36.371  1.00  0.00    -0.200 F 
ENDBRANCH  67  90
ENDBRANCH  41  42
ENDBRANCH  34  36
ENDBRANCH  33  34
ENDBRANCH  32  33
ENDBRANCH  31  32
ENDBRANCH  30  31
ENDBRANCH  29  30
ENDBRANCH   1  29
TORSDOF 19
ENDMDL
MODEL 3
REMARK VINA RESULT:     -11.4      2.152      7.679
REMARK SMILES O=C(/C=C/c1ccc(Cl)cc1)NC(=S)Nc1cc(C(=O)OCCOCCOC(=O)c2ccc(-c3c4nc(c(-c5c(F)c(F)c(F)c(F)c5F)c5ccc([nH]5)c(-c5c(F)c(F)c(F)c(F)c5F)c5nc(c(-c6c(F)c(F)c(F)c(F)c6F)c6ccc3[nH]6)C=C5)C=C4)cc2)ccc1Cl
REMARK SMILES IDX 22 1 21 2 19 3 20 4 18 5 16 6 17 7 95 8 94 9 96 10 93 11
REMARK SMILES IDX 15 12 13 14 14 15 12 16 1 17 2 18 3 20 4 21 5 22 6 23 11 24
REMARK SMILES IDX 7 25 10 26 8 27 9 28 23 29 24 30 25 31 26 32 27 33 28 34
REMARK SMILES IDX 29 35 30 36 31 37 92 38 32 39 91 40 33 41 34 42 35 43 85 44
REMARK SMILES IDX 36 45 90 46 84 47 86 48 37 49 89 50 83 51 82 52 38 54 70 55
REMARK SMILES IDX 50 56 69 57 51 58 54 59 68 60 87 61 52 62 53 63 67 65 88 66
REMARK SMILES IDX 55 67 39 68 40 69 48 70 41 71 42 72 46 73 49 74 43 75 44 76
REMARK SMILES IDX 47 77 45 78 71 79 72 80 80 81 73 82 74 83 78 84 81 85 75 86
REMARK SMILES IDX 76 87 79 88 77 89 56 90 57 91 65 92 58 93 59 94 63 95 66 96
REMARK SMILES IDX 60 97 61 98 64 99 62 100
REMARK H PARENT 15 13 12 19 86 53 54 64
REMARK Flexibility Score: inf
ROOT
ATOM      1  C   UNL A   1      32.045  27.653  22.639  1.00  0.00     0.261 C 
ENDROOT
BRANCH   1   2
ATOM      2  O   UNL A   1      33.090  26.670  22.577  1.00  0.00    -0.460 OA
BRANCH   2   3
ATOM      3  C   UNL A   1      32.917  25.721  21.629  1.00  0.00     0.338 C 
ATOM      4  O   UNL A   1      33.067  25.860  20.424  1.00  0.00    -0.246 OA
BRANCH   3   5
ATOM      5  C   UNL A   1      32.700  24.403  22.269  1.00  0.00     0.062 A 
ATOM      6  C   UNL A   1      31.432  23.142  23.897  1.00  0.00     0.060 A 
ATOM      7  C   UNL A   1      31.600  24.292  23.128  1.00  0.00     0.043 A 
ATOM      8  C   UNL A   1      32.280  22.038  23.685  1.00  0.00     0.064 A 
ATOM      9  C   UNL A   1      33.321  22.118  22.754  1.00  0.00     0.023 A 
ATOM     10  Cl  UNL A   1      32.059  20.530  24.502  1.00  0.00    -0.082 Cl
ATOM     11  C   UNL A   1      33.549  23.310  22.061  1.00  0.00     0.017 A 
BRANCH   6  12
ATOM     12  N   UNL A   1      30.489  23.228  24.946  1.00  0.00    -0.331 N 
ATOM     13  H   UNL A   1      29.564  23.456  24.697  1.00  0.00     0.169 HD
BRANCH  12  14
ATOM     14  C   UNL A   1      30.742  23.024  26.273  1.00  0.00     0.177 C 
ATOM     15  S   UNL A   1      29.478  22.809  27.341  1.00  0.00    -0.040 S 
BRANCH  14  16
ATOM     16  N   UNL A   1      32.032  23.035  26.740  1.00  0.00    -0.299 N 
ATOM     17  O   UNL A   1      32.750  25.194  26.271  1.00  0.00    -0.270 OA
ATOM     18  C   UNL A   1      32.976  24.017  26.528  1.00  0.00     0.250 C 
ATOM     19  H   UNL A   1      32.313  22.262  27.280  1.00  0.00     0.172 HD
BRANCH  18  20
ATOM     20  C   UNL A   1      34.383  23.599  26.652  1.00  0.00     0.072 C 
ATOM     21  C   UNL A   1      35.338  23.929  25.774  1.00  0.00     0.014 C 
BRANCH  21  22
ATOM     22  C   UNL A   1      36.662  23.298  25.823  1.00  0.00    -0.025 A 
ATOM     23  C   UNL A   1      37.758  23.953  26.410  1.00  0.00     0.009 A 
ATOM     24  C   UNL A   1      36.825  21.991  25.355  1.00  0.00     0.009 A 
ATOM     25  C   UNL A   1      38.999  23.321  26.507  1.00  0.00     0.021 A 
ATOM     26  C   UNL A   1      38.067  21.356  25.454  1.00  0.00     0.021 A 
ATOM     27  C   UNL A   1      39.147  22.023  26.031  1.00  0.00     0.041 A 
ATOM     28  Cl  UNL A   1      40.669  21.234  26.170  1.00  0.00    -0.084 Cl
ENDBRANCH  21  22
ENDBRANCH  18  20
ENDBRANCH  14  16
ENDBRANCH  12  14
ENDBRANCH   6  12
ENDBRANCH   3   5
ENDBRANCH   2   3
ENDBRANCH   1   2
BRANCH   1  29
ATOM     29  C   UNL A   1      32.324  28.657  23.760  1.00  0.00     0.202 C 
BRANCH  29  30
ATOM     30  O   UNL A   1      31.332  28.758  24.784  1.00  0.00    -0.374 OA
BRANCH  30  31
ATOM     31  C   UNL A   1      31.770  28.692  26.140  1.00  0.00     0.202 C 
BRANCH  31  32
ATOM     32  C   UNL A   1      32.051  30.027  26.840  1.00  0.00     0.261 C 
BRANCH  32  33
ATOM     33  O   UNL A   1      33.343  30.556  26.497  1.00  0.00    -0.460 OA
BRANCH  33  34
ATOM     34  C   UNL A   1      33.840  31.443  27.390  1.00  0.00     0.338 C 
ATOM     35  O   UNL A   1      33.261  32.393  27.895  1.00  0.00    -0.246 OA
BRANCH  34  36
ATOM     36  C   UNL A   1      35.178  31.014  27.835  1.00  0.00     0.060 A 
ATOM     37  C   UNL A   1      35.356  29.655  28.119  1.00  0.00     0.016 A 
ATOM     38  C   UNL A   1      36.214  31.927  28.046  1.00  0.00     0.016 A 
ATOM     39  C   UNL A   1      36.556  29.208  28.667  1.00  0.00     0.010 A 
ATOM     40  C   UNL A   1      37.415  31.479  28.606  1.00  0.00     0.010 A 
ATOM     41  C   UNL A   1      37.575  30.125  28.953  1.00  0.00    -0.014 A 
BRANCH  41  42
ATOM     42  C   UNL A   1      38.742  29.691  29.759  1.00  0.00     0.031 A 
ATOM     43  C   UNL A   1      38.916  30.248  31.143  1.00  0.00     0.074 A 
ATOM     44  C   UNL A   1      39.614  28.790  29.275  1.00  0.00     0.049 A 
ATOM     45  N   UNL A   1      39.874  30.036  32.011  1.00  0.00    -0.248 NA
ATOM     46  C   UNL A   1      37.870  31.169  31.614  1.00  0.00     0.031 C 
ATOM     47  C   UNL A   1      39.527  28.147  27.967  1.00  0.00     0.029 A 
ATOM     48  N   UNL A   1      40.752  28.264  29.836  1.00  0.00    -0.354 N 
ATOM     49  C   UNL A   1      39.548  30.801  33.123  1.00  0.00     0.074 A 
ATOM     50  C   UNL A   1      38.323  31.505  32.812  1.00  0.00     0.031 C 
ATOM     51  C   UNL A   1      40.575  27.319  27.818  1.00  0.00     0.029 A 
ATOM     52  C   UNL A   1      41.421  27.397  29.009  1.00  0.00     0.049 A 
ATOM     53  H   UNL A   1      41.058  28.487  30.745  1.00  0.00     0.167 HD
ATOM     54  C   UNL A   1      40.208  30.900  34.302  1.00  0.00     0.037 A 
ATOM     55  C   UNL A   1      42.593  26.758  29.187  1.00  0.00     0.037 A 
ATOM     56  C   UNL A   1      41.424  30.196  34.611  1.00  0.00     0.049 A 
ATOM     57  C   UNL A   1      43.344  26.938  30.481  1.00  0.00     0.074 A 
ATOM     58  C   UNL A   1      42.158  30.213  35.784  1.00  0.00     0.029 A 
ATOM     59  N   UNL A   1      42.091  29.351  33.735  1.00  0.00    -0.354 N 
ATOM     60  N   UNL A   1      43.019  27.644  31.537  1.00  0.00    -0.248 NA
ATOM     61  C   UNL A   1      44.626  26.229  30.608  1.00  0.00     0.031 C 
ATOM     62  C   UNL A   1      43.294  29.418  35.601  1.00  0.00     0.029 A 
ATOM     63  C   UNL A   1      43.241  28.863  34.332  1.00  0.00     0.049 A 
ATOM     64  H   UNL A   1      41.789  29.131  32.824  1.00  0.00     0.167 HD
ATOM     65  C   UNL A   1      44.037  27.443  32.460  1.00  0.00     0.074 A 
ATOM     66  C   UNL A   1      44.986  26.539  31.845  1.00  0.00     0.031 C 
ATOM     67  C   UNL A   1      44.172  27.958  33.707  1.00  0.00     0.037 A 
BRANCH  54  68
ATOM     68  C   UNL A   1      39.637  31.823  35.339  1.00  0.00     0.064 A 
ATOM     69  C   UNL A   1      38.717  31.375  36.299  1.00  0.00     0.173 A 
ATOM     70  C   UNL A   1      40.038  33.167  35.388  1.00  0.00     0.173 A 
ATOM     71  F   UNL A   1      38.292  30.104  36.285  1.00  0.00    -0.203 F 
ATOM     72  C   UNL A   1      38.200  32.246  37.255  1.00  0.00     0.198 A 
ATOM     73  C   UNL A   1      39.540  34.028  36.362  1.00  0.00     0.198 A 
ATOM     74  F   UNL A   1      40.917  33.644  34.495  1.00  0.00    -0.203 F 
ATOM     75  F   UNL A   1      37.288  31.809  38.134  1.00  0.00    -0.200 F 
ATOM     76  C   UNL A   1      38.617  33.569  37.290  1.00  0.00     0.200 A 
ATOM     77  F   UNL A   1      39.951  35.302  36.401  1.00  0.00    -0.200 F 
ATOM     78  F   UNL A   1      38.122  34.405  38.213  1.00  0.00    -0.200 F 
ENDBRANCH  54  68
BRANCH  55  79
ATOM     79  C   UNL A   1      43.136  25.892  28.110  1.00  0.00     0.064 A 
ATOM     80  C   UNL A   1      42.963  24.501  28.141  1.00  0.00     0.173 A 
ATOM     81  C   UNL A   1      43.852  26.436  27.033  1.00  0.00     0.173 A 
ATOM     82  F   UNL A   1      42.307  23.932  29.162  1.00  0.00    -0.203 F 
ATOM     83  C   UNL A   1      43.500  23.687  27.145  1.00  0.00     0.198 A 
ATOM     84  C   UNL A   1      44.366  25.624  26.025  1.00  0.00     0.198 A 
ATOM     85  F   UNL A   1      44.047  27.761  26.958  1.00  0.00    -0.203 F 
ATOM     86  F   UNL A   1      43.358  22.358  27.223  1.00  0.00    -0.200 F 
ATOM     87  C   UNL A   1      44.196  24.250  26.086  1.00  0.00     0.200 A 
ATOM     88  F   UNL A   1      45.027  26.173  24.997  1.00  0.00    -0.200 F 
ATOM     89  F   UNL A   1      44.709  23.466  25.128  1.00  0.00    -0.200 F 
ENDBRANCH  55  79
BRANCH  67  90
ATOM     90  C   UNL A   1      45.371  27.531  34.505  1.00  0.00     0.064 A 
ATOM     91  C   UNL A   1      45.350  26.381  35.307  1.00  0.00     0.173 A 
ATOM     92  C   UNL A   1      46.568  28.259  34.431  1.00  0.00     0.173 A 
ATOM     93  F   UNL A   1      44.226  25.658  35.422  1.00  0.00    -0.203 F 
ATOM     94  C   UNL A   1      46.479  25.989  36.024  1.00  0.00     0.198 A 
ATOM     95  C   UNL A   1      47.702  27.849  35.125  1.00  0.00     0.198 A 
ATOM     96  F   UNL A   1      46.642  29.364  33.671  1.00  0.00    -0.203 F 
ATOM     97  F   UNL A   1      46.422  24.911  36.819  1.00  0.00    -0.200 F 
ATOM     98  C   UNL A   1      47.655  26.717  35.926  1.00  0.00     0.200 A 
ATOM     99  F   UNL A   1      48.841  28.546  35.019  1.00  0.00    -0.200 F 
ATOM    100  F   UNL A   1      48.741  26.334  36.611  1.00  0.00    -0.200 F 
ENDBRANCH  67  90
ENDBRANCH  41  42
ENDBRANCH  34  36
ENDBRANCH  33  34
ENDBRANCH  32  33
ENDBRANCH  31  32
ENDBRANCH  30  31
ENDBRANCH  29  30
ENDBRANCH   1  29
TORSDOF 19
ENDMDL
