MODEL 1
REMARK VINA RESULT:     -12.2      0.000      0.000
REMARK SMILES CN(C)c1nccnc1N1CCC(Oc2ccc3ccccc3c2)(C(=O)OCCOCCOC(=O)c2ccc(-c3c4nc(c(-c5c(F)c(F)c(F)c(F)c5F)c5ccc([nH]5)c(-c5c(F)c(F)c(F)c(F)c5F)c5nc(c(-c6c(F)c(F)c(F)c(F)c6F)c6ccc3[nH]6)C=C5)C=C4)cc2)CC1
REMARK SMILES IDX 30 1 29 2 28 3 27 4 25 5 26 6 13 7 10 8 11 9 100 10 12 11
REMARK SMILES IDX 99 12 9 13 4 14 5 15 6 16 8 17 7 18 2 19 1 20 3 21 14 22
REMARK SMILES IDX 15 23 16 24 24 25 17 26 23 27 18 28 22 29 19 30 21 31 20 32
REMARK SMILES IDX 31 33 32 34 33 35 34 36 35 37 36 38 37 39 98 40 38 41 97 42
REMARK SMILES IDX 39 43 40 44 41 45 91 46 42 47 96 48 90 49 92 50 43 51 95 52
REMARK SMILES IDX 89 53 88 54 44 56 76 57 56 58 75 59 57 60 60 61 74 62 93 63
REMARK SMILES IDX 58 64 59 65 73 67 94 68 61 69 45 70 46 71 54 72 47 73 48 74
REMARK SMILES IDX 52 75 55 76 49 77 50 78 53 79 51 80 77 81 78 82 86 83 79 84
REMARK SMILES IDX 80 85 84 86 87 87 81 88 82 89 85 90 83 91 62 92 63 93 71 94
REMARK SMILES IDX 64 95 65 96 69 97 72 98 66 99 67 100 70 101 68 102
REMARK H PARENT 92 55 60 66
REMARK Flexibility Score: inf
ROOT
ATOM      1  O   UNL A   1      31.208  27.918  25.924  1.00  0.00    -0.374 OA
ENDROOT
BRANCH   1   2
ATOM      2  C   UNL A   1      31.843  26.788  25.323  1.00  0.00     0.202 C 
BRANCH   2   3
ATOM      3  C   UNL A   1      32.858  27.051  24.204  1.00  0.00     0.261 C 
BRANCH   3   4
ATOM      4  O   UNL A   1      34.013  26.191  24.303  1.00  0.00    -0.460 OA
BRANCH   4   5
ATOM      5  C   UNL A   1      34.027  25.091  23.492  1.00  0.00     0.350 C 
ATOM      6  O   UNL A   1      33.912  25.149  22.272  1.00  0.00    -0.247 OA
BRANCH   5   7
ATOM      7  C   UNL A   1      34.182  23.764  24.275  1.00  0.00     0.209 C 
ATOM      8  N   UNL A   1      36.882  23.349  25.374  1.00  0.00    -0.353 N 
ATOM      9  C   UNL A   1      35.723  23.224  26.262  1.00  0.00     0.123 C 
ATOM     10  C   UNL A   1      36.667  23.461  23.931  1.00  0.00     0.123 C 
ATOM     11  C   UNL A   1      34.513  24.013  25.764  1.00  0.00     0.082 C 
ATOM     12  C   UNL A   1      35.281  22.934  23.572  1.00  0.00     0.082 C 
BRANCH   8  13
ATOM     13  C   UNL A   1      38.005  22.577  25.747  1.00  0.00     0.171 A 
ATOM     14  C   UNL A   1      39.214  23.148  26.281  1.00  0.00     0.171 A 
ATOM     15  N   UNL A   1      40.320  22.379  26.483  1.00  0.00    -0.234 NA
ATOM     16  C   UNL A   1      40.208  21.066  26.206  1.00  0.00     0.134 A 
ATOM     17  N   UNL A   1      37.927  21.236  25.520  1.00  0.00    -0.234 NA
ATOM     18  C   UNL A   1      39.038  20.507  25.746  1.00  0.00     0.134 A 
BRANCH  14  19
ATOM     19  N   UNL A   1      39.301  24.500  26.676  1.00  0.00    -0.360 N 
ATOM     20  C   UNL A   1      40.317  25.280  25.979  1.00  0.00     0.145 C 
ATOM     21  C   UNL A   1      39.271  24.659  28.123  1.00  0.00     0.145 C 
ENDBRANCH  14  19
ENDBRANCH   8  13
BRANCH   7  22
ATOM     22  O   UNL A   1      32.823  23.262  24.125  1.00  0.00    -0.475 OA
BRANCH  22  23
ATOM     23  C   UNL A   1      32.701  21.951  23.768  1.00  0.00     0.121 A 
ATOM     24  C   UNL A   1      32.156  21.606  22.539  1.00  0.00     0.047 A 
ATOM     25  C   UNL A   1      33.217  20.970  24.615  1.00  0.00     0.055 A 
ATOM     26  C   UNL A   1      32.058  20.261  22.180  1.00  0.00     0.012 A 
ATOM     27  C   UNL A   1      33.124  19.612  24.269  1.00  0.00    -0.015 A 
ATOM     28  C   UNL A   1      32.528  19.254  23.037  1.00  0.00    -0.018 A 
ATOM     29  C   UNL A   1      33.610  18.599  25.114  1.00  0.00     0.009 A 
ATOM     30  C   UNL A   1      32.423  17.897  22.692  1.00  0.00     0.009 A 
ATOM     31  C   UNL A   1      33.499  17.255  24.753  1.00  0.00     0.001 A 
ATOM     32  C   UNL A   1      32.905  16.904  23.545  1.00  0.00     0.001 A 
ENDBRANCH  22  23
ENDBRANCH   7  22
ENDBRANCH   5   7
ENDBRANCH   4   5
ENDBRANCH   3   4
ENDBRANCH   2   3
ENDBRANCH   1   2
BRANCH   1  33
ATOM     33  C   UNL A   1      31.824  28.503  27.064  1.00  0.00     0.202 C 
BRANCH  33  34
ATOM     34  C   UNL A   1      32.046  30.022  27.048  1.00  0.00     0.261 C 
BRANCH  34  35
ATOM     35  O   UNL A   1      33.364  30.413  26.653  1.00  0.00    -0.460 OA
BRANCH  35  36
ATOM     36  C   UNL A   1      33.858  31.463  27.349  1.00  0.00     0.338 C 
ATOM     37  O   UNL A   1      33.289  32.494  27.655  1.00  0.00    -0.246 OA
BRANCH  36  38
ATOM     38  C   UNL A   1      35.204  31.133  27.838  1.00  0.00     0.060 A 
ATOM     39  C   UNL A   1      35.488  29.783  28.063  1.00  0.00     0.016 A 
ATOM     40  C   UNL A   1      36.135  32.126  28.152  1.00  0.00     0.016 A 
ATOM     41  C   UNL A   1      36.693  29.422  28.655  1.00  0.00     0.010 A 
ATOM     42  C   UNL A   1      37.344  31.760  28.752  1.00  0.00     0.010 A 
ATOM     43  C   UNL A   1      37.611  30.410  29.037  1.00  0.00    -0.014 A 
BRANCH  43  44
ATOM     44  C   UNL A   1      38.782  30.014  29.853  1.00  0.00     0.031 A 
ATOM     45  C   UNL A   1      38.895  30.512  31.266  1.00  0.00     0.074 A 
ATOM     46  C   UNL A   1      39.697  29.163  29.357  1.00  0.00     0.049 A 
ATOM     47  N   UNL A   1      39.786  30.221  32.180  1.00  0.00    -0.248 NA
ATOM     48  C   UNL A   1      37.866  31.465  31.710  1.00  0.00     0.031 C 
ATOM     49  C   UNL A   1      39.682  28.605  28.007  1.00  0.00     0.029 A 
ATOM     50  N   UNL A   1      40.811  28.614  29.939  1.00  0.00    -0.354 N 
ATOM     51  C   UNL A   1      39.423  30.947  33.306  1.00  0.00     0.074 A 
ATOM     52  C   UNL A   1      38.252  31.722  32.951  1.00  0.00     0.031 C 
ATOM     53  C   UNL A   1      40.741  27.790  27.863  1.00  0.00     0.029 A 
ATOM     54  C   UNL A   1      41.510  27.780  29.105  1.00  0.00     0.049 A 
ATOM     55  H   UNL A   1      41.082  28.800  30.868  1.00  0.00     0.167 HD
ATOM     56  C   UNL A   1      40.005  30.956  34.529  1.00  0.00     0.037 A 
ATOM     57  C   UNL A   1      42.648  27.092  29.321  1.00  0.00     0.037 A 
ATOM     58  C   UNL A   1      41.168  30.185  34.878  1.00  0.00     0.049 A 
ATOM     59  C   UNL A   1      43.296  27.145  30.680  1.00  0.00     0.074 A 
ATOM     60  C   UNL A   1      41.813  30.099  36.099  1.00  0.00     0.029 A 
ATOM     61  N   UNL A   1      41.869  29.374  33.998  1.00  0.00    -0.354 N 
ATOM     62  N   UNL A   1      42.914  27.791  31.755  1.00  0.00    -0.248 NA
ATOM     63  C   UNL A   1      44.528  26.364  30.856  1.00  0.00     0.031 C 
ATOM     64  C   UNL A   1      42.934  29.274  35.944  1.00  0.00     0.029 A 
ATOM     65  C   UNL A   1      42.957  28.806  34.640  1.00  0.00     0.049 A 
ATOM     66  H   UNL A   1      41.628  29.223  33.054  1.00  0.00     0.167 HD
ATOM     67  C   UNL A   1      43.843  27.481  32.739  1.00  0.00     0.074 A 
ATOM     68  C   UNL A   1      44.797  26.572  32.137  1.00  0.00     0.031 C 
ATOM     69  C   UNL A   1      43.901  27.909  34.024  1.00  0.00     0.037 A 
BRANCH  56  70
ATOM     70  C   UNL A   1      39.400  31.847  35.573  1.00  0.00     0.064 A 
ATOM     71  C   UNL A   1      38.481  31.362  36.516  1.00  0.00     0.173 A 
ATOM     72  C   UNL A   1      39.765  33.200  35.649  1.00  0.00     0.173 A 
ATOM     73  F   UNL A   1      38.090  30.079  36.478  1.00  0.00    -0.203 F 
ATOM     74  C   UNL A   1      37.930  32.203  37.479  1.00  0.00     0.198 A 
ATOM     75  C   UNL A   1      39.231  34.033  36.630  1.00  0.00     0.198 A 
ATOM     76  F   UNL A   1      40.641  33.714  34.774  1.00  0.00    -0.203 F 
ATOM     77  F   UNL A   1      37.021  31.728  38.341  1.00  0.00    -0.200 F 
ATOM     78  C   UNL A   1      38.309  33.535  37.539  1.00  0.00     0.200 A 
ATOM     79  F   UNL A   1      39.608  35.318  36.692  1.00  0.00    -0.200 F 
ATOM     80  F   UNL A   1      37.782  34.344  38.469  1.00  0.00    -0.200 F 
ENDBRANCH  56  70
BRANCH  57  81
ATOM     81  C   UNL A   1      43.240  26.285  28.224  1.00  0.00     0.064 A 
ATOM     82  C   UNL A   1      43.992  26.883  27.204  1.00  0.00     0.173 A 
ATOM     83  C   UNL A   1      43.063  24.895  28.175  1.00  0.00     0.173 A 
ATOM     84  F   UNL A   1      44.169  28.213  27.196  1.00  0.00    -0.203 F 
ATOM     85  C   UNL A   1      44.532  26.123  26.169  1.00  0.00     0.198 A 
ATOM     86  C   UNL A   1      43.624  24.132  27.153  1.00  0.00     0.198 A 
ATOM     87  F   UNL A   1      42.350  24.274  29.127  1.00  0.00    -0.203 F 
ATOM     88  F   UNL A   1      45.212  26.726  25.183  1.00  0.00    -0.200 F 
ATOM     89  C   UNL A   1      44.353  24.748  26.148  1.00  0.00     0.200 A 
ATOM     90  F   UNL A   1      43.459  22.803  27.143  1.00  0.00    -0.200 F 
ATOM     91  F   UNL A   1      44.877  24.018  25.153  1.00  0.00    -0.200 F 
ENDBRANCH  57  81
BRANCH  69  92
ATOM     92  C   UNL A   1      45.028  27.387  34.869  1.00  0.00     0.064 A 
ATOM     93  C   UNL A   1      46.247  28.073  34.971  1.00  0.00     0.173 A 
ATOM     94  C   UNL A   1      44.874  26.204  35.608  1.00  0.00     0.173 A 
ATOM     95  F   UNL A   1      46.448  29.201  34.274  1.00  0.00    -0.203 F 
ATOM     96  C   UNL A   1      47.282  27.577  35.760  1.00  0.00     0.198 A 
ATOM     97  C   UNL A   1      45.901  25.727  36.417  1.00  0.00     0.198 A 
ATOM     98  F   UNL A   1      43.725  25.515  35.550  1.00  0.00    -0.203 F 
ATOM     99  F   UNL A   1      48.456  28.222  35.803  1.00  0.00    -0.200 F 
ATOM    100  C   UNL A   1      47.107  26.409  36.487  1.00  0.00     0.200 A 
ATOM    101  F   UNL A   1      45.726  24.605  37.129  1.00  0.00    -0.200 F 
ATOM    102  F   UNL A   1      48.103  25.935  37.247  1.00  0.00    -0.200 F 
ENDBRANCH  69  92
ENDBRANCH  43  44
ENDBRANCH  36  38
ENDBRANCH  35  36
ENDBRANCH  34  35
ENDBRANCH  33  34
ENDBRANCH   1  33
TORSDOF 18
ENDMDL
MODEL 2
REMARK VINA RESULT:     -12.1      0.980      1.913
REMARK SMILES CN(C)c1nccnc1N1CCC(Oc2ccc3ccccc3c2)(C(=O)OCCOCCOC(=O)c2ccc(-c3c4nc(c(-c5c(F)c(F)c(F)c(F)c5F)c5ccc([nH]5)c(-c5c(F)c(F)c(F)c(F)c5F)c5nc(c(-c6c(F)c(F)c(F)c(F)c6F)c6ccc3[nH]6)C=C5)C=C4)cc2)CC1
REMARK SMILES IDX 30 1 29 2 28 3 27 4 25 5 26 6 13 7 10 8 11 9 100 10 12 11
REMARK SMILES IDX 99 12 9 13 4 14 5 15 6 16 8 17 7 18 2 19 1 20 3 21 14 22
REMARK SMILES IDX 15 23 16 24 24 25 17 26 23 27 18 28 22 29 19 30 21 31 20 32
REMARK SMILES IDX 31 33 32 34 33 35 34 36 35 37 36 38 37 39 98 40 38 41 97 42
REMARK SMILES IDX 39 43 40 44 41 45 91 46 42 47 96 48 90 49 92 50 43 51 95 52
REMARK SMILES IDX 89 53 88 54 44 56 76 57 56 58 75 59 57 60 60 61 74 62 93 63
REMARK SMILES IDX 58 64 59 65 73 67 94 68 61 69 45 70 46 71 54 72 47 73 48 74
REMARK SMILES IDX 52 75 55 76 49 77 50 78 53 79 51 80 77 81 78 82 86 83 79 84
REMARK SMILES IDX 80 85 84 86 87 87 81 88 82 89 85 90 83 91 62 92 63 93 71 94
REMARK SMILES IDX 64 95 65 96 69 97 72 98 66 99 67 100 70 101 68 102
REMARK H PARENT 92 55 60 66
REMARK Flexibility Score: inf
ROOT
ATOM      1  O   UNL A   1      31.061  29.352  23.934  1.00  0.00    -0.374 OA
ENDROOT
BRANCH   1   2
ATOM      2  C   UNL A   1      30.937  28.043  23.372  1.00  0.00     0.202 C 
BRANCH   2   3
ATOM      3  C   UNL A   1      30.634  26.883  24.327  1.00  0.00     0.261 C 
BRANCH   3   4
ATOM      4  O   UNL A   1      31.739  25.959  24.430  1.00  0.00    -0.460 OA
BRANCH   4   5
ATOM      5  C   UNL A   1      31.882  25.310  25.625  1.00  0.00     0.350 C 
ATOM      6  O   UNL A   1      31.503  25.773  26.696  1.00  0.00    -0.247 OA
BRANCH   5   7
ATOM      7  C   UNL A   1      32.590  23.939  25.487  1.00  0.00     0.209 C 
ATOM      8  N   UNL A   1      35.418  23.982  26.303  1.00  0.00    -0.353 N 
ATOM      9  C   UNL A   1      34.527  22.967  26.871  1.00  0.00     0.123 C 
ATOM     10  C   UNL A   1      34.944  24.807  25.191  1.00  0.00     0.123 C 
ATOM     11  C   UNL A   1      33.061  23.398  26.855  1.00  0.00     0.082 C 
ATOM     12  C   UNL A   1      33.768  24.121  24.503  1.00  0.00     0.082 C 
BRANCH   8  13
ATOM     13  C   UNL A   1      36.777  23.603  26.223  1.00  0.00     0.171 A 
ATOM     14  C   UNL A   1      37.229  22.425  25.530  1.00  0.00     0.171 A 
ATOM     15  N   UNL A   1      38.528  22.023  25.608  1.00  0.00    -0.234 NA
ATOM     16  C   UNL A   1      39.365  22.803  26.319  1.00  0.00     0.134 A 
ATOM     17  N   UNL A   1      37.669  24.382  26.896  1.00  0.00    -0.234 NA
ATOM     18  C   UNL A   1      38.948  23.958  26.939  1.00  0.00     0.134 A 
BRANCH  14  19
ATOM     19  N   UNL A   1      36.380  21.667  24.695  1.00  0.00    -0.360 N 
ATOM     20  C   UNL A   1      36.397  20.231  24.943  1.00  0.00     0.145 C 
ATOM     21  C   UNL A   1      36.478  22.064  23.297  1.00  0.00     0.145 C 
ENDBRANCH  14  19
ENDBRANCH   8  13
BRANCH   7  22
ATOM     22  O   UNL A   1      31.465  23.163  24.983  1.00  0.00    -0.475 OA
BRANCH  22  23
ATOM     23  C   UNL A   1      31.771  21.976  24.385  1.00  0.00     0.121 A 
ATOM     24  C   UNL A   1      31.795  21.872  23.001  1.00  0.00     0.047 A 
ATOM     25  C   UNL A   1      32.149  20.896  25.184  1.00  0.00     0.055 A 
ATOM     26  C   UNL A   1      32.132  20.656  22.406  1.00  0.00     0.012 A 
ATOM     27  C   UNL A   1      32.489  19.665  24.600  1.00  0.00    -0.015 A 
ATOM     28  C   UNL A   1      32.471  19.543  23.191  1.00  0.00    -0.018 A 
ATOM     29  C   UNL A   1      32.848  18.551  25.380  1.00  0.00     0.009 A 
ATOM     30  C   UNL A   1      32.799  18.311  22.603  1.00  0.00     0.009 A 
ATOM     31  C   UNL A   1      33.173  17.335  24.777  1.00  0.00     0.001 A 
ATOM     32  C   UNL A   1      33.147  17.213  23.391  1.00  0.00     0.001 A 
ENDBRANCH  22  23
ENDBRANCH   7  22
ENDBRANCH   5   7
ENDBRANCH   4   5
ENDBRANCH   3   4
ENDBRANCH   2   3
ENDBRANCH   1   2
BRANCH   1  33
ATOM     33  C   UNL A   1      31.363  29.458  25.319  1.00  0.00     0.202 C 
BRANCH  33  34
ATOM     34  C   UNL A   1      32.717  30.073  25.702  1.00  0.00     0.261 C 
BRANCH  34  35
ATOM     35  O   UNL A   1      32.884  30.278  27.108  1.00  0.00    -0.460 OA
BRANCH  35  36
ATOM     36  C   UNL A   1      33.555  31.411  27.423  1.00  0.00     0.338 C 
ATOM     37  O   UNL A   1      33.121  32.546  27.490  1.00  0.00    -0.246 OA
BRANCH  36  38
ATOM     38  C   UNL A   1      34.924  31.068  27.831  1.00  0.00     0.060 A 
ATOM     39  C   UNL A   1      35.189  29.724  28.113  1.00  0.00     0.016 A 
ATOM     40  C   UNL A   1      35.902  32.048  28.019  1.00  0.00     0.016 A 
ATOM     41  C   UNL A   1      36.425  29.360  28.636  1.00  0.00     0.010 A 
ATOM     42  C   UNL A   1      37.142  31.679  28.549  1.00  0.00     0.010 A 
ATOM     43  C   UNL A   1      37.394  30.340  28.892  1.00  0.00    -0.014 A 
BRANCH  43  44
ATOM     44  C   UNL A   1      38.612  29.954  29.642  1.00  0.00     0.031 A 
ATOM     45  C   UNL A   1      38.813  30.478  31.035  1.00  0.00     0.074 A 
ATOM     46  C   UNL A   1      39.492  29.091  29.107  1.00  0.00     0.049 A 
ATOM     47  N   UNL A   1      39.757  30.201  31.898  1.00  0.00    -0.248 NA
ATOM     48  C   UNL A   1      37.815  31.444  31.523  1.00  0.00     0.031 C 
ATOM     49  C   UNL A   1      39.393  28.508  27.771  1.00  0.00     0.029 A 
ATOM     50  N   UNL A   1      40.638  28.549  29.630  1.00  0.00    -0.354 N 
ATOM     51  C   UNL A   1      39.466  30.950  33.031  1.00  0.00     0.074 A 
ATOM     52  C   UNL A   1      38.278  31.723  32.734  1.00  0.00     0.031 C 
ATOM     53  C   UNL A   1      40.439  27.686  27.578  1.00  0.00     0.029 A 
ATOM     54  C   UNL A   1      41.283  27.697  28.771  1.00  0.00     0.049 A 
ATOM     55  H   UNL A   1      40.967  28.751  30.536  1.00  0.00     0.167 HD
ATOM     56  C   UNL A   1      40.121  30.980  34.215  1.00  0.00     0.037 A 
ATOM     57  C   UNL A   1      42.430  27.008  28.930  1.00  0.00     0.037 A 
ATOM     58  C   UNL A   1      41.302  30.211  34.507  1.00  0.00     0.049 A 
ATOM     59  C   UNL A   1      43.160  27.084  30.245  1.00  0.00     0.074 A 
ATOM     60  C   UNL A   1      42.021  30.145  35.687  1.00  0.00     0.029 A 
ATOM     61  N   UNL A   1      41.945  29.380  33.601  1.00  0.00    -0.354 N 
ATOM     62  N   UNL A   1      42.846  27.752  31.329  1.00  0.00    -0.248 NA
ATOM     63  C   UNL A   1      44.398  26.301  30.360  1.00  0.00     0.031 C 
ATOM     64  C   UNL A   1      43.127  29.313  35.480  1.00  0.00     0.029 A 
ATOM     65  C   UNL A   1      43.069  28.821  34.186  1.00  0.00     0.049 A 
ATOM     66  H   UNL A   1      41.647  29.213  32.677  1.00  0.00     0.167 HD
ATOM     67  C   UNL A   1      43.833  27.456  32.260  1.00  0.00     0.074 A 
ATOM     68  C   UNL A   1      44.747  26.532  31.618  1.00  0.00     0.031 C 
ATOM     69  C   UNL A   1      43.971  27.909  33.531  1.00  0.00     0.037 A 
BRANCH  56  70
ATOM     70  C   UNL A   1      39.585  31.892  35.278  1.00  0.00     0.064 A 
ATOM     71  C   UNL A   1      38.667  31.445  36.240  1.00  0.00     0.173 A 
ATOM     72  C   UNL A   1      40.014  33.226  35.350  1.00  0.00     0.173 A 
ATOM     73  F   UNL A   1      38.214  30.182  36.206  1.00  0.00    -0.203 F 
ATOM     74  C   UNL A   1      38.179  32.307  37.220  1.00  0.00     0.198 A 
ATOM     75  C   UNL A   1      39.544  34.078  36.347  1.00  0.00     0.198 A 
ATOM     76  F   UNL A   1      40.893  33.704  34.457  1.00  0.00    -0.203 F 
ATOM     77  F   UNL A   1      37.269  31.870  38.101  1.00  0.00    -0.200 F 
ATOM     78  C   UNL A   1      38.621  33.619  37.276  1.00  0.00     0.200 A 
ATOM     79  F   UNL A   1      39.981  35.343  36.406  1.00  0.00    -0.200 F 
ATOM     80  F   UNL A   1      38.154  34.447  38.222  1.00  0.00    -0.200 F 
ENDBRANCH  56  70
BRANCH  57  81
ATOM     81  C   UNL A   1      42.951  26.178  27.814  1.00  0.00     0.064 A 
ATOM     82  C   UNL A   1      43.798  26.720  26.837  1.00  0.00     0.173 A 
ATOM     83  C   UNL A   1      42.610  24.823  27.703  1.00  0.00     0.173 A 
ATOM     84  F   UNL A   1      44.133  28.018  26.889  1.00  0.00    -0.203 F 
ATOM     85  C   UNL A   1      44.272  25.941  25.784  1.00  0.00     0.198 A 
ATOM     86  C   UNL A   1      43.105  24.038  26.663  1.00  0.00     0.198 A 
ATOM     87  F   UNL A   1      41.802  24.257  28.612  1.00  0.00    -0.203 F 
ATOM     88  F   UNL A   1      45.046  26.494  24.841  1.00  0.00    -0.200 F 
ATOM     89  C   UNL A   1      43.930  24.600  25.702  1.00  0.00     0.200 A 
ATOM     90  F   UNL A   1      42.782  22.740  26.594  1.00  0.00    -0.200 F 
ATOM     91  F   UNL A   1      44.390  23.850  24.690  1.00  0.00    -0.200 F 
ENDBRANCH  57  81
BRANCH  69  92
ATOM     92  C   UNL A   1      45.146  27.398  34.315  1.00  0.00     0.064 A 
ATOM     93  C   UNL A   1      45.067  26.220  35.072  1.00  0.00     0.173 A 
ATOM     94  C   UNL A   1      46.373  28.079  34.284  1.00  0.00     0.173 A 
ATOM     95  F   UNL A   1      43.913  25.540  35.145  1.00  0.00    -0.203 F 
ATOM     96  C   UNL A   1      46.165  25.758  35.792  1.00  0.00     0.198 A 
ATOM     97  C   UNL A   1      47.476  27.598  34.983  1.00  0.00     0.198 A 
ATOM     98  F   UNL A   1      46.503  29.206  33.569  1.00  0.00    -0.203 F 
ATOM     99  F   UNL A   1      46.052  24.657  36.549  1.00  0.00    -0.200 F 
ATOM    100  C   UNL A   1      47.370  26.443  35.742  1.00  0.00     0.200 A 
ATOM    101  F   UNL A   1      48.643  28.255  34.923  1.00  0.00    -0.200 F 
ATOM    102  F   UNL A   1      48.427  25.996  36.435  1.00  0.00    -0.200 F 
ENDBRANCH  69  92
ENDBRANCH  43  44
ENDBRANCH  36  38
ENDBRANCH  35  36
ENDBRANCH  34  35
ENDBRANCH  33  34
ENDBRANCH   1  33
TORSDOF 18
ENDMDL
MODEL 3
REMARK VINA RESULT:     -12.0      6.647     11.345
REMARK SMILES CN(C)c1nccnc1N1CCC(Oc2ccc3ccccc3c2)(C(=O)OCCOCCOC(=O)c2ccc(-c3c4nc(c(-c5c(F)c(F)c(F)c(F)c5F)c5ccc([nH]5)c(-c5c(F)c(F)c(F)c(F)c5F)c5nc(c(-c6c(F)c(F)c(F)c(F)c6F)c6ccc3[nH]6)C=C5)C=C4)cc2)CC1
REMARK SMILES IDX 30 1 29 2 28 3 27 4 25 5 26 6 13 7 10 8 11 9 100 10 12 11
REMARK SMILES IDX 99 12 9 13 4 14 5 15 6 16 8 17 7 18 2 19 1 20 3 21 14 22
REMARK SMILES IDX 15 23 16 24 24 25 17 26 23 27 18 28 22 29 19 30 21 31 20 32
REMARK SMILES IDX 31 33 32 34 33 35 34 36 35 37 36 38 37 39 98 40 38 41 97 42
REMARK SMILES IDX 39 43 40 44 41 45 91 46 42 47 96 48 90 49 92 50 43 51 95 52
REMARK SMILES IDX 89 53 88 54 44 56 76 57 56 58 75 59 57 60 60 61 74 62 93 63
REMARK SMILES IDX 58 64 59 65 73 67 94 68 61 69 45 70 46 71 54 72 47 73 48 74
REMARK SMILES IDX 52 75 55 76 49 77 50 78 53 79 51 80 77 81 78 82 86 83 79 84
REMARK SMILES IDX 80 85 84 86 87 87 81 88 82 89 85 90 83 91 62 92 63 93 71 94
REMARK SMILES IDX 64 95 65 96 69 97 72 98 66 99 67 100 70 101 68 102
REMARK H PARENT 92 55 60 66
REMARK Flexibility Score: inf
ROOT
ATOM      1  O   UNL A   1      38.303  33.977  39.012  1.00  0.00    -0.374 OA
ENDROOT
BRANCH   1   2
ATOM      2  C   UNL A   1      38.792  32.853  38.279  1.00  0.00     0.202 C 
BRANCH   2   3
ATOM      3  C   UNL A   1      37.771  31.992  37.525  1.00  0.00     0.261 C 
BRANCH   3   4
ATOM      4  O   UNL A   1      37.970  32.038  36.096  1.00  0.00    -0.460 OA
BRANCH   4   5
ATOM      5  C   UNL A   1      37.148  32.874  35.392  1.00  0.00     0.350 C 
ATOM      6  O   UNL A   1      36.231  33.510  35.904  1.00  0.00    -0.247 OA
BRANCH   5   7
ATOM      7  C   UNL A   1      37.483  32.920  33.881  1.00  0.00     0.209 C 
ATOM      8  N   UNL A   1      35.436  34.277  32.258  1.00  0.00    -0.353 N 
ATOM      9  C   UNL A   1      36.836  34.688  32.129  1.00  0.00     0.123 C 
ATOM     10  C   UNL A   1      35.113  33.069  33.018  1.00  0.00     0.123 C 
ATOM     11  C   UNL A   1      37.658  34.370  33.377  1.00  0.00     0.082 C 
ATOM     12  C   UNL A   1      36.350  32.183  33.131  1.00  0.00     0.082 C 
BRANCH   8  13
ATOM     13  C   UNL A   1      34.647  34.478  31.102  1.00  0.00     0.171 A 
ATOM     14  C   UNL A   1      33.444  35.269  31.095  1.00  0.00     0.171 A 
ATOM     15  N   UNL A   1      32.641  35.308  29.996  1.00  0.00    -0.234 NA
ATOM     16  C   UNL A   1      33.051  34.615  28.916  1.00  0.00     0.134 A 
ATOM     17  N   UNL A   1      35.042  33.826  29.973  1.00  0.00    -0.234 NA
ATOM     18  C   UNL A   1      34.226  33.901  28.902  1.00  0.00     0.134 A 
BRANCH  14  19
ATOM     19  N   UNL A   1      33.069  36.083  32.184  1.00  0.00    -0.360 N 
ATOM     20  C   UNL A   1      31.647  36.062  32.505  1.00  0.00     0.145 C 
ATOM     21  C   UNL A   1      33.680  37.403  32.128  1.00  0.00     0.145 C 
ENDBRANCH  14  19
ENDBRANCH   8  13
BRANCH   7  22
ATOM     22  O   UNL A   1      38.764  32.228  33.921  1.00  0.00    -0.475 OA
BRANCH  22  23
ATOM     23  C   UNL A   1      39.190  31.679  32.746  1.00  0.00     0.121 A 
ATOM     24  C   UNL A   1      39.642  32.491  31.716  1.00  0.00     0.047 A 
ATOM     25  C   UNL A   1      39.252  30.290  32.634  1.00  0.00     0.055 A 
ATOM     26  C   UNL A   1      40.096  31.913  30.529  1.00  0.00     0.012 A 
ATOM     27  C   UNL A   1      39.704  29.693  31.446  1.00  0.00    -0.015 A 
ATOM     28  C   UNL A   1      40.123  30.518  30.376  1.00  0.00    -0.018 A 
ATOM     29  C   UNL A   1      39.752  28.296  31.293  1.00  0.00     0.009 A 
ATOM     30  C   UNL A   1      40.566  29.926  29.183  1.00  0.00     0.009 A 
ATOM     31  C   UNL A   1      40.198  27.725  30.099  1.00  0.00     0.001 A 
ATOM     32  C   UNL A   1      40.602  28.539  29.045  1.00  0.00     0.001 A 
ENDBRANCH  22  23
ENDBRANCH   7  22
ENDBRANCH   5   7
ENDBRANCH   4   5
ENDBRANCH   3   4
ENDBRANCH   2   3
ENDBRANCH   1   2
BRANCH   1  33
ATOM     33  C   UNL A   1      39.145  34.542  40.009  1.00  0.00     0.202 C 
BRANCH  33  34
ATOM     34  C   UNL A   1      40.662  34.402  39.815  1.00  0.00     0.261 C 
BRANCH  34  35
ATOM     35  O   UNL A   1      41.342  35.648  39.636  1.00  0.00    -0.460 OA
BRANCH  35  36
ATOM     36  C   UNL A   1      40.881  36.381  38.595  1.00  0.00     0.338 C 
ATOM     37  O   UNL A   1      40.274  37.435  38.631  1.00  0.00    -0.246 OA
BRANCH  36  38
ATOM     38  C   UNL A   1      41.349  35.786  37.336  1.00  0.00     0.060 A 
ATOM     39  C   UNL A   1      40.379  35.463  36.384  1.00  0.00     0.016 A 
ATOM     40  C   UNL A   1      42.695  35.471  37.129  1.00  0.00     0.016 A 
ATOM     41  C   UNL A   1      40.746  34.772  35.233  1.00  0.00     0.010 A 
ATOM     42  C   UNL A   1      43.059  34.772  35.974  1.00  0.00     0.010 A 
ATOM     43  C   UNL A   1      42.080  34.390  35.040  1.00  0.00    -0.014 A 
BRANCH  43  44
ATOM     44  C   UNL A   1      42.402  33.476  33.920  1.00  0.00     0.031 A 
ATOM     45  C   UNL A   1      42.703  34.052  32.565  1.00  0.00     0.074 A 
ATOM     46  C   UNL A   1      42.491  32.152  34.130  1.00  0.00     0.049 A 
ATOM     47  N   UNL A   1      43.090  33.445  31.472  1.00  0.00    -0.248 NA
ATOM     48  C   UNL A   1      42.547  35.508  32.422  1.00  0.00     0.031 C 
ATOM     49  C   UNL A   1      42.235  31.483  35.403  1.00  0.00     0.029 A 
ATOM     50  N   UNL A   1      42.831  31.135  33.275  1.00  0.00    -0.354 N 
ATOM     51  C   UNL A   1      43.231  34.442  30.516  1.00  0.00     0.074 A 
ATOM     52  C   UNL A   1      42.851  35.689  31.145  1.00  0.00     0.031 C 
ATOM     53  C   UNL A   1      42.427  30.162  35.246  1.00  0.00     0.029 A 
ATOM     54  C   UNL A   1      42.807  29.895  33.860  1.00  0.00     0.049 A 
ATOM     55  H   UNL A   1      43.070  31.281  32.330  1.00  0.00     0.167 HD
ATOM     56  C   UNL A   1      43.652  34.328  29.234  1.00  0.00     0.037 A 
ATOM     57  C   UNL A   1      43.059  28.681  33.333  1.00  0.00     0.037 A 
ATOM     58  C   UNL A   1      44.028  33.087  28.612  1.00  0.00     0.049 A 
ATOM     59  C   UNL A   1      43.493  28.578  31.895  1.00  0.00     0.074 A 
ATOM     60  C   UNL A   1      44.500  32.871  27.329  1.00  0.00     0.029 A 
ATOM     61  N   UNL A   1      43.963  31.845  29.227  1.00  0.00    -0.354 N 
ATOM     62  N   UNL A   1      43.676  29.532  31.014  1.00  0.00    -0.248 NA
ATOM     63  C   UNL A   1      43.763  27.228  31.381  1.00  0.00     0.031 C 
ATOM     64  C   UNL A   1      44.673  31.494  27.153  1.00  0.00     0.029 A 
ATOM     65  C   UNL A   1      44.357  30.856  28.342  1.00  0.00     0.049 A 
ATOM     66  H   UNL A   1      43.677  31.690  30.157  1.00  0.00     0.167 HD
ATOM     67  C   UNL A   1      44.102  28.903  29.851  1.00  0.00     0.074 A 
ATOM     68  C   UNL A   1      44.168  27.486  30.145  1.00  0.00     0.031 C 
ATOM     69  C   UNL A   1      44.410  29.449  28.649  1.00  0.00     0.037 A 
BRANCH  56  70
ATOM     70  C   UNL A   1      43.706  35.582  28.413  1.00  0.00     0.064 A 
ATOM     71  C   UNL A   1      42.553  36.140  27.840  1.00  0.00     0.173 A 
ATOM     72  C   UNL A   1      44.924  36.250  28.218  1.00  0.00     0.173 A 
ATOM     73  F   UNL A   1      41.365  35.533  27.985  1.00  0.00    -0.203 F 
ATOM     74  C   UNL A   1      42.623  37.306  27.080  1.00  0.00     0.198 A 
ATOM     75  C   UNL A   1      44.986  37.429  27.479  1.00  0.00     0.198 A 
ATOM     76  F   UNL A   1      46.056  35.761  28.746  1.00  0.00    -0.203 F 
ATOM     77  F   UNL A   1      41.516  37.795  26.505  1.00  0.00    -0.200 F 
ATOM     78  C   UNL A   1      43.837  37.951  26.905  1.00  0.00     0.200 A 
ATOM     79  F   UNL A   1      46.159  38.057  27.320  1.00  0.00    -0.200 F 
ATOM     80  F   UNL A   1      43.902  39.075  26.177  1.00  0.00    -0.200 F 
ENDBRANCH  56  70
BRANCH  57  81
ATOM     81  C   UNL A   1      42.916  27.468  34.177  1.00  0.00     0.064 A 
ATOM     82  C   UNL A   1      41.657  26.921  34.459  1.00  0.00     0.173 A 
ATOM     83  C   UNL A   1      44.041  26.830  34.720  1.00  0.00     0.173 A 
ATOM     84  F   UNL A   1      40.550  27.509  33.982  1.00  0.00    -0.203 F 
ATOM     85  C   UNL A   1      41.528  25.792  35.264  1.00  0.00     0.198 A 
ATOM     86  C   UNL A   1      43.913  25.686  35.504  1.00  0.00     0.198 A 
ATOM     87  F   UNL A   1      45.269  27.315  34.480  1.00  0.00    -0.203 F 
ATOM     88  F   UNL A   1      40.310  25.313  35.553  1.00  0.00    -0.200 F 
ATOM     89  C   UNL A   1      42.656  25.171  35.780  1.00  0.00     0.200 A 
ATOM     90  F   UNL A   1      45.006  25.084  35.990  1.00  0.00    -0.200 F 
ATOM     91  F   UNL A   1      42.530  24.082  36.551  1.00  0.00    -0.200 F 
ENDBRANCH  57  81
BRANCH  69  92
ATOM     92  C   UNL A   1      44.861  28.511  27.566  1.00  0.00     0.064 A 
ATOM     93  C   UNL A   1      46.199  28.108  27.455  1.00  0.00     0.173 A 
ATOM     94  C   UNL A   1      43.937  27.986  26.650  1.00  0.00     0.173 A 
ATOM     95  F   UNL A   1      47.123  28.592  28.298  1.00  0.00    -0.203 F 
ATOM     96  C   UNL A   1      46.602  27.236  26.447  1.00  0.00     0.198 A 
ATOM     97  C   UNL A   1      44.338  27.092  25.661  1.00  0.00     0.198 A 
ATOM     98  F   UNL A   1      42.643  28.334  26.718  1.00  0.00    -0.203 F 
ATOM     99  F   UNL A   1      47.895  26.903  26.328  1.00  0.00    -0.200 F 
ATOM    100  C   UNL A   1      45.671  26.724  25.555  1.00  0.00     0.200 A 
ATOM    101  F   UNL A   1      43.435  26.589  24.808  1.00  0.00    -0.200 F 
ATOM    102  F   UNL A   1      46.060  25.882  24.587  1.00  0.00    -0.200 F 
ENDBRANCH  69  92
ENDBRANCH  43  44
ENDBRANCH  36  38
ENDBRANCH  35  36
ENDBRANCH  34  35
ENDBRANCH  33  34
ENDBRANCH   1  33
TORSDOF 18
ENDMDL
