MODEL 1
REMARK VINA RESULT:     -11.8      0.000      0.000
REMARK SMILES C[C@@H]1CCCCN1S(=O)(=O)c1ccc(CCC(=O)OCCOCCOC(=O)c2ccc(-c3c4nc(c(-c5c(F)c(F)c(F)c(F)c5F)c5ccc([nH]5)c(-c5c(F)c(F)c(F)c(F)c5F)c5nc(c(-c6c(F)c(F)c(F)c(F)c6F)c6ccc3[nH]6)C=C5)C=C4)cc2)cc1
REMARK SMILES IDX 21 1 20 2 19 3 17 4 18 5 16 6 15 7 14 8 11 9 12 10 92 11
REMARK SMILES IDX 13 12 91 13 8 14 9 15 10 16 7 17 1 18 2 19 3 20 4 21 6 22
REMARK SMILES IDX 5 23 22 24 23 25 24 26 25 27 26 28 27 29 28 30 29 31 90 32
REMARK SMILES IDX 30 33 89 34 31 35 32 36 33 37 83 38 34 39 88 40 82 41 84 42
REMARK SMILES IDX 35 43 87 44 81 45 80 46 36 48 68 49 48 50 67 51 49 52 52 53
REMARK SMILES IDX 66 54 85 55 50 56 51 57 65 59 86 60 53 61 37 62 38 63 46 64
REMARK SMILES IDX 39 65 40 66 44 67 47 68 41 69 42 70 45 71 43 72 69 73 70 74
REMARK SMILES IDX 78 75 71 76 72 77 76 78 79 79 73 80 74 81 77 82 75 83 54 84
REMARK SMILES IDX 55 85 63 86 56 87 57 88 61 89 64 90 58 91 59 92 62 93 60 94
REMARK H PARENT 84 47 52 58
REMARK Flexibility Score: inf
ROOT
ATOM      1  C   UNL A   1      43.707  19.813  25.814  1.00  0.00     0.202 C 
ENDROOT
BRANCH   1   2
ATOM      2  C   UNL A   1      42.646  18.708  25.913  1.00  0.00     0.261 C 
BRANCH   2   3
ATOM      3  O   UNL A   1      41.314  19.233  25.724  1.00  0.00    -0.463 OA
BRANCH   3   4
ATOM      4  C   UNL A   1      40.874  20.164  26.609  1.00  0.00     0.306 C 
ATOM      5  O   UNL A   1      40.795  20.005  27.819  1.00  0.00    -0.252 OA
BRANCH   4   6
ATOM      6  C   UNL A   1      40.506  21.459  25.917  1.00  0.00     0.127 C 
BRANCH   6   7
ATOM      7  C   UNL A   1      39.477  22.306  26.675  1.00  0.00     0.047 C 
BRANCH   7   8
ATOM      8  C   UNL A   1      38.234  22.602  25.867  1.00  0.00    -0.047 A 
ATOM      9  C   UNL A   1      35.774  23.015  24.551  1.00  0.00     0.082 A 
ATOM     10  C   UNL A   1      36.561  21.902  24.251  1.00  0.00     0.022 A 
ATOM     11  C   UNL A   1      36.231  23.935  25.494  1.00  0.00     0.022 A 
ATOM     12  C   UNL A   1      37.788  21.718  24.884  1.00  0.00     0.005 A 
ATOM     13  C   UNL A   1      37.457  23.734  26.141  1.00  0.00     0.005 A 
BRANCH   9  14
ATOM     14  S   UNL A   1      34.111  23.071  23.910  1.00  0.00     0.243 S 
ATOM     15  O   UNL A   1      33.456  21.837  24.282  1.00  0.00    -0.207 OA
ATOM     16  O   UNL A   1      34.239  23.419  22.508  1.00  0.00    -0.207 OA
BRANCH  14  17
ATOM     17  N   UNL A   1      33.316  24.388  24.661  1.00  0.00    -0.195 NA
ATOM     18  C   UNL A   1      30.997  23.919  23.707  1.00  0.00     0.026 C 
ATOM     19  C   UNL A   1      31.836  24.332  24.916  1.00  0.00     0.070 C 
ATOM     20  C   UNL A   1      31.304  25.699  25.409  1.00  0.00     0.020 C 
ATOM     21  C   UNL A   1      32.369  26.525  26.106  1.00  0.00     0.003 C 
ATOM     22  C   UNL A   1      33.749  25.711  24.118  1.00  0.00     0.103 C 
ATOM     23  C   UNL A   1      33.527  26.812  25.155  1.00  0.00     0.017 C 
ENDBRANCH  14  17
ENDBRANCH   9  14
ENDBRANCH   7   8
ENDBRANCH   6   7
ENDBRANCH   4   6
ENDBRANCH   3   4
ENDBRANCH   2   3
ENDBRANCH   1   2
BRANCH   1  24
ATOM     24  O   UNL A   1      44.036  20.191  24.474  1.00  0.00    -0.374 OA
BRANCH  24  25
ATOM     25  C   UNL A   1      45.016  21.216  24.337  1.00  0.00     0.202 C 
BRANCH  25  26
ATOM     26  C   UNL A   1      44.491  22.498  23.684  1.00  0.00     0.261 C 
BRANCH  26  27
ATOM     27  O   UNL A   1      43.839  23.343  24.653  1.00  0.00    -0.460 OA
BRANCH  27  28
ATOM     28  C   UNL A   1      44.545  24.434  25.033  1.00  0.00     0.338 C 
ATOM     29  O   UNL A   1      45.609  24.819  24.579  1.00  0.00    -0.246 OA
BRANCH  28  30
ATOM     30  C   UNL A   1      43.769  25.217  26.016  1.00  0.00     0.060 A 
ATOM     31  C   UNL A   1      44.132  26.556  26.206  1.00  0.00     0.016 A 
ATOM     32  C   UNL A   1      42.732  24.659  26.769  1.00  0.00     0.016 A 
ATOM     33  C   UNL A   1      43.488  27.330  27.171  1.00  0.00     0.010 A 
ATOM     34  C   UNL A   1      42.078  25.443  27.729  1.00  0.00     0.010 A 
ATOM     35  C   UNL A   1      42.471  26.775  27.960  1.00  0.00    -0.014 A 
BRANCH  35  36
ATOM     36  C   UNL A   1      41.931  27.540  29.118  1.00  0.00     0.031 A 
ATOM     37  C   UNL A   1      42.614  27.417  30.454  1.00  0.00     0.074 A 
ATOM     38  C   UNL A   1      40.876  28.367  28.988  1.00  0.00     0.049 A 
ATOM     39  N   UNL A   1      42.320  27.987  31.597  1.00  0.00    -0.248 NA
ATOM     40  C   UNL A   1      43.787  26.531  30.512  1.00  0.00     0.031 C 
ATOM     41  C   UNL A   1      40.123  28.594  27.758  1.00  0.00     0.029 A 
ATOM     42  N   UNL A   1      40.244  29.160  29.917  1.00  0.00    -0.354 N 
ATOM     43  C   UNL A   1      43.271  27.534  32.501  1.00  0.00     0.074 A 
ATOM     44  C   UNL A   1      44.116  26.597  31.792  1.00  0.00     0.031 C 
ATOM     45  C   UNL A   1      39.116  29.447  28.009  1.00  0.00     0.029 A 
ATOM     46  C   UNL A   1      39.149  29.823  29.421  1.00  0.00     0.049 A 
ATOM     47  H   UNL A   1      40.548  29.244  30.850  1.00  0.00     0.167 HD
ATOM     48  C   UNL A   1      43.447  27.885  33.796  1.00  0.00     0.037 A 
ATOM     49  C   UNL A   1      38.264  30.631  30.037  1.00  0.00     0.037 A 
ATOM     50  C   UNL A   1      42.627  28.828  34.506  1.00  0.00     0.049 A 
ATOM     51  C   UNL A   1      38.444  30.959  31.497  1.00  0.00     0.074 A 
ATOM     52  C   UNL A   1      42.751  29.268  35.812  1.00  0.00     0.029 A 
ATOM     53  N   UNL A   1      41.525  29.475  33.968  1.00  0.00    -0.354 N 
ATOM     54  N   UNL A   1      39.374  30.561  32.328  1.00  0.00    -0.248 NA
ATOM     55  C   UNL A   1      37.453  31.865  32.099  1.00  0.00     0.031 C 
ATOM     56  C   UNL A   1      41.700  30.154  36.078  1.00  0.00     0.029 A 
ATOM     57  C   UNL A   1      40.949  30.297  34.924  1.00  0.00     0.049 A 
ATOM     58  H   UNL A   1      41.201  29.367  33.045  1.00  0.00     0.167 HD
ATOM     59  C   UNL A   1      39.108  31.198  33.535  1.00  0.00     0.074 A 
ATOM     60  C   UNL A   1      37.928  32.010  33.328  1.00  0.00     0.031 C 
ATOM     61  C   UNL A   1      39.786  31.118  34.705  1.00  0.00     0.037 A 
BRANCH  48  62
ATOM     62  C   UNL A   1      44.584  27.242  34.533  1.00  0.00     0.064 A 
ATOM     63  C   UNL A   1      45.850  27.844  34.594  1.00  0.00     0.173 A 
ATOM     64  C   UNL A   1      44.399  26.026  35.206  1.00  0.00     0.173 A 
ATOM     65  F   UNL A   1      46.079  29.000  33.953  1.00  0.00    -0.203 F 
ATOM     66  C   UNL A   1      46.898  27.238  35.282  1.00  0.00     0.198 A 
ATOM     67  C   UNL A   1      45.442  25.437  35.916  1.00  0.00     0.198 A 
ATOM     68  F   UNL A   1      43.207  25.413  35.180  1.00  0.00    -0.203 F 
ATOM     69  F   UNL A   1      48.111  27.808  35.288  1.00  0.00    -0.200 F 
ATOM     70  C   UNL A   1      46.691  26.040  35.947  1.00  0.00     0.200 A 
ATOM     71  F   UNL A   1      45.239  24.284  36.567  1.00  0.00    -0.200 F 
ATOM     72  F   UNL A   1      47.699  25.460  36.614  1.00  0.00    -0.200 F 
ENDBRANCH  48  62
BRANCH  49  73
ATOM     73  C   UNL A   1      37.124  31.206  29.278  1.00  0.00     0.064 A 
ATOM     74  C   UNL A   1      37.105  32.562  28.923  1.00  0.00     0.173 A 
ATOM     75  C   UNL A   1      36.013  30.424  28.934  1.00  0.00     0.173 A 
ATOM     76  F   UNL A   1      38.131  33.358  29.262  1.00  0.00    -0.203 F 
ATOM     77  C   UNL A   1      36.007  33.119  28.272  1.00  0.00     0.198 A 
ATOM     78  C   UNL A   1      34.925  30.977  28.260  1.00  0.00     0.198 A 
ATOM     79  F   UNL A   1      35.977  29.125  29.266  1.00  0.00    -0.203 F 
ATOM     80  F   UNL A   1      35.989  34.430  27.995  1.00  0.00    -0.200 F 
ATOM     81  C   UNL A   1      34.920  32.326  27.938  1.00  0.00     0.200 A 
ATOM     82  F   UNL A   1      33.876  30.209  27.939  1.00  0.00    -0.200 F 
ATOM     83  F   UNL A   1      33.859  32.865  27.321  1.00  0.00    -0.200 F 
ENDBRANCH  49  73
BRANCH  61  84
ATOM     84  C   UNL A   1      39.305  31.967  35.845  1.00  0.00     0.064 A 
ATOM     85  C   UNL A   1      39.771  33.276  36.037  1.00  0.00     0.173 A 
ATOM     86  C   UNL A   1      38.330  31.481  36.728  1.00  0.00     0.173 A 
ATOM     87  F   UNL A   1      40.713  33.783  35.228  1.00  0.00    -0.203 F 
ATOM     88  C   UNL A   1      39.293  34.059  37.085  1.00  0.00     0.198 A 
ATOM     89  C   UNL A   1      37.835  32.275  37.758  1.00  0.00     0.198 A 
ATOM     90  F   UNL A   1      37.847  30.238  36.583  1.00  0.00    -0.203 F 
ATOM     91  F   UNL A   1      39.782  35.292  37.275  1.00  0.00    -0.200 F 
ATOM     92  C   UNL A   1      38.320  33.560  37.940  1.00  0.00     0.200 A 
ATOM     93  F   UNL A   1      36.886  31.796  38.575  1.00  0.00    -0.200 F 
ATOM     94  F   UNL A   1      37.856  34.318  38.943  1.00  0.00    -0.200 F 
ENDBRANCH  61  84
ENDBRANCH  35  36
ENDBRANCH  28  30
ENDBRANCH  27  28
ENDBRANCH  26  27
ENDBRANCH  25  26
ENDBRANCH  24  25
ENDBRANCH   1  24
TORSDOF 18
ENDMDL
MODEL 2
REMARK VINA RESULT:     -11.2      4.790      8.734
REMARK SMILES C[C@@H]1CCCCN1S(=O)(=O)c1ccc(CCC(=O)OCCOCCOC(=O)c2ccc(-c3c4nc(c(-c5c(F)c(F)c(F)c(F)c5F)c5ccc([nH]5)c(-c5c(F)c(F)c(F)c(F)c5F)c5nc(c(-c6c(F)c(F)c(F)c(F)c6F)c6ccc3[nH]6)C=C5)C=C4)cc2)cc1
REMARK SMILES IDX 21 1 20 2 19 3 17 4 18 5 16 6 15 7 14 8 11 9 12 10 92 11
REMARK SMILES IDX 13 12 91 13 8 14 9 15 10 16 7 17 1 18 2 19 3 20 4 21 6 22
REMARK SMILES IDX 5 23 22 24 23 25 24 26 25 27 26 28 27 29 28 30 29 31 90 32
REMARK SMILES IDX 30 33 89 34 31 35 32 36 33 37 83 38 34 39 88 40 82 41 84 42
REMARK SMILES IDX 35 43 87 44 81 45 80 46 36 48 68 49 48 50 67 51 49 52 52 53
REMARK SMILES IDX 66 54 85 55 50 56 51 57 65 59 86 60 53 61 37 62 38 63 46 64
REMARK SMILES IDX 39 65 40 66 44 67 47 68 41 69 42 70 45 71 43 72 69 73 70 74
REMARK SMILES IDX 78 75 71 76 72 77 76 78 79 79 73 80 74 81 77 82 75 83 54 84
REMARK SMILES IDX 55 85 63 86 56 87 57 88 61 89 64 90 58 91 59 92 62 93 60 94
REMARK H PARENT 84 47 52 58
REMARK Flexibility Score: inf
ROOT
ATOM      1  C   UNL A   1      44.074  18.726  25.228  1.00  0.00     0.202 C 
ENDROOT
BRANCH   1   2
ATOM      2  C   UNL A   1      45.173  19.704  24.791  1.00  0.00     0.261 C 
BRANCH   2   3
ATOM      3  O   UNL A   1      44.655  20.725  23.910  1.00  0.00    -0.463 OA
BRANCH   3   4
ATOM      4  C   UNL A   1      44.838  22.021  24.273  1.00  0.00     0.306 C 
ATOM      5  O   UNL A   1      45.004  22.953  23.498  1.00  0.00    -0.252 OA
BRANCH   4   6
ATOM      6  C   UNL A   1      44.789  22.190  25.776  1.00  0.00     0.127 C 
BRANCH   6   7
ATOM      7  C   UNL A   1      46.015  22.893  26.369  1.00  0.00     0.047 C 
BRANCH   7   8
ATOM      8  C   UNL A   1      45.746  23.530  27.715  1.00  0.00    -0.047 A 
ATOM      9  C   UNL A   1      45.092  24.902  30.090  1.00  0.00     0.082 A 
ATOM     10  C   UNL A   1      46.228  25.252  29.359  1.00  0.00     0.022 A 
ATOM     11  C   UNL A   1      44.295  23.849  29.644  1.00  0.00     0.022 A 
ATOM     12  C   UNL A   1      46.562  24.552  28.201  1.00  0.00     0.005 A 
ATOM     13  C   UNL A   1      44.626  23.161  28.468  1.00  0.00     0.005 A 
BRANCH   9  14
ATOM     14  S   UNL A   1      44.572  25.984  31.409  1.00  0.00     0.243 S 
ATOM     15  O   UNL A   1      44.479  25.192  32.615  1.00  0.00    -0.207 OA
ATOM     16  O   UNL A   1      43.397  26.674  30.914  1.00  0.00    -0.207 OA
BRANCH  14  17
ATOM     17  N   UNL A   1      45.784  27.177  31.602  1.00  0.00    -0.195 NA
ATOM     18  C   UNL A   1      44.978  28.059  33.856  1.00  0.00     0.026 C 
ATOM     19  C   UNL A   1      46.161  27.657  32.975  1.00  0.00     0.070 C 
ATOM     20  C   UNL A   1      47.119  28.870  32.897  1.00  0.00     0.020 C 
ATOM     21  C   UNL A   1      47.929  28.896  31.614  1.00  0.00     0.003 C 
ATOM     22  C   UNL A   1      45.652  28.300  30.625  1.00  0.00     0.103 C 
ATOM     23  C   UNL A   1      47.004  28.977  30.403  1.00  0.00     0.017 C 
ENDBRANCH  14  17
ENDBRANCH   9  14
ENDBRANCH   7   8
ENDBRANCH   6   7
ENDBRANCH   4   6
ENDBRANCH   3   4
ENDBRANCH   2   3
ENDBRANCH   1   2
BRANCH   1  24
ATOM     24  O   UNL A   1      42.744  19.200  25.004  1.00  0.00    -0.374 OA
BRANCH  24  25
ATOM     25  C   UNL A   1      42.036  19.645  26.157  1.00  0.00     0.202 C 
BRANCH  25  26
ATOM     26  C   UNL A   1      40.512  19.579  26.018  1.00  0.00     0.261 C 
BRANCH  26  27
ATOM     27  O   UNL A   1      39.873  20.563  26.856  1.00  0.00    -0.460 OA
BRANCH  27  28
ATOM     28  C   UNL A   1      39.277  21.583  26.193  1.00  0.00     0.338 C 
ATOM     29  O   UNL A   1      38.394  21.504  25.357  1.00  0.00    -0.246 OA
BRANCH  28  30
ATOM     30  C   UNL A   1      39.749  22.875  26.732  1.00  0.00     0.060 A 
ATOM     31  C   UNL A   1      39.226  24.042  26.162  1.00  0.00     0.016 A 
ATOM     32  C   UNL A   1      40.708  22.960  27.745  1.00  0.00     0.016 A 
ATOM     33  C   UNL A   1      39.684  25.294  26.573  1.00  0.00     0.010 A 
ATOM     34  C   UNL A   1      41.157  24.219  28.166  1.00  0.00     0.010 A 
ATOM     35  C   UNL A   1      40.672  25.395  27.563  1.00  0.00    -0.014 A 
BRANCH  35  36
ATOM     36  C   UNL A   1      41.298  26.715  27.852  1.00  0.00     0.031 A 
ATOM     37  C   UNL A   1      42.693  26.984  27.354  1.00  0.00     0.074 A 
ATOM     38  C   UNL A   1      40.633  27.683  28.510  1.00  0.00     0.049 A 
ATOM     39  N   UNL A   1      43.435  28.056  27.487  1.00  0.00    -0.248 NA
ATOM     40  C   UNL A   1      43.343  25.897  26.604  1.00  0.00     0.031 C 
ATOM     41  C   UNL A   1      39.278  27.570  29.042  1.00  0.00     0.029 A 
ATOM     42  N   UNL A   1      41.024  28.955  28.859  1.00  0.00    -0.354 N 
ATOM     43  C   UNL A   1      44.628  27.774  26.835  1.00  0.00     0.074 A 
ATOM     44  C   UNL A   1      44.537  26.411  26.357  1.00  0.00     0.031 C 
ATOM     45  C   UNL A   1      38.955  28.712  29.671  1.00  0.00     0.029 A 
ATOM     46  C   UNL A   1      40.084  29.637  29.592  1.00  0.00     0.049 A 
ATOM     47  H   UNL A   1      41.894  29.340  28.608  1.00  0.00     0.167 HD
ATOM     48  C   UNL A   1      45.693  28.582  26.626  1.00  0.00     0.037 A 
ATOM     49  C   UNL A   1      40.132  30.864  30.148  1.00  0.00     0.037 A 
ATOM     50  C   UNL A   1      45.788  29.943  27.079  1.00  0.00     0.049 A 
ATOM     51  C   UNL A   1      41.354  31.723  29.955  1.00  0.00     0.074 A 
ATOM     52  C   UNL A   1      46.816  30.848  26.884  1.00  0.00     0.029 A 
ATOM     53  N   UNL A   1      44.815  30.596  27.821  1.00  0.00    -0.354 N 
ATOM     54  N   UNL A   1      42.457  31.463  29.297  1.00  0.00    -0.248 NA
ATOM     55  C   UNL A   1      41.329  33.059  30.572  1.00  0.00     0.031 C 
ATOM     56  C   UNL A   1      46.485  32.038  27.542  1.00  0.00     0.029 A 
ATOM     57  C   UNL A   1      45.230  31.887  28.109  1.00  0.00     0.049 A 
ATOM     58  H   UNL A   1      43.958  30.202  28.100  1.00  0.00     0.167 HD
ATOM     59  C   UNL A   1      43.235  32.610  29.384  1.00  0.00     0.074 A 
ATOM     60  C   UNL A   1      42.480  33.571  30.158  1.00  0.00     0.031 C 
ATOM     61  C   UNL A   1      44.463  32.844  28.863  1.00  0.00     0.037 A 
BRANCH  48  62
ATOM     62  C   UNL A   1      46.849  28.010  25.862  1.00  0.00     0.064 A 
ATOM     63  C   UNL A   1      46.860  27.986  24.460  1.00  0.00     0.173 A 
ATOM     64  C   UNL A   1      47.969  27.504  26.539  1.00  0.00     0.173 A 
ATOM     65  F   UNL A   1      45.806  28.445  23.768  1.00  0.00    -0.203 F 
ATOM     66  C   UNL A   1      47.940  27.452  23.762  1.00  0.00     0.198 A 
ATOM     67  C   UNL A   1      49.058  26.996  25.837  1.00  0.00     0.198 A 
ATOM     68  F   UNL A   1      48.007  27.507  27.880  1.00  0.00    -0.203 F 
ATOM     69  F   UNL A   1      47.909  27.397  22.423  1.00  0.00    -0.200 F 
ATOM     70  C   UNL A   1      49.040  26.965  24.450  1.00  0.00     0.200 A 
ATOM     71  F   UNL A   1      50.126  26.535  26.503  1.00  0.00    -0.200 F 
ATOM     72  F   UNL A   1      50.082  26.456  23.777  1.00  0.00    -0.200 F 
ENDBRANCH  48  62
BRANCH  49  73
ATOM     73  C   UNL A   1      38.981  31.370  30.939  1.00  0.00     0.064 A 
ATOM     74  C   UNL A   1      38.863  31.084  32.306  1.00  0.00     0.173 A 
ATOM     75  C   UNL A   1      37.954  32.109  30.334  1.00  0.00     0.173 A 
ATOM     76  F   UNL A   1      39.804  30.351  32.920  1.00  0.00    -0.203 F 
ATOM     77  C   UNL A   1      37.751  31.500  33.034  1.00  0.00     0.198 A 
ATOM     78  C   UNL A   1      36.854  32.546  31.069  1.00  0.00     0.198 A 
ATOM     79  F   UNL A   1      38.013  32.395  29.025  1.00  0.00    -0.203 F 
ATOM     80  F   UNL A   1      37.635  31.164  34.326  1.00  0.00    -0.200 F 
ATOM     81  C   UNL A   1      36.749  32.233  32.417  1.00  0.00     0.200 A 
ATOM     82  F   UNL A   1      35.887  33.253  30.471  1.00  0.00    -0.200 F 
ATOM     83  F   UNL A   1      35.673  32.622  33.115  1.00  0.00    -0.200 F 
ENDBRANCH  49  73
BRANCH  61  84
ATOM     84  C   UNL A   1      45.054  34.209  29.065  1.00  0.00     0.064 A 
ATOM     85  C   UNL A   1      45.899  34.494  30.147  1.00  0.00     0.173 A 
ATOM     86  C   UNL A   1      44.809  35.231  28.136  1.00  0.00     0.173 A 
ATOM     87  F   UNL A   1      46.154  33.555  31.070  1.00  0.00    -0.203 F 
ATOM     88  C   UNL A   1      46.459  35.760  30.303  1.00  0.00     0.198 A 
ATOM     89  C   UNL A   1      45.391  36.487  28.280  1.00  0.00     0.198 A 
ATOM     90  F   UNL A   1      44.013  35.007  27.079  1.00  0.00    -0.203 F 
ATOM     91  F   UNL A   1      47.230  36.023  31.367  1.00  0.00    -0.200 F 
ATOM     92  C   UNL A   1      46.211  36.753  29.366  1.00  0.00     0.200 A 
ATOM     93  F   UNL A   1      45.161  37.440  27.366  1.00  0.00    -0.200 F 
ATOM     94  F   UNL A   1      46.758  37.967  29.513  1.00  0.00    -0.200 F 
ENDBRANCH  61  84
ENDBRANCH  35  36
ENDBRANCH  28  30
ENDBRANCH  27  28
ENDBRANCH  26  27
ENDBRANCH  25  26
ENDBRANCH  24  25
ENDBRANCH   1  24
TORSDOF 18
ENDMDL
MODEL 3
REMARK VINA RESULT:     -11.1      4.671      8.528
REMARK SMILES C[C@@H]1CCCCN1S(=O)(=O)c1ccc(CCC(=O)OCCOCCOC(=O)c2ccc(-c3c4nc(c(-c5c(F)c(F)c(F)c(F)c5F)c5ccc([nH]5)c(-c5c(F)c(F)c(F)c(F)c5F)c5nc(c(-c6c(F)c(F)c(F)c(F)c6F)c6ccc3[nH]6)C=C5)C=C4)cc2)cc1
REMARK SMILES IDX 21 1 20 2 19 3 17 4 18 5 16 6 15 7 14 8 11 9 12 10 92 11
REMARK SMILES IDX 13 12 91 13 8 14 9 15 10 16 7 17 1 18 2 19 3 20 4 21 6 22
REMARK SMILES IDX 5 23 22 24 23 25 24 26 25 27 26 28 27 29 28 30 29 31 90 32
REMARK SMILES IDX 30 33 89 34 31 35 32 36 33 37 83 38 34 39 88 40 82 41 84 42
REMARK SMILES IDX 35 43 87 44 81 45 80 46 36 48 68 49 48 50 67 51 49 52 52 53
REMARK SMILES IDX 66 54 85 55 50 56 51 57 65 59 86 60 53 61 37 62 38 63 46 64
REMARK SMILES IDX 39 65 40 66 44 67 47 68 41 69 42 70 45 71 43 72 69 73 70 74
REMARK SMILES IDX 78 75 71 76 72 77 76 78 79 79 73 80 74 81 77 82 75 83 54 84
REMARK SMILES IDX 55 85 63 86 56 87 57 88 61 89 64 90 58 91 59 92 62 93 60 94
REMARK H PARENT 84 47 52 58
REMARK Flexibility Score: inf
ROOT
ATOM      1  C   UNL A   1      44.730  19.480  24.999  1.00  0.00     0.202 C 
ENDROOT
BRANCH   1   2
ATOM      2  C   UNL A   1      45.854  20.472  25.328  1.00  0.00     0.261 C 
BRANCH   2   3
ATOM      3  O   UNL A   1      45.928  21.533  24.351  1.00  0.00    -0.463 OA
BRANCH   3   4
ATOM      4  C   UNL A   1      45.623  22.790  24.764  1.00  0.00     0.306 C 
ATOM      5  O   UNL A   1      45.456  23.752  24.027  1.00  0.00    -0.252 OA
BRANCH   4   6
ATOM      6  C   UNL A   1      45.486  22.864  26.269  1.00  0.00     0.127 C 
BRANCH   6   7
ATOM      7  C   UNL A   1      46.599  23.658  26.962  1.00  0.00     0.047 C 
BRANCH   7   8
ATOM      8  C   UNL A   1      46.193  24.199  28.315  1.00  0.00    -0.047 A 
ATOM      9  C   UNL A   1      45.283  25.393  30.703  1.00  0.00     0.082 A 
ATOM     10  C   UNL A   1      46.451  25.843  30.085  1.00  0.00     0.022 A 
ATOM     11  C   UNL A   1      44.583  24.328  30.137  1.00  0.00     0.022 A 
ATOM     12  C   UNL A   1      46.911  25.231  28.921  1.00  0.00     0.005 A 
ATOM     13  C   UNL A   1      45.040  23.729  28.956  1.00  0.00     0.005 A 
BRANCH   9  14
ATOM     14  S   UNL A   1      44.604  26.366  32.034  1.00  0.00     0.243 S 
ATOM     15  O   UNL A   1      43.456  27.077  31.516  1.00  0.00    -0.207 OA
ATOM     16  O   UNL A   1      45.718  27.111  32.587  1.00  0.00    -0.207 OA
BRANCH  14  17
ATOM     17  N   UNL A   1      44.098  25.280  33.257  1.00  0.00    -0.195 NA
ATOM     18  C   UNL A   1      43.436  27.049  34.971  1.00  0.00     0.026 C 
ATOM     19  C   UNL A   1      43.104  25.718  34.295  1.00  0.00     0.070 C 
ATOM     20  C   UNL A   1      42.953  24.654  35.406  1.00  0.00     0.020 C 
ATOM     21  C   UNL A   1      43.286  23.253  34.926  1.00  0.00     0.003 C 
ATOM     22  C   UNL A   1      45.232  24.506  33.848  1.00  0.00     0.103 C 
ATOM     23  C   UNL A   1      44.729  23.188  34.436  1.00  0.00     0.017 C 
ENDBRANCH  14  17
ENDBRANCH   9  14
ENDBRANCH   7   8
ENDBRANCH   6   7
ENDBRANCH   4   6
ENDBRANCH   3   4
ENDBRANCH   2   3
ENDBRANCH   1   2
BRANCH   1  24
ATOM     24  O   UNL A   1      43.430  20.071  24.923  1.00  0.00    -0.374 OA
BRANCH  24  25
ATOM     25  C   UNL A   1      42.707  20.150  26.148  1.00  0.00     0.202 C 
BRANCH  25  26
ATOM     26  C   UNL A   1      41.251  19.686  26.045  1.00  0.00     0.261 C 
BRANCH  26  27
ATOM     27  O   UNL A   1      40.408  20.418  26.956  1.00  0.00    -0.460 OA
BRANCH  27  28
ATOM     28  C   UNL A   1      39.659  21.393  26.388  1.00  0.00     0.338 C 
ATOM     29  O   UNL A   1      38.720  21.251  25.623  1.00  0.00    -0.246 OA
BRANCH  28  30
ATOM     30  C   UNL A   1      40.042  22.708  26.942  1.00  0.00     0.060 A 
ATOM     31  C   UNL A   1      39.443  23.843  26.383  1.00  0.00     0.016 A 
ATOM     32  C   UNL A   1      40.991  22.845  27.958  1.00  0.00     0.016 A 
ATOM     33  C   UNL A   1      39.816  25.118  26.809  1.00  0.00     0.010 A 
ATOM     34  C   UNL A   1      41.355  24.127  28.393  1.00  0.00     0.010 A 
ATOM     35  C   UNL A   1      40.794  25.275  27.801  1.00  0.00    -0.014 A 
BRANCH  35  36
ATOM     36  C   UNL A   1      41.329  26.630  28.106  1.00  0.00     0.031 A 
ATOM     37  C   UNL A   1      42.709  26.993  27.626  1.00  0.00     0.074 A 
ATOM     38  C   UNL A   1      40.596  27.548  28.763  1.00  0.00     0.049 A 
ATOM     39  N   UNL A   1      43.378  28.110  27.774  1.00  0.00    -0.248 NA
ATOM     40  C   UNL A   1      43.436  25.956  26.876  1.00  0.00     0.031 C 
ATOM     41  C   UNL A   1      39.245  27.344  29.278  1.00  0.00     0.029 A 
ATOM     42  N   UNL A   1      40.899  28.840  29.124  1.00  0.00    -0.354 N 
ATOM     43  C   UNL A   1      44.594  27.910  27.134  1.00  0.00     0.074 A 
ATOM     44  C   UNL A   1      44.597  26.548  26.647  1.00  0.00     0.031 C 
ATOM     45  C   UNL A   1      38.842  28.459  29.911  1.00  0.00     0.029 A 
ATOM     46  C   UNL A   1      39.909  29.456  29.851  1.00  0.00     0.049 A 
ATOM     47  H   UNL A   1      41.745  29.283  28.885  1.00  0.00     0.167 HD
ATOM     48  C   UNL A   1      45.607  28.787  26.942  1.00  0.00     0.037 A 
ATOM     49  C   UNL A   1      39.871  30.678  30.415  1.00  0.00     0.037 A 
ATOM     50  C   UNL A   1      45.608  30.148  27.405  1.00  0.00     0.049 A 
ATOM     51  C   UNL A   1      41.037  31.617  30.241  1.00  0.00     0.074 A 
ATOM     52  C   UNL A   1      46.578  31.119  27.228  1.00  0.00     0.029 A 
ATOM     53  N   UNL A   1      44.587  30.731  28.140  1.00  0.00    -0.354 N 
ATOM     54  N   UNL A   1      42.161  31.433  29.595  1.00  0.00    -0.248 NA
ATOM     55  C   UNL A   1      40.919  32.943  30.866  1.00  0.00     0.031 C 
ATOM     56  C   UNL A   1      46.163  32.280  27.889  1.00  0.00     0.029 A 
ATOM     57  C   UNL A   1      44.914  32.045  28.441  1.00  0.00     0.049 A 
ATOM     58  H   UNL A   1      43.754  30.280  28.407  1.00  0.00     0.167 HD
ATOM     59  C   UNL A   1      42.863  32.628  29.698  1.00  0.00     0.074 A 
ATOM     60  C   UNL A   1      42.038  33.532  30.470  1.00  0.00     0.031 C 
ATOM     61  C   UNL A   1      44.079  32.944  29.192  1.00  0.00     0.037 A 
BRANCH  48  62
ATOM     62  C   UNL A   1      46.806  28.296  26.188  1.00  0.00     0.064 A 
ATOM     63  C   UNL A   1      48.006  27.984  26.844  1.00  0.00     0.173 A 
ATOM     64  C   UNL A   1      46.746  28.110  24.799  1.00  0.00     0.173 A 
ATOM     65  F   UNL A   1      48.116  28.160  28.170  1.00  0.00    -0.203 F 
ATOM     66  C   UNL A   1      49.112  27.528  26.132  1.00  0.00     0.198 A 
ATOM     67  C   UNL A   1      47.847  27.628  24.095  1.00  0.00     0.198 A 
ATOM     68  F   UNL A   1      45.620  28.391  24.127  1.00  0.00    -0.203 F 
ATOM     69  F   UNL A   1      50.263  27.281  26.773  1.00  0.00    -0.200 F 
ATOM     70  C   UNL A   1      49.029  27.345  24.761  1.00  0.00     0.200 A 
ATOM     71  F   UNL A   1      47.762  27.441  22.771  1.00  0.00    -0.200 F 
ATOM     72  F   UNL A   1      50.094  26.901  24.078  1.00  0.00    -0.200 F 
ENDBRANCH  48  62
BRANCH  49  73
ATOM     73  C   UNL A   1      38.681  31.104  31.196  1.00  0.00     0.064 A 
ATOM     74  C   UNL A   1      37.594  31.729  30.569  1.00  0.00     0.173 A 
ATOM     75  C   UNL A   1      38.627  30.936  32.586  1.00  0.00     0.173 A 
ATOM     76  F   UNL A   1      37.616  31.942  29.245  1.00  0.00    -0.203 F 
ATOM     77  C   UNL A   1      36.507  32.191  31.308  1.00  0.00     0.198 A 
ATOM     78  C   UNL A   1      37.527  31.376  33.321  1.00  0.00     0.198 A 
ATOM     79  F   UNL A   1      39.649  30.358  33.234  1.00  0.00    -0.203 F 
ATOM     80  F   UNL A   1      35.507  32.836  30.692  1.00  0.00    -0.200 F 
ATOM     81  C   UNL A   1      36.472  32.011  32.682  1.00  0.00     0.200 A 
ATOM     82  F   UNL A   1      37.497  31.202  34.649  1.00  0.00    -0.200 F 
ATOM     83  F   UNL A   1      35.431  32.466  33.393  1.00  0.00    -0.200 F 
ENDBRANCH  49  73
BRANCH  61  84
ATOM     84  C   UNL A   1      44.578  34.344  29.409  1.00  0.00     0.064 A 
ATOM     85  C   UNL A   1      45.478  34.654  30.440  1.00  0.00     0.173 A 
ATOM     86  C   UNL A   1      44.186  35.377  28.545  1.00  0.00     0.173 A 
ATOM     87  F   UNL A   1      45.872  33.704  31.300  1.00  0.00    -0.203 F 
ATOM     88  C   UNL A   1      45.950  35.953  30.609  1.00  0.00     0.198 A 
ATOM     89  C   UNL A   1      44.681  36.668  28.701  1.00  0.00     0.198 A 
ATOM     90  F   UNL A   1      43.333  35.130  27.540  1.00  0.00    -0.203 F 
ATOM     91  F   UNL A   1      46.777  36.236  31.625  1.00  0.00    -0.200 F 
ATOM     92  C   UNL A   1      45.557  36.957  29.735  1.00  0.00     0.200 A 
ATOM     93  F   UNL A   1      44.311  37.634  27.848  1.00  0.00    -0.200 F 
ATOM     94  F   UNL A   1      46.020  38.205  29.895  1.00  0.00    -0.200 F 
ENDBRANCH  61  84
ENDBRANCH  35  36
ENDBRANCH  28  30
ENDBRANCH  27  28
ENDBRANCH  26  27
ENDBRANCH  25  26
ENDBRANCH  24  25
ENDBRANCH   1  24
TORSDOF 18
ENDMDL
