MODEL 1
REMARK VINA RESULT:     -13.4      0.000      0.000
REMARK SMILES O=C(OCCOCCOC(=O)[C@H]1[C@H]2CC[C@H](CC2)[C@@H]1C(=O)Nc1sc2c(c1C(=O)N1CCCCC1)CCCC2)c1ccc(-c2c3nc(c(-c4c(F)c(F)c(F)c(F)c4F)c4ccc([nH]4)c(-c4c(F)c(F)c(F)c(F)c4F)c4nc(c(-c5c(F)c(F)c(F)c(F)c5F)c5ccc2[nH]5)C=C4)C=C3)cc1
REMARK SMILES IDX 7 1 6 2 5 3 4 4 3 5 2 6 1 7 40 8 41 9 102 10 42 11 101 12
REMARK SMILES IDX 43 13 44 14 45 15 95 16 46 17 100 18 94 19 96 20 47 21 99 22
REMARK SMILES IDX 93 23 92 24 48 26 80 27 60 28 79 29 61 30 64 31 78 32 97 33
REMARK SMILES IDX 62 34 63 35 77 37 98 38 65 39 49 40 50 41 58 42 51 43 52 44
REMARK SMILES IDX 56 45 59 46 53 47 54 48 57 49 55 50 81 51 82 52 90 53 83 54
REMARK SMILES IDX 84 55 88 56 91 57 85 58 86 59 89 60 87 61 66 62 67 63 75 64
REMARK SMILES IDX 68 65 69 66 73 67 76 68 70 69 71 70 74 71 72 72 8 73 9 74
REMARK SMILES IDX 10 75 11 76 12 77 13 78 19 79 18 80 14 81 16 82 17 83 15 84
REMARK SMILES IDX 20 85 21 86 22 87 23 89 24 90 27 91 25 92 26 93 39 94 36 95
REMARK SMILES IDX 38 96 37 97 28 98 29 99 30 100 31 101 35 102 32 103 34 104
REMARK SMILES IDX 33 105
REMARK H PARENT 96 25 64 36 22 88
REMARK Flexibility Score: inf
ROOT
ATOM      1  C   UNL A   1      33.081  29.862  26.666  1.00  0.00     0.202 C 
ENDROOT
BRANCH   1   2
ATOM      2  O   UNL A   1      31.990  30.556  27.281  1.00  0.00    -0.374 OA
BRANCH   2   3
ATOM      3  C   UNL A   1      31.420  31.604  26.493  1.00  0.00     0.202 C 
BRANCH   3   4
ATOM      4  C   UNL A   1      31.821  33.080  26.720  1.00  0.00     0.261 C 
BRANCH   4   5
ATOM      5  O   UNL A   1      32.153  33.415  28.095  1.00  0.00    -0.460 OA
BRANCH   5   6
ATOM      6  C   UNL A   1      33.195  34.243  28.429  1.00  0.00     0.338 C 
ATOM      7  O   UNL A   1      33.106  35.461  28.384  1.00  0.00    -0.246 OA
BRANCH   6   8
ATOM      8  C   UNL A   1      34.482  33.591  28.772  1.00  0.00     0.060 A 
ATOM      9  C   UNL A   1      34.420  32.275  29.173  1.00  0.00     0.016 A 
ATOM     10  C   UNL A   1      35.728  34.197  28.722  1.00  0.00     0.016 A 
ATOM     11  C   UNL A   1      35.426  31.661  29.856  1.00  0.00     0.010 A 
ATOM     12  C   UNL A   1      36.847  33.481  29.183  1.00  0.00     0.010 A 
ATOM     13  C   UNL A   1      36.684  32.223  29.801  1.00  0.00    -0.014 A 
BRANCH  13  14
ATOM     14  C   UNL A   1      37.754  31.465  30.475  1.00  0.00     0.031 A 
ATOM     15  C   UNL A   1      37.898  31.615  31.953  1.00  0.00     0.074 A 
ATOM     16  C   UNL A   1      38.444  30.532  29.785  1.00  0.00     0.049 A 
ATOM     17  N   UNL A   1      38.829  31.159  32.743  1.00  0.00    -0.248 NA
ATOM     18  C   UNL A   1      36.847  32.385  32.641  1.00  0.00     0.031 C 
ATOM     19  C   UNL A   1      38.233  30.185  28.372  1.00  0.00     0.029 A 
ATOM     20  N   UNL A   1      39.421  29.660  30.183  1.00  0.00    -0.354 N 
ATOM     21  C   UNL A   1      38.521  31.655  34.002  1.00  0.00     0.074 A 
ATOM     22  C   UNL A   1      37.310  32.432  33.880  1.00  0.00     0.031 C 
ATOM     23  C   UNL A   1      39.002  29.137  28.047  1.00  0.00     0.029 A 
ATOM     24  C   UNL A   1      39.861  28.833  29.177  1.00  0.00     0.049 A 
ATOM     25  H   UNL A   1      39.773  29.628  31.102  1.00  0.00     0.167 HD
ATOM     26  C   UNL A   1      39.221  31.483  35.146  1.00  0.00     0.037 A 
ATOM     27  C   UNL A   1      40.892  27.969  29.162  1.00  0.00     0.037 A 
ATOM     28  C   UNL A   1      40.403  30.668  35.214  1.00  0.00     0.049 A 
ATOM     29  C   UNL A   1      41.708  27.868  30.420  1.00  0.00     0.074 A 
ATOM     30  C   UNL A   1      41.258  30.460  36.277  1.00  0.00     0.029 A 
ATOM     31  N   UNL A   1      40.886  29.907  34.151  1.00  0.00    -0.354 N 
ATOM     32  N   UNL A   1      41.509  28.447  31.581  1.00  0.00    -0.248 NA
ATOM     33  C   UNL A   1      42.904  27.025  30.362  1.00  0.00     0.031 C 
ATOM     34  C   UNL A   1      42.287  29.615  35.842  1.00  0.00     0.029 A 
ATOM     35  C   UNL A   1      42.036  29.240  34.529  1.00  0.00     0.049 A 
ATOM     36  H   UNL A   1      40.468  29.853  33.261  1.00  0.00     0.167 HD
ATOM     37  C   UNL A   1      42.534  28.016  32.405  1.00  0.00     0.074 A 
ATOM     38  C   UNL A   1      43.346  27.113  31.608  1.00  0.00     0.031 C 
ATOM     39  C   UNL A   1      42.791  28.334  33.698  1.00  0.00     0.037 A 
BRANCH  26  40
ATOM     40  C   UNL A   1      38.780  32.278  36.338  1.00  0.00     0.064 A 
ATOM     41  C   UNL A   1      39.221  33.588  36.580  1.00  0.00     0.173 A 
ATOM     42  C   UNL A   1      37.958  31.678  37.305  1.00  0.00     0.173 A 
ATOM     43  F   UNL A   1      40.040  34.196  35.709  1.00  0.00    -0.203 F 
ATOM     44  C   UNL A   1      38.890  34.250  37.762  1.00  0.00     0.198 A 
ATOM     45  C   UNL A   1      37.601  32.354  38.469  1.00  0.00     0.198 A 
ATOM     46  F   UNL A   1      37.518  30.422  37.133  1.00  0.00    -0.203 F 
ATOM     47  F   UNL A   1      39.391  35.468  38.009  1.00  0.00    -0.200 F 
ATOM     48  C   UNL A   1      38.078  33.633  38.703  1.00  0.00     0.200 A 
ATOM     49  F   UNL A   1      36.818  31.754  39.376  1.00  0.00    -0.200 F 
ATOM     50  F   UNL A   1      37.776  34.263  39.847  1.00  0.00    -0.200 F 
ENDBRANCH  26  40
BRANCH  27  51
ATOM     51  C   UNL A   1      41.246  27.215  27.927  1.00  0.00     0.064 A 
ATOM     52  C   UNL A   1      40.836  25.888  27.743  1.00  0.00     0.173 A 
ATOM     53  C   UNL A   1      42.024  27.796  26.910  1.00  0.00     0.173 A 
ATOM     54  F   UNL A   1      40.108  25.276  28.688  1.00  0.00    -0.203 F 
ATOM     55  C   UNL A   1      41.208  25.166  26.608  1.00  0.00     0.198 A 
ATOM     56  C   UNL A   1      42.364  27.085  25.760  1.00  0.00     0.198 A 
ATOM     57  F   UNL A   1      42.448  29.063  27.025  1.00  0.00    -0.203 F 
ATOM     58  F   UNL A   1      40.848  23.880  26.489  1.00  0.00    -0.200 F 
ATOM     59  C   UNL A   1      41.967  25.766  25.615  1.00  0.00     0.200 A 
ATOM     60  F   UNL A   1      43.082  27.678  24.796  1.00  0.00    -0.200 F 
ATOM     61  F   UNL A   1      42.326  25.071  24.527  1.00  0.00    -0.200 F 
ENDBRANCH  27  51
BRANCH  39  62
ATOM     62  C   UNL A   1      43.953  27.637  34.337  1.00  0.00     0.064 A 
ATOM     63  C   UNL A   1      45.226  28.220  34.397  1.00  0.00     0.173 A 
ATOM     64  C   UNL A   1      43.769  26.380  34.931  1.00  0.00     0.173 A 
ATOM     65  F   UNL A   1      45.450  29.414  33.826  1.00  0.00    -0.203 F 
ATOM     66  C   UNL A   1      46.284  27.552  35.002  1.00  0.00     0.198 A 
ATOM     67  C   UNL A   1      44.821  25.733  35.569  1.00  0.00     0.198 A 
ATOM     68  F   UNL A   1      42.565  25.787  34.904  1.00  0.00    -0.203 F 
ATOM     69  F   UNL A   1      47.508  28.099  34.997  1.00  0.00    -0.200 F 
ATOM     70  C   UNL A   1      46.079  26.315  35.595  1.00  0.00     0.200 A 
ATOM     71  F   UNL A   1      44.616  24.547  36.158  1.00  0.00    -0.200 F 
ATOM     72  F   UNL A   1      47.098  25.678  36.187  1.00  0.00    -0.200 F 
ENDBRANCH  39  62
ENDBRANCH  13  14
ENDBRANCH   6   8
ENDBRANCH   5   6
ENDBRANCH   4   5
ENDBRANCH   3   4
ENDBRANCH   2   3
ENDBRANCH   1   2
BRANCH   1  73
ATOM     73  C   UNL A   1      33.162  28.398  27.089  1.00  0.00     0.261 C 
BRANCH  73  74
ATOM     74  O   UNL A   1      33.981  27.684  26.150  1.00  0.00    -0.463 OA
BRANCH  74  75
ATOM     75  C   UNL A   1      33.520  27.633  24.887  1.00  0.00     0.310 C 
ATOM     76  O   UNL A   1      34.058  28.201  23.941  1.00  0.00    -0.252 OA
BRANCH  75  77
ATOM     77  C   UNL A   1      32.237  26.824  24.800  1.00  0.00     0.115 C 
ATOM     78  C   UNL A   1      31.398  27.392  23.603  1.00  0.00     0.004 C 
ATOM     79  C   UNL A   1      32.370  25.263  24.688  1.00  0.00     0.096 C 
ATOM     80  C   UNL A   1      31.791  26.823  22.222  1.00  0.00     0.005 C 
ATOM     81  C   UNL A   1      29.959  26.962  23.845  1.00  0.00     0.005 C 
ATOM     82  C   UNL A   1      31.310  24.798  23.614  1.00  0.00     0.002 C 
ATOM     83  C   UNL A   1      31.771  25.291  22.232  1.00  0.00     0.005 C 
ATOM     84  C   UNL A   1      29.903  25.429  23.847  1.00  0.00     0.005 C 
BRANCH  79  85
ATOM     85  C   UNL A   1      32.076  24.487  26.010  1.00  0.00     0.229 C 
ATOM     86  O   UNL A   1      31.332  25.002  26.854  1.00  0.00    -0.274 OA
ATOM     87  N   UNL A   1      32.404  23.152  26.186  1.00  0.00    -0.317 N 
ATOM     88  H   UNL A   1      31.664  22.593  26.516  1.00  0.00     0.170 HD
BRANCH  87  89
ATOM     89  C   UNL A   1      33.598  22.457  25.977  1.00  0.00     0.108 A 
ATOM     90  S   UNL A   1      34.972  22.979  26.778  1.00  0.00    -0.122 S 
ATOM     91  C   UNL A   1      33.836  21.226  25.337  1.00  0.00     0.078 A 
ATOM     92  C   UNL A   1      35.998  21.931  25.970  1.00  0.00     0.011 A 
ATOM     93  C   UNL A   1      35.288  20.960  25.298  1.00  0.00    -0.019 A 
ATOM     94  C   UNL A   1      37.490  22.031  26.078  1.00  0.00     0.047 C 
ATOM     95  C   UNL A   1      36.042  19.850  24.626  1.00  0.00     0.037 C 
ATOM     96  C   UNL A   1      38.174  21.179  25.007  1.00  0.00     0.006 C 
ATOM     97  C   UNL A   1      37.543  19.797  24.953  1.00  0.00     0.005 C 
BRANCH  91  98
ATOM     98  C   UNL A   1      32.723  20.457  24.738  1.00  0.00     0.257 C 
ATOM     99  O   UNL A   1      31.757  21.033  24.236  1.00  0.00    -0.269 OA
ATOM    100  N   UNL A   1      32.865  19.075  24.627  1.00  0.00    -0.339 N 
ATOM    101  C   UNL A   1      32.533  18.491  23.339  1.00  0.00     0.120 C 
ATOM    102  C   UNL A   1      32.619  18.177  25.754  1.00  0.00     0.120 C 
ATOM    103  C   UNL A   1      33.444  17.299  23.091  1.00  0.00     0.022 C 
ATOM    104  C   UNL A   1      33.383  16.849  25.596  1.00  0.00     0.022 C 
ATOM    105  C   UNL A   1      33.278  16.250  24.191  1.00  0.00     0.004 C 
ENDBRANCH  91  98
ENDBRANCH  87  89
ENDBRANCH  79  85
ENDBRANCH  75  77
ENDBRANCH  74  75
ENDBRANCH  73  74
ENDBRANCH   1  73
TORSDOF 17
ENDMDL
MODEL 2
REMARK VINA RESULT:     -12.8      5.610     11.532
REMARK SMILES O=C(OCCOCCOC(=O)[C@H]1[C@H]2CC[C@H](CC2)[C@@H]1C(=O)Nc1sc2c(c1C(=O)N1CCCCC1)CCCC2)c1ccc(-c2c3nc(c(-c4c(F)c(F)c(F)c(F)c4F)c4ccc([nH]4)c(-c4c(F)c(F)c(F)c(F)c4F)c4nc(c(-c5c(F)c(F)c(F)c(F)c5F)c5ccc2[nH]5)C=C4)C=C3)cc1
REMARK SMILES IDX 7 1 6 2 5 3 4 4 3 5 2 6 1 7 40 8 41 9 102 10 42 11 101 12
REMARK SMILES IDX 43 13 44 14 45 15 95 16 46 17 100 18 94 19 96 20 47 21 99 22
REMARK SMILES IDX 93 23 92 24 48 26 80 27 60 28 79 29 61 30 64 31 78 32 97 33
REMARK SMILES IDX 62 34 63 35 77 37 98 38 65 39 49 40 50 41 58 42 51 43 52 44
REMARK SMILES IDX 56 45 59 46 53 47 54 48 57 49 55 50 81 51 82 52 90 53 83 54
REMARK SMILES IDX 84 55 88 56 91 57 85 58 86 59 89 60 87 61 66 62 67 63 75 64
REMARK SMILES IDX 68 65 69 66 73 67 76 68 70 69 71 70 74 71 72 72 8 73 9 74
REMARK SMILES IDX 10 75 11 76 12 77 13 78 19 79 18 80 14 81 16 82 17 83 15 84
REMARK SMILES IDX 20 85 21 86 22 87 23 89 24 90 27 91 25 92 26 93 39 94 36 95
REMARK SMILES IDX 38 96 37 97 28 98 29 99 30 100 31 101 35 102 32 103 34 104
REMARK SMILES IDX 33 105
REMARK H PARENT 96 25 64 36 22 88
REMARK Flexibility Score: inf
ROOT
ATOM      1  C   UNL A   1      38.686  20.933  25.579  1.00  0.00     0.202 C 
ENDROOT
BRANCH   1   2
ATOM      2  O   UNL A   1      40.005  20.914  26.134  1.00  0.00    -0.374 OA
BRANCH   2   3
ATOM      3  C   UNL A   1      40.691  19.665  26.018  1.00  0.00     0.202 C 
BRANCH   3   4
ATOM      4  C   UNL A   1      42.227  19.582  26.180  1.00  0.00     0.261 C 
BRANCH   4   5
ATOM      5  O   UNL A   1      42.938  19.103  25.006  1.00  0.00    -0.460 OA
BRANCH   5   6
ATOM      6  C   UNL A   1      44.232  19.458  24.722  1.00  0.00     0.338 C 
ATOM      7  O   UNL A   1      45.095  18.636  24.456  1.00  0.00    -0.246 OA
BRANCH   6   8
ATOM      8  C   UNL A   1      44.568  20.898  24.834  1.00  0.00     0.060 A 
ATOM      9  C   UNL A   1      45.288  21.279  25.944  1.00  0.00     0.016 A 
ATOM     10  C   UNL A   1      44.215  21.880  23.921  1.00  0.00     0.016 A 
ATOM     11  C   UNL A   1      45.355  22.570  26.377  1.00  0.00     0.010 A 
ATOM     12  C   UNL A   1      44.511  23.222  24.221  1.00  0.00     0.010 A 
ATOM     13  C   UNL A   1      45.039  23.570  25.482  1.00  0.00    -0.014 A 
BRANCH  13  14
ATOM     14  C   UNL A   1      45.224  24.948  25.971  1.00  0.00     0.031 A 
ATOM     15  C   UNL A   1      46.532  25.618  25.711  1.00  0.00     0.074 A 
ATOM     16  C   UNL A   1      44.166  25.625  26.469  1.00  0.00     0.049 A 
ATOM     17  N   UNL A   1      46.974  26.764  26.147  1.00  0.00    -0.248 NA
ATOM     18  C   UNL A   1      47.476  24.900  24.837  1.00  0.00     0.031 C 
ATOM     19  C   UNL A   1      42.795  25.102  26.582  1.00  0.00     0.029 A 
ATOM     20  N   UNL A   1      44.053  26.912  26.918  1.00  0.00    -0.354 N 
ATOM     21  C   UNL A   1      48.273  26.865  25.669  1.00  0.00     0.074 A 
ATOM     22  C   UNL A   1      48.546  25.676  24.896  1.00  0.00     0.031 C 
ATOM     23  C   UNL A   1      41.977  26.077  27.002  1.00  0.00     0.029 A 
ATOM     24  C   UNL A   1      42.781  27.242  27.323  1.00  0.00     0.049 A 
ATOM     25  H   UNL A   1      44.809  27.542  26.947  1.00  0.00     0.167 HD
ATOM     26  C   UNL A   1      49.155  27.865  25.892  1.00  0.00     0.037 A 
ATOM     27  C   UNL A   1      42.336  28.347  27.947  1.00  0.00     0.037 A 
ATOM     28  C   UNL A   1      48.814  29.043  26.642  1.00  0.00     0.049 A 
ATOM     29  C   UNL A   1      43.358  29.403  28.264  1.00  0.00     0.074 A 
ATOM     30  C   UNL A   1      49.618  30.102  27.014  1.00  0.00     0.029 A 
ATOM     31  N   UNL A   1      47.536  29.315  27.125  1.00  0.00    -0.354 N 
ATOM     32  N   UNL A   1      44.631  29.443  27.940  1.00  0.00    -0.248 NA
ATOM     33  C   UNL A   1      42.899  30.547  29.053  1.00  0.00     0.031 C 
ATOM     34  C   UNL A   1      48.838  30.989  27.767  1.00  0.00     0.029 A 
ATOM     35  C   UNL A   1      47.532  30.519  27.805  1.00  0.00     0.049 A 
ATOM     36  H   UNL A   1      46.750  28.735  27.000  1.00  0.00     0.167 HD
ATOM     37  C   UNL A   1      45.120  30.630  28.458  1.00  0.00     0.074 A 
ATOM     38  C   UNL A   1      43.998  31.286  29.106  1.00  0.00     0.031 C 
ATOM     39  C   UNL A   1      46.377  31.136  28.411  1.00  0.00     0.037 A 
BRANCH  26  40
ATOM     40  C   UNL A   1      50.561  27.649  25.419  1.00  0.00     0.064 A 
ATOM     41  C   UNL A   1      50.949  27.842  24.085  1.00  0.00     0.173 A 
ATOM     42  C   UNL A   1      51.525  27.159  26.314  1.00  0.00     0.173 A 
ATOM     43  F   UNL A   1      50.059  28.272  23.178  1.00  0.00    -0.203 F 
ATOM     44  C   UNL A   1      52.235  27.512  23.656  1.00  0.00     0.198 A 
ATOM     45  C   UNL A   1      52.818  26.862  25.890  1.00  0.00     0.198 A 
ATOM     46  F   UNL A   1      51.206  26.941  27.599  1.00  0.00    -0.203 F 
ATOM     47  F   UNL A   1      52.557  27.625  22.360  1.00  0.00    -0.200 F 
ATOM     48  C   UNL A   1      53.167  27.025  24.560  1.00  0.00     0.200 A 
ATOM     49  F   UNL A   1      53.716  26.390  26.767  1.00  0.00    -0.200 F 
ATOM     50  F   UNL A   1      54.397  26.691  24.143  1.00  0.00    -0.200 F 
ENDBRANCH  26  40
BRANCH  27  51
ATOM     51  C   UNL A   1      40.913  28.473  28.370  1.00  0.00     0.064 A 
ATOM     52  C   UNL A   1      39.949  29.028  27.518  1.00  0.00     0.173 A 
ATOM     53  C   UNL A   1      40.487  28.062  29.645  1.00  0.00     0.173 A 
ATOM     54  F   UNL A   1      40.300  29.454  26.297  1.00  0.00    -0.203 F 
ATOM     55  C   UNL A   1      38.626  29.190  27.931  1.00  0.00     0.198 A 
ATOM     56  C   UNL A   1      39.157  28.191  30.043  1.00  0.00     0.198 A 
ATOM     57  F   UNL A   1      41.362  27.523  30.507  1.00  0.00    -0.203 F 
ATOM     58  F   UNL A   1      37.739  29.777  27.115  1.00  0.00    -0.200 F 
ATOM     59  C   UNL A   1      38.229  28.767  29.191  1.00  0.00     0.200 A 
ATOM     60  F   UNL A   1      38.779  27.762  31.255  1.00  0.00    -0.200 F 
ATOM     61  F   UNL A   1      36.959  28.925  29.587  1.00  0.00    -0.200 F 
ENDBRANCH  27  51
BRANCH  39  62
ATOM     62  C   UNL A   1      46.572  32.493  29.014  1.00  0.00     0.064 A 
ATOM     63  C   UNL A   1      46.977  32.662  30.345  1.00  0.00     0.173 A 
ATOM     64  C   UNL A   1      46.384  33.637  28.226  1.00  0.00     0.173 A 
ATOM     65  F   UNL A   1      47.151  31.595  31.140  1.00  0.00    -0.203 F 
ATOM     66  C   UNL A   1      47.156  33.935  30.876  1.00  0.00     0.198 A 
ATOM     67  C   UNL A   1      46.602  34.906  28.750  1.00  0.00     0.198 A 
ATOM     68  F   UNL A   1      46.004  33.523  26.944  1.00  0.00    -0.203 F 
ATOM     69  F   UNL A   1      47.485  34.079  32.167  1.00  0.00    -0.200 F 
ATOM     70  C   UNL A   1      46.977  35.054  30.076  1.00  0.00     0.200 A 
ATOM     71  F   UNL A   1      46.448  35.985  27.970  1.00  0.00    -0.200 F 
ATOM     72  F   UNL A   1      47.161  36.279  30.586  1.00  0.00    -0.200 F 
ENDBRANCH  39  62
ENDBRANCH  13  14
ENDBRANCH   6   8
ENDBRANCH   5   6
ENDBRANCH   4   5
ENDBRANCH   3   4
ENDBRANCH   2   3
ENDBRANCH   1   2
BRANCH   1  73
ATOM     73  C   UNL A   1      38.019  22.301  25.690  1.00  0.00     0.261 C 
BRANCH  73  74
ATOM     74  O   UNL A   1      36.841  22.315  24.869  1.00  0.00    -0.463 OA
BRANCH  74  75
ATOM     75  C   UNL A   1      36.005  23.353  25.058  1.00  0.00     0.310 C 
ATOM     76  O   UNL A   1      36.282  24.338  25.735  1.00  0.00    -0.252 OA
BRANCH  75  77
ATOM     77  C   UNL A   1      34.673  23.121  24.364  1.00  0.00     0.115 C 
ATOM     78  C   UNL A   1      34.051  21.809  24.956  1.00  0.00     0.004 C 
ATOM     79  C   UNL A   1      33.625  24.291  24.397  1.00  0.00     0.096 C 
ATOM     80  C   UNL A   1      33.272  22.010  26.275  1.00  0.00     0.005 C 
ATOM     81  C   UNL A   1      33.036  21.316  23.936  1.00  0.00     0.005 C 
ATOM     82  C   UNL A   1      32.221  23.627  24.679  1.00  0.00     0.002 C 
ATOM     83  C   UNL A   1      32.211  23.105  26.125  1.00  0.00     0.005 C 
ATOM     84  C   UNL A   1      31.951  22.386  23.774  1.00  0.00     0.005 C 
BRANCH  79  85
ATOM     85  C   UNL A   1      33.509  25.100  23.067  1.00  0.00     0.229 C 
ATOM     86  O   UNL A   1      33.981  24.618  22.030  1.00  0.00    -0.274 OA
ATOM     87  N   UNL A   1      32.693  26.213  22.935  1.00  0.00    -0.317 N 
ATOM     88  H   UNL A   1      32.095  26.186  22.153  1.00  0.00     0.170 HD
BRANCH  87  89
ATOM     89  C   UNL A   1      32.567  27.366  23.714  1.00  0.00     0.108 A 
ATOM     90  S   UNL A   1      33.931  27.958  24.483  1.00  0.00    -0.122 S 
ATOM     91  C   UNL A   1      31.500  28.276  23.827  1.00  0.00     0.078 A 
ATOM     92  C   UNL A   1      33.093  29.122  25.348  1.00  0.00     0.011 A 
ATOM     93  C   UNL A   1      31.818  29.289  24.852  1.00  0.00    -0.019 A 
ATOM     94  C   UNL A   1      33.733  29.914  26.449  1.00  0.00     0.047 C 
ATOM     95  C   UNL A   1      30.965  30.388  25.415  1.00  0.00     0.037 C 
ATOM     96  C   UNL A   1      32.680  30.660  27.269  1.00  0.00     0.006 C 
ATOM     97  C   UNL A   1      31.697  31.365  26.348  1.00  0.00     0.005 C 
BRANCH  91  98
ATOM     98  C   UNL A   1      30.252  28.080  23.056  1.00  0.00     0.257 C 
ATOM     99  O   UNL A   1      29.852  26.948  22.781  1.00  0.00    -0.269 OA
ATOM    100  N   UNL A   1      29.470  29.199  22.776  1.00  0.00    -0.339 N 
ATOM    101  C   UNL A   1      28.048  29.079  23.046  1.00  0.00     0.120 C 
ATOM    102  C   UNL A   1      29.778  30.104  21.671  1.00  0.00     0.120 C 
ATOM    103  C   UNL A   1      27.517  30.432  23.493  1.00  0.00     0.022 C 
ATOM    104  C   UNL A   1      29.195  31.509  21.911  1.00  0.00     0.022 C 
ATOM    105  C   UNL A   1      27.750  31.491  22.415  1.00  0.00     0.004 C 
ENDBRANCH  91  98
ENDBRANCH  87  89
ENDBRANCH  79  85
ENDBRANCH  75  77
ENDBRANCH  74  75
ENDBRANCH  73  74
ENDBRANCH   1  73
TORSDOF 17
ENDMDL
MODEL 3
REMARK VINA RESULT:     -12.7      1.083      6.901
REMARK SMILES O=C(OCCOCCOC(=O)[C@H]1[C@H]2CC[C@H](CC2)[C@@H]1C(=O)Nc1sc2c(c1C(=O)N1CCCCC1)CCCC2)c1ccc(-c2c3nc(c(-c4c(F)c(F)c(F)c(F)c4F)c4ccc([nH]4)c(-c4c(F)c(F)c(F)c(F)c4F)c4nc(c(-c5c(F)c(F)c(F)c(F)c5F)c5ccc2[nH]5)C=C4)C=C3)cc1
REMARK SMILES IDX 7 1 6 2 5 3 4 4 3 5 2 6 1 7 40 8 41 9 102 10 42 11 101 12
REMARK SMILES IDX 43 13 44 14 45 15 95 16 46 17 100 18 94 19 96 20 47 21 99 22
REMARK SMILES IDX 93 23 92 24 48 26 80 27 60 28 79 29 61 30 64 31 78 32 97 33
REMARK SMILES IDX 62 34 63 35 77 37 98 38 65 39 49 40 50 41 58 42 51 43 52 44
REMARK SMILES IDX 56 45 59 46 53 47 54 48 57 49 55 50 81 51 82 52 90 53 83 54
REMARK SMILES IDX 84 55 88 56 91 57 85 58 86 59 89 60 87 61 66 62 67 63 75 64
REMARK SMILES IDX 68 65 69 66 73 67 76 68 70 69 71 70 74 71 72 72 8 73 9 74
REMARK SMILES IDX 10 75 11 76 12 77 13 78 19 79 18 80 14 81 16 82 17 83 15 84
REMARK SMILES IDX 20 85 21 86 22 87 23 89 24 90 27 91 25 92 26 93 39 94 36 95
REMARK SMILES IDX 38 96 37 97 28 98 29 99 30 100 31 101 35 102 32 103 34 104
REMARK SMILES IDX 33 105
REMARK H PARENT 96 25 64 36 22 88
REMARK Flexibility Score: inf
ROOT
ATOM      1  C   UNL A   1      33.629  29.937  26.933  1.00  0.00     0.202 C 
ENDROOT
BRANCH   1   2
ATOM      2  O   UNL A   1      32.803  30.874  27.632  1.00  0.00    -0.374 OA
BRANCH   2   3
ATOM      3  C   UNL A   1      31.898  31.613  26.808  1.00  0.00     0.202 C 
BRANCH   3   4
ATOM      4  C   UNL A   1      31.895  33.160  26.819  1.00  0.00     0.261 C 
BRANCH   4   5
ATOM      5  O   UNL A   1      32.511  33.762  27.990  1.00  0.00    -0.460 OA
BRANCH   5   6
ATOM      6  C   UNL A   1      33.806  34.215  28.000  1.00  0.00     0.338 C 
ATOM      7  O   UNL A   1      34.243  34.973  27.147  1.00  0.00    -0.246 OA
BRANCH   6   8
ATOM      8  C   UNL A   1      34.694  33.672  29.056  1.00  0.00     0.060 A 
ATOM      9  C   UNL A   1      35.963  34.202  29.129  1.00  0.00     0.016 A 
ATOM     10  C   UNL A   1      34.351  32.682  29.964  1.00  0.00     0.016 A 
ATOM     11  C   UNL A   1      36.991  33.579  29.771  1.00  0.00     0.010 A 
ATOM     12  C   UNL A   1      35.339  32.193  30.837  1.00  0.00     0.010 A 
ATOM     13  C   UNL A   1      36.680  32.611  30.703  1.00  0.00    -0.014 A 
BRANCH  13  14
ATOM     14  C   UNL A   1      37.823  32.040  31.438  1.00  0.00     0.031 A 
ATOM     15  C   UNL A   1      38.700  31.063  30.728  1.00  0.00     0.074 A 
ATOM     16  C   UNL A   1      38.153  32.541  32.648  1.00  0.00     0.049 A 
ATOM     17  N   UNL A   1      39.676  30.338  31.195  1.00  0.00    -0.248 NA
ATOM     18  C   UNL A   1      38.444  30.876  29.289  1.00  0.00     0.031 C 
ATOM     19  C   UNL A   1      37.455  33.639  33.337  1.00  0.00     0.029 A 
ATOM     20  N   UNL A   1      39.186  32.244  33.493  1.00  0.00    -0.354 N 
ATOM     21  C   UNL A   1      40.095  29.552  30.132  1.00  0.00     0.074 A 
ATOM     22  C   UNL A   1      39.282  29.897  28.989  1.00  0.00     0.031 C 
ATOM     23  C   UNL A   1      38.120  33.961  34.455  1.00  0.00     0.029 A 
ATOM     24  C   UNL A   1      39.198  33.006  34.637  1.00  0.00     0.049 A 
ATOM     25  H   UNL A   1      39.859  31.551  33.299  1.00  0.00     0.167 HD
ATOM     26  C   UNL A   1      41.063  28.608  30.138  1.00  0.00     0.037 A 
ATOM     27  C   UNL A   1      39.962  32.895  35.738  1.00  0.00     0.037 A 
ATOM     28  C   UNL A   1      41.865  28.332  31.299  1.00  0.00     0.049 A 
ATOM     29  C   UNL A   1      40.967  31.777  35.753  1.00  0.00     0.074 A 
ATOM     30  C   UNL A   1      42.827  27.359  31.482  1.00  0.00     0.029 A 
ATOM     31  N   UNL A   1      41.795  29.061  32.484  1.00  0.00    -0.354 N 
ATOM     32  N   UNL A   1      41.274  30.930  34.798  1.00  0.00    -0.248 NA
ATOM     33  C   UNL A   1      41.709  31.578  37.000  1.00  0.00     0.031 C 
ATOM     34  C   UNL A   1      43.301  27.467  32.795  1.00  0.00     0.029 A 
ATOM     35  C   UNL A   1      42.686  28.549  33.408  1.00  0.00     0.049 A 
ATOM     36  H   UNL A   1      41.197  29.828  32.640  1.00  0.00     0.167 HD
ATOM     37  C   UNL A   1      42.266  30.115  35.314  1.00  0.00     0.074 A 
ATOM     38  C   UNL A   1      42.518  30.582  36.665  1.00  0.00     0.031 C 
ATOM     39  C   UNL A   1      42.912  29.072  34.734  1.00  0.00     0.037 A 
BRANCH  26  40
ATOM     40  C   UNL A   1      41.198  27.764  28.906  1.00  0.00     0.064 A 
ATOM     41  C   UNL A   1      42.145  28.030  27.906  1.00  0.00     0.173 A 
ATOM     42  C   UNL A   1      40.299  26.708  28.688  1.00  0.00     0.173 A 
ATOM     43  F   UNL A   1      43.003  29.053  28.044  1.00  0.00    -0.203 F 
ATOM     44  C   UNL A   1      42.158  27.301  26.717  1.00  0.00     0.198 A 
ATOM     45  C   UNL A   1      40.337  25.959  27.515  1.00  0.00     0.198 A 
ATOM     46  F   UNL A   1      39.363  26.417  29.604  1.00  0.00    -0.203 F 
ATOM     47  F   UNL A   1      43.017  27.628  25.742  1.00  0.00    -0.200 F 
ATOM     48  C   UNL A   1      41.257  26.265  26.525  1.00  0.00     0.200 A 
ATOM     49  F   UNL A   1      39.463  24.959  27.333  1.00  0.00    -0.200 F 
ATOM     50  F   UNL A   1      41.259  25.576  25.376  1.00  0.00    -0.200 F 
ENDBRANCH  26  40
BRANCH  27  51
ATOM     51  C   UNL A   1      39.757  33.791  36.911  1.00  0.00     0.064 A 
ATOM     52  C   UNL A   1      38.911  33.425  37.966  1.00  0.00     0.173 A 
ATOM     53  C   UNL A   1      40.385  35.046  36.994  1.00  0.00     0.173 A 
ATOM     54  F   UNL A   1      38.271  32.247  37.932  1.00  0.00    -0.203 F 
ATOM     55  C   UNL A   1      38.681  34.284  39.041  1.00  0.00     0.198 A 
ATOM     56  C   UNL A   1      40.183  35.888  38.087  1.00  0.00     0.198 A 
ATOM     57  F   UNL A   1      41.207  35.455  36.016  1.00  0.00    -0.203 F 
ATOM     58  F   UNL A   1      37.822  33.930  40.006  1.00  0.00    -0.200 F 
ATOM     59  C   UNL A   1      39.321  35.513  39.104  1.00  0.00     0.200 A 
ATOM     60  F   UNL A   1      40.820  37.065  38.148  1.00  0.00    -0.200 F 
ATOM     61  F   UNL A   1      39.099  36.338  40.136  1.00  0.00    -0.200 F 
ENDBRANCH  27  51
BRANCH  39  62
ATOM     62  C   UNL A   1      43.998  28.430  35.541  1.00  0.00     0.064 A 
ATOM     63  C   UNL A   1      45.334  28.842  35.446  1.00  0.00     0.173 A 
ATOM     64  C   UNL A   1      43.680  27.410  36.449  1.00  0.00     0.173 A 
ATOM     65  F   UNL A   1      45.686  29.801  34.577  1.00  0.00    -0.203 F 
ATOM     66  C   UNL A   1      46.321  28.230  36.211  1.00  0.00     0.198 A 
ATOM     67  C   UNL A   1      44.663  26.829  37.240  1.00  0.00     0.198 A 
ATOM     68  F   UNL A   1      42.412  26.989  36.578  1.00  0.00    -0.203 F 
ATOM     69  F   UNL A   1      47.602  28.596  36.064  1.00  0.00    -0.200 F 
ATOM     70  C   UNL A   1      45.984  27.232  37.113  1.00  0.00     0.200 A 
ATOM     71  F   UNL A   1      44.332  25.878  38.124  1.00  0.00    -0.200 F 
ATOM     72  F   UNL A   1      46.934  26.652  37.858  1.00  0.00    -0.200 F 
ENDBRANCH  39  62
ENDBRANCH  13  14
ENDBRANCH   6   8
ENDBRANCH   5   6
ENDBRANCH   4   5
ENDBRANCH   3   4
ENDBRANCH   2   3
ENDBRANCH   1   2
BRANCH   1  73
ATOM     73  C   UNL A   1      33.249  28.487  27.218  1.00  0.00     0.261 C 
BRANCH  73  74
ATOM     74  O   UNL A   1      33.952  27.630  26.305  1.00  0.00    -0.463 OA
BRANCH  74  75
ATOM     75  C   UNL A   1      33.512  27.638  25.034  1.00  0.00     0.310 C 
ATOM     76  O   UNL A   1      34.085  28.220  24.117  1.00  0.00    -0.252 OA
BRANCH  75  77
ATOM     77  C   UNL A   1      32.205  26.876  24.897  1.00  0.00     0.115 C 
ATOM     78  C   UNL A   1      31.394  27.531  23.725  1.00  0.00     0.004 C 
ATOM     79  C   UNL A   1      32.290  25.319  24.705  1.00  0.00     0.096 C 
ATOM     80  C   UNL A   1      31.779  27.022  22.319  1.00  0.00     0.005 C 
ATOM     81  C   UNL A   1      29.940  27.134  23.935  1.00  0.00     0.005 C 
ATOM     82  C   UNL A   1      31.225  24.944  23.602  1.00  0.00     0.002 C 
ATOM     83  C   UNL A   1      31.711  25.493  22.250  1.00  0.00     0.005 C 
ATOM     84  C   UNL A   1      29.836  25.607  23.858  1.00  0.00     0.005 C 
BRANCH  79  85
ATOM     85  C   UNL A   1      31.962  24.485  25.983  1.00  0.00     0.229 C 
ATOM     86  O   UNL A   1      31.173  24.952  26.815  1.00  0.00    -0.274 OA
ATOM     87  N   UNL A   1      32.312  23.152  26.119  1.00  0.00    -0.317 N 
ATOM     88  H   UNL A   1      31.571  22.565  26.398  1.00  0.00     0.170 HD
BRANCH  87  89
ATOM     89  C   UNL A   1      33.528  22.490  25.932  1.00  0.00     0.108 A 
ATOM     90  S   UNL A   1      34.872  23.051  26.757  1.00  0.00    -0.122 S 
ATOM     91  C   UNL A   1      33.811  21.266  25.297  1.00  0.00     0.078 A 
ATOM     92  C   UNL A   1      35.941  22.031  25.967  1.00  0.00     0.011 A 
ATOM     93  C   UNL A   1      35.270  21.040  25.284  1.00  0.00    -0.019 A 
ATOM     94  C   UNL A   1      37.428  22.172  26.101  1.00  0.00     0.047 C 
ATOM     95  C   UNL A   1      36.067  19.952  24.626  1.00  0.00     0.037 C 
ATOM     96  C   UNL A   1      38.153  21.340  25.043  1.00  0.00     0.006 C 
ATOM     97  C   UNL A   1      37.563  19.940  24.979  1.00  0.00     0.005 C 
BRANCH  91  98
ATOM     98  C   UNL A   1      32.731  20.466  24.679  1.00  0.00     0.257 C 
ATOM     99  O   UNL A   1      31.775  21.015  24.128  1.00  0.00    -0.269 OA
ATOM    100  N   UNL A   1      32.894  19.084  24.610  1.00  0.00    -0.339 N 
ATOM    101  C   UNL A   1      32.617  18.462  23.328  1.00  0.00     0.120 C 
ATOM    102  C   UNL A   1      32.619  18.212  25.751  1.00  0.00     0.120 C 
ATOM    103  C   UNL A   1      33.552  17.277  23.144  1.00  0.00     0.022 C 
ATOM    104  C   UNL A   1      33.406  16.892  25.655  1.00  0.00     0.022 C 
ATOM    105  C   UNL A   1      33.360  16.255  24.264  1.00  0.00     0.004 C 
ENDBRANCH  91  98
ENDBRANCH  87  89
ENDBRANCH  79  85
ENDBRANCH  75  77
ENDBRANCH  74  75
ENDBRANCH  73  74
ENDBRANCH   1  73
TORSDOF 17
ENDMDL
