MODEL 1
REMARK VINA RESULT:     -11.8      0.000      0.000
REMARK SMILES Cc1ccc(Nc2c(F)cccc2I)c(CC(=O)OCCOCCOC(=O)c2ccc(-c3c4nc(c(-c5c(F)c(F)c(F)c(F)c5F)c5ccc([nH]5)c(-c5c(F)c(F)c(F)c(F)c5F)c5nc(c(-c6c(F)c(F)c(F)c(F)c6F)c6ccc3[nH]6)C=C5)C=C4)cc2)c1
REMARK SMILES IDX 21 1 20 2 19 3 17 4 18 5 16 6 15 7 1 8 2 9 3 10 91 11 4 12
REMARK SMILES IDX 5 13 6 14 7 16 8 17 13 18 9 19 10 20 12 21 14 22 11 23 22 24
REMARK SMILES IDX 23 25 24 26 25 27 26 28 27 29 28 30 29 31 90 32 30 33 89 34
REMARK SMILES IDX 31 35 32 36 33 37 83 38 34 39 88 40 82 41 84 42 35 43 87 44
REMARK SMILES IDX 81 45 80 46 36 48 68 49 48 50 67 51 49 52 52 53 66 54 85 55
REMARK SMILES IDX 50 56 51 57 65 59 86 60 53 61 37 62 38 63 46 64 39 65 40 66
REMARK SMILES IDX 44 67 47 68 41 69 42 70 45 71 43 72 69 73 70 74 78 75 71 76
REMARK SMILES IDX 72 77 76 78 79 79 73 80 74 81 77 82 75 83 54 84 55 85 63 86
REMARK SMILES IDX 56 87 57 88 61 89 64 90 58 91 59 92 62 93 60 94
REMARK H PARENT 6 15 84 47 52 58
REMARK Flexibility Score: inf
ROOT
ATOM      1  C   UNL A   1      40.057  20.520  26.485  1.00  0.00     0.202 C 
ENDROOT
BRANCH   1   2
ATOM      2  C   UNL A   1      39.126  21.456  25.733  1.00  0.00     0.261 C 
BRANCH   2   3
ATOM      3  O   UNL A   1      38.019  20.771  25.173  1.00  0.00    -0.463 OA
BRANCH   3   4
ATOM      4  C   UNL A   1      36.955  21.492  24.703  1.00  0.00     0.310 C 
ATOM      5  O   UNL A   1      36.880  22.069  23.629  1.00  0.00    -0.252 OA
BRANCH   4   6
ATOM      6  C   UNL A   1      35.846  21.510  25.744  1.00  0.00     0.160 C 
BRANCH   6   7
ATOM      7  C   UNL A   1      34.602  20.833  25.192  1.00  0.00    -0.013 A 
ATOM      8  C   UNL A   1      34.174  17.285  23.827  1.00  0.00     0.044 C 
ATOM      9  C   UNL A   1      33.892  18.722  24.155  1.00  0.00    -0.051 A 
ATOM     10  C   UNL A   1      32.855  19.411  23.540  1.00  0.00     0.005 A 
ATOM     11  C   UNL A   1      34.708  19.422  25.039  1.00  0.00     0.009 A 
ATOM     12  C   UNL A   1      32.688  20.788  23.753  1.00  0.00     0.026 A 
ATOM     13  C   UNL A   1      33.569  21.547  24.551  1.00  0.00     0.042 A 
BRANCH  13  14
ATOM     14  N   UNL A   1      33.445  22.962  24.640  1.00  0.00    -0.352 N 
ATOM     15  H   UNL A   1      34.183  23.424  25.100  1.00  0.00     0.167 HD
BRANCH  14  16
ATOM     16  C   UNL A   1      32.405  23.801  24.158  1.00  0.00     0.088 A 
ATOM     17  C   UNL A   1      32.490  24.385  22.883  1.00  0.00     0.147 A 
ATOM     18  C   UNL A   1      31.299  24.189  24.941  1.00  0.00     0.040 A 
ATOM     19  F   UNL A   1      33.418  23.957  22.012  1.00  0.00    -0.205 F 
ATOM     20  C   UNL A   1      31.619  25.382  22.452  1.00  0.00     0.041 A 
ATOM     21  C   UNL A   1      30.470  25.258  24.553  1.00  0.00     0.017 A 
ATOM     22  I   UNL A   1      30.635  23.096  26.607  1.00  0.00    -0.042 I 
ATOM     23  C   UNL A   1      30.640  25.861  23.311  1.00  0.00     0.004 A 
ENDBRANCH  14  16
ENDBRANCH  13  14
ENDBRANCH   6   7
ENDBRANCH   4   6
ENDBRANCH   3   4
ENDBRANCH   2   3
ENDBRANCH   1   2
BRANCH   1  24
ATOM     24  O   UNL A   1      41.052  20.044  25.599  1.00  0.00    -0.374 OA
BRANCH  24  25
ATOM     25  C   UNL A   1      41.978  19.146  26.184  1.00  0.00     0.202 C 
BRANCH  25  26
ATOM     26  C   UNL A   1      43.362  19.293  25.552  1.00  0.00     0.261 C 
BRANCH  26  27
ATOM     27  O   UNL A   1      43.467  20.507  24.770  1.00  0.00    -0.460 OA
BRANCH  27  28
ATOM     28  C   UNL A   1      44.247  21.483  25.308  1.00  0.00     0.338 C 
ATOM     29  O   UNL A   1      45.440  21.360  25.562  1.00  0.00    -0.246 OA
BRANCH  28  30
ATOM     30  C   UNL A   1      43.428  22.670  25.670  1.00  0.00     0.060 A 
ATOM     31  C   UNL A   1      43.426  23.792  24.825  1.00  0.00     0.016 A 
ATOM     32  C   UNL A   1      42.956  22.774  26.976  1.00  0.00     0.016 A 
ATOM     33  C   UNL A   1      43.154  25.057  25.357  1.00  0.00     0.010 A 
ATOM     34  C   UNL A   1      42.831  24.034  27.525  1.00  0.00     0.010 A 
ATOM     35  C   UNL A   1      42.983  25.184  26.735  1.00  0.00    -0.014 A 
BRANCH  35  36
ATOM     36  C   UNL A   1      43.123  26.433  27.488  1.00  0.00     0.031 A 
ATOM     37  C   UNL A   1      41.945  27.296  27.709  1.00  0.00     0.074 A 
ATOM     38  C   UNL A   1      44.243  26.667  28.213  1.00  0.00     0.049 A 
ATOM     39  N   UNL A   1      42.005  28.422  28.328  1.00  0.00    -0.248 NA
ATOM     40  C   UNL A   1      40.604  27.013  27.202  1.00  0.00     0.031 C 
ATOM     41  C   UNL A   1      44.390  27.478  29.427  1.00  0.00     0.029 A 
ATOM     42  N   UNL A   1      45.530  26.197  28.014  1.00  0.00    -0.354 N 
ATOM     43  C   UNL A   1      40.728  28.814  28.615  1.00  0.00     0.074 A 
ATOM     44  C   UNL A   1      39.895  27.993  27.774  1.00  0.00     0.031 C 
ATOM     45  C   UNL A   1      45.693  27.617  29.721  1.00  0.00     0.029 A 
ATOM     46  C   UNL A   1      46.446  27.058  28.616  1.00  0.00     0.049 A 
ATOM     47  H   UNL A   1      45.763  25.377  27.520  1.00  0.00     0.167 HD
ATOM     48  C   UNL A   1      40.555  29.719  29.617  1.00  0.00     0.037 A 
ATOM     49  C   UNL A   1      47.415  27.697  27.900  1.00  0.00     0.037 A 
ATOM     50  C   UNL A   1      41.844  30.310  30.020  1.00  0.00     0.049 A 
ATOM     51  C   UNL A   1      47.058  29.172  27.763  1.00  0.00     0.074 A 
ATOM     52  C   UNL A   1      42.666  30.249  31.130  1.00  0.00     0.029 A 
ATOM     53  N   UNL A   1      42.610  30.909  29.028  1.00  0.00    -0.354 N 
ATOM     54  N   UNL A   1      46.059  29.723  28.402  1.00  0.00    -0.248 NA
ATOM     55  C   UNL A   1      47.715  30.124  26.876  1.00  0.00     0.031 C 
ATOM     56  C   UNL A   1      43.956  30.764  30.751  1.00  0.00     0.029 A 
ATOM     57  C   UNL A   1      43.900  31.184  29.431  1.00  0.00     0.049 A 
ATOM     58  H   UNL A   1      42.266  31.117  28.129  1.00  0.00     0.167 HD
ATOM     59  C   UNL A   1      45.864  31.002  27.993  1.00  0.00     0.074 A 
ATOM     60  C   UNL A   1      46.932  31.211  27.022  1.00  0.00     0.031 C 
ATOM     61  C   UNL A   1      44.831  31.770  28.462  1.00  0.00     0.037 A 
BRANCH  48  62
ATOM     62  C   UNL A   1      39.240  30.016  30.300  1.00  0.00     0.064 A 
ATOM     63  C   UNL A   1      38.892  29.328  31.482  1.00  0.00     0.173 A 
ATOM     64  C   UNL A   1      38.241  30.886  29.809  1.00  0.00     0.173 A 
ATOM     65  F   UNL A   1      39.739  28.457  32.050  1.00  0.00    -0.203 F 
ATOM     66  C   UNL A   1      37.655  29.500  32.115  1.00  0.00     0.198 A 
ATOM     67  C   UNL A   1      37.029  31.100  30.474  1.00  0.00     0.198 A 
ATOM     68  F   UNL A   1      38.358  31.523  28.640  1.00  0.00    -0.203 F 
ATOM     69  F   UNL A   1      37.363  28.782  33.208  1.00  0.00    -0.200 F 
ATOM     70  C   UNL A   1      36.731  30.397  31.621  1.00  0.00     0.200 A 
ATOM     71  F   UNL A   1      36.144  31.976  29.975  1.00  0.00    -0.200 F 
ATOM     72  F   UNL A   1      35.550  30.570  32.231  1.00  0.00    -0.200 F 
ENDBRANCH  48  62
BRANCH  49  73
ATOM     73  C   UNL A   1      48.011  26.763  26.896  1.00  0.00     0.064 A 
ATOM     74  C   UNL A   1      47.594  26.977  25.558  1.00  0.00     0.173 A 
ATOM     75  C   UNL A   1      49.286  26.216  27.093  1.00  0.00     0.173 A 
ATOM     76  F   UNL A   1      46.381  27.500  25.313  1.00  0.00    -0.203 F 
ATOM     77  C   UNL A   1      48.496  26.889  24.500  1.00  0.00     0.198 A 
ATOM     78  C   UNL A   1      50.175  26.096  26.018  1.00  0.00     0.198 A 
ATOM     79  F   UNL A   1      49.749  26.015  28.333  1.00  0.00    -0.203 F 
ATOM     80  F   UNL A   1      48.148  27.345  23.287  1.00  0.00    -0.200 F 
ATOM     81  C   UNL A   1      49.800  26.492  24.739  1.00  0.00     0.200 A 
ATOM     82  F   UNL A   1      51.452  25.759  26.249  1.00  0.00    -0.200 F 
ATOM     83  F   UNL A   1      50.718  26.589  23.768  1.00  0.00    -0.200 F 
ENDBRANCH  49  73
BRANCH  61  84
ATOM     84  C   UNL A   1      44.621  33.175  27.980  1.00  0.00     0.064 A 
ATOM     85  C   UNL A   1      44.114  33.446  26.701  1.00  0.00     0.173 A 
ATOM     86  C   UNL A   1      44.971  34.300  28.758  1.00  0.00     0.173 A 
ATOM     87  F   UNL A   1      43.869  32.449  25.835  1.00  0.00    -0.203 F 
ATOM     88  C   UNL A   1      43.845  34.747  26.282  1.00  0.00     0.198 A 
ATOM     89  C   UNL A   1      44.776  35.601  28.304  1.00  0.00     0.198 A 
ATOM     90  F   UNL A   1      45.472  34.183  29.994  1.00  0.00    -0.203 F 
ATOM     91  F   UNL A   1      43.250  34.951  25.098  1.00  0.00    -0.200 F 
ATOM     92  C   UNL A   1      44.177  35.824  27.083  1.00  0.00     0.200 A 
ATOM     93  F   UNL A   1      45.148  36.633  29.074  1.00  0.00    -0.200 F 
ATOM     94  F   UNL A   1      43.913  37.074  26.682  1.00  0.00    -0.200 F 
ENDBRANCH  61  84
ENDBRANCH  35  36
ENDBRANCH  28  30
ENDBRANCH  27  28
ENDBRANCH  26  27
ENDBRANCH  25  26
ENDBRANCH  24  25
ENDBRANCH   1  24
TORSDOF 17
ENDMDL
MODEL 2
REMARK VINA RESULT:     -11.7      4.100      9.731
REMARK SMILES Cc1ccc(Nc2c(F)cccc2I)c(CC(=O)OCCOCCOC(=O)c2ccc(-c3c4nc(c(-c5c(F)c(F)c(F)c(F)c5F)c5ccc([nH]5)c(-c5c(F)c(F)c(F)c(F)c5F)c5nc(c(-c6c(F)c(F)c(F)c(F)c6F)c6ccc3[nH]6)C=C5)C=C4)cc2)c1
REMARK SMILES IDX 21 1 20 2 19 3 17 4 18 5 16 6 15 7 1 8 2 9 3 10 91 11 4 12
REMARK SMILES IDX 5 13 6 14 7 16 8 17 13 18 9 19 10 20 12 21 14 22 11 23 22 24
REMARK SMILES IDX 23 25 24 26 25 27 26 28 27 29 28 30 29 31 90 32 30 33 89 34
REMARK SMILES IDX 31 35 32 36 33 37 83 38 34 39 88 40 82 41 84 42 35 43 87 44
REMARK SMILES IDX 81 45 80 46 36 48 68 49 48 50 67 51 49 52 52 53 66 54 85 55
REMARK SMILES IDX 50 56 51 57 65 59 86 60 53 61 37 62 38 63 46 64 39 65 40 66
REMARK SMILES IDX 44 67 47 68 41 69 42 70 45 71 43 72 69 73 70 74 78 75 71 76
REMARK SMILES IDX 72 77 76 78 79 79 73 80 74 81 77 82 75 83 54 84 55 85 63 86
REMARK SMILES IDX 56 87 57 88 61 89 64 90 58 91 59 92 62 93 60 94
REMARK H PARENT 6 15 84 47 52 58
REMARK Flexibility Score: inf
ROOT
ATOM      1  C   UNL A   1      32.711  27.859  26.040  1.00  0.00     0.202 C 
ENDROOT
BRANCH   1   2
ATOM      2  C   UNL A   1      33.410  28.132  24.719  1.00  0.00     0.261 C 
BRANCH   2   3
ATOM      3  O   UNL A   1      34.037  26.973  24.197  1.00  0.00    -0.463 OA
BRANCH   3   4
ATOM      4  C   UNL A   1      33.725  26.556  22.932  1.00  0.00     0.310 C 
ATOM      5  O   UNL A   1      33.746  27.232  21.914  1.00  0.00    -0.252 OA
BRANCH   4   6
ATOM      6  C   UNL A   1      33.301  25.096  22.961  1.00  0.00     0.160 C 
BRANCH   6   7
ATOM      7  C   UNL A   1      32.024  24.940  23.769  1.00  0.00    -0.013 A 
ATOM      8  C   UNL A   1      28.827  27.041  23.683  1.00  0.00     0.044 C 
ATOM      9  C   UNL A   1      29.857  26.044  24.125  1.00  0.00    -0.051 A 
ATOM     10  C   UNL A   1      29.819  25.484  25.396  1.00  0.00     0.005 A 
ATOM     11  C   UNL A   1      30.919  25.702  23.293  1.00  0.00     0.009 A 
ATOM     12  C   UNL A   1      30.862  24.659  25.845  1.00  0.00     0.026 A 
ATOM     13  C   UNL A   1      32.007  24.390  25.067  1.00  0.00     0.042 A 
BRANCH  13  14
ATOM     14  N   UNL A   1      33.103  23.657  25.602  1.00  0.00    -0.352 N 
ATOM     15  H   UNL A   1      33.555  24.070  26.373  1.00  0.00     0.167 HD
BRANCH  14  16
ATOM     16  C   UNL A   1      33.637  22.410  25.178  1.00  0.00     0.088 A 
ATOM     17  C   UNL A   1      32.788  21.375  24.753  1.00  0.00     0.147 A 
ATOM     18  C   UNL A   1      35.008  22.089  25.257  1.00  0.00     0.040 A 
ATOM     19  F   UNL A   1      31.495  21.634  24.497  1.00  0.00    -0.205 F 
ATOM     20  C   UNL A   1      33.234  20.073  24.541  1.00  0.00     0.041 A 
ATOM     21  C   UNL A   1      35.454  20.760  25.135  1.00  0.00     0.017 A 
ATOM     22  I   UNL A   1      36.523  23.542  25.323  1.00  0.00    -0.042 I 
ATOM     23  C   UNL A   1      34.561  19.750  24.788  1.00  0.00     0.004 A 
ENDBRANCH  14  16
ENDBRANCH  13  14
ENDBRANCH   6   7
ENDBRANCH   4   6
ENDBRANCH   3   4
ENDBRANCH   2   3
ENDBRANCH   1   2
BRANCH   1  24
ATOM     24  O   UNL A   1      33.159  28.793  27.004  1.00  0.00    -0.374 OA
BRANCH  24  25
ATOM     25  C   UNL A   1      33.587  30.032  26.468  1.00  0.00     0.202 C 
BRANCH  25  26
ATOM     26  C   UNL A   1      33.702  31.095  27.560  1.00  0.00     0.261 C 
BRANCH  26  27
ATOM     27  O   UNL A   1      35.017  31.700  27.581  1.00  0.00    -0.460 OA
BRANCH  27  28
ATOM     28  C   UNL A   1      35.702  31.569  28.750  1.00  0.00     0.338 C 
ATOM     29  O   UNL A   1      35.769  32.431  29.618  1.00  0.00    -0.246 OA
BRANCH  28  30
ATOM     30  C   UNL A   1      36.467  30.294  28.769  1.00  0.00     0.060 A 
ATOM     31  C   UNL A   1      36.621  29.599  29.981  1.00  0.00     0.016 A 
ATOM     32  C   UNL A   1      37.280  29.993  27.680  1.00  0.00     0.016 A 
ATOM     33  C   UNL A   1      37.729  28.763  30.161  1.00  0.00     0.010 A 
ATOM     34  C   UNL A   1      38.442  29.284  27.910  1.00  0.00     0.010 A 
ATOM     35  C   UNL A   1      38.701  28.711  29.165  1.00  0.00    -0.014 A 
BRANCH  35  36
ATOM     36  C   UNL A   1      40.080  28.255  29.358  1.00  0.00     0.031 A 
ATOM     37  C   UNL A   1      40.469  26.890  28.949  1.00  0.00     0.074 A 
ATOM     38  C   UNL A   1      41.057  29.148  29.646  1.00  0.00     0.049 A 
ATOM     39  N   UNL A   1      41.650  26.413  29.125  1.00  0.00    -0.248 NA
ATOM     40  C   UNL A   1      39.556  25.909  28.365  1.00  0.00     0.031 C 
ATOM     41  C   UNL A   1      42.487  29.067  29.331  1.00  0.00     0.029 A 
ATOM     42  N   UNL A   1      40.966  30.367  30.295  1.00  0.00    -0.354 N 
ATOM     43  C   UNL A   1      41.757  25.268  28.386  1.00  0.00     0.074 A 
ATOM     44  C   UNL A   1      40.400  24.918  28.055  1.00  0.00     0.031 C 
ATOM     45  C   UNL A   1      43.145  30.055  29.961  1.00  0.00     0.029 A 
ATOM     46  C   UNL A   1      42.200  30.702  30.850  1.00  0.00     0.049 A 
ATOM     47  H   UNL A   1      40.150  30.916  30.356  1.00  0.00     0.167 HD
ATOM     48  C   UNL A   1      43.009  24.836  28.068  1.00  0.00     0.037 A 
ATOM     49  C   UNL A   1      42.362  30.893  32.190  1.00  0.00     0.037 A 
ATOM     50  C   UNL A   1      44.029  25.569  28.838  1.00  0.00     0.049 A 
ATOM     51  C   UNL A   1      43.111  29.708  32.788  1.00  0.00     0.074 A 
ATOM     52  C   UNL A   1      45.012  26.501  28.559  1.00  0.00     0.029 A 
ATOM     53  N   UNL A   1      43.911  25.563  30.223  1.00  0.00    -0.354 N 
ATOM     54  N   UNL A   1      43.648  28.766  32.057  1.00  0.00    -0.248 NA
ATOM     55  C   UNL A   1      43.264  29.434  34.212  1.00  0.00     0.031 C 
ATOM     56  C   UNL A   1      45.423  27.094  29.805  1.00  0.00     0.029 A 
ATOM     57  C   UNL A   1      44.731  26.486  30.841  1.00  0.00     0.049 A 
ATOM     58  H   UNL A   1      43.305  24.962  30.713  1.00  0.00     0.167 HD
ATOM     59  C   UNL A   1      44.120  27.757  32.832  1.00  0.00     0.074 A 
ATOM     60  C   UNL A   1      43.851  28.220  34.189  1.00  0.00     0.031 C 
ATOM     61  C   UNL A   1      44.666  26.620  32.299  1.00  0.00     0.037 A 
BRANCH  48  62
ATOM     62  C   UNL A   1      43.328  23.814  27.002  1.00  0.00     0.064 A 
ATOM     63  C   UNL A   1      42.936  22.470  27.179  1.00  0.00     0.173 A 
ATOM     64  C   UNL A   1      44.086  24.058  25.835  1.00  0.00     0.173 A 
ATOM     65  F   UNL A   1      42.226  22.092  28.252  1.00  0.00    -0.203 F 
ATOM     66  C   UNL A   1      43.273  21.463  26.266  1.00  0.00     0.198 A 
ATOM     67  C   UNL A   1      44.371  23.062  24.895  1.00  0.00     0.198 A 
ATOM     68  F   UNL A   1      44.635  25.249  25.574  1.00  0.00    -0.203 F 
ATOM     69  F   UNL A   1      42.915  20.195  26.513  1.00  0.00    -0.200 F 
ATOM     70  C   UNL A   1      43.976  21.762  25.117  1.00  0.00     0.200 A 
ATOM     71  F   UNL A   1      45.057  23.374  23.785  1.00  0.00    -0.200 F 
ATOM     72  F   UNL A   1      44.290  20.800  24.238  1.00  0.00    -0.200 F 
ENDBRANCH  48  62
BRANCH  49  73
ATOM     73  C   UNL A   1      41.207  31.667  32.741  1.00  0.00     0.064 A 
ATOM     74  C   UNL A   1      40.263  30.898  33.466  1.00  0.00     0.173 A 
ATOM     75  C   UNL A   1      41.351  33.014  33.098  1.00  0.00     0.173 A 
ATOM     76  F   UNL A   1      40.085  29.601  33.164  1.00  0.00    -0.203 F 
ATOM     77  C   UNL A   1      39.689  31.383  34.640  1.00  0.00     0.198 A 
ATOM     78  C   UNL A   1      40.742  33.504  34.261  1.00  0.00     0.198 A 
ATOM     79  F   UNL A   1      42.246  33.787  32.470  1.00  0.00    -0.203 F 
ATOM     80  F   UNL A   1      39.008  30.550  35.442  1.00  0.00    -0.200 F 
ATOM     81  C   UNL A   1      39.967  32.671  35.060  1.00  0.00     0.200 A 
ATOM     82  F   UNL A   1      41.044  34.734  34.699  1.00  0.00    -0.200 F 
ATOM     83  F   UNL A   1      39.579  33.077  36.277  1.00  0.00    -0.200 F 
ENDBRANCH  49  73
BRANCH  61  84
ATOM     84  C   UNL A   1      45.163  25.507  33.174  1.00  0.00     0.064 A 
ATOM     85  C   UNL A   1      44.283  24.710  33.921  1.00  0.00     0.173 A 
ATOM     86  C   UNL A   1      46.538  25.234  33.340  1.00  0.00     0.173 A 
ATOM     87  F   UNL A   1      42.966  24.968  33.933  1.00  0.00    -0.203 F 
ATOM     88  C   UNL A   1      44.737  23.628  34.672  1.00  0.00     0.198 A 
ATOM     89  C   UNL A   1      46.992  24.202  34.155  1.00  0.00     0.198 A 
ATOM     90  F   UNL A   1      47.484  25.924  32.690  1.00  0.00    -0.203 F 
ATOM     91  F   UNL A   1      43.850  22.822  35.272  1.00  0.00    -0.200 F 
ATOM     92  C   UNL A   1      46.091  23.374  34.789  1.00  0.00     0.200 A 
ATOM     93  F   UNL A   1      48.310  24.000  34.295  1.00  0.00    -0.200 F 
ATOM     94  F   UNL A   1      46.526  22.330  35.506  1.00  0.00    -0.200 F 
ENDBRANCH  61  84
ENDBRANCH  35  36
ENDBRANCH  28  30
ENDBRANCH  27  28
ENDBRANCH  26  27
ENDBRANCH  25  26
ENDBRANCH  24  25
ENDBRANCH   1  24
TORSDOF 17
ENDMDL
MODEL 3
REMARK VINA RESULT:     -11.6      3.074      4.649
REMARK SMILES Cc1ccc(Nc2c(F)cccc2I)c(CC(=O)OCCOCCOC(=O)c2ccc(-c3c4nc(c(-c5c(F)c(F)c(F)c(F)c5F)c5ccc([nH]5)c(-c5c(F)c(F)c(F)c(F)c5F)c5nc(c(-c6c(F)c(F)c(F)c(F)c6F)c6ccc3[nH]6)C=C5)C=C4)cc2)c1
REMARK SMILES IDX 21 1 20 2 19 3 17 4 18 5 16 6 15 7 1 8 2 9 3 10 91 11 4 12
REMARK SMILES IDX 5 13 6 14 7 16 8 17 13 18 9 19 10 20 12 21 14 22 11 23 22 24
REMARK SMILES IDX 23 25 24 26 25 27 26 28 27 29 28 30 29 31 90 32 30 33 89 34
REMARK SMILES IDX 31 35 32 36 33 37 83 38 34 39 88 40 82 41 84 42 35 43 87 44
REMARK SMILES IDX 81 45 80 46 36 48 68 49 48 50 67 51 49 52 52 53 66 54 85 55
REMARK SMILES IDX 50 56 51 57 65 59 86 60 53 61 37 62 38 63 46 64 39 65 40 66
REMARK SMILES IDX 44 67 47 68 41 69 42 70 45 71 43 72 69 73 70 74 78 75 71 76
REMARK SMILES IDX 72 77 76 78 79 79 73 80 74 81 77 82 75 83 54 84 55 85 63 86
REMARK SMILES IDX 56 87 57 88 61 89 64 90 58 91 59 92 62 93 60 94
REMARK H PARENT 6 15 84 47 52 58
REMARK Flexibility Score: inf
ROOT
ATOM      1  C   UNL A   1      37.031  22.967  23.851  1.00  0.00     0.202 C 
ENDROOT
BRANCH   1   2
ATOM      2  C   UNL A   1      35.591  23.072  23.376  1.00  0.00     0.261 C 
BRANCH   2   3
ATOM      3  O   UNL A   1      35.198  24.416  23.159  1.00  0.00    -0.463 OA
BRANCH   3   4
ATOM      4  C   UNL A   1      34.004  24.853  23.665  1.00  0.00     0.310 C 
ATOM      5  O   UNL A   1      33.020  25.193  23.027  1.00  0.00    -0.252 OA
BRANCH   4   6
ATOM      6  C   UNL A   1      34.075  24.894  25.184  1.00  0.00     0.160 C 
BRANCH   6   7
ATOM      7  C   UNL A   1      32.989  24.013  25.780  1.00  0.00    -0.013 A 
ATOM      8  C   UNL A   1      32.154  20.354  25.035  1.00  0.00     0.044 C 
ATOM      9  C   UNL A   1      32.042  21.756  25.558  1.00  0.00    -0.051 A 
ATOM     10  C   UNL A   1      30.840  22.249  26.048  1.00  0.00     0.005 A 
ATOM     11  C   UNL A   1      33.130  22.623  25.505  1.00  0.00     0.009 A 
ATOM     12  C   UNL A   1      30.714  23.601  26.406  1.00  0.00     0.026 A 
ATOM     13  C   UNL A   1      31.765  24.528  26.252  1.00  0.00     0.042 A 
BRANCH  13  14
ATOM     14  N   UNL A   1      31.563  25.915  26.502  1.00  0.00    -0.352 N 
ATOM     15  H   UNL A   1      31.605  26.186  27.448  1.00  0.00     0.167 HD
BRANCH  14  16
ATOM     16  C   UNL A   1      31.308  26.963  25.577  1.00  0.00     0.088 A 
ATOM     17  C   UNL A   1      30.208  26.896  24.706  1.00  0.00     0.147 A 
ATOM     18  C   UNL A   1      32.178  28.057  25.389  1.00  0.00     0.040 A 
ATOM     19  F   UNL A   1      29.246  25.982  24.912  1.00  0.00    -0.205 F 
ATOM     20  C   UNL A   1      30.038  27.773  23.639  1.00  0.00     0.041 A 
ATOM     21  C   UNL A   1      32.066  28.892  24.262  1.00  0.00     0.017 A 
ATOM     22  I   UNL A   1      33.546  28.695  26.848  1.00  0.00    -0.042 I 
ATOM     23  C   UNL A   1      31.000  28.740  23.380  1.00  0.00     0.004 A 
ENDBRANCH  14  16
ENDBRANCH  13  14
ENDBRANCH   6   7
ENDBRANCH   4   6
ENDBRANCH   3   4
ENDBRANCH   2   3
ENDBRANCH   1   2
BRANCH   1  24
ATOM     24  O   UNL A   1      37.114  21.989  24.870  1.00  0.00    -0.374 OA
BRANCH  24  25
ATOM     25  C   UNL A   1      37.699  22.446  26.077  1.00  0.00     0.202 C 
BRANCH  25  26
ATOM     26  C   UNL A   1      39.164  22.020  26.175  1.00  0.00     0.261 C 
BRANCH  26  27
ATOM     27  O   UNL A   1      40.060  23.144  26.003  1.00  0.00    -0.460 OA
BRANCH  27  28
ATOM     28  C   UNL A   1      40.494  23.727  27.153  1.00  0.00     0.338 C 
ATOM     29  O   UNL A   1      41.130  23.151  28.029  1.00  0.00    -0.246 OA
BRANCH  28  30
ATOM     30  C   UNL A   1      39.976  25.116  27.265  1.00  0.00     0.060 A 
ATOM     31  C   UNL A   1      40.528  26.126  26.459  1.00  0.00     0.016 A 
ATOM     32  C   UNL A   1      39.206  25.448  28.376  1.00  0.00     0.016 A 
ATOM     33  C   UNL A   1      40.487  27.456  26.893  1.00  0.00     0.010 A 
ATOM     34  C   UNL A   1      39.293  26.734  28.869  1.00  0.00     0.010 A 
ATOM     35  C   UNL A   1      39.979  27.734  28.161  1.00  0.00    -0.014 A 
BRANCH  35  36
ATOM     36  C   UNL A   1      40.249  28.954  28.927  1.00  0.00     0.031 A 
ATOM     37  C   UNL A   1      39.215  30.003  29.028  1.00  0.00     0.074 A 
ATOM     38  C   UNL A   1      41.314  29.010  29.761  1.00  0.00     0.049 A 
ATOM     39  N   UNL A   1      39.399  31.113  29.652  1.00  0.00    -0.248 NA
ATOM     40  C   UNL A   1      37.903  29.938  28.388  1.00  0.00     0.031 C 
ATOM     41  C   UNL A   1      41.472  29.804  30.985  1.00  0.00     0.029 A 
ATOM     42  N   UNL A   1      42.518  28.330  29.693  1.00  0.00    -0.354 N 
ATOM     43  C   UNL A   1      38.182  31.716  29.809  1.00  0.00     0.074 A 
ATOM     44  C   UNL A   1      37.313  31.031  28.887  1.00  0.00     0.031 C 
ATOM     45  C   UNL A   1      42.744  29.729  31.409  1.00  0.00     0.029 A 
ATOM     46  C   UNL A   1      43.500  29.036  30.386  1.00  0.00     0.049 A 
ATOM     47  H   UNL A   1      42.660  27.475  29.224  1.00  0.00     0.167 HD
ATOM     48  C   UNL A   1      38.063  32.652  30.790  1.00  0.00     0.037 A 
ATOM     49  C   UNL A   1      44.628  29.496  29.772  1.00  0.00     0.037 A 
ATOM     50  C   UNL A   1      39.386  33.027  31.322  1.00  0.00     0.049 A 
ATOM     51  C   UNL A   1      44.537  31.007  29.602  1.00  0.00     0.074 A 
ATOM     52  C   UNL A   1      40.072  32.848  32.509  1.00  0.00     0.029 A 
ATOM     53  N   UNL A   1      40.336  33.476  30.413  1.00  0.00    -0.354 N 
ATOM     54  N   UNL A   1      43.585  31.725  30.137  1.00  0.00    -0.248 NA
ATOM     55  C   UNL A   1      45.429  31.823  28.787  1.00  0.00     0.031 C 
ATOM     56  C   UNL A   1      41.460  33.136  32.263  1.00  0.00     0.029 A 
ATOM     57  C   UNL A   1      41.608  33.540  30.945  1.00  0.00     0.049 A 
ATOM     58  H   UNL A   1      40.123  33.723  29.484  1.00  0.00     0.167 HD
ATOM     59  C   UNL A   1      43.647  33.013  29.712  1.00  0.00     0.074 A 
ATOM     60  C   UNL A   1      44.826  33.027  28.855  1.00  0.00     0.031 C 
ATOM     61  C   UNL A   1      42.715  33.948  30.076  1.00  0.00     0.037 A 
BRANCH  48  62
ATOM     62  C   UNL A   1      36.754  33.172  31.337  1.00  0.00     0.064 A 
ATOM     63  C   UNL A   1      35.911  33.951  30.516  1.00  0.00     0.173 A 
ATOM     64  C   UNL A   1      36.308  33.025  32.669  1.00  0.00     0.173 A 
ATOM     65  F   UNL A   1      36.221  34.187  29.233  1.00  0.00    -0.203 F 
ATOM     66  C   UNL A   1      34.727  34.528  30.989  1.00  0.00     0.198 A 
ATOM     67  C   UNL A   1      35.095  33.553  33.124  1.00  0.00     0.198 A 
ATOM     68  F   UNL A   1      37.043  32.419  33.607  1.00  0.00    -0.203 F 
ATOM     69  F   UNL A   1      33.992  35.300  30.176  1.00  0.00    -0.200 F 
ATOM     70  C   UNL A   1      34.310  34.316  32.288  1.00  0.00     0.200 A 
ATOM     71  F   UNL A   1      34.710  33.336  34.391  1.00  0.00    -0.200 F 
ATOM     72  F   UNL A   1      33.172  34.860  32.739  1.00  0.00    -0.200 F 
ENDBRANCH  48  62
BRANCH  49  73
ATOM     73  C   UNL A   1      45.158  28.460  28.832  1.00  0.00     0.064 A 
ATOM     74  C   UNL A   1      45.705  27.311  29.455  1.00  0.00     0.173 A 
ATOM     75  C   UNL A   1      44.604  28.298  27.556  1.00  0.00     0.173 A 
ATOM     76  F   UNL A   1      46.248  27.410  30.680  1.00  0.00    -0.203 F 
ATOM     77  C   UNL A   1      45.477  26.036  28.940  1.00  0.00     0.198 A 
ATOM     78  C   UNL A   1      44.412  27.015  27.028  1.00  0.00     0.198 A 
ATOM     79  F   UNL A   1      44.047  29.340  26.925  1.00  0.00    -0.203 F 
ATOM     80  F   UNL A   1      45.776  24.955  29.678  1.00  0.00    -0.200 F 
ATOM     81  C   UNL A   1      44.790  25.888  27.749  1.00  0.00     0.200 A 
ATOM     82  F   UNL A   1      43.705  26.862  25.899  1.00  0.00    -0.200 F 
ATOM     83  F   UNL A   1      44.400  24.671  27.347  1.00  0.00    -0.200 F 
ENDBRANCH  49  73
BRANCH  61  84
ATOM     84  C   UNL A   1      42.791  35.361  29.577  1.00  0.00     0.064 A 
ATOM     85  C   UNL A   1      43.404  36.375  30.327  1.00  0.00     0.173 A 
ATOM     86  C   UNL A   1      42.206  35.762  28.356  1.00  0.00     0.173 A 
ATOM     87  F   UNL A   1      43.878  36.125  31.558  1.00  0.00    -0.203 F 
ATOM     88  C   UNL A   1      43.543  37.669  29.830  1.00  0.00     0.198 A 
ATOM     89  C   UNL A   1      42.277  37.074  27.899  1.00  0.00     0.198 A 
ATOM     90  F   UNL A   1      41.585  34.895  27.546  1.00  0.00    -0.203 F 
ATOM     91  F   UNL A   1      44.241  38.575  30.530  1.00  0.00    -0.200 F 
ATOM     92  C   UNL A   1      42.980  38.018  28.616  1.00  0.00     0.200 A 
ATOM     93  F   UNL A   1      41.685  37.406  26.743  1.00  0.00    -0.200 F 
ATOM     94  F   UNL A   1      43.120  39.260  28.137  1.00  0.00    -0.200 F 
ENDBRANCH  61  84
ENDBRANCH  35  36
ENDBRANCH  28  30
ENDBRANCH  27  28
ENDBRANCH  26  27
ENDBRANCH  25  26
ENDBRANCH  24  25
ENDBRANCH   1  24
TORSDOF 17
ENDMDL
