MODEL 1
REMARK VINA RESULT:      -9.6      0.000      0.000
REMARK SMILES O=C(Cc1ccc(=O)n(C(F)F)c1)OCCOCCOC(=O)c1ccc(-c2c3nc(c(-c4c(F)c(F)c(F)c(F)c4F)c4ccc([nH]4)c(-c4c(F)c(F)c(F)c(F)c4F)c4nc(c(-c5c(F)c(F)c(F)c(F)c5F)c5ccc2[nH]5)C=C4)C=C3)cc1
REMARK SMILES IDX 17 1 16 2 15 3 14 4 2 5 1 6 3 7 4 8 5 9 13 10 6 11 9 12 7 13
REMARK SMILES IDX 8 14 10 15 11 16 12 17 18 18 19 19 20 20 21 21 22 22 23 23
REMARK SMILES IDX 24 24 85 25 25 26 84 27 26 28 27 29 28 30 78 31 29 32 83 33
REMARK SMILES IDX 77 34 79 35 30 36 82 37 76 38 75 39 31 41 63 42 43 43 62 44
REMARK SMILES IDX 44 45 47 46 61 47 80 48 45 49 46 50 60 52 81 53 48 54 32 55
REMARK SMILES IDX 33 56 41 57 34 58 35 59 39 60 42 61 36 62 37 63 40 64 38 65
REMARK SMILES IDX 64 66 65 67 73 68 66 69 67 70 71 71 74 72 68 73 69 74 72 75
REMARK SMILES IDX 70 76 49 77 50 78 58 79 51 80 52 81 56 82 59 83 53 84 54 85
REMARK SMILES IDX 57 86 55 87
REMARK H PARENT 79 40 47 51
REMARK Flexibility Score: inf
ROOT
ATOM      1  O   UNL A   1      32.727  34.616  29.517  1.00  0.00    -0.374 OA
ENDROOT
BRANCH   1   2
ATOM      2  C   UNL A   1      33.026  35.693  30.390  1.00  0.00     0.202 C 
BRANCH   2   3
ATOM      3  C   UNL A   1      33.506  35.362  31.803  1.00  0.00     0.261 C 
BRANCH   3   4
ATOM      4  O   UNL A   1      34.781  34.714  31.910  1.00  0.00    -0.463 OA
BRANCH   4   5
ATOM      5  C   UNL A   1      34.943  33.370  31.999  1.00  0.00     0.310 C 
ATOM      6  O   UNL A   1      33.971  32.648  32.214  1.00  0.00    -0.252 OA
BRANCH   5   7
ATOM      7  C   UNL A   1      36.342  32.787  31.897  1.00  0.00     0.159 C 
BRANCH   7   8
ATOM      8  C   UNL A   1      36.933  32.089  33.091  1.00  0.00    -0.020 A 
ATOM      9  C   UNL A   1      37.346  30.700  33.050  1.00  0.00     0.011 A 
ATOM     10  C   UNL A   1      37.129  32.777  34.229  1.00  0.00     0.099 A 
ATOM     11  C   UNL A   1      38.037  30.158  34.060  1.00  0.00     0.072 A 
ATOM     12  N   UNL A   1      37.761  32.214  35.322  1.00  0.00    -0.258 N 
ATOM     13  C   UNL A   1      38.295  30.935  35.301  1.00  0.00     0.254 A 
ATOM     14  O   UNL A   1      38.926  30.401  36.205  1.00  0.00    -0.269 OA
BRANCH  12  15
ATOM     15  C   UNL A   1      37.808  32.923  36.575  1.00  0.00     0.451 C 
ATOM     16  F   UNL A   1      38.739  33.907  36.519  1.00  0.00    -0.185 F 
ATOM     17  F   UNL A   1      36.617  33.487  36.886  1.00  0.00    -0.185 F 
ENDBRANCH  12  15
ENDBRANCH   7   8
ENDBRANCH   5   7
ENDBRANCH   4   5
ENDBRANCH   3   4
ENDBRANCH   2   3
ENDBRANCH   1   2
BRANCH   1  18
ATOM     18  C   UNL A   1      33.713  34.237  28.552  1.00  0.00     0.202 C 
BRANCH  18  19
ATOM     19  C   UNL A   1      33.592  32.840  27.937  1.00  0.00     0.261 C 
BRANCH  19  20
ATOM     20  O   UNL A   1      34.462  31.905  28.595  1.00  0.00    -0.460 OA
BRANCH  20  21
ATOM     21  C   UNL A   1      34.592  30.695  28.001  1.00  0.00     0.338 C 
ATOM     22  O   UNL A   1      33.847  30.183  27.182  1.00  0.00    -0.246 OA
BRANCH  21  23
ATOM     23  C   UNL A   1      35.933  30.173  28.318  1.00  0.00     0.060 A 
ATOM     24  C   UNL A   1      36.967  30.262  27.386  1.00  0.00     0.016 A 
ATOM     25  C   UNL A   1      36.148  29.597  29.578  1.00  0.00     0.016 A 
ATOM     26  C   UNL A   1      38.235  29.798  27.732  1.00  0.00     0.010 A 
ATOM     27  C   UNL A   1      37.414  29.129  29.920  1.00  0.00     0.010 A 
ATOM     28  C   UNL A   1      38.470  29.250  29.006  1.00  0.00    -0.014 A 
BRANCH  28  29
ATOM     29  C   UNL A   1      39.855  28.952  29.433  1.00  0.00     0.031 A 
ATOM     30  C   UNL A   1      40.595  29.846  30.374  1.00  0.00     0.074 A 
ATOM     31  C   UNL A   1      40.437  27.846  28.937  1.00  0.00     0.049 A 
ATOM     32  N   UNL A   1      41.790  29.691  30.885  1.00  0.00    -0.248 NA
ATOM     33  C   UNL A   1      39.910  31.077  30.791  1.00  0.00     0.031 C 
ATOM     34  C   UNL A   1      39.805  26.922  27.993  1.00  0.00     0.029 A 
ATOM     35  N   UNL A   1      41.674  27.304  29.162  1.00  0.00    -0.354 N 
ATOM     36  C   UNL A   1      41.995  30.790  31.706  1.00  0.00     0.074 A 
ATOM     37  C   UNL A   1      40.822  31.633  31.579  1.00  0.00     0.031 C 
ATOM     38  C   UNL A   1      40.645  25.908  27.747  1.00  0.00     0.029 A 
ATOM     39  C   UNL A   1      41.884  26.127  28.489  1.00  0.00     0.049 A 
ATOM     40  H   UNL A   1      42.346  27.718  29.750  1.00  0.00     0.167 HD
ATOM     41  C   UNL A   1      43.057  31.052  32.506  1.00  0.00     0.037 A 
ATOM     42  C   UNL A   1      42.954  25.313  28.475  1.00  0.00     0.037 A 
ATOM     43  C   UNL A   1      44.230  30.216  32.596  1.00  0.00     0.049 A 
ATOM     44  C   UNL A   1      44.144  25.662  29.321  1.00  0.00     0.074 A 
ATOM     45  C   UNL A   1      45.353  30.386  33.386  1.00  0.00     0.029 A 
ATOM     46  N   UNL A   1      44.437  29.058  31.856  1.00  0.00    -0.354 N 
ATOM     47  N   UNL A   1      44.309  26.672  30.138  1.00  0.00    -0.248 NA
ATOM     48  C   UNL A   1      45.294  24.753  29.244  1.00  0.00     0.031 C 
ATOM     49  C   UNL A   1      46.263  29.366  33.083  1.00  0.00     0.029 A 
ATOM     50  C   UNL A   1      45.684  28.523  32.148  1.00  0.00     0.049 A 
ATOM     51  H   UNL A   1      43.794  28.675  31.217  1.00  0.00     0.167 HD
ATOM     52  C   UNL A   1      45.576  26.519  30.683  1.00  0.00     0.074 A 
ATOM     53  C   UNL A   1      46.122  25.298  30.124  1.00  0.00     0.031 C 
ATOM     54  C   UNL A   1      46.228  27.320  31.564  1.00  0.00     0.037 A 
BRANCH  41  55
ATOM     55  C   UNL A   1      42.999  32.298  33.345  1.00  0.00     0.064 A 
ATOM     56  C   UNL A   1      43.544  33.510  32.893  1.00  0.00     0.173 A 
ATOM     57  C   UNL A   1      42.360  32.295  34.594  1.00  0.00     0.173 A 
ATOM     58  F   UNL A   1      44.175  33.568  31.710  1.00  0.00    -0.203 F 
ATOM     59  C   UNL A   1      43.479  34.663  33.673  1.00  0.00     0.198 A 
ATOM     60  C   UNL A   1      42.268  33.457  35.356  1.00  0.00     0.198 A 
ATOM     61  F   UNL A   1      41.815  31.167  35.072  1.00  0.00    -0.203 F 
ATOM     62  F   UNL A   1      44.052  35.795  33.241  1.00  0.00    -0.200 F 
ATOM     63  C   UNL A   1      42.836  34.638  34.900  1.00  0.00     0.200 A 
ATOM     64  F   UNL A   1      41.633  33.435  36.537  1.00  0.00    -0.200 F 
ATOM     65  F   UNL A   1      42.767  35.749  35.646  1.00  0.00    -0.200 F 
ENDBRANCH  41  55
BRANCH  42  66
ATOM     66  C   UNL A   1      42.910  24.071  27.664  1.00  0.00     0.064 A 
ATOM     67  C   UNL A   1      42.521  22.854  28.240  1.00  0.00     0.173 A 
ATOM     68  C   UNL A   1      43.192  24.084  26.290  1.00  0.00     0.173 A 
ATOM     69  F   UNL A   1      42.256  22.790  29.553  1.00  0.00    -0.203 F 
ATOM     70  C   UNL A   1      42.415  21.697  27.473  1.00  0.00     0.198 A 
ATOM     71  C   UNL A   1      43.059  22.932  25.519  1.00  0.00     0.198 A 
ATOM     72  F   UNL A   1      43.560  25.226  25.691  1.00  0.00    -0.203 F 
ATOM     73  F   UNL A   1      42.062  20.542  28.052  1.00  0.00    -0.200 F 
ATOM     74  C   UNL A   1      42.673  21.740  26.110  1.00  0.00     0.200 A 
ATOM     75  F   UNL A   1      43.289  22.982  24.200  1.00  0.00    -0.200 F 
ATOM     76  F   UNL A   1      42.548  20.631  25.368  1.00  0.00    -0.200 F 
ENDBRANCH  42  66
BRANCH  54  77
ATOM     77  C   UNL A   1      47.615  26.903  31.967  1.00  0.00     0.064 A 
ATOM     78  C   UNL A   1      47.832  25.981  33.003  1.00  0.00     0.173 A 
ATOM     79  C   UNL A   1      48.738  27.407  31.295  1.00  0.00     0.173 A 
ATOM     80  F   UNL A   1      46.793  25.481  33.689  1.00  0.00    -0.203 F 
ATOM     81  C   UNL A   1      49.121  25.606  33.371  1.00  0.00     0.198 A 
ATOM     82  C   UNL A   1      50.024  27.002  31.641  1.00  0.00     0.198 A 
ATOM     83  F   UNL A   1      48.591  28.286  30.292  1.00  0.00    -0.203 F 
ATOM     84  F   UNL A   1      49.303  24.768  34.402  1.00  0.00    -0.200 F 
ATOM     85  C   UNL A   1      50.215  26.109  32.685  1.00  0.00     0.200 A 
ATOM     86  F   UNL A   1      51.080  27.477  30.967  1.00  0.00    -0.200 F 
ATOM     87  F   UNL A   1      51.456  25.741  33.036  1.00  0.00    -0.200 F 
ENDBRANCH  54  77
ENDBRANCH  28  29
ENDBRANCH  21  23
ENDBRANCH  20  21
ENDBRANCH  19  20
ENDBRANCH  18  19
ENDBRANCH   1  18
TORSDOF 16
ENDMDL
MODEL 2
REMARK VINA RESULT:      -9.3      4.399      6.974
REMARK SMILES O=C(Cc1ccc(=O)n(C(F)F)c1)OCCOCCOC(=O)c1ccc(-c2c3nc(c(-c4c(F)c(F)c(F)c(F)c4F)c4ccc([nH]4)c(-c4c(F)c(F)c(F)c(F)c4F)c4nc(c(-c5c(F)c(F)c(F)c(F)c5F)c5ccc2[nH]5)C=C4)C=C3)cc1
REMARK SMILES IDX 17 1 16 2 15 3 14 4 2 5 1 6 3 7 4 8 5 9 13 10 6 11 9 12 7 13
REMARK SMILES IDX 8 14 10 15 11 16 12 17 18 18 19 19 20 20 21 21 22 22 23 23
REMARK SMILES IDX 24 24 85 25 25 26 84 27 26 28 27 29 28 30 78 31 29 32 83 33
REMARK SMILES IDX 77 34 79 35 30 36 82 37 76 38 75 39 31 41 63 42 43 43 62 44
REMARK SMILES IDX 44 45 47 46 61 47 80 48 45 49 46 50 60 52 81 53 48 54 32 55
REMARK SMILES IDX 33 56 41 57 34 58 35 59 39 60 42 61 36 62 37 63 40 64 38 65
REMARK SMILES IDX 64 66 65 67 73 68 66 69 67 70 71 71 74 72 68 73 69 74 72 75
REMARK SMILES IDX 70 76 49 77 50 78 58 79 51 80 52 81 56 82 59 83 53 84 54 85
REMARK SMILES IDX 57 86 55 87
REMARK H PARENT 79 40 47 51
REMARK Flexibility Score: inf
ROOT
ATOM      1  O   UNL A   1      31.907  30.359  25.853  1.00  0.00    -0.374 OA
ENDROOT
BRANCH   1   2
ATOM      2  C   UNL A   1      31.455  29.173  26.484  1.00  0.00     0.202 C 
BRANCH   2   3
ATOM      3  C   UNL A   1      32.502  28.165  26.955  1.00  0.00     0.261 C 
BRANCH   3   4
ATOM      4  O   UNL A   1      32.321  26.807  26.532  1.00  0.00    -0.463 OA
BRANCH   4   5
ATOM      5  C   UNL A   1      32.485  26.384  25.253  1.00  0.00     0.310 C 
ATOM      6  O   UNL A   1      33.614  26.172  24.817  1.00  0.00    -0.252 OA
BRANCH   5   7
ATOM      7  C   UNL A   1      31.264  26.246  24.359  1.00  0.00     0.159 C 
BRANCH   7   8
ATOM      8  C   UNL A   1      30.771  27.449  23.602  1.00  0.00    -0.020 A 
ATOM      9  C   UNL A   1      31.664  28.310  22.852  1.00  0.00     0.011 A 
ATOM     10  C   UNL A   1      29.455  27.721  23.577  1.00  0.00     0.099 A 
ATOM     11  C   UNL A   1      31.183  29.257  22.038  1.00  0.00     0.072 A 
ATOM     12  N   UNL A   1      28.938  28.751  22.814  1.00  0.00    -0.258 N 
ATOM     13  C   UNL A   1      29.722  29.528  21.975  1.00  0.00     0.254 A 
ATOM     14  O   UNL A   1      29.322  30.408  21.222  1.00  0.00    -0.269 OA
BRANCH  12  15
ATOM     15  C   UNL A   1      27.550  29.118  22.938  1.00  0.00     0.451 C 
ATOM     16  F   UNL A   1      26.847  28.095  23.486  1.00  0.00    -0.185 F 
ATOM     17  F   UNL A   1      27.380  30.212  23.717  1.00  0.00    -0.185 F 
ENDBRANCH  12  15
ENDBRANCH   7   8
ENDBRANCH   5   7
ENDBRANCH   4   5
ENDBRANCH   3   4
ENDBRANCH   2   3
ENDBRANCH   1   2
BRANCH   1  18
ATOM     18  C   UNL A   1      31.082  31.525  25.938  1.00  0.00     0.202 C 
BRANCH  18  19
ATOM     19  C   UNL A   1      31.625  32.711  26.739  1.00  0.00     0.261 C 
BRANCH  19  20
ATOM     20  O   UNL A   1      32.762  32.328  27.530  1.00  0.00    -0.460 OA
BRANCH  20  21
ATOM     21  C   UNL A   1      33.679  33.297  27.762  1.00  0.00     0.338 C 
ATOM     22  O   UNL A   1      33.505  34.504  27.754  1.00  0.00    -0.246 OA
BRANCH  21  23
ATOM     23  C   UNL A   1      34.901  32.655  28.277  1.00  0.00     0.060 A 
ATOM     24  C   UNL A   1      36.096  33.370  28.359  1.00  0.00     0.016 A 
ATOM     25  C   UNL A   1      34.832  31.318  28.693  1.00  0.00     0.016 A 
ATOM     26  C   UNL A   1      37.224  32.747  28.891  1.00  0.00     0.010 A 
ATOM     27  C   UNL A   1      35.963  30.696  29.219  1.00  0.00     0.010 A 
ATOM     28  C   UNL A   1      37.157  31.417  29.343  1.00  0.00    -0.014 A 
BRANCH  28  29
ATOM     29  C   UNL A   1      38.296  30.838  30.089  1.00  0.00     0.031 A 
ATOM     30  C   UNL A   1      38.570  31.206  31.511  1.00  0.00     0.074 A 
ATOM     31  C   UNL A   1      39.090  29.968  29.440  1.00  0.00     0.049 A 
ATOM     32  N   UNL A   1      39.493  30.742  32.316  1.00  0.00    -0.248 NA
ATOM     33  C   UNL A   1      37.703  32.231  32.106  1.00  0.00     0.031 C 
ATOM     34  C   UNL A   1      38.919  29.563  28.044  1.00  0.00     0.029 A 
ATOM     35  N   UNL A   1      40.184  29.260  29.864  1.00  0.00    -0.354 N 
ATOM     36  C   UNL A   1      39.305  31.398  33.523  1.00  0.00     0.074 A 
ATOM     37  C   UNL A   1      38.215  32.334  33.326  1.00  0.00     0.031 C 
ATOM     38  C   UNL A   1      39.852  28.651  27.737  1.00  0.00     0.029 A 
ATOM     39  C   UNL A   1      40.704  28.433  28.902  1.00  0.00     0.049 A 
ATOM     40  H   UNL A   1      40.558  29.338  30.771  1.00  0.00     0.167 HD
ATOM     41  C   UNL A   1      39.969  31.213  34.690  1.00  0.00     0.037 A 
ATOM     42  C   UNL A   1      41.750  27.590  28.954  1.00  0.00     0.037 A 
ATOM     43  C   UNL A   1      41.073  30.299  34.858  1.00  0.00     0.049 A 
ATOM     44  C   UNL A   1      42.510  27.453  30.241  1.00  0.00     0.074 A 
ATOM     45  C   UNL A   1      41.803  30.028  36.002  1.00  0.00     0.029 A 
ATOM     46  N   UNL A   1      41.615  29.515  33.846  1.00  0.00    -0.354 N 
ATOM     47  N   UNL A   1      42.292  28.034  31.396  1.00  0.00    -0.248 NA
ATOM     48  C   UNL A   1      43.660  26.540  30.232  1.00  0.00     0.031 C 
ATOM     49  C   UNL A   1      42.822  29.126  35.670  1.00  0.00     0.029 A 
ATOM     50  C   UNL A   1      42.692  28.787  34.333  1.00  0.00     0.049 A 
ATOM     51  H   UNL A   1      41.285  29.483  32.920  1.00  0.00     0.167 HD
ATOM     52  C   UNL A   1      43.268  27.551  32.256  1.00  0.00     0.074 A 
ATOM     53  C   UNL A   1      44.060  26.605  31.495  1.00  0.00     0.031 C 
ATOM     54  C   UNL A   1      43.489  27.867  33.557  1.00  0.00     0.037 A 
BRANCH  41  55
ATOM     55  C   UNL A   1      39.523  32.023  35.875  1.00  0.00     0.064 A 
ATOM     56  C   UNL A   1      38.471  31.593  36.699  1.00  0.00     0.173 A 
ATOM     57  C   UNL A   1      40.174  33.217  36.217  1.00  0.00     0.173 A 
ATOM     58  F   UNL A   1      37.807  30.463  36.414  1.00  0.00    -0.203 F 
ATOM     59  C   UNL A   1      38.069  32.345  37.802  1.00  0.00     0.198 A 
ATOM     60  C   UNL A   1      39.791  33.949  37.339  1.00  0.00     0.198 A 
ATOM     61  F   UNL A   1      41.191  33.671  35.469  1.00  0.00    -0.203 F 
ATOM     62  F   UNL A   1      37.028  31.938  38.543  1.00  0.00    -0.200 F 
ATOM     63  C   UNL A   1      38.733  33.517  38.125  1.00  0.00     0.200 A 
ATOM     64  F   UNL A   1      40.444  35.076  37.658  1.00  0.00    -0.200 F 
ATOM     65  F   UNL A   1      38.350  34.235  39.189  1.00  0.00    -0.200 F 
ENDBRANCH  41  55
BRANCH  42  66
ATOM     66  C   UNL A   1      42.092  26.783  27.756  1.00  0.00     0.064 A 
ATOM     67  C   UNL A   1      43.031  27.247  26.825  1.00  0.00     0.173 A 
ATOM     68  C   UNL A   1      41.540  25.510  27.551  1.00  0.00     0.173 A 
ATOM     69  F   UNL A   1      43.574  28.465  26.973  1.00  0.00    -0.203 F 
ATOM     70  C   UNL A   1      43.405  26.469  25.733  1.00  0.00     0.198 A 
ATOM     71  C   UNL A   1      41.935  24.722  26.473  1.00  0.00     0.198 A 
ATOM     72  F   UNL A   1      40.644  25.019  28.418  1.00  0.00    -0.203 F 
ATOM     73  F   UNL A   1      44.289  26.945  24.846  1.00  0.00    -0.200 F 
ATOM     74  C   UNL A   1      42.865  25.202  25.564  1.00  0.00     0.200 A 
ATOM     75  F   UNL A   1      41.427  23.491  26.325  1.00  0.00    -0.200 F 
ATOM     76  F   UNL A   1      43.244  24.444  24.525  1.00  0.00    -0.200 F 
ENDBRANCH  42  66
BRANCH  54  77
ATOM     77  C   UNL A   1      44.646  27.188  34.236  1.00  0.00     0.064 A 
ATOM     78  C   UNL A   1      44.498  25.945  34.871  1.00  0.00     0.173 A 
ATOM     79  C   UNL A   1      45.923  27.771  34.230  1.00  0.00     0.173 A 
ATOM     80  F   UNL A   1      43.295  25.352  34.920  1.00  0.00    -0.203 F 
ATOM     81  C   UNL A   1      45.575  25.328  35.500  1.00  0.00     0.198 A 
ATOM     82  C   UNL A   1      47.006  27.133  34.829  1.00  0.00     0.198 A 
ATOM     83  F   UNL A   1      46.125  28.955  33.632  1.00  0.00    -0.203 F 
ATOM     84  F   UNL A   1      45.394  24.169  36.150  1.00  0.00    -0.200 F 
ATOM     85  C   UNL A   1      46.830  25.917  35.472  1.00  0.00     0.200 A 
ATOM     86  F   UNL A   1      48.221  27.697  34.787  1.00  0.00    -0.200 F 
ATOM     87  F   UNL A   1      47.867  25.319  36.073  1.00  0.00    -0.200 F 
ENDBRANCH  54  77
ENDBRANCH  28  29
ENDBRANCH  21  23
ENDBRANCH  20  21
ENDBRANCH  19  20
ENDBRANCH  18  19
ENDBRANCH   1  18
TORSDOF 16
ENDMDL
MODEL 3
REMARK VINA RESULT:      -9.3      5.762      9.529
REMARK SMILES O=C(Cc1ccc(=O)n(C(F)F)c1)OCCOCCOC(=O)c1ccc(-c2c3nc(c(-c4c(F)c(F)c(F)c(F)c4F)c4ccc([nH]4)c(-c4c(F)c(F)c(F)c(F)c4F)c4nc(c(-c5c(F)c(F)c(F)c(F)c5F)c5ccc2[nH]5)C=C4)C=C3)cc1
REMARK SMILES IDX 17 1 16 2 15 3 14 4 2 5 1 6 3 7 4 8 5 9 13 10 6 11 9 12 7 13
REMARK SMILES IDX 8 14 10 15 11 16 12 17 18 18 19 19 20 20 21 21 22 22 23 23
REMARK SMILES IDX 24 24 85 25 25 26 84 27 26 28 27 29 28 30 78 31 29 32 83 33
REMARK SMILES IDX 77 34 79 35 30 36 82 37 76 38 75 39 31 41 63 42 43 43 62 44
REMARK SMILES IDX 44 45 47 46 61 47 80 48 45 49 46 50 60 52 81 53 48 54 32 55
REMARK SMILES IDX 33 56 41 57 34 58 35 59 39 60 42 61 36 62 37 63 40 64 38 65
REMARK SMILES IDX 64 66 65 67 73 68 66 69 67 70 71 71 74 72 68 73 69 74 72 75
REMARK SMILES IDX 70 76 49 77 50 78 58 79 51 80 52 81 56 82 59 83 53 84 54 85
REMARK SMILES IDX 57 86 55 87
REMARK H PARENT 79 40 47 51
REMARK Flexibility Score: inf
ROOT
ATOM      1  O   UNL A   1      37.449  21.117  24.862  1.00  0.00    -0.374 OA
ENDROOT
BRANCH   1   2
ATOM      2  C   UNL A   1      36.094  21.278  25.246  1.00  0.00     0.202 C 
BRANCH   2   3
ATOM      3  C   UNL A   1      35.658  22.636  25.794  1.00  0.00     0.261 C 
BRANCH   3   4
ATOM      4  O   UNL A   1      35.277  23.624  24.828  1.00  0.00    -0.463 OA
BRANCH   4   5
ATOM      5  C   UNL A   1      34.971  23.341  23.536  1.00  0.00     0.310 C 
ATOM      6  O   UNL A   1      35.871  23.162  22.718  1.00  0.00    -0.252 OA
BRANCH   5   7
ATOM      7  C   UNL A   1      33.512  23.320  23.112  1.00  0.00     0.159 C 
BRANCH   7   8
ATOM      8  C   UNL A   1      32.442  23.329  24.169  1.00  0.00    -0.020 A 
ATOM      9  C   UNL A   1      31.985  22.116  24.818  1.00  0.00     0.011 A 
ATOM     10  C   UNL A   1      31.914  24.500  24.564  1.00  0.00     0.099 A 
ATOM     11  C   UNL A   1      31.173  22.170  25.881  1.00  0.00     0.072 A 
ATOM     12  N   UNL A   1      31.004  24.576  25.603  1.00  0.00    -0.258 N 
ATOM     13  C   UNL A   1      30.625  23.471  26.348  1.00  0.00     0.254 A 
ATOM     14  O   UNL A   1      29.880  23.476  27.321  1.00  0.00    -0.269 OA
BRANCH  12  15
ATOM     15  C   UNL A   1      30.337  25.820  25.890  1.00  0.00     0.451 C 
ATOM     16  F   UNL A   1      31.172  26.862  25.650  1.00  0.00    -0.185 F 
ATOM     17  F   UNL A   1      29.225  25.988  25.136  1.00  0.00    -0.185 F 
ENDBRANCH  12  15
ENDBRANCH   7   8
ENDBRANCH   5   7
ENDBRANCH   4   5
ENDBRANCH   3   4
ENDBRANCH   2   3
ENDBRANCH   1   2
BRANCH   1  18
ATOM     18  C   UNL A   1      38.003  19.797  24.877  1.00  0.00     0.202 C 
BRANCH  18  19
ATOM     19  C   UNL A   1      39.318  19.597  25.635  1.00  0.00     0.261 C 
BRANCH  19  20
ATOM     20  O   UNL A   1      39.490  20.599  26.651  1.00  0.00    -0.460 OA
BRANCH  20  21
ATOM     21  C   UNL A   1      40.707  20.644  27.240  1.00  0.00     0.338 C 
ATOM     22  O   UNL A   1      41.510  19.734  27.364  1.00  0.00    -0.246 OA
BRANCH  21  23
ATOM     23  C   UNL A   1      41.032  22.056  27.508  1.00  0.00     0.060 A 
ATOM     24  C   UNL A   1      41.981  22.394  28.474  1.00  0.00     0.016 A 
ATOM     25  C   UNL A   1      40.377  23.048  26.765  1.00  0.00     0.016 A 
ATOM     26  C   UNL A   1      42.297  23.737  28.674  1.00  0.00     0.010 A 
ATOM     27  C   UNL A   1      40.692  24.390  26.970  1.00  0.00     0.010 A 
ATOM     28  C   UNL A   1      41.672  24.738  27.909  1.00  0.00    -0.014 A 
BRANCH  28  29
ATOM     29  C   UNL A   1      42.160  26.133  27.984  1.00  0.00     0.031 A 
ATOM     30  C   UNL A   1      41.374  27.203  28.669  1.00  0.00     0.074 A 
ATOM     31  C   UNL A   1      43.341  26.413  27.404  1.00  0.00     0.049 A 
ATOM     32  N   UNL A   1      41.694  28.457  28.868  1.00  0.00    -0.248 NA
ATOM     33  C   UNL A   1      40.057  26.821  29.193  1.00  0.00     0.031 C 
ATOM     34  C   UNL A   1      44.171  25.442  26.690  1.00  0.00     0.029 A 
ATOM     35  N   UNL A   1      44.052  27.581  27.332  1.00  0.00    -0.354 N 
ATOM     36  C   UNL A   1      40.630  29.012  29.563  1.00  0.00     0.074 A 
ATOM     37  C   UNL A   1      39.631  27.971  29.701  1.00  0.00     0.031 C 
ATOM     38  C   UNL A   1      45.296  26.045  26.283  1.00  0.00     0.029 A 
ATOM     39  C   UNL A   1      45.251  27.450  26.678  1.00  0.00     0.049 A 
ATOM     40  H   UNL A   1      43.733  28.431  27.713  1.00  0.00     0.167 HD
ATOM     41  C   UNL A   1      40.517  30.268  30.058  1.00  0.00     0.037 A 
ATOM     42  C   UNL A   1      46.208  28.360  26.428  1.00  0.00     0.037 A 
ATOM     43  C   UNL A   1      41.510  31.301  29.884  1.00  0.00     0.049 A 
ATOM     44  C   UNL A   1      46.027  29.763  26.932  1.00  0.00     0.074 A 
ATOM     45  C   UNL A   1      41.497  32.601  30.358  1.00  0.00     0.029 A 
ATOM     46  N   UNL A   1      42.691  31.153  29.165  1.00  0.00    -0.354 N 
ATOM     47  N   UNL A   1      45.045  30.267  27.638  1.00  0.00    -0.248 NA
ATOM     48  C   UNL A   1      47.090  30.721  26.605  1.00  0.00     0.031 C 
ATOM     49  C   UNL A   1      42.638  33.256  29.878  1.00  0.00     0.029 A 
ATOM     50  C   UNL A   1      43.396  32.349  29.155  1.00  0.00     0.049 A 
ATOM     51  H   UNL A   1      42.983  30.322  28.726  1.00  0.00     0.167 HD
ATOM     52  C   UNL A   1      45.373  31.599  27.851  1.00  0.00     0.074 A 
ATOM     53  C   UNL A   1      46.662  31.813  27.224  1.00  0.00     0.031 C 
ATOM     54  C   UNL A   1      44.667  32.556  28.504  1.00  0.00     0.037 A 
BRANCH  41  55
ATOM     55  C   UNL A   1      39.271  30.597  30.831  1.00  0.00     0.064 A 
ATOM     56  C   UNL A   1      38.147  31.157  30.204  1.00  0.00     0.173 A 
ATOM     57  C   UNL A   1      39.180  30.315  32.202  1.00  0.00     0.173 A 
ATOM     58  F   UNL A   1      38.182  31.455  28.896  1.00  0.00    -0.203 F 
ATOM     59  C   UNL A   1      36.992  31.450  30.926  1.00  0.00     0.198 A 
ATOM     60  C   UNL A   1      38.012  30.579  32.914  1.00  0.00     0.198 A 
ATOM     61  F   UNL A   1      40.220  29.772  32.852  1.00  0.00    -0.203 F 
ATOM     62  F   UNL A   1      35.951  32.032  30.313  1.00  0.00    -0.200 F 
ATOM     63  C   UNL A   1      36.922  31.155  32.278  1.00  0.00     0.200 A 
ATOM     64  F   UNL A   1      37.941  30.280  34.220  1.00  0.00    -0.200 F 
ATOM     65  F   UNL A   1      35.808  31.431  32.969  1.00  0.00    -0.200 F 
ENDBRANCH  41  55
BRANCH  42  66
ATOM     66  C   UNL A   1      47.436  27.942  25.708  1.00  0.00     0.064 A 
ATOM     67  C   UNL A   1      48.602  27.614  26.413  1.00  0.00     0.173 A 
ATOM     68  C   UNL A   1      47.453  27.801  24.312  1.00  0.00     0.173 A 
ATOM     69  F   UNL A   1      48.638  27.748  27.747  1.00  0.00    -0.203 F 
ATOM     70  C   UNL A   1      49.739  27.160  25.750  1.00  0.00     0.198 A 
ATOM     71  C   UNL A   1      48.582  27.320  23.654  1.00  0.00     0.198 A 
ATOM     72  F   UNL A   1      46.360  28.095  23.595  1.00  0.00    -0.203 F 
ATOM     73  F   UNL A   1      50.847  26.872  26.445  1.00  0.00    -0.200 F 
ATOM     74  C   UNL A   1      49.724  27.002  24.371  1.00  0.00     0.200 A 
ATOM     75  F   UNL A   1      48.556  27.150  22.325  1.00  0.00    -0.200 F 
ATOM     76  F   UNL A   1      50.811  26.542  23.736  1.00  0.00    -0.200 F 
ENDBRANCH  42  66
BRANCH  54  77
ATOM     77  C   UNL A   1      45.274  33.930  28.561  1.00  0.00     0.064 A 
ATOM     78  C   UNL A   1      44.977  34.905  27.596  1.00  0.00     0.173 A 
ATOM     79  C   UNL A   1      46.140  34.288  29.606  1.00  0.00     0.173 A 
ATOM     80  F   UNL A   1      44.168  34.610  26.567  1.00  0.00    -0.203 F 
ATOM     81  C   UNL A   1      45.549  36.173  27.656  1.00  0.00     0.198 A 
ATOM     82  C   UNL A   1      46.681  35.569  29.683  1.00  0.00     0.198 A 
ATOM     83  F   UNL A   1      46.454  33.400  30.560  1.00  0.00    -0.203 F 
ATOM     84  F   UNL A   1      45.294  37.066  26.689  1.00  0.00    -0.200 F 
ATOM     85  C   UNL A   1      46.393  36.507  28.703  1.00  0.00     0.200 A 
ATOM     86  F   UNL A   1      47.485  35.895  30.704  1.00  0.00    -0.200 F 
ATOM     87  F   UNL A   1      46.938  37.730  28.764  1.00  0.00    -0.200 F 
ENDBRANCH  54  77
ENDBRANCH  28  29
ENDBRANCH  21  23
ENDBRANCH  20  21
ENDBRANCH  19  20
ENDBRANCH  18  19
ENDBRANCH   1  18
TORSDOF 16
ENDMDL
