MODEL 1
REMARK VINA RESULT:     -12.6      0.000      0.000
REMARK SMILES O=C(OCCOCCOC(=O)c1cc(-c2ccc(C(F)(F)F)cc2)cc([N+](=O)[O-])c1)c1ccc(-c2c3nc(c(-c4c(F)c(F)c(F)c(F)c4F)c4ccc([nH]4)c(-c4c(F)c(F)c(F)c(F)c4F)c4nc(c(-c5c(F)c(F)c(F)c(F)c5F)c5ccc2[nH]5)C=C4)C=C3)cc1
REMARK SMILES IDX 6 1 5 2 4 3 3 4 2 5 1 6 31 7 32 8 93 9 33 10 92 11 34 12
REMARK SMILES IDX 35 13 36 14 86 15 37 16 91 17 85 18 87 19 38 20 90 21 84 22
REMARK SMILES IDX 83 23 39 25 71 26 51 27 70 28 52 29 55 30 69 31 88 32 53 33
REMARK SMILES IDX 54 34 68 36 89 37 56 38 40 39 41 40 49 41 42 42 43 43 47 44
REMARK SMILES IDX 50 45 44 46 45 47 48 48 46 49 72 50 73 51 81 52 74 53 75 54
REMARK SMILES IDX 79 55 82 56 76 57 77 58 80 59 78 60 57 61 58 62 66 63 59 64
REMARK SMILES IDX 60 65 64 66 67 67 61 68 62 69 65 70 63 71 7 72 8 73 9 74
REMARK SMILES IDX 10 75 11 76 12 77 13 78 30 79 14 80 26 81 25 82 15 83 16 84
REMARK SMILES IDX 24 85 17 86 23 87 18 88 19 89 20 90 21 91 22 92 27 93 28 94
REMARK SMILES IDX 29 95
REMARK H PARENT 87 24 55 35
REMARK Flexibility Score: inf
ROOT
ATOM      1  O   UNL A   1      32.600  28.862  24.375  1.00  0.00    -0.374 OA
ENDROOT
BRANCH   1   2
ATOM      2  C   UNL A   1      31.451  29.151  25.171  1.00  0.00     0.202 C 
BRANCH   2   3
ATOM      3  C   UNL A   1      31.735  29.936  26.458  1.00  0.00     0.261 C 
BRANCH   3   4
ATOM      4  O   UNL A   1      32.868  30.806  26.288  1.00  0.00    -0.460 OA
BRANCH   4   5
ATOM      5  C   UNL A   1      33.446  31.617  27.208  1.00  0.00     0.338 C 
ATOM      6  O   UNL A   1      32.889  32.670  27.509  1.00  0.00    -0.246 OA
BRANCH   5   7
ATOM      7  C   UNL A   1      34.739  31.294  27.880  1.00  0.00     0.060 A 
ATOM      8  C   UNL A   1      35.068  30.028  28.354  1.00  0.00     0.016 A 
ATOM      9  C   UNL A   1      35.716  32.299  27.967  1.00  0.00     0.016 A 
ATOM     10  C   UNL A   1      36.272  29.763  28.963  1.00  0.00     0.010 A 
ATOM     11  C   UNL A   1      36.974  32.027  28.522  1.00  0.00     0.010 A 
ATOM     12  C   UNL A   1      37.244  30.751  29.026  1.00  0.00    -0.014 A 
BRANCH  12  13
ATOM     13  C   UNL A   1      38.479  30.370  29.726  1.00  0.00     0.031 A 
ATOM     14  C   UNL A   1      38.645  30.804  31.145  1.00  0.00     0.074 A 
ATOM     15  C   UNL A   1      39.276  29.445  29.160  1.00  0.00     0.049 A 
ATOM     16  N   UNL A   1      39.609  30.537  31.982  1.00  0.00    -0.248 NA
ATOM     17  C   UNL A   1      37.562  31.627  31.712  1.00  0.00     0.031 C 
ATOM     18  C   UNL A   1      39.067  28.853  27.831  1.00  0.00     0.029 A 
ATOM     19  N   UNL A   1      40.374  28.790  29.642  1.00  0.00    -0.354 N 
ATOM     20  C   UNL A   1      39.260  31.172  33.164  1.00  0.00     0.074 A 
ATOM     21  C   UNL A   1      38.005  31.851  32.939  1.00  0.00     0.031 C 
ATOM     22  C   UNL A   1      39.986  27.900  27.624  1.00  0.00     0.029 A 
ATOM     23  C   UNL A   1      40.898  27.877  28.758  1.00  0.00     0.049 A 
ATOM     24  H   UNL A   1      40.754  28.955  30.535  1.00  0.00     0.167 HD
ATOM     25  C   UNL A   1      39.944  31.179  34.331  1.00  0.00     0.037 A 
ATOM     26  C   UNL A   1      42.021  27.142  28.851  1.00  0.00     0.037 A 
ATOM     27  C   UNL A   1      41.194  30.493  34.507  1.00  0.00     0.049 A 
ATOM     28  C   UNL A   1      42.828  27.277  30.114  1.00  0.00     0.074 A 
ATOM     29  C   UNL A   1      42.044  30.502  35.595  1.00  0.00     0.029 A 
ATOM     30  N   UNL A   1      41.770  29.663  33.551  1.00  0.00    -0.354 N 
ATOM     31  N   UNL A   1      42.554  27.962  31.200  1.00  0.00    -0.248 NA
ATOM     32  C   UNL A   1      44.100  26.551  30.163  1.00  0.00     0.031 C 
ATOM     33  C   UNL A   1      43.158  29.717  35.278  1.00  0.00     0.029 A 
ATOM     34  C   UNL A   1      42.974  29.167  34.017  1.00  0.00     0.049 A 
ATOM     35  H   UNL A   1      41.380  29.460  32.670  1.00  0.00     0.167 HD
ATOM     36  C   UNL A   1      43.612  27.742  32.068  1.00  0.00     0.074 A 
ATOM     37  C   UNL A   1      44.512  26.827  31.392  1.00  0.00     0.031 C 
ATOM     38  C   UNL A   1      43.833  28.254  33.305  1.00  0.00     0.037 A 
BRANCH  25  39
ATOM     39  C   UNL A   1      39.382  32.007  35.445  1.00  0.00     0.064 A 
ATOM     40  C   UNL A   1      39.691  33.369  35.591  1.00  0.00     0.173 A 
ATOM     41  C   UNL A   1      38.549  31.418  36.409  1.00  0.00     0.173 A 
ATOM     42  F   UNL A   1      40.514  33.971  34.719  1.00  0.00    -0.203 F 
ATOM     43  C   UNL A   1      39.208  34.101  36.674  1.00  0.00     0.198 A 
ATOM     44  C   UNL A   1      38.044  32.161  37.473  1.00  0.00     0.198 A 
ATOM     45  F   UNL A   1      38.236  30.117  36.325  1.00  0.00    -0.203 F 
ATOM     46  F   UNL A   1      39.567  35.383  36.827  1.00  0.00    -0.200 F 
ATOM     47  C   UNL A   1      38.381  33.498  37.610  1.00  0.00     0.200 A 
ATOM     48  F   UNL A   1      37.246  31.575  38.376  1.00  0.00    -0.200 F 
ATOM     49  F   UNL A   1      37.922  34.203  38.653  1.00  0.00    -0.200 F 
ENDBRANCH  25  39
BRANCH  26  50
ATOM     50  C   UNL A   1      42.485  26.312  27.705  1.00  0.00     0.064 A 
ATOM     51  C   UNL A   1      42.083  24.979  27.547  1.00  0.00     0.173 A 
ATOM     52  C   UNL A   1      43.393  26.828  26.763  1.00  0.00     0.173 A 
ATOM     53  F   UNL A   1      41.233  24.426  28.425  1.00  0.00    -0.203 F 
ATOM     54  C   UNL A   1      42.597  24.187  26.519  1.00  0.00     0.198 A 
ATOM     55  C   UNL A   1      43.874  26.047  25.714  1.00  0.00     0.198 A 
ATOM     56  F   UNL A   1      43.818  28.096  26.861  1.00  0.00    -0.203 F 
ATOM     57  F   UNL A   1      42.250  22.895  26.435  1.00  0.00    -0.200 F 
ATOM     58  C   UNL A   1      43.489  24.722  25.602  1.00  0.00     0.200 A 
ATOM     59  F   UNL A   1      44.722  26.579  24.822  1.00  0.00    -0.200 F 
ATOM     60  F   UNL A   1      43.988  23.958  24.621  1.00  0.00    -0.200 F 
ENDBRANCH  26  50
BRANCH  38  61
ATOM     61  C   UNL A   1      45.081  27.798  34.001  1.00  0.00     0.064 A 
ATOM     62  C   UNL A   1      46.277  28.527  33.922  1.00  0.00     0.173 A 
ATOM     63  C   UNL A   1      45.069  26.628  34.775  1.00  0.00     0.173 A 
ATOM     64  F   UNL A   1      46.339  29.644  33.182  1.00  0.00    -0.203 F 
ATOM     65  C   UNL A   1      47.428  28.078  34.561  1.00  0.00     0.198 A 
ATOM     66  C   UNL A   1      46.211  26.204  35.444  1.00  0.00     0.198 A 
ATOM     67  F   UNL A   1      43.946  25.903  34.888  1.00  0.00    -0.203 F 
ATOM     68  F   UNL A   1      48.576  28.752  34.417  1.00  0.00    -0.200 F 
ATOM     69  C   UNL A   1      47.392  26.922  35.327  1.00  0.00     0.200 A 
ATOM     70  F   UNL A   1      46.170  25.098  36.200  1.00  0.00    -0.200 F 
ATOM     71  F   UNL A   1      48.500  26.494  35.946  1.00  0.00    -0.200 F 
ENDBRANCH  38  61
ENDBRANCH  12  13
ENDBRANCH   5   7
ENDBRANCH   4   5
ENDBRANCH   3   4
ENDBRANCH   2   3
ENDBRANCH   1   2
BRANCH   1  72
ATOM     72  C   UNL A   1      32.360  28.537  23.002  1.00  0.00     0.202 C 
BRANCH  72  73
ATOM     73  C   UNL A   1      33.609  27.877  22.415  1.00  0.00     0.261 C 
BRANCH  73  74
ATOM     74  O   UNL A   1      33.795  26.608  23.061  1.00  0.00    -0.460 OA
BRANCH  74  75
ATOM     75  C   UNL A   1      33.307  25.538  22.386  1.00  0.00     0.338 C 
ATOM     76  O   UNL A   1      33.398  25.293  21.195  1.00  0.00    -0.246 OA
BRANCH  75  77
ATOM     77  C   UNL A   1      32.809  24.579  23.393  1.00  0.00     0.067 A 
ATOM     78  C   UNL A   1      33.248  23.247  23.345  1.00  0.00     0.025 A 
ATOM     79  C   UNL A   1      31.939  25.007  24.397  1.00  0.00     0.101 A 
ATOM     80  C   UNL A   1      32.843  22.326  24.322  1.00  0.00    -0.011 A 
ATOM     81  C   UNL A   1      31.515  24.089  25.356  1.00  0.00     0.270 A 
ATOM     82  C   UNL A   1      31.975  22.764  25.337  1.00  0.00     0.094 A 
BRANCH  80  83
ATOM     83  C   UNL A   1      33.203  20.907  24.228  1.00  0.00    -0.018 A 
ATOM     84  C   UNL A   1      34.395  20.385  24.750  1.00  0.00     0.009 A 
ATOM     85  C   UNL A   1      32.301  20.026  23.616  1.00  0.00     0.009 A 
ATOM     86  C   UNL A   1      34.665  19.010  24.668  1.00  0.00     0.014 A 
ATOM     87  C   UNL A   1      32.567  18.659  23.532  1.00  0.00     0.014 A 
ATOM     88  C   UNL A   1      33.751  18.133  24.062  1.00  0.00     0.056 A 
BRANCH  88  89
ATOM     89  C   UNL A   1      34.032  16.651  23.986  1.00  0.00     0.416 C 
ATOM     90  F   UNL A   1      34.996  16.258  24.864  1.00  0.00    -0.166 F 
ATOM     91  F   UNL A   1      32.935  15.896  24.270  1.00  0.00    -0.166 F 
ATOM     92  F   UNL A   1      34.458  16.241  22.757  1.00  0.00    -0.166 F 
ENDBRANCH  88  89
ENDBRANCH  80  83
BRANCH  81  93
ATOM     93  N   UNL A   1      30.533  24.506  26.362  1.00  0.00     0.062 N 
ATOM     94  O   UNL A   1      30.202  25.699  26.380  1.00  0.00    -0.258 OA
ATOM     95  O   UNL A   1      30.109  23.643  27.142  1.00  0.00    -0.258 OA
ENDBRANCH  81  93
ENDBRANCH  75  77
ENDBRANCH  74  75
ENDBRANCH  73  74
ENDBRANCH  72  73
ENDBRANCH   1  72
TORSDOF 17
ENDMDL
MODEL 2
REMARK VINA RESULT:     -12.6      4.978     10.160
REMARK SMILES O=C(OCCOCCOC(=O)c1cc(-c2ccc(C(F)(F)F)cc2)cc([N+](=O)[O-])c1)c1ccc(-c2c3nc(c(-c4c(F)c(F)c(F)c(F)c4F)c4ccc([nH]4)c(-c4c(F)c(F)c(F)c(F)c4F)c4nc(c(-c5c(F)c(F)c(F)c(F)c5F)c5ccc2[nH]5)C=C4)C=C3)cc1
REMARK SMILES IDX 6 1 5 2 4 3 3 4 2 5 1 6 31 7 32 8 93 9 33 10 92 11 34 12
REMARK SMILES IDX 35 13 36 14 86 15 37 16 91 17 85 18 87 19 38 20 90 21 84 22
REMARK SMILES IDX 83 23 39 25 71 26 51 27 70 28 52 29 55 30 69 31 88 32 53 33
REMARK SMILES IDX 54 34 68 36 89 37 56 38 40 39 41 40 49 41 42 42 43 43 47 44
REMARK SMILES IDX 50 45 44 46 45 47 48 48 46 49 72 50 73 51 81 52 74 53 75 54
REMARK SMILES IDX 79 55 82 56 76 57 77 58 80 59 78 60 57 61 58 62 66 63 59 64
REMARK SMILES IDX 60 65 64 66 67 67 61 68 62 69 65 70 63 71 7 72 8 73 9 74
REMARK SMILES IDX 10 75 11 76 12 77 13 78 30 79 14 80 26 81 25 82 15 83 16 84
REMARK SMILES IDX 24 85 17 86 23 87 18 88 19 89 20 90 21 91 22 92 27 93 28 94
REMARK SMILES IDX 29 95
REMARK H PARENT 87 24 55 35
REMARK Flexibility Score: inf
ROOT
ATOM      1  O   UNL A   1      34.700  21.926  25.947  1.00  0.00    -0.374 OA
ENDROOT
BRANCH   1   2
ATOM      2  C   UNL A   1      35.228  20.905  25.101  1.00  0.00     0.202 C 
BRANCH   2   3
ATOM      3  C   UNL A   1      36.721  21.044  24.773  1.00  0.00     0.261 C 
BRANCH   3   4
ATOM      4  O   UNL A   1      37.387  21.858  25.754  1.00  0.00    -0.460 OA
BRANCH   4   5
ATOM      5  C   UNL A   1      38.694  21.834  26.114  1.00  0.00     0.338 C 
ATOM      6  O   UNL A   1      39.314  20.775  26.042  1.00  0.00    -0.246 OA
BRANCH   5   7
ATOM      7  C   UNL A   1      39.427  23.041  26.598  1.00  0.00     0.060 A 
ATOM      8  C   UNL A   1      39.164  24.333  26.156  1.00  0.00     0.016 A 
ATOM      9  C   UNL A   1      40.379  22.879  27.618  1.00  0.00     0.016 A 
ATOM     10  C   UNL A   1      39.855  25.424  26.629  1.00  0.00     0.010 A 
ATOM     11  C   UNL A   1      41.041  23.989  28.160  1.00  0.00     0.010 A 
ATOM     12  C   UNL A   1      40.777  25.265  27.653  1.00  0.00    -0.014 A 
BRANCH  12  13
ATOM     13  C   UNL A   1      41.480  26.491  28.058  1.00  0.00     0.031 A 
ATOM     14  C   UNL A   1      42.872  26.699  27.564  1.00  0.00     0.074 A 
ATOM     15  C   UNL A   1      40.765  27.478  28.630  1.00  0.00     0.049 A 
ATOM     16  N   UNL A   1      43.664  27.722  27.733  1.00  0.00    -0.248 NA
ATOM     17  C   UNL A   1      43.446  25.620  26.739  1.00  0.00     0.031 C 
ATOM     18  C   UNL A   1      39.342  27.391  28.985  1.00  0.00     0.029 A 
ATOM     19  N   UNL A   1      41.105  28.762  28.952  1.00  0.00    -0.354 N 
ATOM     20  C   UNL A   1      44.831  27.404  27.055  1.00  0.00     0.074 A 
ATOM     21  C   UNL A   1      44.656  26.089  26.482  1.00  0.00     0.031 C 
ATOM     22  C   UNL A   1      38.927  28.581  29.441  1.00  0.00     0.029 A 
ATOM     23  C   UNL A   1      40.069  29.482  29.496  1.00  0.00     0.049 A 
ATOM     24  H   UNL A   1      42.005  29.135  28.808  1.00  0.00     0.167 HD
ATOM     25  C   UNL A   1      45.946  28.158  26.931  1.00  0.00     0.037 A 
ATOM     26  C   UNL A   1      40.070  30.721  30.021  1.00  0.00     0.037 A 
ATOM     27  C   UNL A   1      46.077  29.460  27.524  1.00  0.00     0.049 A 
ATOM     28  C   UNL A   1      41.368  31.481  29.985  1.00  0.00     0.074 A 
ATOM     29  C   UNL A   1      47.182  30.287  27.570  1.00  0.00     0.029 A 
ATOM     30  N   UNL A   1      45.046  30.127  28.179  1.00  0.00    -0.354 N 
ATOM     31  N   UNL A   1      42.510  31.140  29.435  1.00  0.00    -0.248 NA
ATOM     32  C   UNL A   1      41.385  32.787  30.650  1.00  0.00     0.031 C 
ATOM     33  C   UNL A   1      46.834  31.432  28.295  1.00  0.00     0.029 A 
ATOM     34  C   UNL A   1      45.493  31.350  28.646  1.00  0.00     0.049 A 
ATOM     35  H   UNL A   1      44.132  29.780  28.293  1.00  0.00     0.167 HD
ATOM     36  C   UNL A   1      43.379  32.193  29.674  1.00  0.00     0.074 A 
ATOM     37  C   UNL A   1      42.616  33.200  30.387  1.00  0.00     0.031 C 
ATOM     38  C   UNL A   1      44.691  32.320  29.349  1.00  0.00     0.037 A 
BRANCH  25  39
ATOM     39  C   UNL A   1      47.103  27.550  26.201  1.00  0.00     0.064 A 
ATOM     40  C   UNL A   1      48.056  26.749  26.850  1.00  0.00     0.173 A 
ATOM     41  C   UNL A   1      47.284  27.804  24.833  1.00  0.00     0.173 A 
ATOM     42  F   UNL A   1      47.952  26.507  28.165  1.00  0.00    -0.203 F 
ATOM     43  C   UNL A   1      49.160  26.249  26.161  1.00  0.00     0.198 A 
ATOM     44  C   UNL A   1      48.372  27.278  24.142  1.00  0.00     0.198 A 
ATOM     45  F   UNL A   1      46.411  28.576  24.169  1.00  0.00    -0.203 F 
ATOM     46  F   UNL A   1      50.090  25.540  26.815  1.00  0.00    -0.200 F 
ATOM     47  C   UNL A   1      49.314  26.509  24.807  1.00  0.00     0.200 A 
ATOM     48  F   UNL A   1      48.518  27.532  22.833  1.00  0.00    -0.200 F 
ATOM     49  F   UNL A   1      50.378  26.032  24.148  1.00  0.00    -0.200 F 
ENDBRANCH  25  39
BRANCH  26  50
ATOM     50  C   UNL A   1      38.858  31.264  30.695  1.00  0.00     0.064 A 
ATOM     51  C   UNL A   1      37.985  32.147  30.046  1.00  0.00     0.173 A 
ATOM     52  C   UNL A   1      38.575  30.945  32.035  1.00  0.00     0.173 A 
ATOM     53  F   UNL A   1      38.214  32.503  28.773  1.00  0.00    -0.203 F 
ATOM     54  C   UNL A   1      36.903  32.718  30.719  1.00  0.00     0.198 A 
ATOM     55  C   UNL A   1      37.472  31.485  32.693  1.00  0.00     0.198 A 
ATOM     56  F   UNL A   1      39.375  30.108  32.712  1.00  0.00    -0.203 F 
ATOM     57  F   UNL A   1      36.127  33.615  30.096  1.00  0.00    -0.200 F 
ATOM     58  C   UNL A   1      36.646  32.384  32.041  1.00  0.00     0.200 A 
ATOM     59  F   UNL A   1      37.222  31.143  33.965  1.00  0.00    -0.200 F 
ATOM     60  F   UNL A   1      35.613  32.940  32.688  1.00  0.00    -0.200 F 
ENDBRANCH  26  50
BRANCH  38  61
ATOM     61  C   UNL A   1      45.353  33.608  29.739  1.00  0.00     0.064 A 
ATOM     62  C   UNL A   1      46.008  33.756  30.971  1.00  0.00     0.173 A 
ATOM     63  C   UNL A   1      45.349  34.698  28.857  1.00  0.00     0.173 A 
ATOM     64  F   UNL A   1      46.024  32.745  31.853  1.00  0.00    -0.203 F 
ATOM     65  C   UNL A   1      46.601  34.964  31.321  1.00  0.00     0.198 A 
ATOM     66  C   UNL A   1      45.977  35.891  29.194  1.00  0.00     0.198 A 
ATOM     67  F   UNL A   1      44.743  34.600  27.663  1.00  0.00    -0.203 F 
ATOM     68  F   UNL A   1      47.161  35.107  32.529  1.00  0.00    -0.200 F 
ATOM     69  C   UNL A   1      46.592  36.027  30.430  1.00  0.00     0.200 A 
ATOM     70  F   UNL A   1      45.984  36.910  28.324  1.00  0.00    -0.200 F 
ATOM     71  F   UNL A   1      47.167  37.188  30.767  1.00  0.00    -0.200 F 
ENDBRANCH  38  61
ENDBRANCH  12  13
ENDBRANCH   5   7
ENDBRANCH   4   5
ENDBRANCH   3   4
ENDBRANCH   2   3
ENDBRANCH   1   2
BRANCH   1  72
ATOM     72  C   UNL A   1      34.247  21.513  27.240  1.00  0.00     0.202 C 
BRANCH  72  73
ATOM     73  C   UNL A   1      33.091  22.411  27.682  1.00  0.00     0.261 C 
BRANCH  73  74
ATOM     74  O   UNL A   1      32.151  22.501  26.599  1.00  0.00    -0.460 OA
BRANCH  74  75
ATOM     75  C   UNL A   1      31.381  23.617  26.594  1.00  0.00     0.338 C 
ATOM     76  O   UNL A   1      30.374  23.841  27.243  1.00  0.00    -0.246 OA
BRANCH  75  77
ATOM     77  C   UNL A   1      32.099  24.636  25.801  1.00  0.00     0.067 A 
ATOM     78  C   UNL A   1      32.368  25.887  26.379  1.00  0.00     0.025 A 
ATOM     79  C   UNL A   1      32.531  24.341  24.508  1.00  0.00     0.101 A 
ATOM     80  C   UNL A   1      33.101  26.855  25.677  1.00  0.00    -0.011 A 
ATOM     81  C   UNL A   1      33.239  25.309  23.797  1.00  0.00     0.270 A 
ATOM     82  C   UNL A   1      33.543  26.549  24.378  1.00  0.00     0.094 A 
BRANCH  80  83
ATOM     83  C   UNL A   1      33.298  28.204  26.218  1.00  0.00    -0.018 A 
ATOM     84  C   UNL A   1      32.261  29.142  26.326  1.00  0.00     0.009 A 
ATOM     85  C   UNL A   1      34.572  28.562  26.678  1.00  0.00     0.009 A 
ATOM     86  C   UNL A   1      32.500  30.404  26.892  1.00  0.00     0.014 A 
ATOM     87  C   UNL A   1      34.814  29.816  27.240  1.00  0.00     0.014 A 
ATOM     88  C   UNL A   1      33.779  30.751  27.360  1.00  0.00     0.056 A 
BRANCH  88  89
ATOM     89  C   UNL A   1      34.035  32.102  27.983  1.00  0.00     0.416 C 
ATOM     90  F   UNL A   1      34.026  32.058  29.344  1.00  0.00    -0.166 F 
ATOM     91  F   UNL A   1      35.245  32.618  27.632  1.00  0.00    -0.166 F 
ATOM     92  F   UNL A   1      33.114  33.045  27.635  1.00  0.00    -0.166 F 
ENDBRANCH  88  89
ENDBRANCH  80  83
BRANCH  81  93
ATOM     93  N   UNL A   1      33.621  25.040  22.408  1.00  0.00     0.062 N 
ATOM     94  O   UNL A   1      33.902  23.873  22.105  1.00  0.00    -0.258 OA
ATOM     95  O   UNL A   1      33.654  26.001  21.627  1.00  0.00    -0.258 OA
ENDBRANCH  81  93
ENDBRANCH  75  77
ENDBRANCH  74  75
ENDBRANCH  73  74
ENDBRANCH  72  73
ENDBRANCH   1  72
TORSDOF 17
ENDMDL
MODEL 3
REMARK VINA RESULT:     -12.3      5.040      9.984
REMARK SMILES O=C(OCCOCCOC(=O)c1cc(-c2ccc(C(F)(F)F)cc2)cc([N+](=O)[O-])c1)c1ccc(-c2c3nc(c(-c4c(F)c(F)c(F)c(F)c4F)c4ccc([nH]4)c(-c4c(F)c(F)c(F)c(F)c4F)c4nc(c(-c5c(F)c(F)c(F)c(F)c5F)c5ccc2[nH]5)C=C4)C=C3)cc1
REMARK SMILES IDX 6 1 5 2 4 3 3 4 2 5 1 6 31 7 32 8 93 9 33 10 92 11 34 12
REMARK SMILES IDX 35 13 36 14 86 15 37 16 91 17 85 18 87 19 38 20 90 21 84 22
REMARK SMILES IDX 83 23 39 25 71 26 51 27 70 28 52 29 55 30 69 31 88 32 53 33
REMARK SMILES IDX 54 34 68 36 89 37 56 38 40 39 41 40 49 41 42 42 43 43 47 44
REMARK SMILES IDX 50 45 44 46 45 47 48 48 46 49 72 50 73 51 81 52 74 53 75 54
REMARK SMILES IDX 79 55 82 56 76 57 77 58 80 59 78 60 57 61 58 62 66 63 59 64
REMARK SMILES IDX 60 65 64 66 67 67 61 68 62 69 65 70 63 71 7 72 8 73 9 74
REMARK SMILES IDX 10 75 11 76 12 77 13 78 30 79 14 80 26 81 25 82 15 83 16 84
REMARK SMILES IDX 24 85 17 86 23 87 18 88 19 89 20 90 21 91 22 92 27 93 28 94
REMARK SMILES IDX 29 95
REMARK H PARENT 87 24 55 35
REMARK Flexibility Score: inf
ROOT
ATOM      1  O   UNL A   1      34.325  21.704  25.242  1.00  0.00    -0.374 OA
ENDROOT
BRANCH   1   2
ATOM      2  C   UNL A   1      35.333  20.696  25.174  1.00  0.00     0.202 C 
BRANCH   2   3
ATOM      3  C   UNL A   1      36.722  21.195  24.755  1.00  0.00     0.261 C 
BRANCH   3   4
ATOM      4  O   UNL A   1      37.415  21.778  25.872  1.00  0.00    -0.460 OA
BRANCH   4   5
ATOM      5  C   UNL A   1      38.752  21.826  26.097  1.00  0.00     0.338 C 
ATOM      6  O   UNL A   1      39.432  20.829  25.865  1.00  0.00    -0.246 OA
BRANCH   5   7
ATOM      7  C   UNL A   1      39.447  23.040  26.617  1.00  0.00     0.060 A 
ATOM      8  C   UNL A   1      39.125  24.339  26.234  1.00  0.00     0.016 A 
ATOM      9  C   UNL A   1      40.425  22.875  27.611  1.00  0.00     0.016 A 
ATOM     10  C   UNL A   1      39.781  25.436  26.739  1.00  0.00     0.010 A 
ATOM     11  C   UNL A   1      41.054  23.988  28.186  1.00  0.00     0.010 A 
ATOM     12  C   UNL A   1      40.730  25.273  27.738  1.00  0.00    -0.014 A 
BRANCH  12  13
ATOM     13  C   UNL A   1      41.392  26.507  28.180  1.00  0.00     0.031 A 
ATOM     14  C   UNL A   1      42.803  26.740  27.754  1.00  0.00     0.074 A 
ATOM     15  C   UNL A   1      40.635  27.481  28.720  1.00  0.00     0.049 A 
ATOM     16  N   UNL A   1      43.570  27.775  27.964  1.00  0.00    -0.248 NA
ATOM     17  C   UNL A   1      43.433  25.674  26.954  1.00  0.00     0.031 C 
ATOM     18  C   UNL A   1      39.198  27.369  29.006  1.00  0.00     0.029 A 
ATOM     19  N   UNL A   1      40.939  28.769  29.062  1.00  0.00    -0.354 N 
ATOM     20  C   UNL A   1      44.772  27.478  27.342  1.00  0.00     0.074 A 
ATOM     21  C   UNL A   1      44.647  26.163  26.757  1.00  0.00     0.031 C 
ATOM     22  C   UNL A   1      38.743  28.551  29.446  1.00  0.00     0.029 A 
ATOM     23  C   UNL A   1      39.866  29.470  29.559  1.00  0.00     0.049 A 
ATOM     24  H   UNL A   1      41.838  29.157  28.963  1.00  0.00     0.167 HD
ATOM     25  C   UNL A   1      45.879  28.251  27.274  1.00  0.00     0.037 A 
ATOM     26  C   UNL A   1      39.821  30.706  30.087  1.00  0.00     0.037 A 
ATOM     27  C   UNL A   1      45.961  29.553  27.877  1.00  0.00     0.049 A 
ATOM     28  C   UNL A   1      41.107  31.487  30.116  1.00  0.00     0.074 A 
ATOM     29  C   UNL A   1      47.049  30.397  27.979  1.00  0.00     0.029 A 
ATOM     30  N   UNL A   1      44.889  30.200  28.483  1.00  0.00    -0.354 N 
ATOM     31  N   UNL A   1      42.280  31.167  29.620  1.00  0.00    -0.248 NA
ATOM     32  C   UNL A   1      41.071  32.791  30.785  1.00  0.00     0.031 C 
ATOM     33  C   UNL A   1      46.648  31.534  28.689  1.00  0.00     0.029 A 
ATOM     34  C   UNL A   1      45.294  31.428  28.976  1.00  0.00     0.049 A 
ATOM     35  H   UNL A   1      43.976  29.838  28.553  1.00  0.00     0.167 HD
ATOM     36  C   UNL A   1      43.120  32.233  29.904  1.00  0.00     0.074 A 
ATOM     37  C   UNL A   1      42.307  33.225  30.583  1.00  0.00     0.031 C 
ATOM     38  C   UNL A   1      44.443  32.382  29.642  1.00  0.00     0.037 A 
BRANCH  25  39
ATOM     39  C   UNL A   1      47.081  27.664  26.598  1.00  0.00     0.064 A 
ATOM     40  C   UNL A   1      47.342  27.866  25.234  1.00  0.00     0.173 A 
ATOM     41  C   UNL A   1      47.967  26.851  27.321  1.00  0.00     0.173 A 
ATOM     42  F   UNL A   1      46.505  28.603  24.489  1.00  0.00    -0.203 F 
ATOM     43  C   UNL A   1      48.431  27.255  24.616  1.00  0.00     0.198 A 
ATOM     44  C   UNL A   1      49.070  26.266  26.706  1.00  0.00     0.198 A 
ATOM     45  F   UNL A   1      47.755  26.613  28.624  1.00  0.00    -0.203 F 
ATOM     46  F   UNL A   1      48.625  27.411  23.299  1.00  0.00    -0.200 F 
ATOM     47  C   UNL A   1      49.297  26.461  25.352  1.00  0.00     0.200 A 
ATOM     48  F   UNL A   1      49.905  25.499  27.421  1.00  0.00    -0.200 F 
ATOM     49  F   UNL A   1      50.340  25.870  24.754  1.00  0.00    -0.200 F 
ENDBRANCH  25  39
BRANCH  26  50
ATOM     50  C   UNL A   1      38.570  31.227  30.704  1.00  0.00     0.064 A 
ATOM     51  C   UNL A   1      38.317  31.108  32.077  1.00  0.00     0.173 A 
ATOM     52  C   UNL A   1      37.569  31.817  29.913  1.00  0.00     0.173 A 
ATOM     53  F   UNL A   1      39.228  30.537  32.879  1.00  0.00    -0.203 F 
ATOM     54  C   UNL A   1      37.103  31.520  32.626  1.00  0.00     0.198 A 
ATOM     55  C   UNL A   1      36.372  32.265  30.469  1.00  0.00     0.198 A 
ATOM     56  F   UNL A   1      37.749  31.958  28.591  1.00  0.00    -0.203 F 
ATOM     57  F   UNL A   1      36.860  31.328  33.930  1.00  0.00    -0.200 F 
ATOM     58  C   UNL A   1      36.133  32.101  31.823  1.00  0.00     0.200 A 
ATOM     59  F   UNL A   1      35.448  32.841  29.687  1.00  0.00    -0.200 F 
ATOM     60  F   UNL A   1      34.964  32.488  32.350  1.00  0.00    -0.200 F 
ENDBRANCH  26  50
BRANCH  38  61
ATOM     61  C   UNL A   1      45.065  33.679  30.068  1.00  0.00     0.064 A 
ATOM     62  C   UNL A   1      45.083  34.799  29.224  1.00  0.00     0.173 A 
ATOM     63  C   UNL A   1      45.627  33.804  31.347  1.00  0.00     0.173 A 
ATOM     64  F   UNL A   1      44.570  34.721  27.987  1.00  0.00    -0.203 F 
ATOM     65  C   UNL A   1      45.680  35.987  29.631  1.00  0.00     0.198 A 
ATOM     66  C   UNL A   1      46.187  35.006  31.765  1.00  0.00     0.198 A 
ATOM     67  F   UNL A   1      45.625  32.763  32.193  1.00  0.00    -0.203 F 
ATOM     68  F   UNL A   1      45.748  37.023  28.785  1.00  0.00    -0.200 F 
ATOM     69  C   UNL A   1      46.224  36.092  30.903  1.00  0.00     0.200 A 
ATOM     70  F   UNL A   1      46.695  35.111  33.001  1.00  0.00    -0.200 F 
ATOM     71  F   UNL A   1      46.794  37.239  31.295  1.00  0.00    -0.200 F 
ENDBRANCH  38  61
ENDBRANCH  12  13
ENDBRANCH   5   7
ENDBRANCH   4   5
ENDBRANCH   3   4
ENDBRANCH   2   3
ENDBRANCH   1   2
BRANCH   1  72
ATOM     72  C   UNL A   1      33.236  21.459  26.136  1.00  0.00     0.202 C 
BRANCH  72  73
ATOM     73  C   UNL A   1      33.240  22.518  27.239  1.00  0.00     0.261 C 
BRANCH  73  74
ATOM     74  O   UNL A   1      33.059  23.805  26.629  1.00  0.00    -0.460 OA
BRANCH  74  75
ATOM     75  C   UNL A   1      31.771  24.149  26.376  1.00  0.00     0.338 C 
ATOM     76  O   UNL A   1      30.811  24.076  27.123  1.00  0.00    -0.246 OA
BRANCH  75  77
ATOM     77  C   UNL A   1      31.756  24.844  25.073  1.00  0.00     0.067 A 
ATOM     78  C   UNL A   1      31.062  26.059  24.954  1.00  0.00     0.025 A 
ATOM     79  C   UNL A   1      32.453  24.313  23.988  1.00  0.00     0.101 A 
ATOM     80  C   UNL A   1      31.079  26.776  23.749  1.00  0.00    -0.011 A 
ATOM     81  C   UNL A   1      32.452  25.010  22.780  1.00  0.00     0.270 A 
ATOM     82  C   UNL A   1      31.790  26.241  22.661  1.00  0.00     0.094 A 
BRANCH  80  83
ATOM     83  C   UNL A   1      30.273  27.989  23.572  1.00  0.00    -0.018 A 
ATOM     84  C   UNL A   1      28.972  27.970  23.051  1.00  0.00     0.009 A 
ATOM     85  C   UNL A   1      30.816  29.219  23.968  1.00  0.00     0.009 A 
ATOM     86  C   UNL A   1      28.232  29.159  22.945  1.00  0.00     0.014 A 
ATOM     87  C   UNL A   1      30.084  30.401  23.862  1.00  0.00     0.014 A 
ATOM     88  C   UNL A   1      28.780  30.385  23.354  1.00  0.00     0.056 A 
BRANCH  88  89
ATOM     89  C   UNL A   1      27.981  31.663  23.255  1.00  0.00     0.416 C 
ATOM     90  F   UNL A   1      26.933  31.691  24.124  1.00  0.00    -0.166 F 
ATOM     91  F   UNL A   1      28.727  32.768  23.530  1.00  0.00    -0.166 F 
ATOM     92  F   UNL A   1      27.446  31.874  22.018  1.00  0.00    -0.166 F 
ENDBRANCH  88  89
ENDBRANCH  80  83
BRANCH  81  93
ATOM     93  N   UNL A   1      33.106  24.417  21.610  1.00  0.00     0.062 N 
ATOM     94  O   UNL A   1      33.175  25.101  20.581  1.00  0.00    -0.258 OA
ATOM     95  O   UNL A   1      33.536  23.260  21.719  1.00  0.00    -0.258 OA
ENDBRANCH  81  93
ENDBRANCH  75  77
ENDBRANCH  74  75
ENDBRANCH  73  74
ENDBRANCH  72  73
ENDBRANCH   1  72
TORSDOF 17
ENDMDL
