MODEL 1
REMARK VINA RESULT:     -10.7      0.000      0.000
REMARK SMILES CCC[N@@H+](C1CC1)[C@@H]1CC[C@]([NH2+]C2CC2)(C(=O)OCCOCCOC(=O)c2ccc(-c3c4nc(c(-c5c(F)c(F)c(F)c(F)c5F)c5ccc([nH]5)c(-c5c(F)c(F)c(F)c(F)c5F)c5nc(c(-c6c(F)c(F)c(F)c(F)c6F)c6ccc3[nH]6)C=C5)C=C4)cc2)C1
REMARK SMILES IDX 20 1 19 2 18 3 16 4 17 5 11 6 8 7 9 8 90 9 10 10 4 11 3 13
REMARK SMILES IDX 2 14 1 15 5 16 6 17 7 18 12 19 13 22 14 23 15 24 21 25 22 26
REMARK SMILES IDX 23 27 24 28 25 29 26 30 27 31 28 32 89 33 29 34 88 35 30 36
REMARK SMILES IDX 31 37 32 38 82 39 33 40 87 41 81 42 83 43 34 44 86 45 80 46
REMARK SMILES IDX 79 47 35 49 67 50 47 51 66 52 48 53 51 54 65 55 84 56 49 57
REMARK SMILES IDX 50 58 64 60 85 61 52 62 36 63 37 64 45 65 38 66 39 67 43 68
REMARK SMILES IDX 46 69 40 70 41 71 44 72 42 73 68 74 69 75 77 76 70 77 71 78
REMARK SMILES IDX 75 79 78 80 72 81 73 82 76 83 74 84 53 85 54 86 62 87 55 88
REMARK SMILES IDX 56 89 60 90 63 91 57 92 58 93 61 94 59 95
REMARK H PARENT 4 12 12 20 12 21 83 48 51 59
REMARK Flexibility Score: inf
ROOT
ATOM      1  C   UNL A   1      35.511  23.857  24.713  1.00  0.00     0.202 C 
ENDROOT
BRANCH   1   2
ATOM      2  C   UNL A   1      34.352  24.563  25.426  1.00  0.00     0.261 C 
BRANCH   2   3
ATOM      3  O   UNL A   1      34.500  25.993  25.498  1.00  0.00    -0.459 OA
BRANCH   3   4
ATOM      4  C   UNL A   1      33.339  26.677  25.716  1.00  0.00     0.368 C 
ATOM      5  O   UNL A   1      32.478  26.310  26.512  1.00  0.00    -0.245 OA
BRANCH   4   6
ATOM      6  C   UNL A   1      33.238  28.018  24.940  1.00  0.00     0.200 C 
ATOM      7  C   UNL A   1      31.420  28.950  23.571  1.00  0.00     0.191 C 
ATOM      8  C   UNL A   1      32.282  28.043  22.685  1.00  0.00     0.072 C 
ATOM      9  C   UNL A   1      31.746  28.417  24.967  1.00  0.00     0.146 C 
ATOM     10  C   UNL A   1      33.550  27.706  23.463  1.00  0.00     0.087 C 
BRANCH   7  11
ATOM     11  N   UNL A   1      29.976  29.104  23.268  1.00  0.00    -0.330 N 
ATOM     12  H   UNL A   1      29.619  29.441  24.163  1.00  0.00     0.348 HD
BRANCH  11  13
ATOM     13  C   UNL A   1      29.596  30.148  22.297  1.00  0.00     0.262 C 
BRANCH  13  14
ATOM     14  C   UNL A   1      28.921  31.401  22.885  1.00  0.00     0.058 C 
ATOM     15  C   UNL A   1      27.651  31.192  23.690  1.00  0.00     0.010 C 
ENDBRANCH  13  14
ENDBRANCH  11  13
BRANCH  11  16
ATOM     16  C   UNL A   1      29.320  27.811  22.913  1.00  0.00     0.184 C 
ATOM     17  C   UNL A   1      29.246  26.658  23.875  1.00  0.00     0.071 C 
ATOM     18  C   UNL A   1      28.013  27.449  23.565  1.00  0.00     0.071 C 
ENDBRANCH  11  16
ENDBRANCH   7  11
BRANCH   6  19
ATOM     19  N   UNL A   1      34.116  29.079  25.514  1.00  0.00    -0.329 N 
ATOM     20  H   UNL A   1      33.863  29.963  25.074  1.00  0.00     0.347 HD
ATOM     21  H   UNL A   1      35.070  28.771  25.326  1.00  0.00     0.347 HD
BRANCH  19  22
ATOM     22  C   UNL A   1      34.047  29.269  26.978  1.00  0.00     0.183 C 
ATOM     23  C   UNL A   1      35.294  29.494  27.784  1.00  0.00     0.071 C 
ATOM     24  C   UNL A   1      34.338  30.626  27.555  1.00  0.00     0.071 C 
ENDBRANCH  19  22
ENDBRANCH   6  19
ENDBRANCH   4   6
ENDBRANCH   3   4
ENDBRANCH   2   3
ENDBRANCH   1   2
BRANCH   1  25
ATOM     25  O   UNL A   1      35.420  22.451  24.497  1.00  0.00    -0.374 OA
BRANCH  25  26
ATOM     26  C   UNL A   1      35.979  21.591  25.486  1.00  0.00     0.202 C 
BRANCH  26  27
ATOM     27  C   UNL A   1      37.275  20.849  25.140  1.00  0.00     0.261 C 
BRANCH  27  28
ATOM     28  O   UNL A   1      38.410  21.730  25.124  1.00  0.00    -0.460 OA
BRANCH  28  29
ATOM     29  C   UNL A   1      39.381  21.400  26.001  1.00  0.00     0.338 C 
ATOM     30  O   UNL A   1      40.029  20.359  26.038  1.00  0.00    -0.246 OA
BRANCH  29  31
ATOM     31  C   UNL A   1      39.725  22.553  26.848  1.00  0.00     0.060 A 
ATOM     32  C   UNL A   1      39.016  23.739  26.616  1.00  0.00     0.016 A 
ATOM     33  C   UNL A   1      40.775  22.517  27.767  1.00  0.00     0.016 A 
ATOM     34  C   UNL A   1      39.416  24.917  27.230  1.00  0.00     0.010 A 
ATOM     35  C   UNL A   1      41.184  23.707  28.380  1.00  0.00     0.010 A 
ATOM     36  C   UNL A   1      40.543  24.919  28.062  1.00  0.00    -0.014 A 
BRANCH  36  37
ATOM     37  C   UNL A   1      41.158  26.226  28.390  1.00  0.00     0.031 A 
ATOM     38  C   UNL A   1      42.554  26.504  27.899  1.00  0.00     0.074 A 
ATOM     39  C   UNL A   1      40.449  27.186  29.008  1.00  0.00     0.049 A 
ATOM     40  N   UNL A   1      43.262  27.601  27.976  1.00  0.00    -0.248 NA
ATOM     41  C   UNL A   1      43.243  25.392  27.224  1.00  0.00     0.031 C 
ATOM     42  C   UNL A   1      39.077  27.045  29.488  1.00  0.00     0.029 A 
ATOM     43  N   UNL A   1      40.787  28.478  29.319  1.00  0.00    -0.354 N 
ATOM     44  C   UNL A   1      44.472  27.312  27.358  1.00  0.00     0.074 A 
ATOM     45  C   UNL A   1      44.422  25.928  26.947  1.00  0.00     0.031 C 
ATOM     46  C   UNL A   1      38.685  28.209  30.031  1.00  0.00     0.029 A 
ATOM     47  C   UNL A   1      39.784  29.170  29.950  1.00  0.00     0.049 A 
ATOM     48  H   UNL A   1      41.665  28.872  29.111  1.00  0.00     0.167 HD
ATOM     49  C   UNL A   1      45.525  28.135  27.138  1.00  0.00     0.037 A 
ATOM     50  C   UNL A   1      39.762  30.436  30.408  1.00  0.00     0.037 A 
ATOM     51  C   UNL A   1      45.571  29.514  27.544  1.00  0.00     0.049 A 
ATOM     52  C   UNL A   1      40.967  31.315  30.195  1.00  0.00     0.074 A 
ATOM     53  C   UNL A   1      46.587  30.435  27.364  1.00  0.00     0.029 A 
ATOM     54  N   UNL A   1      44.551  30.168  28.219  1.00  0.00    -0.354 N 
ATOM     55  N   UNL A   1      42.097  31.043  29.587  1.00  0.00    -0.248 NA
ATOM     56  C   UNL A   1      40.885  32.685  30.720  1.00  0.00     0.031 C 
ATOM     57  C   UNL A   1      46.200  31.636  27.972  1.00  0.00     0.029 A 
ATOM     58  C   UNL A   1      44.921  31.477  28.483  1.00  0.00     0.049 A 
ATOM     59  H   UNL A   1      43.690  29.763  28.473  1.00  0.00     0.167 HD
ATOM     60  C   UNL A   1      42.848  32.211  29.633  1.00  0.00     0.074 A 
ATOM     61  C   UNL A   1      42.036  33.200  30.310  1.00  0.00     0.031 C 
ATOM     62  C   UNL A   1      44.096  32.446  29.157  1.00  0.00     0.037 A 
BRANCH  49  63
ATOM     63  C   UNL A   1      46.724  27.551  26.446  1.00  0.00     0.064 A 
ATOM     64  C   UNL A   1      46.868  27.601  25.051  1.00  0.00     0.173 A 
ATOM     65  C   UNL A   1      47.750  26.952  27.191  1.00  0.00     0.173 A 
ATOM     66  F   UNL A   1      45.906  28.147  24.292  1.00  0.00    -0.203 F 
ATOM     67  C   UNL A   1      47.983  27.047  24.426  1.00  0.00     0.198 A 
ATOM     68  C   UNL A   1      48.876  26.424  26.565  1.00  0.00     0.198 A 
ATOM     69  F   UNL A   1      47.662  26.879  28.528  1.00  0.00    -0.203 F 
ATOM     70  F   UNL A   1      48.075  27.062  23.089  1.00  0.00    -0.200 F 
ATOM     71  C   UNL A   1      48.988  26.465  25.184  1.00  0.00     0.200 A 
ATOM     72  F   UNL A   1      49.852  25.872  27.299  1.00  0.00    -0.200 F 
ATOM     73  F   UNL A   1      50.063  25.937  24.581  1.00  0.00    -0.200 F 
ENDBRANCH  49  63
BRANCH  50  74
ATOM     74  C   UNL A   1      38.557  30.951  31.109  1.00  0.00     0.064 A 
ATOM     75  C   UNL A   1      37.471  31.478  30.397  1.00  0.00     0.173 A 
ATOM     76  C   UNL A   1      38.477  30.943  32.509  1.00  0.00     0.173 A 
ATOM     77  F   UNL A   1      37.510  31.529  29.057  1.00  0.00    -0.203 F 
ATOM     78  C   UNL A   1      36.360  31.996  31.059  1.00  0.00     0.198 A 
ATOM     79  C   UNL A   1      37.353  31.435  33.169  1.00  0.00     0.198 A 
ATOM     80  F   UNL A   1      39.490  30.451  33.237  1.00  0.00    -0.203 F 
ATOM     81  F   UNL A   1      35.356  32.537  30.356  1.00  0.00    -0.200 F 
ATOM     82  C   UNL A   1      36.299  31.969  32.444  1.00  0.00     0.200 A 
ATOM     83  F   UNL A   1      37.294  31.396  34.507  1.00  0.00    -0.200 F 
ATOM     84  F   UNL A   1      35.229  32.465  33.080  1.00  0.00    -0.200 F 
ENDBRANCH  50  74
BRANCH  62  85
ATOM     85  C   UNL A   1      44.643  33.835  29.329  1.00  0.00     0.064 A 
ATOM     86  C   UNL A   1      45.404  34.193  30.450  1.00  0.00     0.173 A 
ATOM     87  C   UNL A   1      44.419  34.811  28.346  1.00  0.00     0.173 A 
ATOM     88  F   UNL A   1      45.635  33.299  31.423  1.00  0.00    -0.203 F 
ATOM     89  C   UNL A   1      45.888  35.491  30.601  1.00  0.00     0.198 A 
ATOM     90  C   UNL A   1      44.932  36.098  28.485  1.00  0.00     0.198 A 
ATOM     91  F   UNL A   1      43.706  34.517  27.249  1.00  0.00    -0.203 F 
ATOM     92  F   UNL A   1      46.561  35.827  31.709  1.00  0.00    -0.200 F 
ATOM     93  C   UNL A   1      45.657  36.439  29.616  1.00  0.00     0.200 A 
ATOM     94  F   UNL A   1      44.719  37.009  27.525  1.00  0.00    -0.200 F 
ATOM     95  F   UNL A   1      46.122  37.687  29.764  1.00  0.00    -0.200 F 
ENDBRANCH  62  85
ENDBRANCH  36  37
ENDBRANCH  29  31
ENDBRANCH  28  29
ENDBRANCH  27  28
ENDBRANCH  26  27
ENDBRANCH  25  26
ENDBRANCH   1  25
TORSDOF 20
ENDMDL
MODEL 2
REMARK VINA RESULT:     -10.3      0.800      7.325
REMARK SMILES CCC[N@@H+](C1CC1)[C@@H]1CC[C@]([NH2+]C2CC2)(C(=O)OCCOCCOC(=O)c2ccc(-c3c4nc(c(-c5c(F)c(F)c(F)c(F)c5F)c5ccc([nH]5)c(-c5c(F)c(F)c(F)c(F)c5F)c5nc(c(-c6c(F)c(F)c(F)c(F)c6F)c6ccc3[nH]6)C=C5)C=C4)cc2)C1
REMARK SMILES IDX 20 1 19 2 18 3 16 4 17 5 11 6 8 7 9 8 90 9 10 10 4 11 3 13
REMARK SMILES IDX 2 14 1 15 5 16 6 17 7 18 12 19 13 22 14 23 15 24 21 25 22 26
REMARK SMILES IDX 23 27 24 28 25 29 26 30 27 31 28 32 89 33 29 34 88 35 30 36
REMARK SMILES IDX 31 37 32 38 82 39 33 40 87 41 81 42 83 43 34 44 86 45 80 46
REMARK SMILES IDX 79 47 35 49 67 50 47 51 66 52 48 53 51 54 65 55 84 56 49 57
REMARK SMILES IDX 50 58 64 60 85 61 52 62 36 63 37 64 45 65 38 66 39 67 43 68
REMARK SMILES IDX 46 69 40 70 41 71 44 72 42 73 68 74 69 75 77 76 70 77 71 78
REMARK SMILES IDX 75 79 78 80 72 81 73 82 76 83 74 84 53 85 54 86 62 87 55 88
REMARK SMILES IDX 56 89 60 90 63 91 57 92 58 93 61 94 59 95
REMARK H PARENT 4 12 12 20 12 21 83 48 51 59
REMARK Flexibility Score: inf
ROOT
ATOM      1  C   UNL A   1      34.892  23.167  25.932  1.00  0.00     0.202 C 
ENDROOT
BRANCH   1   2
ATOM      2  C   UNL A   1      33.417  23.569  25.814  1.00  0.00     0.261 C 
BRANCH   2   3
ATOM      3  O   UNL A   1      33.180  24.973  26.032  1.00  0.00    -0.459 OA
BRANCH   3   4
ATOM      4  C   UNL A   1      33.357  25.758  24.930  1.00  0.00     0.368 C 
ATOM      5  O   UNL A   1      33.592  25.310  23.810  1.00  0.00    -0.245 OA
BRANCH   4   6
ATOM      6  C   UNL A   1      33.141  27.274  25.190  1.00  0.00     0.200 C 
ATOM      7  C   UNL A   1      31.412  28.816  24.367  1.00  0.00     0.191 C 
ATOM      8  C   UNL A   1      32.539  28.749  23.329  1.00  0.00     0.072 C 
ATOM      9  C   UNL A   1      31.616  27.506  25.129  1.00  0.00     0.146 C 
ATOM     10  C   UNL A   1      33.717  28.026  23.974  1.00  0.00     0.087 C 
BRANCH   7  11
ATOM     11  N   UNL A   1      30.024  29.083  23.917  1.00  0.00    -0.330 N 
ATOM     12  H   UNL A   1      29.550  29.229  24.809  1.00  0.00     0.348 HD
BRANCH  11  13
ATOM     13  C   UNL A   1      29.785  30.328  23.160  1.00  0.00     0.262 C 
BRANCH  13  14
ATOM     14  C   UNL A   1      28.991  31.422  23.897  1.00  0.00     0.058 C 
ATOM     15  C   UNL A   1      27.496  31.488  23.634  1.00  0.00     0.010 C 
ENDBRANCH  13  14
ENDBRANCH  11  13
BRANCH  11  16
ATOM     16  C   UNL A   1      29.417  27.924  23.199  1.00  0.00     0.184 C 
ATOM     17  C   UNL A   1      28.746  26.792  23.927  1.00  0.00     0.071 C 
ATOM     18  C   UNL A   1      27.919  27.784  23.170  1.00  0.00     0.071 C 
ENDBRANCH  11  16
ENDBRANCH   7  11
BRANCH   6  19
ATOM     19  N   UNL A   1      33.728  27.721  26.488  1.00  0.00    -0.329 N 
ATOM     20  H   UNL A   1      34.374  26.996  26.802  1.00  0.00     0.347 HD
ATOM     21  H   UNL A   1      32.931  27.873  27.107  1.00  0.00     0.347 HD
BRANCH  19  22
ATOM     22  C   UNL A   1      34.462  29.003  26.472  1.00  0.00     0.183 C 
ATOM     23  C   UNL A   1      33.823  30.262  26.981  1.00  0.00     0.071 C 
ATOM     24  C   UNL A   1      34.914  29.605  27.773  1.00  0.00     0.071 C 
ENDBRANCH  19  22
ENDBRANCH   6  19
ENDBRANCH   4   6
ENDBRANCH   3   4
ENDBRANCH   2   3
ENDBRANCH   1   2
BRANCH   1  25
ATOM     25  O   UNL A   1      35.421  22.244  24.984  1.00  0.00    -0.374 OA
BRANCH  25  26
ATOM     26  C   UNL A   1      35.890  20.989  25.470  1.00  0.00     0.202 C 
BRANCH  26  27
ATOM     27  C   UNL A   1      37.239  20.479  24.954  1.00  0.00     0.261 C 
BRANCH  27  28
ATOM     28  O   UNL A   1      38.264  21.482  25.048  1.00  0.00    -0.460 OA
BRANCH  28  29
ATOM     29  C   UNL A   1      39.207  21.226  25.979  1.00  0.00     0.338 C 
ATOM     30  O   UNL A   1      39.784  20.163  26.182  1.00  0.00    -0.246 OA
BRANCH  29  31
ATOM     31  C   UNL A   1      39.623  22.470  26.647  1.00  0.00     0.060 A 
ATOM     32  C   UNL A   1      39.017  23.654  26.208  1.00  0.00     0.016 A 
ATOM     33  C   UNL A   1      40.646  22.499  27.598  1.00  0.00     0.016 A 
ATOM     34  C   UNL A   1      39.497  24.881  26.645  1.00  0.00     0.010 A 
ATOM     35  C   UNL A   1      41.135  23.737  28.031  1.00  0.00     0.010 A 
ATOM     36  C   UNL A   1      40.601  24.929  27.506  1.00  0.00    -0.014 A 
BRANCH  36  37
ATOM     37  C   UNL A   1      41.312  26.220  27.647  1.00  0.00     0.031 A 
ATOM     38  C   UNL A   1      40.621  27.343  28.374  1.00  0.00     0.074 A 
ATOM     39  C   UNL A   1      42.586  26.354  27.239  1.00  0.00     0.049 A 
ATOM     40  N   UNL A   1      41.073  28.525  28.705  1.00  0.00    -0.248 NA
ATOM     41  C   UNL A   1      39.231  27.095  28.790  1.00  0.00     0.031 C 
ATOM     42  C   UNL A   1      43.368  25.322  26.565  1.00  0.00     0.029 A 
ATOM     43  N   UNL A   1      43.448  27.414  27.355  1.00  0.00    -0.354 N 
ATOM     44  C   UNL A   1      40.028  29.156  29.368  1.00  0.00     0.074 A 
ATOM     45  C   UNL A   1      38.906  28.245  29.359  1.00  0.00     0.031 C 
ATOM     46  C   UNL A   1      44.602  25.798  26.327  1.00  0.00     0.029 A 
ATOM     47  C   UNL A   1      44.689  27.172  26.821  1.00  0.00     0.049 A 
ATOM     48  H   UNL A   1      43.201  28.268  27.779  1.00  0.00     0.167 HD
ATOM     49  C   UNL A   1      40.012  30.379  29.948  1.00  0.00     0.037 A 
ATOM     50  C   UNL A   1      45.768  27.973  26.743  1.00  0.00     0.037 A 
ATOM     51  C   UNL A   1      41.132  31.281  29.961  1.00  0.00     0.049 A 
ATOM     52  C   UNL A   1      45.707  29.349  27.353  1.00  0.00     0.074 A 
ATOM     53  C   UNL A   1      41.222  32.541  30.526  1.00  0.00     0.029 A 
ATOM     54  N   UNL A   1      42.360  31.017  29.372  1.00  0.00    -0.354 N 
ATOM     55  N   UNL A   1      44.724  29.928  28.001  1.00  0.00    -0.248 NA
ATOM     56  C   UNL A   1      46.915  30.178  27.232  1.00  0.00     0.031 C 
ATOM     57  C   UNL A   1      42.491  33.057  30.239  1.00  0.00     0.029 A 
ATOM     58  C   UNL A   1      43.209  32.098  29.542  1.00  0.00     0.049 A 
ATOM     59  H   UNL A   1      42.594  30.183  28.903  1.00  0.00     0.167 HD
ATOM     60  C   UNL A   1      45.202  31.174  28.387  1.00  0.00     0.074 A 
ATOM     61  C   UNL A   1      46.569  31.258  27.918  1.00  0.00     0.031 C 
ATOM     62  C   UNL A   1      44.568  32.161  29.068  1.00  0.00     0.037 A 
BRANCH  49  63
ATOM     63  C   UNL A   1      38.730  30.819  30.596  1.00  0.00     0.064 A 
ATOM     64  C   UNL A   1      37.673  31.360  29.849  1.00  0.00     0.173 A 
ATOM     65  C   UNL A   1      38.552  30.680  31.980  1.00  0.00     0.173 A 
ATOM     66  F   UNL A   1      37.800  31.532  28.525  1.00  0.00    -0.203 F 
ATOM     67  C   UNL A   1      36.495  31.771  30.469  1.00  0.00     0.198 A 
ATOM     68  C   UNL A   1      37.362  31.065  32.593  1.00  0.00     0.198 A 
ATOM     69  F   UNL A   1      39.531  30.167  32.740  1.00  0.00    -0.203 F 
ATOM     70  F   UNL A   1      35.517  32.331  29.742  1.00  0.00    -0.200 F 
ATOM     71  C   UNL A   1      36.338  31.617  31.838  1.00  0.00     0.200 A 
ATOM     72  F   UNL A   1      37.208  30.905  33.914  1.00  0.00    -0.200 F 
ATOM     73  F   UNL A   1      35.202  32.007  32.432  1.00  0.00    -0.200 F 
ENDBRANCH  49  63
BRANCH  50  74
ATOM     74  C   UNL A   1      47.001  27.493  26.066  1.00  0.00     0.064 A 
ATOM     75  C   UNL A   1      47.172  27.632  24.682  1.00  0.00     0.173 A 
ATOM     76  C   UNL A   1      48.027  26.869  26.791  1.00  0.00     0.173 A 
ATOM     77  F   UNL A   1      46.210  28.201  23.942  1.00  0.00    -0.203 F 
ATOM     78  C   UNL A   1      48.313  27.146  24.046  1.00  0.00     0.198 A 
ATOM     79  C   UNL A   1      49.179  26.409  26.159  1.00  0.00     0.198 A 
ATOM     80  F   UNL A   1      47.911  26.711  28.118  1.00  0.00    -0.203 F 
ATOM     81  F   UNL A   1      48.431  27.248  22.715  1.00  0.00    -0.200 F 
ATOM     82  C   UNL A   1      49.318  26.539  24.785  1.00  0.00     0.200 A 
ATOM     83  F   UNL A   1      50.153  25.835  26.878  1.00  0.00    -0.200 F 
ATOM     84  F   UNL A   1      50.416  26.075  24.173  1.00  0.00    -0.200 F 
ENDBRANCH  50  74
BRANCH  62  85
ATOM     85  C   UNL A   1      45.360  33.401  29.371  1.00  0.00     0.064 A 
ATOM     86  C   UNL A   1      45.312  34.527  28.538  1.00  0.00     0.173 A 
ATOM     87  C   UNL A   1      46.160  33.467  30.522  1.00  0.00     0.173 A 
ATOM     88  F   UNL A   1      44.572  34.509  27.420  1.00  0.00    -0.203 F 
ATOM     89  C   UNL A   1      46.067  35.662  28.825  1.00  0.00     0.198 A 
ATOM     90  C   UNL A   1      46.888  34.615  30.823  1.00  0.00     0.198 A 
ATOM     91  F   UNL A   1      46.233  32.421  31.358  1.00  0.00    -0.203 F 
ATOM     92  F   UNL A   1      46.053  36.704  27.984  1.00  0.00    -0.200 F 
ATOM     93  C   UNL A   1      46.849  35.707  29.970  1.00  0.00     0.200 A 
ATOM     94  F   UNL A   1      47.632  34.661  31.937  1.00  0.00    -0.200 F 
ATOM     95  F   UNL A   1      47.576  36.799  30.244  1.00  0.00    -0.200 F 
ENDBRANCH  62  85
ENDBRANCH  36  37
ENDBRANCH  29  31
ENDBRANCH  28  29
ENDBRANCH  27  28
ENDBRANCH  26  27
ENDBRANCH  25  26
ENDBRANCH   1  25
TORSDOF 20
ENDMDL
MODEL 3
REMARK VINA RESULT:      -9.9      0.907      7.418
REMARK SMILES CCC[N@@H+](C1CC1)[C@@H]1CC[C@]([NH2+]C2CC2)(C(=O)OCCOCCOC(=O)c2ccc(-c3c4nc(c(-c5c(F)c(F)c(F)c(F)c5F)c5ccc([nH]5)c(-c5c(F)c(F)c(F)c(F)c5F)c5nc(c(-c6c(F)c(F)c(F)c(F)c6F)c6ccc3[nH]6)C=C5)C=C4)cc2)C1
REMARK SMILES IDX 20 1 19 2 18 3 16 4 17 5 11 6 8 7 9 8 90 9 10 10 4 11 3 13
REMARK SMILES IDX 2 14 1 15 5 16 6 17 7 18 12 19 13 22 14 23 15 24 21 25 22 26
REMARK SMILES IDX 23 27 24 28 25 29 26 30 27 31 28 32 89 33 29 34 88 35 30 36
REMARK SMILES IDX 31 37 32 38 82 39 33 40 87 41 81 42 83 43 34 44 86 45 80 46
REMARK SMILES IDX 79 47 35 49 67 50 47 51 66 52 48 53 51 54 65 55 84 56 49 57
REMARK SMILES IDX 50 58 64 60 85 61 52 62 36 63 37 64 45 65 38 66 39 67 43 68
REMARK SMILES IDX 46 69 40 70 41 71 44 72 42 73 68 74 69 75 77 76 70 77 71 78
REMARK SMILES IDX 75 79 78 80 72 81 73 82 76 83 74 84 53 85 54 86 62 87 55 88
REMARK SMILES IDX 56 89 60 90 63 91 57 92 58 93 61 94 59 95
REMARK H PARENT 4 12 12 20 12 21 83 48 51 59
REMARK Flexibility Score: inf
ROOT
ATOM      1  C   UNL A   1      35.068  22.747  25.191  1.00  0.00     0.202 C 
ENDROOT
BRANCH   1   2
ATOM      2  C   UNL A   1      34.839  24.103  24.512  1.00  0.00     0.261 C 
BRANCH   2   3
ATOM      3  O   UNL A   1      34.723  25.201  25.437  1.00  0.00    -0.459 OA
BRANCH   3   4
ATOM      4  C   UNL A   1      33.444  25.614  25.674  1.00  0.00     0.368 C 
ATOM      5  O   UNL A   1      32.527  24.846  25.955  1.00  0.00    -0.245 OA
BRANCH   4   6
ATOM      6  C   UNL A   1      33.261  27.156  25.654  1.00  0.00     0.200 C 
ATOM      7  C   UNL A   1      31.596  28.563  24.517  1.00  0.00     0.191 C 
ATOM      8  C   UNL A   1      32.747  28.287  23.543  1.00  0.00     0.072 C 
ATOM      9  C   UNL A   1      31.745  27.406  25.506  1.00  0.00     0.146 C 
ATOM     10  C   UNL A   1      33.889  27.665  24.341  1.00  0.00     0.087 C 
BRANCH   7  11
ATOM     11  N   UNL A   1      30.227  28.775  23.985  1.00  0.00    -0.330 N 
ATOM     12  H   UNL A   1      29.698  28.918  24.846  1.00  0.00     0.348 HD
BRANCH  11  13
ATOM     13  C   UNL A   1      29.991  29.998  23.194  1.00  0.00     0.262 C 
BRANCH  13  14
ATOM     14  C   UNL A   1      28.660  30.726  23.461  1.00  0.00     0.058 C 
ATOM     15  C   UNL A   1      27.503  30.418  22.526  1.00  0.00     0.010 C 
ENDBRANCH  13  14
ENDBRANCH  11  13
BRANCH  11  16
ATOM     16  C   UNL A   1      29.701  27.585  23.255  1.00  0.00     0.184 C 
ATOM     17  C   UNL A   1      29.716  26.205  23.854  1.00  0.00     0.071 C 
ATOM     18  C   UNL A   1      28.421  26.946  23.723  1.00  0.00     0.071 C 
ENDBRANCH  11  16
ENDBRANCH   7  11
BRANCH   6  19
ATOM     19  N   UNL A   1      33.826  27.814  26.868  1.00  0.00    -0.329 N 
ATOM     20  H   UNL A   1      34.434  27.140  27.332  1.00  0.00     0.347 HD
ATOM     21  H   UNL A   1      33.018  28.104  27.420  1.00  0.00     0.347 HD
BRANCH  19  22
ATOM     22  C   UNL A   1      34.610  29.047  26.644  1.00  0.00     0.183 C 
ATOM     23  C   UNL A   1      34.242  30.328  27.335  1.00  0.00     0.071 C 
ATOM     24  C   UNL A   1      35.471  29.580  27.756  1.00  0.00     0.071 C 
ENDBRANCH  19  22
ENDBRANCH   6  19
ENDBRANCH   4   6
ENDBRANCH   3   4
ENDBRANCH   2   3
ENDBRANCH   1   2
BRANCH   1  25
ATOM     25  O   UNL A   1      36.401  22.373  25.530  1.00  0.00    -0.374 OA
BRANCH  25  26
ATOM     26  C   UNL A   1      37.170  21.692  24.543  1.00  0.00     0.202 C 
BRANCH  26  27
ATOM     27  C   UNL A   1      38.129  20.594  25.013  1.00  0.00     0.261 C 
BRANCH  27  28
ATOM     28  O   UNL A   1      38.588  20.821  26.356  1.00  0.00    -0.460 OA
BRANCH  28  29
ATOM     29  C   UNL A   1      39.926  20.948  26.471  1.00  0.00     0.338 C 
ATOM     30  O   UNL A   1      40.787  20.191  26.032  1.00  0.00    -0.246 OA
BRANCH  29  31
ATOM     31  C   UNL A   1      40.273  22.253  27.056  1.00  0.00     0.060 A 
ATOM     32  C   UNL A   1      39.614  23.373  26.532  1.00  0.00     0.016 A 
ATOM     33  C   UNL A   1      41.282  22.398  28.010  1.00  0.00     0.016 A 
ATOM     34  C   UNL A   1      40.027  24.649  26.888  1.00  0.00     0.010 A 
ATOM     35  C   UNL A   1      41.704  23.686  28.361  1.00  0.00     0.010 A 
ATOM     36  C   UNL A   1      41.118  24.811  27.753  1.00  0.00    -0.014 A 
BRANCH  36  37
ATOM     37  C   UNL A   1      41.762  26.143  27.811  1.00  0.00     0.031 A 
ATOM     38  C   UNL A   1      41.052  27.251  28.542  1.00  0.00     0.074 A 
ATOM     39  C   UNL A   1      43.001  26.331  27.324  1.00  0.00     0.049 A 
ATOM     40  N   UNL A   1      41.456  28.466  28.809  1.00  0.00    -0.248 NA
ATOM     41  C   UNL A   1      39.704  26.942  29.046  1.00  0.00     0.031 C 
ATOM     42  C   UNL A   1      43.800  25.321  26.637  1.00  0.00     0.029 A 
ATOM     43  N   UNL A   1      43.808  27.440  27.356  1.00  0.00    -0.354 N 
ATOM     44  C   UNL A   1      40.417  29.062  29.512  1.00  0.00     0.074 A 
ATOM     45  C   UNL A   1      39.348  28.093  29.598  1.00  0.00     0.031 C 
ATOM     46  C   UNL A   1      44.990  25.854  26.313  1.00  0.00     0.029 A 
ATOM     47  C   UNL A   1      45.028  27.246  26.758  1.00  0.00     0.049 A 
ATOM     48  H   UNL A   1      43.538  28.293  27.767  1.00  0.00     0.167 HD
ATOM     49  C   UNL A   1      40.365  30.302  30.053  1.00  0.00     0.037 A 
ATOM     50  C   UNL A   1      46.054  28.102  26.590  1.00  0.00     0.037 A 
ATOM     51  C   UNL A   1      41.432  31.264  29.971  1.00  0.00     0.049 A 
ATOM     52  C   UNL A   1      45.951  29.493  27.159  1.00  0.00     0.074 A 
ATOM     53  C   UNL A   1      41.484  32.545  30.490  1.00  0.00     0.029 A 
ATOM     54  N   UNL A   1      42.637  31.046  29.320  1.00  0.00    -0.354 N 
ATOM     55  N   UNL A   1      44.976  30.040  27.846  1.00  0.00    -0.248 NA
ATOM     56  C   UNL A   1      47.102  30.381  26.941  1.00  0.00     0.031 C 
ATOM     57  C   UNL A   1      42.703  33.119  30.113  1.00  0.00     0.029 A 
ATOM     58  C   UNL A   1      43.433  32.177  29.405  1.00  0.00     0.049 A 
ATOM     59  H   UNL A   1      42.890  30.211  28.864  1.00  0.00     0.167 HD
ATOM     60  C   UNL A   1      45.405  31.323  28.164  1.00  0.00     0.074 A 
ATOM     61  C   UNL A   1      46.736  31.464  27.612  1.00  0.00     0.031 C 
ATOM     62  C   UNL A   1      44.757  32.296  28.850  1.00  0.00     0.037 A 
BRANCH  49  63
ATOM     63  C   UNL A   1      39.101  30.694  30.762  1.00  0.00     0.064 A 
ATOM     64  C   UNL A   1      38.946  30.521  32.146  1.00  0.00     0.173 A 
ATOM     65  C   UNL A   1      38.037  31.267  30.050  1.00  0.00     0.173 A 
ATOM     66  F   UNL A   1      39.926  29.961  32.871  1.00  0.00    -0.203 F 
ATOM     67  C   UNL A   1      37.762  30.883  32.785  1.00  0.00     0.198 A 
ATOM     68  C   UNL A   1      36.866  31.654  30.696  1.00  0.00     0.198 A 
ATOM     69  F   UNL A   1      38.134  31.455  28.725  1.00  0.00    -0.203 F 
ATOM     70  F   UNL A   1      37.618  30.663  34.100  1.00  0.00    -0.200 F 
ATOM     71  C   UNL A   1      36.726  31.455  32.061  1.00  0.00     0.200 A 
ATOM     72  F   UNL A   1      35.871  32.216  29.997  1.00  0.00    -0.200 F 
ATOM     73  F   UNL A   1      35.590  31.807  32.678  1.00  0.00    -0.200 F 
ENDBRANCH  49  63
BRANCH  50  74
ATOM     74  C   UNL A   1      47.271  27.666  25.857  1.00  0.00     0.064 A 
ATOM     75  C   UNL A   1      48.414  27.229  26.540  1.00  0.00     0.173 A 
ATOM     76  C   UNL A   1      47.321  27.696  24.456  1.00  0.00     0.173 A 
ATOM     77  F   UNL A   1      48.425  27.204  27.881  1.00  0.00    -0.203 F 
ATOM     78  C   UNL A   1      49.567  26.858  25.850  1.00  0.00     0.198 A 
ATOM     79  C   UNL A   1      48.463  27.299  23.766  1.00  0.00     0.198 A 
ATOM     80  F   UNL A   1      46.254  28.108  23.755  1.00  0.00    -0.203 F 
ATOM     81  F   UNL A   1      50.662  26.489  26.529  1.00  0.00    -0.200 F 
ATOM     82  C   UNL A   1      49.589  26.888  24.464  1.00  0.00     0.200 A 
ATOM     83  F   UNL A   1      48.476  27.318  22.426  1.00  0.00    -0.200 F 
ATOM     84  F   UNL A   1      50.697  26.529  23.801  1.00  0.00    -0.200 F 
ENDBRANCH  50  74
BRANCH  62  85
ATOM     85  C   UNL A   1      45.494  33.587  29.067  1.00  0.00     0.064 A 
ATOM     86  C   UNL A   1      46.291  33.798  30.200  1.00  0.00     0.173 A 
ATOM     87  C   UNL A   1      45.416  34.617  28.116  1.00  0.00     0.173 A 
ATOM     88  F   UNL A   1      46.389  32.850  31.144  1.00  0.00    -0.203 F 
ATOM     89  C   UNL A   1      46.953  35.008  30.394  1.00  0.00     0.198 A 
ATOM     90  C   UNL A   1      46.105  35.812  28.297  1.00  0.00     0.198 A 
ATOM     91  F   UNL A   1      44.675  34.461  27.009  1.00  0.00    -0.203 F 
ATOM     92  F   UNL A   1      47.662  35.210  31.513  1.00  0.00    -0.200 F 
ATOM     93  C   UNL A   1      46.865  36.011  29.440  1.00  0.00     0.200 A 
ATOM     94  F   UNL A   1      46.029  36.775  27.368  1.00  0.00    -0.200 F 
ATOM     95  F   UNL A   1      47.502  37.175  29.628  1.00  0.00    -0.200 F 
ENDBRANCH  62  85
ENDBRANCH  36  37
ENDBRANCH  29  31
ENDBRANCH  28  29
ENDBRANCH  27  28
ENDBRANCH  26  27
ENDBRANCH  25  26
ENDBRANCH   1  25
TORSDOF 20
ENDMDL
