MODEL 1
REMARK VINA RESULT:     -11.7      0.000      0.000
REMARK SMILES O=C(OCCOCCOC(=O)c1cc(Br)n(Cc2ccn(C3CCCC3)n2)c1)c1ccc(-c2c3nc(c(-c4c(F)c(F)c(F)c(F)c4F)c4ccc([nH]4)c(-c4c(F)c(F)c(F)c(F)c4F)c4nc(c(-c5c(F)c(F)c(F)c(F)c5F)c5ccc2[nH]5)C=C4)C=C3)cc1
REMARK SMILES IDX 7 1 6 2 5 3 4 4 3 5 2 6 1 7 29 8 30 9 91 10 31 11 90 12
REMARK SMILES IDX 32 13 33 14 34 15 84 16 35 17 89 18 83 19 85 20 36 21 88 22
REMARK SMILES IDX 82 23 81 24 37 26 69 27 49 28 68 29 50 30 53 31 67 32 86 33
REMARK SMILES IDX 51 34 52 35 66 37 87 38 54 39 38 40 39 41 47 42 40 43 41 44
REMARK SMILES IDX 45 45 48 46 42 47 43 48 46 49 44 50 70 51 71 52 79 53 72 54
REMARK SMILES IDX 73 55 77 56 80 57 74 58 75 59 78 60 76 61 55 62 56 63 64 64
REMARK SMILES IDX 57 65 58 66 62 67 65 68 59 69 60 70 63 71 61 72 8 73 9 74
REMARK SMILES IDX 10 75 11 76 12 77 13 78 28 79 14 80 16 81 15 82 17 83 18 84
REMARK SMILES IDX 19 85 27 86 20 87 21 88 22 89 23 90 26 91 24 92 25 93
REMARK H PARENT 85 25 53 36
REMARK Flexibility Score: inf
ROOT
ATOM      1  C   UNL A   1      40.577  21.681  27.021  1.00  0.00     0.202 C 
ENDROOT
BRANCH   1   2
ATOM      2  O   UNL A   1      41.791  21.047  27.450  1.00  0.00    -0.374 OA
BRANCH   2   3
ATOM      3  C   UNL A   1      41.885  19.638  27.262  1.00  0.00     0.202 C 
BRANCH   3   4
ATOM      4  C   UNL A   1      42.920  19.124  26.267  1.00  0.00     0.261 C 
BRANCH   4   5
ATOM      5  O   UNL A   1      43.050  19.931  25.082  1.00  0.00    -0.460 OA
BRANCH   5   6
ATOM      6  C   UNL A   1      44.183  20.568  24.716  1.00  0.00     0.338 C 
ATOM      7  O   UNL A   1      44.905  20.118  23.830  1.00  0.00    -0.246 OA
BRANCH   6   8
ATOM      8  C   UNL A   1      44.354  21.975  25.155  1.00  0.00     0.060 A 
ATOM      9  C   UNL A   1      45.231  22.395  26.152  1.00  0.00     0.016 A 
ATOM     10  C   UNL A   1      43.441  22.890  24.608  1.00  0.00     0.016 A 
ATOM     11  C   UNL A   1      44.996  23.585  26.806  1.00  0.00     0.010 A 
ATOM     12  C   UNL A   1      43.245  24.114  25.212  1.00  0.00     0.010 A 
ATOM     13  C   UNL A   1      43.950  24.397  26.375  1.00  0.00    -0.014 A 
BRANCH  13  14
ATOM     14  C   UNL A   1      43.713  25.627  27.101  1.00  0.00     0.031 A 
ATOM     15  C   UNL A   1      44.724  26.669  26.800  1.00  0.00     0.074 A 
ATOM     16  C   UNL A   1      42.645  25.797  27.903  1.00  0.00     0.049 A 
ATOM     17  N   UNL A   1      45.617  27.149  27.600  1.00  0.00    -0.248 NA
ATOM     18  C   UNL A   1      44.892  27.081  25.397  1.00  0.00     0.031 C 
ATOM     19  C   UNL A   1      41.492  24.912  28.080  1.00  0.00     0.029 A 
ATOM     20  N   UNL A   1      42.325  26.866  28.679  1.00  0.00    -0.354 N 
ATOM     21  C   UNL A   1      46.330  28.080  26.854  1.00  0.00     0.074 A 
ATOM     22  C   UNL A   1      45.970  27.863  25.478  1.00  0.00     0.031 C 
ATOM     23  C   UNL A   1      40.503  25.585  28.714  1.00  0.00     0.029 A 
ATOM     24  C   UNL A   1      41.002  26.889  29.109  1.00  0.00     0.049 A 
ATOM     25  H   UNL A   1      42.976  27.566  28.919  1.00  0.00     0.167 HD
ATOM     26  C   UNL A   1      46.951  29.123  27.466  1.00  0.00     0.037 A 
ATOM     27  C   UNL A   1      40.372  27.950  29.675  1.00  0.00     0.037 A 
ATOM     28  C   UNL A   1      47.137  28.860  28.870  1.00  0.00     0.049 A 
ATOM     29  C   UNL A   1      41.427  28.860  30.197  1.00  0.00     0.074 A 
ATOM     30  C   UNL A   1      47.838  27.916  29.595  1.00  0.00     0.029 A 
ATOM     31  N   UNL A   1      46.228  29.407  29.741  1.00  0.00    -0.354 N 
ATOM     32  N   UNL A   1      42.202  28.557  31.202  1.00  0.00    -0.248 NA
ATOM     33  C   UNL A   1      41.944  29.877  29.292  1.00  0.00     0.031 C 
ATOM     34  C   UNL A   1      47.001  27.613  30.710  1.00  0.00     0.029 A 
ATOM     35  C   UNL A   1      45.881  28.441  30.650  1.00  0.00     0.049 A 
ATOM     36  H   UNL A   1      45.885  30.329  29.718  1.00  0.00     0.167 HD
ATOM     37  C   UNL A   1      43.460  28.995  30.817  1.00  0.00     0.074 A 
ATOM     38  C   UNL A   1      43.228  29.859  29.662  1.00  0.00     0.031 C 
ATOM     39  C   UNL A   1      44.585  28.378  31.281  1.00  0.00     0.037 A 
BRANCH  26  40
ATOM     40  C   UNL A   1      46.992  30.523  26.902  1.00  0.00     0.064 A 
ATOM     41  C   UNL A   1      48.208  31.235  26.942  1.00  0.00     0.173 A 
ATOM     42  C   UNL A   1      45.841  31.296  26.633  1.00  0.00     0.173 A 
ATOM     43  F   UNL A   1      49.361  30.603  27.205  1.00  0.00    -0.203 F 
ATOM     44  C   UNL A   1      48.250  32.625  26.817  1.00  0.00     0.198 A 
ATOM     45  C   UNL A   1      45.896  32.677  26.457  1.00  0.00     0.198 A 
ATOM     46  F   UNL A   1      44.608  30.780  26.648  1.00  0.00    -0.203 F 
ATOM     47  F   UNL A   1      49.409  33.273  27.001  1.00  0.00    -0.200 F 
ATOM     48  C   UNL A   1      47.094  33.345  26.584  1.00  0.00     0.200 A 
ATOM     49  F   UNL A   1      44.760  33.358  26.253  1.00  0.00    -0.200 F 
ATOM     50  F   UNL A   1      47.121  34.684  26.533  1.00  0.00    -0.200 F 
ENDBRANCH  26  40
BRANCH  27  51
ATOM     51  C   UNL A   1      38.972  28.404  29.470  1.00  0.00     0.064 A 
ATOM     52  C   UNL A   1      38.121  28.646  30.563  1.00  0.00     0.173 A 
ATOM     53  C   UNL A   1      38.535  28.887  28.222  1.00  0.00     0.173 A 
ATOM     54  F   UNL A   1      38.482  28.265  31.796  1.00  0.00    -0.203 F 
ATOM     55  C   UNL A   1      36.921  29.352  30.418  1.00  0.00     0.198 A 
ATOM     56  C   UNL A   1      37.335  29.586  28.078  1.00  0.00     0.198 A 
ATOM     57  F   UNL A   1      39.310  28.779  27.133  1.00  0.00    -0.203 F 
ATOM     58  F   UNL A   1      36.167  29.619  31.494  1.00  0.00    -0.200 F 
ATOM     59  C   UNL A   1      36.534  29.831  29.177  1.00  0.00     0.200 A 
ATOM     60  F   UNL A   1      36.994  30.080  26.879  1.00  0.00    -0.200 F 
ATOM     61  F   UNL A   1      35.418  30.562  29.048  1.00  0.00    -0.200 F 
ENDBRANCH  27  51
BRANCH  39  62
ATOM     62  C   UNL A   1      44.432  27.397  32.411  1.00  0.00     0.064 A 
ATOM     63  C   UNL A   1      44.204  26.019  32.239  1.00  0.00     0.173 A 
ATOM     64  C   UNL A   1      44.673  27.853  33.712  1.00  0.00     0.173 A 
ATOM     65  F   UNL A   1      44.066  25.489  31.017  1.00  0.00    -0.203 F 
ATOM     66  C   UNL A   1      44.177  25.152  33.331  1.00  0.00     0.198 A 
ATOM     67  C   UNL A   1      44.683  26.980  34.795  1.00  0.00     0.198 A 
ATOM     68  F   UNL A   1      44.952  29.149  33.928  1.00  0.00    -0.203 F 
ATOM     69  F   UNL A   1      43.948  23.843  33.146  1.00  0.00    -0.200 F 
ATOM     70  C   UNL A   1      44.424  25.632  34.606  1.00  0.00     0.200 A 
ATOM     71  F   UNL A   1      44.973  27.443  36.018  1.00  0.00    -0.200 F 
ATOM     72  F   UNL A   1      44.440  24.794  35.651  1.00  0.00    -0.200 F 
ENDBRANCH  39  62
ENDBRANCH  13  14
ENDBRANCH   6   8
ENDBRANCH   5   6
ENDBRANCH   4   5
ENDBRANCH   3   4
ENDBRANCH   2   3
ENDBRANCH   1   2
BRANCH   1  73
ATOM     73  C   UNL A   1      39.680  21.009  25.965  1.00  0.00     0.261 C 
BRANCH  73  74
ATOM     74  O   UNL A   1      38.449  21.708  25.721  1.00  0.00    -0.460 OA
BRANCH  74  75
ATOM     75  C   UNL A   1      37.471  20.945  25.148  1.00  0.00     0.339 C 
ATOM     76  O   UNL A   1      37.572  19.755  24.902  1.00  0.00    -0.246 OA
BRANCH  75  77
ATOM     77  C   UNL A   1      36.217  21.672  25.007  1.00  0.00     0.078 A 
ATOM     78  C   UNL A   1      35.727  22.374  23.881  1.00  0.00     0.051 A 
ATOM     79  C   UNL A   1      35.220  21.733  25.971  1.00  0.00     0.102 A 
ATOM     80  C   UNL A   1      34.385  22.594  24.109  1.00  0.00     0.086 A 
ATOM     81  N   UNL A   1      34.124  22.394  25.444  1.00  0.00    -0.335 N 
ATOM     82  Br  UNL A   1      33.208  22.904  22.693  1.00  0.00    -0.031 Br
BRANCH  81  83
ATOM     83  C   UNL A   1      32.852  22.527  26.171  1.00  0.00     0.180 C 
BRANCH  83  84
ATOM     84  C   UNL A   1      32.152  23.850  26.020  1.00  0.00     0.082 A 
ATOM     85  C   UNL A   1      30.757  24.096  25.999  1.00  0.00     0.047 A 
ATOM     86  N   UNL A   1      32.832  25.016  26.043  1.00  0.00    -0.176 NA
ATOM     87  C   UNL A   1      30.611  25.455  25.958  1.00  0.00     0.109 A 
ATOM     88  N   UNL A   1      31.871  25.971  26.013  1.00  0.00    -0.269 N 
BRANCH  88  89
ATOM     89  C   UNL A   1      32.162  27.383  26.107  1.00  0.00     0.107 C 
ATOM     90  C   UNL A   1      31.670  28.070  27.378  1.00  0.00     0.027 C 
ATOM     91  C   UNL A   1      33.637  27.761  26.058  1.00  0.00     0.027 C 
ATOM     92  C   UNL A   1      32.347  29.434  27.305  1.00  0.00     0.002 C 
ATOM     93  C   UNL A   1      33.666  29.205  26.562  1.00  0.00     0.002 C 
ENDBRANCH  88  89
ENDBRANCH  83  84
ENDBRANCH  81  83
ENDBRANCH  75  77
ENDBRANCH  74  75
ENDBRANCH  73  74
ENDBRANCH   1  73
TORSDOF 17
ENDMDL
MODEL 2
REMARK VINA RESULT:     -11.6      1.781      3.351
REMARK SMILES O=C(OCCOCCOC(=O)c1cc(Br)n(Cc2ccn(C3CCCC3)n2)c1)c1ccc(-c2c3nc(c(-c4c(F)c(F)c(F)c(F)c4F)c4ccc([nH]4)c(-c4c(F)c(F)c(F)c(F)c4F)c4nc(c(-c5c(F)c(F)c(F)c(F)c5F)c5ccc2[nH]5)C=C4)C=C3)cc1
REMARK SMILES IDX 7 1 6 2 5 3 4 4 3 5 2 6 1 7 29 8 30 9 91 10 31 11 90 12
REMARK SMILES IDX 32 13 33 14 34 15 84 16 35 17 89 18 83 19 85 20 36 21 88 22
REMARK SMILES IDX 82 23 81 24 37 26 69 27 49 28 68 29 50 30 53 31 67 32 86 33
REMARK SMILES IDX 51 34 52 35 66 37 87 38 54 39 38 40 39 41 47 42 40 43 41 44
REMARK SMILES IDX 45 45 48 46 42 47 43 48 46 49 44 50 70 51 71 52 79 53 72 54
REMARK SMILES IDX 73 55 77 56 80 57 74 58 75 59 78 60 76 61 55 62 56 63 64 64
REMARK SMILES IDX 57 65 58 66 62 67 65 68 59 69 60 70 63 71 61 72 8 73 9 74
REMARK SMILES IDX 10 75 11 76 12 77 13 78 28 79 14 80 16 81 15 82 17 83 18 84
REMARK SMILES IDX 19 85 27 86 20 87 21 88 22 89 23 90 26 91 24 92 25 93
REMARK H PARENT 85 25 53 36
REMARK Flexibility Score: inf
ROOT
ATOM      1  C   UNL A   1      40.002  20.731  26.127  1.00  0.00     0.202 C 
ENDROOT
BRANCH   1   2
ATOM      2  O   UNL A   1      41.404  20.504  26.333  1.00  0.00    -0.374 OA
BRANCH   2   3
ATOM      3  C   UNL A   1      41.818  19.154  26.518  1.00  0.00     0.202 C 
BRANCH   3   4
ATOM      4  C   UNL A   1      43.090  18.699  25.811  1.00  0.00     0.261 C 
BRANCH   4   5
ATOM      5  O   UNL A   1      43.432  19.482  24.652  1.00  0.00    -0.460 OA
BRANCH   5   6
ATOM      6  C   UNL A   1      44.633  20.068  24.457  1.00  0.00     0.338 C 
ATOM      7  O   UNL A   1      45.465  19.572  23.704  1.00  0.00    -0.246 OA
BRANCH   6   8
ATOM      8  C   UNL A   1      44.789  21.479  24.893  1.00  0.00     0.060 A 
ATOM      9  C   UNL A   1      45.756  21.930  25.788  1.00  0.00     0.016 A 
ATOM     10  C   UNL A   1      43.779  22.354  24.467  1.00  0.00     0.016 A 
ATOM     11  C   UNL A   1      45.544  23.102  26.481  1.00  0.00     0.010 A 
ATOM     12  C   UNL A   1      43.598  23.563  25.107  1.00  0.00     0.010 A 
ATOM     13  C   UNL A   1      44.419  23.869  26.185  1.00  0.00    -0.014 A 
BRANCH  13  14
ATOM     14  C   UNL A   1      44.213  25.080  26.951  1.00  0.00     0.031 A 
ATOM     15  C   UNL A   1      45.287  26.078  26.737  1.00  0.00     0.074 A 
ATOM     16  C   UNL A   1      43.119  25.274  27.712  1.00  0.00     0.049 A 
ATOM     17  N   UNL A   1      46.166  26.480  27.593  1.00  0.00    -0.248 NA
ATOM     18  C   UNL A   1      45.539  26.536  25.360  1.00  0.00     0.031 C 
ATOM     19  C   UNL A   1      41.916  24.444  27.803  1.00  0.00     0.029 A 
ATOM     20  N   UNL A   1      42.819  26.328  28.517  1.00  0.00    -0.354 N 
ATOM     21  C   UNL A   1      46.958  27.400  26.917  1.00  0.00     0.074 A 
ATOM     22  C   UNL A   1      46.650  27.257  25.520  1.00  0.00     0.031 C 
ATOM     23  C   UNL A   1      40.935  25.142  28.421  1.00  0.00     0.029 A 
ATOM     24  C   UNL A   1      41.481  26.403  28.891  1.00  0.00     0.049 A 
ATOM     25  H   UNL A   1      43.493  26.982  28.813  1.00  0.00     0.167 HD
ATOM     26  C   UNL A   1      47.603  28.386  27.598  1.00  0.00     0.037 A 
ATOM     27  C   UNL A   1      40.880  27.472  29.472  1.00  0.00     0.037 A 
ATOM     28  C   UNL A   1      47.712  28.058  28.996  1.00  0.00     0.049 A 
ATOM     29  C   UNL A   1      41.955  28.305  30.076  1.00  0.00     0.074 A 
ATOM     30  C   UNL A   1      48.331  27.052  29.711  1.00  0.00     0.029 A 
ATOM     31  N   UNL A   1      46.793  28.617  29.849  1.00  0.00    -0.354 N 
ATOM     32  N   UNL A   1      42.668  27.922  31.100  1.00  0.00    -0.248 NA
ATOM     33  C   UNL A   1      42.563  29.328  29.237  1.00  0.00     0.031 C 
ATOM     34  C   UNL A   1      47.431  26.749  30.775  1.00  0.00     0.029 A 
ATOM     35  C   UNL A   1      46.358  27.637  30.702  1.00  0.00     0.049 A 
ATOM     36  H   UNL A   1      46.499  29.556  29.849  1.00  0.00     0.167 HD
ATOM     37  C   UNL A   1      43.962  28.309  30.788  1.00  0.00     0.074 A 
ATOM     38  C   UNL A   1      43.827  29.228  29.661  1.00  0.00     0.031 C 
ATOM     39  C   UNL A   1      45.033  27.616  31.274  1.00  0.00     0.037 A 
BRANCH  26  40
ATOM     40  C   UNL A   1      47.740  29.802  27.094  1.00  0.00     0.064 A 
ATOM     41  C   UNL A   1      48.985  30.450  27.221  1.00  0.00     0.173 A 
ATOM     42  C   UNL A   1      46.642  30.642  26.802  1.00  0.00     0.173 A 
ATOM     43  F   UNL A   1      50.092  29.751  27.513  1.00  0.00    -0.203 F 
ATOM     44  C   UNL A   1      49.100  31.840  27.156  1.00  0.00     0.198 A 
ATOM     45  C   UNL A   1      46.773  32.024  26.686  1.00  0.00     0.198 A 
ATOM     46  F   UNL A   1      45.386  30.188  26.737  1.00  0.00    -0.203 F 
ATOM     47  F   UNL A   1      50.279  32.421  27.421  1.00  0.00    -0.200 F 
ATOM     48  C   UNL A   1      47.994  32.626  26.897  1.00  0.00     0.200 A 
ATOM     49  F   UNL A   1      45.683  32.769  26.456  1.00  0.00    -0.200 F 
ATOM     50  F   UNL A   1      48.089  33.962  26.903  1.00  0.00    -0.200 F 
ENDBRANCH  26  40
BRANCH  27  51
ATOM     51  C   UNL A   1      39.516  28.006  29.227  1.00  0.00     0.064 A 
ATOM     52  C   UNL A   1      38.594  28.153  30.278  1.00  0.00     0.173 A 
ATOM     53  C   UNL A   1      39.189  28.651  28.019  1.00  0.00     0.173 A 
ATOM     54  F   UNL A   1      38.850  27.613  31.479  1.00  0.00    -0.203 F 
ATOM     55  C   UNL A   1      37.433  28.922  30.136  1.00  0.00     0.198 A 
ATOM     56  C   UNL A   1      38.028  29.413  27.877  1.00  0.00     0.198 A 
ATOM     57  F   UNL A   1      40.039  28.640  26.982  1.00  0.00    -0.203 F 
ATOM     58  F   UNL A   1      36.610  29.091  31.181  1.00  0.00    -0.200 F 
ATOM     59  C   UNL A   1      37.156  29.559  28.938  1.00  0.00     0.200 A 
ATOM     60  F   UNL A   1      37.794  30.059  26.725  1.00  0.00    -0.200 F 
ATOM     61  F   UNL A   1      36.078  30.347  28.821  1.00  0.00    -0.200 F 
ENDBRANCH  27  51
BRANCH  39  62
ATOM     62  C   UNL A   1      44.781  26.601  32.354  1.00  0.00     0.064 A 
ATOM     63  C   UNL A   1      44.484  25.247  32.116  1.00  0.00     0.173 A 
ATOM     64  C   UNL A   1      44.992  26.991  33.682  1.00  0.00     0.173 A 
ATOM     65  F   UNL A   1      44.367  24.774  30.869  1.00  0.00    -0.203 F 
ATOM     66  C   UNL A   1      44.364  24.340  33.169  1.00  0.00     0.198 A 
ATOM     67  C   UNL A   1      44.910  26.076  34.727  1.00  0.00     0.198 A 
ATOM     68  F   UNL A   1      45.333  28.259  33.962  1.00  0.00    -0.203 F 
ATOM     69  F   UNL A   1      44.071  23.054  32.920  1.00  0.00    -0.200 F 
ATOM     70  C   UNL A   1      44.585  24.754  34.472  1.00  0.00     0.200 A 
ATOM     71  F   UNL A   1      45.175  26.473  35.979  1.00  0.00    -0.200 F 
ATOM     72  F   UNL A   1      44.512  23.875  35.480  1.00  0.00    -0.200 F 
ENDBRANCH  39  62
ENDBRANCH  13  14
ENDBRANCH   6   8
ENDBRANCH   5   6
ENDBRANCH   4   5
ENDBRANCH   3   4
ENDBRANCH   2   3
ENDBRANCH   1   2
BRANCH   1  73
ATOM     73  C   UNL A   1      39.422  22.154  26.224  1.00  0.00     0.261 C 
BRANCH  73  74
ATOM     74  O   UNL A   1      38.031  22.238  25.875  1.00  0.00    -0.460 OA
BRANCH  74  75
ATOM     75  C   UNL A   1      37.454  23.447  26.143  1.00  0.00     0.339 C 
ATOM     76  O   UNL A   1      38.048  24.422  26.570  1.00  0.00    -0.246 OA
BRANCH  75  77
ATOM     77  C   UNL A   1      36.066  23.505  25.706  1.00  0.00     0.078 A 
ATOM     78  C   UNL A   1      35.493  24.309  24.695  1.00  0.00     0.051 A 
ATOM     79  C   UNL A   1      35.049  22.688  26.181  1.00  0.00     0.102 A 
ATOM     80  C   UNL A   1      34.252  23.774  24.422  1.00  0.00     0.086 A 
ATOM     81  N   UNL A   1      33.899  22.930  25.449  1.00  0.00    -0.335 N 
ATOM     82  Br  UNL A   1      33.410  24.083  22.784  1.00  0.00    -0.031 Br
BRANCH  81  83
ATOM     83  C   UNL A   1      32.667  22.145  25.622  1.00  0.00     0.180 C 
BRANCH  83  84
ATOM     84  C   UNL A   1      32.586  20.876  24.817  1.00  0.00     0.082 A 
ATOM     85  C   UNL A   1      32.245  20.737  23.450  1.00  0.00     0.047 A 
ATOM     86  N   UNL A   1      33.005  19.694  25.317  1.00  0.00    -0.176 NA
ATOM     87  C   UNL A   1      32.421  19.415  23.146  1.00  0.00     0.109 A 
ATOM     88  N   UNL A   1      32.901  18.830  24.279  1.00  0.00    -0.269 N 
BRANCH  88  89
ATOM     89  C   UNL A   1      33.331  17.452  24.356  1.00  0.00     0.107 C 
ATOM     90  C   UNL A   1      34.804  17.243  24.697  1.00  0.00     0.027 C 
ATOM     91  C   UNL A   1      32.611  16.589  25.385  1.00  0.00     0.027 C 
ATOM     92  C   UNL A   1      34.876  15.744  24.966  1.00  0.00     0.002 C 
ATOM     93  C   UNL A   1      33.503  15.354  25.521  1.00  0.00     0.002 C 
ENDBRANCH  88  89
ENDBRANCH  83  84
ENDBRANCH  81  83
ENDBRANCH  75  77
ENDBRANCH  74  75
ENDBRANCH  73  74
ENDBRANCH   1  73
TORSDOF 17
ENDMDL
MODEL 3
REMARK VINA RESULT:     -11.4      3.714      8.906
REMARK SMILES O=C(OCCOCCOC(=O)c1cc(Br)n(Cc2ccn(C3CCCC3)n2)c1)c1ccc(-c2c3nc(c(-c4c(F)c(F)c(F)c(F)c4F)c4ccc([nH]4)c(-c4c(F)c(F)c(F)c(F)c4F)c4nc(c(-c5c(F)c(F)c(F)c(F)c5F)c5ccc2[nH]5)C=C4)C=C3)cc1
REMARK SMILES IDX 7 1 6 2 5 3 4 4 3 5 2 6 1 7 29 8 30 9 91 10 31 11 90 12
REMARK SMILES IDX 32 13 33 14 34 15 84 16 35 17 89 18 83 19 85 20 36 21 88 22
REMARK SMILES IDX 82 23 81 24 37 26 69 27 49 28 68 29 50 30 53 31 67 32 86 33
REMARK SMILES IDX 51 34 52 35 66 37 87 38 54 39 38 40 39 41 47 42 40 43 41 44
REMARK SMILES IDX 45 45 48 46 42 47 43 48 46 49 44 50 70 51 71 52 79 53 72 54
REMARK SMILES IDX 73 55 77 56 80 57 74 58 75 59 78 60 76 61 55 62 56 63 64 64
REMARK SMILES IDX 57 65 58 66 62 67 65 68 59 69 60 70 63 71 61 72 8 73 9 74
REMARK SMILES IDX 10 75 11 76 12 77 13 78 28 79 14 80 16 81 15 82 17 83 18 84
REMARK SMILES IDX 19 85 27 86 20 87 21 88 22 89 23 90 26 91 24 92 25 93
REMARK H PARENT 85 25 53 36
REMARK Flexibility Score: inf
ROOT
ATOM      1  C   UNL A   1      32.492  28.683  24.482  1.00  0.00     0.202 C 
ENDROOT
BRANCH   1   2
ATOM      2  O   UNL A   1      32.960  28.936  25.815  1.00  0.00    -0.374 OA
BRANCH   2   3
ATOM      3  C   UNL A   1      32.181  29.821  26.615  1.00  0.00     0.202 C 
BRANCH   3   4
ATOM      4  C   UNL A   1      32.892  31.012  27.250  1.00  0.00     0.261 C 
BRANCH   4   5
ATOM      5  O   UNL A   1      34.328  30.910  27.248  1.00  0.00    -0.460 OA
BRANCH   5   6
ATOM      6  C   UNL A   1      35.147  31.698  27.978  1.00  0.00     0.338 C 
ATOM      7  O   UNL A   1      34.809  32.832  28.305  1.00  0.00    -0.246 OA
BRANCH   6   8
ATOM      8  C   UNL A   1      36.297  31.053  28.658  1.00  0.00     0.060 A 
ATOM      9  C   UNL A   1      37.409  31.731  29.153  1.00  0.00     0.016 A 
ATOM     10  C   UNL A   1      36.293  29.650  28.645  1.00  0.00     0.016 A 
ATOM     11  C   UNL A   1      38.596  31.052  29.328  1.00  0.00     0.010 A 
ATOM     12  C   UNL A   1      37.459  28.954  28.887  1.00  0.00     0.010 A 
ATOM     13  C   UNL A   1      38.624  29.675  29.114  1.00  0.00    -0.014 A 
BRANCH  13  14
ATOM     14  C   UNL A   1      39.893  28.998  29.281  1.00  0.00     0.031 A 
ATOM     15  C   UNL A   1      40.254  28.808  30.705  1.00  0.00     0.074 A 
ATOM     16  C   UNL A   1      40.609  28.543  28.235  1.00  0.00     0.049 A 
ATOM     17  N   UNL A   1      41.225  29.365  31.349  1.00  0.00    -0.248 NA
ATOM     18  C   UNL A   1      39.312  28.069  31.563  1.00  0.00     0.031 C 
ATOM     19  C   UNL A   1      40.223  28.489  26.823  1.00  0.00     0.029 A 
ATOM     20  N   UNL A   1      41.828  27.940  28.237  1.00  0.00    -0.354 N 
ATOM     21  C   UNL A   1      41.139  28.884  32.651  1.00  0.00     0.074 A 
ATOM     22  C   UNL A   1      39.854  28.249  32.768  1.00  0.00     0.031 C 
ATOM     23  C   UNL A   1      41.078  27.678  26.156  1.00  0.00     0.029 A 
ATOM     24  C   UNL A   1      42.142  27.275  27.056  1.00  0.00     0.049 A 
ATOM     25  H   UNL A   1      42.439  27.974  29.009  1.00  0.00     0.167 HD
ATOM     26  C   UNL A   1      42.249  28.819  33.435  1.00  0.00     0.037 A 
ATOM     27  C   UNL A   1      43.166  26.400  26.889  1.00  0.00     0.037 A 
ATOM     28  C   UNL A   1      43.288  29.678  32.929  1.00  0.00     0.049 A 
ATOM     29  C   UNL A   1      44.146  26.658  27.978  1.00  0.00     0.074 A 
ATOM     30  C   UNL A   1      43.410  31.040  32.733  1.00  0.00     0.029 A 
ATOM     31  N   UNL A   1      44.275  29.098  32.172  1.00  0.00    -0.354 N 
ATOM     32  N   UNL A   1      44.856  27.750  28.059  1.00  0.00    -0.248 NA
ATOM     33  C   UNL A   1      43.967  25.934  29.228  1.00  0.00     0.031 C 
ATOM     34  C   UNL A   1      44.141  31.173  31.515  1.00  0.00     0.029 A 
ATOM     35  C   UNL A   1      44.493  29.896  31.079  1.00  0.00     0.049 A 
ATOM     36  H   UNL A   1      44.744  28.257  32.377  1.00  0.00     0.167 HD
ATOM     37  C   UNL A   1      44.829  28.085  29.405  1.00  0.00     0.074 A 
ATOM     38  C   UNL A   1      44.323  26.895  30.086  1.00  0.00     0.031 C 
ATOM     39  C   UNL A   1      44.930  29.387  29.802  1.00  0.00     0.037 A 
BRANCH  26  40
ATOM     40  C   UNL A   1      42.542  27.679  34.379  1.00  0.00     0.064 A 
ATOM     41  C   UNL A   1      43.076  26.485  33.856  1.00  0.00     0.173 A 
ATOM     42  C   UNL A   1      42.027  27.592  35.692  1.00  0.00     0.173 A 
ATOM     43  F   UNL A   1      43.578  26.448  32.612  1.00  0.00    -0.203 F 
ATOM     44  C   UNL A   1      43.009  25.279  34.557  1.00  0.00     0.198 A 
ATOM     45  C   UNL A   1      42.011  26.398  36.408  1.00  0.00     0.198 A 
ATOM     46  F   UNL A   1      41.412  28.616  36.292  1.00  0.00    -0.203 F 
ATOM     47  F   UNL A   1      43.403  24.143  33.965  1.00  0.00    -0.200 F 
ATOM     48  C   UNL A   1      42.469  25.235  35.829  1.00  0.00     0.200 A 
ATOM     49  F   UNL A   1      41.463  26.373  37.631  1.00  0.00    -0.200 F 
ATOM     50  F   UNL A   1      42.341  24.069  36.476  1.00  0.00    -0.200 F 
ENDBRANCH  26  40
BRANCH  27  51
ATOM     51  C   UNL A   1      43.181  25.142  26.099  1.00  0.00     0.064 A 
ATOM     52  C   UNL A   1      44.226  24.860  25.202  1.00  0.00     0.173 A 
ATOM     53  C   UNL A   1      42.331  24.066  26.422  1.00  0.00     0.173 A 
ATOM     54  F   UNL A   1      45.112  25.813  24.879  1.00  0.00    -0.203 F 
ATOM     55  C   UNL A   1      44.423  23.575  24.682  1.00  0.00     0.198 A 
ATOM     56  C   UNL A   1      42.526  22.787  25.899  1.00  0.00     0.198 A 
ATOM     57  F   UNL A   1      41.355  24.209  27.329  1.00  0.00    -0.203 F 
ATOM     58  F   UNL A   1      45.469  23.331  23.880  1.00  0.00    -0.200 F 
ATOM     59  C   UNL A   1      43.579  22.537  25.040  1.00  0.00     0.200 A 
ATOM     60  F   UNL A   1      41.727  21.782  26.286  1.00  0.00    -0.200 F 
ATOM     61  F   UNL A   1      43.805  21.293  24.594  1.00  0.00    -0.200 F 
ENDBRANCH  27  51
BRANCH  39  62
ATOM     62  C   UNL A   1      45.333  30.405  28.771  1.00  0.00     0.064 A 
ATOM     63  C   UNL A   1      44.434  31.059  27.909  1.00  0.00     0.173 A 
ATOM     64  C   UNL A   1      46.665  30.836  28.763  1.00  0.00     0.173 A 
ATOM     65  F   UNL A   1      43.125  30.775  27.930  1.00  0.00    -0.203 F 
ATOM     66  C   UNL A   1      44.866  32.069  27.050  1.00  0.00     0.198 A 
ATOM     67  C   UNL A   1      47.085  31.870  27.932  1.00  0.00     0.198 A 
ATOM     68  F   UNL A   1      47.554  30.286  29.605  1.00  0.00    -0.203 F 
ATOM     69  F   UNL A   1      43.994  32.673  26.228  1.00  0.00    -0.200 F 
ATOM     70  C   UNL A   1      46.189  32.478  27.068  1.00  0.00     0.200 A 
ATOM     71  F   UNL A   1      48.354  32.295  27.991  1.00  0.00    -0.200 F 
ATOM     72  F   UNL A   1      46.597  33.477  26.273  1.00  0.00    -0.200 F 
ENDBRANCH  39  62
ENDBRANCH  13  14
ENDBRANCH   6   8
ENDBRANCH   5   6
ENDBRANCH   4   5
ENDBRANCH   3   4
ENDBRANCH   2   3
ENDBRANCH   1   2
BRANCH   1  73
ATOM     73  C   UNL A   1      31.039  29.010  24.092  1.00  0.00     0.261 C 
BRANCH  73  74
ATOM     74  O   UNL A   1      30.498  28.139  23.086  1.00  0.00    -0.460 OA
BRANCH  74  75
ATOM     75  C   UNL A   1      29.615  27.210  23.559  1.00  0.00     0.339 C 
ATOM     76  O   UNL A   1      28.402  27.310  23.501  1.00  0.00    -0.246 OA
BRANCH  75  77
ATOM     77  C   UNL A   1      30.281  25.991  24.001  1.00  0.00     0.078 A 
ATOM     78  C   UNL A   1      30.367  25.458  25.307  1.00  0.00     0.051 A 
ATOM     79  C   UNL A   1      30.901  25.075  23.162  1.00  0.00     0.102 A 
ATOM     80  C   UNL A   1      30.788  24.152  25.172  1.00  0.00     0.086 A 
ATOM     81  N   UNL A   1      31.304  23.982  23.909  1.00  0.00    -0.335 N 
ATOM     82  Br  UNL A   1      30.451  22.891  26.507  1.00  0.00    -0.031 Br
BRANCH  81  83
ATOM     83  C   UNL A   1      31.891  22.778  23.301  1.00  0.00     0.180 C 
BRANCH  83  84
ATOM     84  C   UNL A   1      32.967  22.102  24.107  1.00  0.00     0.082 A 
ATOM     85  C   UNL A   1      33.163  20.712  24.299  1.00  0.00     0.047 A 
ATOM     86  N   UNL A   1      33.999  22.797  24.632  1.00  0.00    -0.176 NA
ATOM     87  C   UNL A   1      34.327  20.587  25.005  1.00  0.00     0.109 A 
ATOM     88  N   UNL A   1      34.811  21.850  25.161  1.00  0.00    -0.269 N 
BRANCH  88  89
ATOM     89  C   UNL A   1      36.091  22.157  25.759  1.00  0.00     0.107 C 
ATOM     90  C   UNL A   1      37.300  21.517  25.083  1.00  0.00     0.027 C 
ATOM     91  C   UNL A   1      36.463  23.634  25.808  1.00  0.00     0.027 C 
ATOM     92  C   UNL A   1      38.473  22.227  25.751  1.00  0.00     0.002 C 
ATOM     93  C   UNL A   1      37.964  23.628  26.105  1.00  0.00     0.002 C 
ENDBRANCH  88  89
ENDBRANCH  83  84
ENDBRANCH  81  83
ENDBRANCH  75  77
ENDBRANCH  74  75
ENDBRANCH  73  74
ENDBRANCH   1  73
TORSDOF 17
ENDMDL
