MODEL 1
REMARK VINA RESULT:     -11.0      0.000      0.000
REMARK SMILES Cc1ccc2oc(CCCC(=O)OCCOCCOC(=O)c3ccc(-c4c5nc(c(-c6c(F)c(F)c(F)c(F)c6F)c6ccc([nH]6)c(-c6c(F)c(F)c(F)c(F)c6F)c6nc(c(-c7c(F)c(F)c(F)c(F)c7F)c7ccc4[nH]7)C=C6)C=C5)cc3)cc(=O)c2c1
REMARK SMILES IDX 15 1 14 2 13 3 11 4 12 5 10 6 9 7 8 8 7 9 1 10 2 11 3 12
REMARK SMILES IDX 89 13 4 14 88 15 5 16 86 17 6 18 85 19 87 20 16 21 17 22
REMARK SMILES IDX 18 23 19 24 20 25 21 26 22 27 23 28 84 29 24 30 83 31 25 32
REMARK SMILES IDX 26 33 27 34 77 35 28 36 82 37 76 38 78 39 29 40 81 41 75 42
REMARK SMILES IDX 74 43 30 45 62 46 42 47 61 48 43 49 46 50 60 51 79 52 44 53
REMARK SMILES IDX 45 54 59 56 80 57 47 58 31 59 32 60 40 61 33 62 34 63 38 64
REMARK SMILES IDX 41 65 35 66 36 67 39 68 37 69 63 70 64 71 72 72 65 73 66 74
REMARK SMILES IDX 70 75 73 76 67 77 68 78 71 79 69 80 48 81 49 82 57 83 50 84
REMARK SMILES IDX 51 85 55 86 58 87 52 88 53 89 56 90 54 91
REMARK H PARENT 78 44 46 55
REMARK Flexibility Score: inf
ROOT
ATOM      1  C   UNL A   1      34.397  24.872  24.365  1.00  0.00     0.202 C 
ENDROOT
BRANCH   1   2
ATOM      2  C   UNL A   1      34.207  25.986  25.395  1.00  0.00     0.261 C 
BRANCH   2   3
ATOM      3  O   UNL A   1      33.076  26.793  25.019  1.00  0.00    -0.463 OA
BRANCH   3   4
ATOM      4  C   UNL A   1      33.246  27.629  23.970  1.00  0.00     0.305 C 
ATOM      5  O   UNL A   1      34.294  28.205  23.701  1.00  0.00    -0.252 OA
BRANCH   4   6
ATOM      6  C   UNL A   1      31.998  27.789  23.124  1.00  0.00     0.123 C 
BRANCH   6   7
ATOM      7  C   UNL A   1      30.638  28.004  23.806  1.00  0.00     0.020 C 
BRANCH   7   8
ATOM      8  C   UNL A   1      29.599  26.871  23.761  1.00  0.00     0.076 C 
BRANCH   8   9
ATOM      9  C   UNL A   1      30.084  25.569  24.329  1.00  0.00     0.108 A 
ATOM     10  C   UNL A   1      33.409  20.039  24.801  1.00  0.00     0.044 C 
ATOM     11  C   UNL A   1      32.630  21.265  24.430  1.00  0.00    -0.050 A 
ATOM     12  C   UNL A   1      32.524  21.670  23.092  1.00  0.00     0.007 A 
ATOM     13  C   UNL A   1      31.994  22.018  25.430  1.00  0.00     0.019 A 
ATOM     14  C   UNL A   1      31.790  22.807  22.753  1.00  0.00     0.048 A 
ATOM     15  C   UNL A   1      31.276  23.165  25.085  1.00  0.00     0.065 A 
ATOM     16  C   UNL A   1      31.169  23.550  23.753  1.00  0.00     0.138 A 
ATOM     17  C   UNL A   1      30.652  24.016  26.111  1.00  0.00     0.192 A 
ATOM     18  O   UNL A   1      30.473  24.659  23.360  1.00  0.00    -0.461 OA
ATOM     19  C   UNL A   1      30.112  25.307  25.644  1.00  0.00     0.095 A 
ATOM     20  O   UNL A   1      30.615  23.706  27.294  1.00  0.00    -0.289 OA
ENDBRANCH   8   9
ENDBRANCH   7   8
ENDBRANCH   6   7
ENDBRANCH   4   6
ENDBRANCH   3   4
ENDBRANCH   2   3
ENDBRANCH   1   2
BRANCH   1  21
ATOM     21  O   UNL A   1      35.259  23.806  24.771  1.00  0.00    -0.374 OA
BRANCH  21  22
ATOM     22  C   UNL A   1      35.908  23.062  23.742  1.00  0.00     0.202 C 
BRANCH  22  23
ATOM     23  C   UNL A   1      36.709  21.839  24.205  1.00  0.00     0.261 C 
BRANCH  23  24
ATOM     24  O   UNL A   1      37.061  21.906  25.598  1.00  0.00    -0.460 OA
BRANCH  24  25
ATOM     25  C   UNL A   1      38.355  21.613  25.865  1.00  0.00     0.338 C 
ATOM     26  O   UNL A   1      38.971  20.606  25.533  1.00  0.00    -0.246 OA
BRANCH  25  27
ATOM     27  C   UNL A   1      39.027  22.758  26.502  1.00  0.00     0.060 A 
ATOM     28  C   UNL A   1      38.485  24.030  26.273  1.00  0.00     0.016 A 
ATOM     29  C   UNL A   1      40.207  22.614  27.233  1.00  0.00     0.016 A 
ATOM     30  C   UNL A   1      39.149  25.166  26.729  1.00  0.00     0.010 A 
ATOM     31  C   UNL A   1      40.878  23.758  27.685  1.00  0.00     0.010 A 
ATOM     32  C   UNL A   1      40.370  25.039  27.405  1.00  0.00    -0.014 A 
BRANCH  32  33
ATOM     33  C   UNL A   1      41.176  26.252  27.685  1.00  0.00     0.031 A 
ATOM     34  C   UNL A   1      40.555  27.383  28.458  1.00  0.00     0.074 A 
ATOM     35  C   UNL A   1      42.459  26.332  27.290  1.00  0.00     0.049 A 
ATOM     36  N   UNL A   1      41.067  28.540  28.796  1.00  0.00    -0.248 NA
ATOM     37  C   UNL A   1      39.171  27.180  28.915  1.00  0.00     0.031 C 
ATOM     38  C   UNL A   1      43.187  25.289  26.572  1.00  0.00     0.029 A 
ATOM     39  N   UNL A   1      43.375  27.345  27.435  1.00  0.00    -0.354 N 
ATOM     40  C   UNL A   1      40.069  29.203  29.499  1.00  0.00     0.074 A 
ATOM     41  C   UNL A   1      38.913  28.332  29.517  1.00  0.00     0.031 C 
ATOM     42  C   UNL A   1      44.438  25.719  26.330  1.00  0.00     0.029 A 
ATOM     43  C   UNL A   1      44.586  27.079  26.849  1.00  0.00     0.049 A 
ATOM     44  H   UNL A   1      43.180  28.183  27.916  1.00  0.00     0.167 HD
ATOM     45  C   UNL A   1      40.117  30.423  30.085  1.00  0.00     0.037 A 
ATOM     46  C   UNL A   1      45.681  27.853  26.724  1.00  0.00     0.037 A 
ATOM     47  C   UNL A   1      41.266  31.288  30.071  1.00  0.00     0.049 A 
ATOM     48  C   UNL A   1      45.680  29.239  27.317  1.00  0.00     0.074 A 
ATOM     49  C   UNL A   1      41.419  32.532  30.659  1.00  0.00     0.029 A 
ATOM     50  N   UNL A   1      42.460  31.002  29.427  1.00  0.00    -0.354 N 
ATOM     51  N   UNL A   1      44.744  29.847  28.004  1.00  0.00    -0.248 NA
ATOM     52  C   UNL A   1      46.893  30.046  27.116  1.00  0.00     0.031 C 
ATOM     53  C   UNL A   1      42.688  33.019  30.329  1.00  0.00     0.029 A 
ATOM     54  C   UNL A   1      43.344  32.059  29.576  1.00  0.00     0.049 A 
ATOM     55  H   UNL A   1      42.652  30.171  28.935  1.00  0.00     0.167 HD
ATOM     56  C   UNL A   1      45.258  31.094  28.332  1.00  0.00     0.074 A 
ATOM     57  C   UNL A   1      46.597  31.152  27.784  1.00  0.00     0.031 C 
ATOM     58  C   UNL A   1      44.674  32.102  29.026  1.00  0.00     0.037 A 
BRANCH  45  59
ATOM     59  C   UNL A   1      38.876  30.908  30.774  1.00  0.00     0.064 A 
ATOM     60  C   UNL A   1      37.834  31.525  30.065  1.00  0.00     0.173 A 
ATOM     61  C   UNL A   1      38.712  30.720  32.154  1.00  0.00     0.173 A 
ATOM     62  F   UNL A   1      37.949  31.740  28.746  1.00  0.00    -0.203 F 
ATOM     63  C   UNL A   1      36.682  31.955  30.719  1.00  0.00     0.198 A 
ATOM     64  C   UNL A   1      37.548  31.129  32.800  1.00  0.00     0.198 A 
ATOM     65  F   UNL A   1      39.678  30.132  32.876  1.00  0.00    -0.203 F 
ATOM     66  F   UNL A   1      35.716  32.579  30.030  1.00  0.00    -0.200 F 
ATOM     67  C   UNL A   1      36.537  31.751  32.083  1.00  0.00     0.200 A 
ATOM     68  F   UNL A   1      37.406  30.922  34.116  1.00  0.00    -0.200 F 
ATOM     69  F   UNL A   1      35.426  32.161  32.709  1.00  0.00    -0.200 F 
ENDBRANCH  45  59
BRANCH  46  70
ATOM     70  C   UNL A   1      46.868  27.347  25.989  1.00  0.00     0.064 A 
ATOM     71  C   UNL A   1      47.895  26.665  26.655  1.00  0.00     0.173 A 
ATOM     72  C   UNL A   1      47.008  27.552  24.609  1.00  0.00     0.173 A 
ATOM     73  F   UNL A   1      47.820  26.470  27.980  1.00  0.00    -0.203 F 
ATOM     74  C   UNL A   1      49.024  26.220  25.971  1.00  0.00     0.198 A 
ATOM     75  C   UNL A   1      48.125  27.083  23.920  1.00  0.00     0.198 A 
ATOM     76  F   UNL A   1      46.055  28.204  23.927  1.00  0.00    -0.203 F 
ATOM     77  F   UNL A   1      50.013  25.609  26.638  1.00  0.00    -0.200 F 
ATOM     78  C   UNL A   1      49.135  26.424  24.603  1.00  0.00     0.200 A 
ATOM     79  F   UNL A   1      48.224  27.275  22.599  1.00  0.00    -0.200 F 
ATOM     80  F   UNL A   1      50.220  25.994  23.946  1.00  0.00    -0.200 F 
ENDBRANCH  46  70
BRANCH  58  81
ATOM     81  C   UNL A   1      45.484  33.345  29.253  1.00  0.00     0.064 A 
ATOM     82  C   UNL A   1      45.395  34.447  28.389  1.00  0.00     0.173 A 
ATOM     83  C   UNL A   1      46.327  33.453  30.369  1.00  0.00     0.173 A 
ATOM     84  F   UNL A   1      44.614  34.388  27.299  1.00  0.00    -0.203 F 
ATOM     85  C   UNL A   1      46.136  35.602  28.623  1.00  0.00     0.198 A 
ATOM     86  C   UNL A   1      47.045  34.618  30.616  1.00  0.00     0.198 A 
ATOM     87  F   UNL A   1      46.443  32.429  31.229  1.00  0.00    -0.203 F 
ATOM     88  F   UNL A   1      46.067  36.626  27.763  1.00  0.00    -0.200 F 
ATOM     89  C   UNL A   1      46.954  35.690  29.740  1.00  0.00     0.200 A 
ATOM     90  F   UNL A   1      47.826  34.707  31.702  1.00  0.00    -0.200 F 
ATOM     91  F   UNL A   1      47.661  36.805  29.968  1.00  0.00    -0.200 F 
ENDBRANCH  58  81
ENDBRANCH  32  33
ENDBRANCH  25  27
ENDBRANCH  24  25
ENDBRANCH  23  24
ENDBRANCH  22  23
ENDBRANCH  21  22
ENDBRANCH   1  21
TORSDOF 17
ENDMDL
MODEL 2
REMARK VINA RESULT:     -11.0      3.078      7.940
REMARK SMILES Cc1ccc2oc(CCCC(=O)OCCOCCOC(=O)c3ccc(-c4c5nc(c(-c6c(F)c(F)c(F)c(F)c6F)c6ccc([nH]6)c(-c6c(F)c(F)c(F)c(F)c6F)c6nc(c(-c7c(F)c(F)c(F)c(F)c7F)c7ccc4[nH]7)C=C6)C=C5)cc3)cc(=O)c2c1
REMARK SMILES IDX 15 1 14 2 13 3 11 4 12 5 10 6 9 7 8 8 7 9 1 10 2 11 3 12
REMARK SMILES IDX 89 13 4 14 88 15 5 16 86 17 6 18 85 19 87 20 16 21 17 22
REMARK SMILES IDX 18 23 19 24 20 25 21 26 22 27 23 28 84 29 24 30 83 31 25 32
REMARK SMILES IDX 26 33 27 34 77 35 28 36 82 37 76 38 78 39 29 40 81 41 75 42
REMARK SMILES IDX 74 43 30 45 62 46 42 47 61 48 43 49 46 50 60 51 79 52 44 53
REMARK SMILES IDX 45 54 59 56 80 57 47 58 31 59 32 60 40 61 33 62 34 63 38 64
REMARK SMILES IDX 41 65 35 66 36 67 39 68 37 69 63 70 64 71 72 72 65 73 66 74
REMARK SMILES IDX 70 75 73 76 67 77 68 78 71 79 69 80 48 81 49 82 57 83 50 84
REMARK SMILES IDX 51 85 55 86 58 87 52 88 53 89 56 90 54 91
REMARK H PARENT 78 44 46 55
REMARK Flexibility Score: inf
ROOT
ATOM      1  C   UNL A   1      34.569  34.015  29.003  1.00  0.00     0.202 C 
ENDROOT
BRANCH   1   2
ATOM      2  C   UNL A   1      34.996  32.836  28.128  1.00  0.00     0.261 C 
BRANCH   2   3
ATOM      3  O   UNL A   1      33.870  31.965  27.919  1.00  0.00    -0.463 OA
BRANCH   3   4
ATOM      4  C   UNL A   1      34.143  30.693  27.549  1.00  0.00     0.305 C 
ATOM      5  O   UNL A   1      35.270  30.220  27.464  1.00  0.00    -0.252 OA
BRANCH   4   6
ATOM      6  C   UNL A   1      32.900  29.876  27.251  1.00  0.00     0.123 C 
BRANCH   6   7
ATOM      7  C   UNL A   1      33.030  28.375  26.953  1.00  0.00     0.020 C 
BRANCH   7   8
ATOM      8  C   UNL A   1      31.936  27.688  26.117  1.00  0.00     0.076 C 
BRANCH   8   9
ATOM      9  C   UNL A   1      32.164  26.221  25.892  1.00  0.00     0.108 A 
ATOM     10  C   UNL A   1      35.351  20.662  25.002  1.00  0.00     0.044 C 
ATOM     11  C   UNL A   1      34.809  22.059  25.061  1.00  0.00    -0.050 A 
ATOM     12  C   UNL A   1      35.601  23.153  24.685  1.00  0.00     0.007 A 
ATOM     13  C   UNL A   1      33.492  22.278  25.495  1.00  0.00     0.019 A 
ATOM     14  C   UNL A   1      35.087  24.448  24.735  1.00  0.00     0.048 A 
ATOM     15  C   UNL A   1      32.990  23.579  25.559  1.00  0.00     0.065 A 
ATOM     16  C   UNL A   1      33.781  24.655  25.172  1.00  0.00     0.138 A 
ATOM     17  C   UNL A   1      31.638  23.855  26.070  1.00  0.00     0.192 A 
ATOM     18  O   UNL A   1      33.337  25.948  25.208  1.00  0.00    -0.461 OA
ATOM     19  C   UNL A   1      31.303  25.275  26.293  1.00  0.00     0.095 A 
ATOM     20  O   UNL A   1      30.841  22.968  26.344  1.00  0.00    -0.289 OA
ENDBRANCH   8   9
ENDBRANCH   7   8
ENDBRANCH   6   7
ENDBRANCH   4   6
ENDBRANCH   3   4
ENDBRANCH   2   3
ENDBRANCH   1   2
BRANCH   1  21
ATOM     21  O   UNL A   1      33.994  33.662  30.263  1.00  0.00    -0.374 OA
BRANCH  21  22
ATOM     22  C   UNL A   1      34.417  34.406  31.404  1.00  0.00     0.202 C 
BRANCH  22  23
ATOM     23  C   UNL A   1      34.554  33.610  32.708  1.00  0.00     0.261 C 
BRANCH  23  24
ATOM     24  O   UNL A   1      35.120  32.304  32.499  1.00  0.00    -0.460 OA
BRANCH  24  25
ATOM     25  C   UNL A   1      36.293  32.091  33.141  1.00  0.00     0.338 C 
ATOM     26  O   UNL A   1      36.548  32.328  34.316  1.00  0.00    -0.246 OA
BRANCH  25  27
ATOM     27  C   UNL A   1      37.237  31.368  32.272  1.00  0.00     0.060 A 
ATOM     28  C   UNL A   1      38.282  30.674  32.897  1.00  0.00     0.016 A 
ATOM     29  C   UNL A   1      37.164  31.434  30.879  1.00  0.00     0.016 A 
ATOM     30  C   UNL A   1      39.287  30.086  32.132  1.00  0.00     0.010 A 
ATOM     31  C   UNL A   1      38.180  30.848  30.112  1.00  0.00     0.010 A 
ATOM     32  C   UNL A   1      39.263  30.203  30.736  1.00  0.00    -0.014 A 
BRANCH  32  33
ATOM     33  C   UNL A   1      40.445  29.774  29.950  1.00  0.00     0.031 A 
ATOM     34  C   UNL A   1      41.550  30.760  29.691  1.00  0.00     0.074 A 
ATOM     35  C   UNL A   1      40.553  28.510  29.503  1.00  0.00     0.049 A 
ATOM     36  N   UNL A   1      42.661  30.607  29.013  1.00  0.00    -0.248 NA
ATOM     37  C   UNL A   1      41.384  32.099  30.279  1.00  0.00     0.031 C 
ATOM     38  C   UNL A   1      39.572  27.451  29.724  1.00  0.00     0.029 A 
ATOM     39  N   UNL A   1      41.541  27.907  28.765  1.00  0.00    -0.354 N 
ATOM     40  C   UNL A   1      43.320  31.827  29.089  1.00  0.00     0.074 A 
ATOM     41  C   UNL A   1      42.476  32.718  29.855  1.00  0.00     0.031 C 
ATOM     42  C   UNL A   1      40.002  26.327  29.125  1.00  0.00     0.029 A 
ATOM     43  C   UNL A   1      41.272  26.598  28.453  1.00  0.00     0.049 A 
ATOM     44  H   UNL A   1      42.365  28.370  28.486  1.00  0.00     0.167 HD
ATOM     45  C   UNL A   1      44.525  32.169  28.575  1.00  0.00     0.037 A 
ATOM     46  C   UNL A   1      41.962  25.726  27.693  1.00  0.00     0.037 A 
ATOM     47  C   UNL A   1      45.367  31.283  27.816  1.00  0.00     0.049 A 
ATOM     48  C   UNL A   1      43.263  26.157  27.065  1.00  0.00     0.074 A 
ATOM     49  C   UNL A   1      46.618  31.530  27.276  1.00  0.00     0.029 A 
ATOM     50  N   UNL A   1      45.040  29.978  27.482  1.00  0.00    -0.354 N 
ATOM     51  N   UNL A   1      43.893  27.302  27.165  1.00  0.00    -0.248 NA
ATOM     52  C   UNL A   1      43.949  25.169  26.218  1.00  0.00     0.031 C 
ATOM     53  C   UNL A   1      47.025  30.391  26.573  1.00  0.00     0.029 A 
ATOM     54  C   UNL A   1      46.050  29.417  26.717  1.00  0.00     0.049 A 
ATOM     55  H   UNL A   1      44.211  29.517  27.749  1.00  0.00     0.167 HD
ATOM     56  C   UNL A   1      45.053  27.167  26.414  1.00  0.00     0.074 A 
ATOM     57  C   UNL A   1      45.050  25.823  25.876  1.00  0.00     0.031 C 
ATOM     58  C   UNL A   1      46.034  28.077  26.189  1.00  0.00     0.037 A 
BRANCH  45  59
ATOM     59  C   UNL A   1      44.998  33.575  28.796  1.00  0.00     0.064 A 
ATOM     60  C   UNL A   1      45.847  33.907  29.863  1.00  0.00     0.173 A 
ATOM     61  C   UNL A   1      44.625  34.596  27.910  1.00  0.00     0.173 A 
ATOM     62  F   UNL A   1      46.221  32.968  30.745  1.00  0.00    -0.203 F 
ATOM     63  C   UNL A   1      46.289  35.215  30.044  1.00  0.00     0.198 A 
ATOM     64  C   UNL A   1      45.089  35.898  28.080  1.00  0.00     0.198 A 
ATOM     65  F   UNL A   1      43.817  34.330  26.873  1.00  0.00    -0.203 F 
ATOM     66  F   UNL A   1      47.067  35.518  31.093  1.00  0.00    -0.200 F 
ATOM     67  C   UNL A   1      45.915  36.207  29.150  1.00  0.00     0.200 A 
ATOM     68  F   UNL A   1      44.735  36.853  27.210  1.00  0.00    -0.200 F 
ATOM     69  F   UNL A   1      46.346  37.464  29.323  1.00  0.00    -0.200 F 
ENDBRANCH  45  59
BRANCH  46  70
ATOM     70  C   UNL A   1      41.429  24.359  27.462  1.00  0.00     0.064 A 
ATOM     71  C   UNL A   1      40.288  24.151  26.676  1.00  0.00     0.173 A 
ATOM     72  C   UNL A   1      42.039  23.236  28.039  1.00  0.00     0.173 A 
ATOM     73  F   UNL A   1      39.653  25.196  26.126  1.00  0.00    -0.203 F 
ATOM     74  C   UNL A   1      39.769  22.871  26.487  1.00  0.00     0.198 A 
ATOM     75  C   UNL A   1      41.535  21.954  27.828  1.00  0.00     0.198 A 
ATOM     76  F   UNL A   1      43.130  23.384  28.804  1.00  0.00    -0.203 F 
ATOM     77  F   UNL A   1      38.651  22.703  25.767  1.00  0.00    -0.200 F 
ATOM     78  C   UNL A   1      40.396  21.774  27.059  1.00  0.00     0.200 A 
ATOM     79  F   UNL A   1      42.149  20.897  28.376  1.00  0.00    -0.200 F 
ATOM     80  F   UNL A   1      39.897  20.544  26.876  1.00  0.00    -0.200 F 
ENDBRANCH  46  70
BRANCH  58  81
ATOM     81  C   UNL A   1      47.197  27.644  25.345  1.00  0.00     0.064 A 
ATOM     82  C   UNL A   1      48.284  26.947  25.894  1.00  0.00     0.173 A 
ATOM     83  C   UNL A   1      47.206  27.892  23.964  1.00  0.00     0.173 A 
ATOM     84  F   UNL A   1      48.329  26.700  27.212  1.00  0.00    -0.203 F 
ATOM     85  C   UNL A   1      49.346  26.533  25.094  1.00  0.00     0.198 A 
ATOM     86  C   UNL A   1      48.255  27.453  23.163  1.00  0.00     0.198 A 
ATOM     87  F   UNL A   1      46.186  28.549  23.389  1.00  0.00    -0.203 F 
ATOM     88  F   UNL A   1      50.393  25.906  25.647  1.00  0.00    -0.200 F 
ATOM     89  C   UNL A   1      49.327  26.779  23.729  1.00  0.00     0.200 A 
ATOM     90  F   UNL A   1      48.230  27.679  21.842  1.00  0.00    -0.200 F 
ATOM     91  F   UNL A   1      50.347  26.373  22.960  1.00  0.00    -0.200 F 
ENDBRANCH  58  81
ENDBRANCH  32  33
ENDBRANCH  25  27
ENDBRANCH  24  25
ENDBRANCH  23  24
ENDBRANCH  22  23
ENDBRANCH  21  22
ENDBRANCH   1  21
TORSDOF 17
ENDMDL
MODEL 3
REMARK VINA RESULT:     -11.0      3.079      8.007
REMARK SMILES Cc1ccc2oc(CCCC(=O)OCCOCCOC(=O)c3ccc(-c4c5nc(c(-c6c(F)c(F)c(F)c(F)c6F)c6ccc([nH]6)c(-c6c(F)c(F)c(F)c(F)c6F)c6nc(c(-c7c(F)c(F)c(F)c(F)c7F)c7ccc4[nH]7)C=C6)C=C5)cc3)cc(=O)c2c1
REMARK SMILES IDX 15 1 14 2 13 3 11 4 12 5 10 6 9 7 8 8 7 9 1 10 2 11 3 12
REMARK SMILES IDX 89 13 4 14 88 15 5 16 86 17 6 18 85 19 87 20 16 21 17 22
REMARK SMILES IDX 18 23 19 24 20 25 21 26 22 27 23 28 84 29 24 30 83 31 25 32
REMARK SMILES IDX 26 33 27 34 77 35 28 36 82 37 76 38 78 39 29 40 81 41 75 42
REMARK SMILES IDX 74 43 30 45 62 46 42 47 61 48 43 49 46 50 60 51 79 52 44 53
REMARK SMILES IDX 45 54 59 56 80 57 47 58 31 59 32 60 40 61 33 62 34 63 38 64
REMARK SMILES IDX 41 65 35 66 36 67 39 68 37 69 63 70 64 71 72 72 65 73 66 74
REMARK SMILES IDX 70 75 73 76 67 77 68 78 71 79 69 80 48 81 49 82 57 83 50 84
REMARK SMILES IDX 51 85 55 86 58 87 52 88 53 89 56 90 54 91
REMARK H PARENT 78 44 46 55
REMARK Flexibility Score: inf
ROOT
ATOM      1  C   UNL A   1      34.842  33.828  29.117  1.00  0.00     0.202 C 
ENDROOT
BRANCH   1   2
ATOM      2  C   UNL A   1      35.129  32.807  28.015  1.00  0.00     0.261 C 
BRANCH   2   3
ATOM      3  O   UNL A   1      35.076  31.480  28.569  1.00  0.00    -0.463 OA
BRANCH   3   4
ATOM      4  C   UNL A   1      35.181  30.452  27.698  1.00  0.00     0.305 C 
ATOM      5  O   UNL A   1      36.240  29.979  27.302  1.00  0.00    -0.252 OA
BRANCH   4   6
ATOM      6  C   UNL A   1      33.838  29.909  27.247  1.00  0.00     0.123 C 
BRANCH   6   7
ATOM      7  C   UNL A   1      33.686  28.412  26.939  1.00  0.00     0.020 C 
BRANCH   7   8
ATOM      8  C   UNL A   1      33.117  27.991  25.573  1.00  0.00     0.076 C 
BRANCH   8   9
ATOM      9  C   UNL A   1      32.651  26.564  25.516  1.00  0.00     0.108 A 
ATOM     10  C   UNL A   1      32.527  20.302  23.894  1.00  0.00     0.044 C 
ATOM     11  C   UNL A   1      32.642  21.792  24.019  1.00  0.00    -0.050 A 
ATOM     12  C   UNL A   1      33.346  22.540  23.064  1.00  0.00     0.007 A 
ATOM     13  C   UNL A   1      32.038  22.451  25.102  1.00  0.00     0.019 A 
ATOM     14  C   UNL A   1      33.442  23.927  23.183  1.00  0.00     0.048 A 
ATOM     15  C   UNL A   1      32.153  23.836  25.223  1.00  0.00     0.065 A 
ATOM     16  C   UNL A   1      32.844  24.568  24.264  1.00  0.00     0.138 A 
ATOM     17  C   UNL A   1      31.590  24.555  26.378  1.00  0.00     0.192 A 
ATOM     18  O   UNL A   1      32.981  25.928  24.331  1.00  0.00    -0.461 OA
ATOM     19  C   UNL A   1      31.962  25.976  26.504  1.00  0.00     0.095 A 
ATOM     20  O   UNL A   1      30.889  24.008  27.218  1.00  0.00    -0.289 OA
ENDBRANCH   8   9
ENDBRANCH   7   8
ENDBRANCH   6   7
ENDBRANCH   4   6
ENDBRANCH   3   4
ENDBRANCH   2   3
ENDBRANCH   1   2
BRANCH   1  21
ATOM     21  O   UNL A   1      34.486  33.272  30.385  1.00  0.00    -0.374 OA
BRANCH  21  22
ATOM     22  C   UNL A   1      34.923  33.969  31.550  1.00  0.00     0.202 C 
BRANCH  22  23
ATOM     23  C   UNL A   1      34.923  33.160  32.853  1.00  0.00     0.261 C 
BRANCH  23  24
ATOM     24  O   UNL A   1      35.511  31.858  32.692  1.00  0.00    -0.460 OA
BRANCH  24  25
ATOM     25  C   UNL A   1      36.734  31.721  33.257  1.00  0.00     0.338 C 
ATOM     26  O   UNL A   1      37.043  31.952  34.420  1.00  0.00    -0.246 OA
BRANCH  25  27
ATOM     27  C   UNL A   1      37.673  31.089  32.315  1.00  0.00     0.060 A 
ATOM     28  C   UNL A   1      38.781  30.426  32.859  1.00  0.00     0.016 A 
ATOM     29  C   UNL A   1      37.532  31.211  30.931  1.00  0.00     0.016 A 
ATOM     30  C   UNL A   1      39.779  29.929  32.025  1.00  0.00     0.010 A 
ATOM     31  C   UNL A   1      38.539  30.716  30.093  1.00  0.00     0.010 A 
ATOM     32  C   UNL A   1      39.683  30.105  30.638  1.00  0.00    -0.014 A 
BRANCH  32  33
ATOM     33  C   UNL A   1      40.848  29.776  29.781  1.00  0.00     0.031 A 
ATOM     34  C   UNL A   1      40.948  28.404  29.174  1.00  0.00     0.074 A 
ATOM     35  C   UNL A   1      41.788  30.700  29.513  1.00  0.00     0.049 A 
ATOM     36  N   UNL A   1      41.886  27.896  28.414  1.00  0.00    -0.248 NA
ATOM     37  C   UNL A   1      39.839  27.480  29.459  1.00  0.00     0.031 C 
ATOM     38  C   UNL A   1      41.783  32.075  30.004  1.00  0.00     0.029 A 
ATOM     39  N   UNL A   1      42.934  30.614  28.761  1.00  0.00    -0.354 N 
ATOM     40  C   UNL A   1      41.484  26.596  28.136  1.00  0.00     0.074 A 
ATOM     41  C   UNL A   1      40.231  26.383  28.828  1.00  0.00     0.031 C 
ATOM     42  C   UNL A   1      42.880  32.705  29.550  1.00  0.00     0.029 A 
ATOM     43  C   UNL A   1      43.678  31.766  28.762  1.00  0.00     0.049 A 
ATOM     44  H   UNL A   1      43.196  29.802  28.269  1.00  0.00     0.167 HD
ATOM     45  C   UNL A   1      42.098  25.669  27.364  1.00  0.00     0.037 A 
ATOM     46  C   UNL A   1      44.879  32.026  28.208  1.00  0.00     0.037 A 
ATOM     47  C   UNL A   1      43.341  25.880  26.671  1.00  0.00     0.049 A 
ATOM     48  C   UNL A   1      45.580  30.950  27.419  1.00  0.00     0.074 A 
ATOM     49  C   UNL A   1      44.029  25.010  25.844  1.00  0.00     0.029 A 
ATOM     50  N   UNL A   1      44.089  27.047  26.733  1.00  0.00    -0.354 N 
ATOM     51  N   UNL A   1      45.180  29.734  27.137  1.00  0.00    -0.248 NA
ATOM     52  C   UNL A   1      46.903  31.286  26.871  1.00  0.00     0.031 C 
ATOM     53  C   UNL A   1      45.217  25.631  25.445  1.00  0.00     0.029 A 
ATOM     54  C   UNL A   1      45.247  26.907  25.984  1.00  0.00     0.049 A 
ATOM     55  H   UNL A   1      43.836  27.855  27.235  1.00  0.00     0.167 HD
ATOM     56  C   UNL A   1      46.187  29.169  26.366  1.00  0.00     0.074 A 
ATOM     57  C   UNL A   1      47.212  30.179  26.209  1.00  0.00     0.031 C 
ATOM     58  C   UNL A   1      46.257  27.923  25.835  1.00  0.00     0.037 A 
BRANCH  45  59
ATOM     59  C   UNL A   1      41.444  24.324  27.245  1.00  0.00     0.064 A 
ATOM     60  C   UNL A   1      40.268  24.141  26.502  1.00  0.00     0.173 A 
ATOM     61  C   UNL A   1      42.021  23.199  27.852  1.00  0.00     0.173 A 
ATOM     62  F   UNL A   1      39.671  25.188  25.913  1.00  0.00    -0.203 F 
ATOM     63  C   UNL A   1      39.683  22.882  26.389  1.00  0.00     0.198 A 
ATOM     64  C   UNL A   1      41.446  21.938  27.717  1.00  0.00     0.198 A 
ATOM     65  F   UNL A   1      43.146  23.322  28.572  1.00  0.00    -0.203 F 
ATOM     66  F   UNL A   1      38.537  22.737  25.708  1.00  0.00    -0.200 F 
ATOM     67  C   UNL A   1      40.275  21.782  26.991  1.00  0.00     0.200 A 
ATOM     68  F   UNL A   1      42.025  20.875  28.290  1.00  0.00    -0.200 F 
ATOM     69  F   UNL A   1      39.713  20.571  26.877  1.00  0.00    -0.200 F 
ENDBRANCH  45  59
BRANCH  46  70
ATOM     70  C   UNL A   1      45.510  33.358  28.395  1.00  0.00     0.064 A 
ATOM     71  C   UNL A   1      46.308  33.630  29.513  1.00  0.00     0.173 A 
ATOM     72  C   UNL A   1      45.310  34.391  27.467  1.00  0.00     0.173 A 
ATOM     73  F   UNL A   1      46.505  32.683  30.442  1.00  0.00    -0.203 F 
ATOM     74  C   UNL A   1      46.872  34.890  29.705  1.00  0.00     0.198 A 
ATOM     75  C   UNL A   1      45.896  35.642  27.645  1.00  0.00     0.198 A 
ATOM     76  F   UNL A   1      44.550  34.181  26.383  1.00  0.00    -0.203 F 
ATOM     77  F   UNL A   1      47.595  35.138  30.804  1.00  0.00    -0.200 F 
ATOM     78  C   UNL A   1      46.670  35.893  28.767  1.00  0.00     0.200 A 
ATOM     79  F   UNL A   1      45.705  36.604  26.734  1.00  0.00    -0.200 F 
ATOM     80  F   UNL A   1      47.214  37.103  28.951  1.00  0.00    -0.200 F 
ENDBRANCH  46  70
BRANCH  58  81
ATOM     81  C   UNL A   1      47.470  27.588  25.017  1.00  0.00     0.064 A 
ATOM     82  C   UNL A   1      48.611  27.014  25.597  1.00  0.00     0.173 A 
ATOM     83  C   UNL A   1      47.475  27.803  23.631  1.00  0.00     0.173 A 
ATOM     84  F   UNL A   1      48.661  26.802  26.921  1.00  0.00    -0.203 F 
ATOM     85  C   UNL A   1      49.721  26.688  24.821  1.00  0.00     0.198 A 
ATOM     86  C   UNL A   1      48.575  27.452  22.854  1.00  0.00     0.198 A 
ATOM     87  F   UNL A   1      46.406  28.344  23.027  1.00  0.00    -0.203 F 
ATOM     88  F   UNL A   1      50.816  26.180  25.402  1.00  0.00    -0.200 F 
ATOM     89  C   UNL A   1      49.699  26.900  23.451  1.00  0.00     0.200 A 
ATOM     90  F   UNL A   1      48.548  27.645  21.528  1.00  0.00    -0.200 F 
ATOM     91  F   UNL A   1      50.765  26.579  22.705  1.00  0.00    -0.200 F 
ENDBRANCH  58  81
ENDBRANCH  32  33
ENDBRANCH  25  27
ENDBRANCH  24  25
ENDBRANCH  23  24
ENDBRANCH  22  23
ENDBRANCH  21  22
ENDBRANCH   1  21
TORSDOF 17
ENDMDL
