MODEL 1
REMARK VINA RESULT:     -12.3      0.000      0.000
REMARK SMILES COc1cc(C)c(S(=O)(=O)Nc2cc(C(=O)OCCOCCOC(=O)c3ccc(-c4c5nc(c(-c6c(F)c(F)c(F)c(F)c6F)c6ccc([nH]6)c(-c6c(F)c(F)c(F)c(F)c6F)c6nc(c(-c7c(F)c(F)c(F)c(F)c7F)c7ccc4[nH]7)C=C6)C=C5)cc3)ccc2F)cc1OC
REMARK SMILES IDX 19 1 18 2 17 3 15 4 16 5 14 6 12 7 13 8 91 9 90 10 92 11
REMARK SMILES IDX 89 12 11 13 8 15 9 16 10 17 7 18 3 19 4 20 94 21 5 22 93 23
REMARK SMILES IDX 6 24 2 25 1 26 95 27 96 28 20 29 21 30 22 31 23 32 24 33
REMARK SMILES IDX 25 34 26 35 27 36 88 37 28 38 87 39 29 40 30 41 31 42 81 43
REMARK SMILES IDX 32 44 86 45 80 46 82 47 33 48 85 49 79 50 78 51 34 53 66 54
REMARK SMILES IDX 46 55 65 56 47 57 50 58 64 59 83 60 48 61 49 62 63 64 84 65
REMARK SMILES IDX 51 66 35 67 36 68 44 69 37 70 38 71 42 72 45 73 39 74 40 75
REMARK SMILES IDX 43 76 41 77 67 78 68 79 76 80 69 81 70 82 74 83 77 84 71 85
REMARK SMILES IDX 72 86 75 87 73 88 52 89 53 90 61 91 54 92 55 93 59 94 62 95
REMARK SMILES IDX 56 96 57 97 60 98 58 99
REMARK H PARENT 11 14 82 52 50 63
REMARK Flexibility Score: inf
ROOT
ATOM      1  C   UNL A   1      35.870  22.204  24.398  1.00  0.00     0.202 C 
ENDROOT
BRANCH   1   2
ATOM      2  C   UNL A   1      34.396  22.077  24.298  1.00  0.00     0.261 C 
BRANCH   2   3
ATOM      3  O   UNL A   1      33.831  23.357  24.014  1.00  0.00    -0.460 OA
BRANCH   3   4
ATOM      4  C   UNL A   1      33.779  24.269  25.013  1.00  0.00     0.338 C 
ATOM      5  O   UNL A   1      33.722  24.099  26.218  1.00  0.00    -0.246 OA
BRANCH   4   6
ATOM      6  C   UNL A   1      33.560  25.575  24.350  1.00  0.00     0.062 A 
ATOM      7  C   UNL A   1      33.778  27.980  24.653  1.00  0.00     0.085 A 
ATOM      8  C   UNL A   1      33.495  26.726  25.166  1.00  0.00     0.045 A 
ATOM      9  C   UNL A   1      33.728  28.117  23.265  1.00  0.00     0.147 A 
ATOM     10  C   UNL A   1      33.724  26.983  22.425  1.00  0.00     0.042 A 
ATOM     11  F   UNL A   1      33.725  29.328  22.697  1.00  0.00    -0.205 F 
ATOM     12  C   UNL A   1      33.736  25.700  22.974  1.00  0.00     0.019 A 
BRANCH   7  13
ATOM     13  N   UNL A   1      34.019  28.994  25.639  1.00  0.00    -0.277 N 
ATOM     14  H   UNL A   1      34.961  29.193  25.838  1.00  0.00     0.180 HD
BRANCH  13  15
ATOM     15  S   UNL A   1      32.853  29.895  26.507  1.00  0.00     0.262 S 
ATOM     16  O   UNL A   1      32.326  28.927  27.453  1.00  0.00    -0.201 OA
ATOM     17  O   UNL A   1      31.974  30.542  25.563  1.00  0.00    -0.201 OA
BRANCH  15  18
ATOM     18  C   UNL A   1      33.607  31.199  27.551  1.00  0.00     0.094 A 
ATOM     19  C   UNL A   1      35.011  33.613  29.940  1.00  0.00     0.161 A 
ATOM     20  C   UNL A   1      35.825  32.010  29.655  1.00  0.00     0.055 A 
ATOM     21  C   UNL A   1      33.508  34.017  28.998  1.00  0.00     0.162 A 
ATOM     22  C   UNL A   1      35.121  30.821  28.408  1.00  0.00    -0.027 A 
ATOM     23  C   UNL A   1      32.819  32.801  27.802  1.00  0.00     0.073 A 
ATOM     24  C   UNL A   1      35.975  29.705  27.868  1.00  0.00     0.046 C 
BRANCH  19  25
ATOM     25  O   UNL A   1      35.479  34.556  30.806  1.00  0.00    -0.493 OA
ATOM     26  C   UNL A   1      34.855  34.593  32.073  1.00  0.00     0.278 C 
ENDBRANCH  19  25
BRANCH  21  27
ATOM     27  O   UNL A   1      32.851  35.226  29.039  1.00  0.00    -0.493 OA
ATOM     28  C   UNL A   1      33.639  36.333  28.608  1.00  0.00     0.278 C 
ENDBRANCH  21  27
ENDBRANCH  15  18
ENDBRANCH  13  15
ENDBRANCH   7  13
ENDBRANCH   4   6
ENDBRANCH   3   4
ENDBRANCH   2   3
ENDBRANCH   1   2
BRANCH   1  29
ATOM     29  O   UNL A   1      36.176  21.209  25.357  1.00  0.00    -0.374 OA
BRANCH  29  30
ATOM     30  C   UNL A   1      37.468  20.652  25.287  1.00  0.00     0.202 C 
BRANCH  30  31
ATOM     31  C   UNL A   1      38.461  21.803  25.377  1.00  0.00     0.261 C 
BRANCH  31  32
ATOM     32  O   UNL A   1      39.659  21.340  26.065  1.00  0.00    -0.460 OA
BRANCH  32  33
ATOM     33  C   UNL A   1      40.706  22.222  26.103  1.00  0.00     0.338 C 
ATOM     34  O   UNL A   1      41.796  22.022  25.586  1.00  0.00    -0.246 OA
BRANCH  33  35
ATOM     35  C   UNL A   1      40.458  23.333  27.095  1.00  0.00     0.060 A 
ATOM     36  C   UNL A   1      39.762  24.483  26.665  1.00  0.00     0.016 A 
ATOM     37  C   UNL A   1      41.277  23.411  28.221  1.00  0.00     0.016 A 
ATOM     38  C   UNL A   1      40.050  25.739  27.219  1.00  0.00     0.010 A 
ATOM     39  C   UNL A   1      41.651  24.668  28.677  1.00  0.00     0.010 A 
ATOM     40  C   UNL A   1      41.066  25.843  28.165  1.00  0.00    -0.014 A 
BRANCH  40  41
ATOM     41  C   UNL A   1      41.683  27.126  28.561  1.00  0.00     0.031 A 
ATOM     42  C   UNL A   1      40.929  28.081  29.423  1.00  0.00     0.074 A 
ATOM     43  C   UNL A   1      43.016  27.083  28.729  1.00  0.00     0.049 A 
ATOM     44  N   UNL A   1      41.397  29.164  29.968  1.00  0.00    -0.248 NA
ATOM     45  C   UNL A   1      39.490  27.931  29.566  1.00  0.00     0.031 C 
ATOM     46  C   UNL A   1      43.658  27.086  30.025  1.00  0.00     0.029 A 
ATOM     47  N   UNL A   1      44.054  26.915  27.806  1.00  0.00    -0.354 N 
ATOM     48  C   UNL A   1      40.349  29.785  30.630  1.00  0.00     0.074 A 
ATOM     49  C   UNL A   1      39.182  29.022  30.263  1.00  0.00     0.031 C 
ATOM     50  C   UNL A   1      44.971  26.961  29.809  1.00  0.00     0.029 A 
ATOM     51  C   UNL A   1      45.325  27.190  28.410  1.00  0.00     0.049 A 
ATOM     52  H   UNL A   1      43.929  26.642  26.868  1.00  0.00     0.167 HD
ATOM     53  C   UNL A   1      40.554  30.859  31.451  1.00  0.00     0.037 A 
ATOM     54  C   UNL A   1      46.261  28.181  27.895  1.00  0.00     0.037 A 
ATOM     55  C   UNL A   1      41.953  31.328  31.389  1.00  0.00     0.049 A 
ATOM     56  C   UNL A   1      46.790  30.218  28.348  1.00  0.00     0.074 A 
ATOM     57  C   UNL A   1      43.044  31.137  32.214  1.00  0.00     0.029 A 
ATOM     58  N   UNL A   1      42.452  31.979  30.256  1.00  0.00    -0.354 N 
ATOM     59  N   UNL A   1      46.368  31.073  29.413  1.00  0.00    -0.248 NA
ATOM     60  C   UNL A   1      47.523  31.470  27.557  1.00  0.00     0.031 C 
ATOM     61  C   UNL A   1      44.198  31.662  31.559  1.00  0.00     0.029 A 
ATOM     62  C   UNL A   1      43.843  32.175  30.318  1.00  0.00     0.049 A 
ATOM     63  H   UNL A   1      41.891  32.267  29.499  1.00  0.00     0.167 HD
ATOM     64  C   UNL A   1      45.891  32.276  28.924  1.00  0.00     0.074 A 
ATOM     65  C   UNL A   1      46.886  32.590  27.945  1.00  0.00     0.031 C 
ATOM     66  C   UNL A   1      44.626  32.786  29.200  1.00  0.00     0.037 A 
BRANCH  53  67
ATOM     67  C   UNL A   1      39.533  31.420  32.474  1.00  0.00     0.064 A 
ATOM     68  C   UNL A   1      39.035  32.736  32.316  1.00  0.00     0.173 A 
ATOM     69  C   UNL A   1      39.071  30.798  33.664  1.00  0.00     0.173 A 
ATOM     70  F   UNL A   1      39.335  33.461  31.231  1.00  0.00    -0.203 F 
ATOM     71  C   UNL A   1      38.215  33.371  33.269  1.00  0.00     0.198 A 
ATOM     72  C   UNL A   1      38.227  31.419  34.596  1.00  0.00     0.198 A 
ATOM     73  F   UNL A   1      39.422  29.569  34.032  1.00  0.00    -0.203 F 
ATOM     74  F   UNL A   1      37.826  34.638  33.072  1.00  0.00    -0.200 F 
ATOM     75  C   UNL A   1      37.815  32.713  34.412  1.00  0.00     0.200 A 
ATOM     76  F   UNL A   1      37.843  30.744  35.691  1.00  0.00    -0.200 F 
ATOM     77  F   UNL A   1      37.049  33.320  35.328  1.00  0.00    -0.200 F 
ENDBRANCH  53  67
BRANCH  54  78
ATOM     78  C   UNL A   1      46.618  27.122  26.567  1.00  0.00     0.064 A 
ATOM     79  C   UNL A   1      46.276  27.586  25.273  1.00  0.00     0.173 A 
ATOM     80  C   UNL A   1      47.734  26.240  26.616  1.00  0.00     0.173 A 
ATOM     81  F   UNL A   1      45.216  28.380  25.095  1.00  0.00    -0.203 F 
ATOM     82  C   UNL A   1      47.122  27.395  24.176  1.00  0.00     0.198 A 
ATOM     83  C   UNL A   1      48.594  26.088  25.524  1.00  0.00     0.198 A 
ATOM     84  F   UNL A   1      48.190  25.767  27.784  1.00  0.00    -0.203 F 
ATOM     85  F   UNL A   1      46.870  28.044  23.029  1.00  0.00    -0.200 F 
ATOM     86  C   UNL A   1      48.315  26.713  24.325  1.00  0.00     0.200 A 
ATOM     87  F   UNL A   1      49.788  25.506  25.709  1.00  0.00    -0.200 F 
ATOM     88  F   UNL A   1      49.249  26.772  23.365  1.00  0.00    -0.200 F 
ENDBRANCH  54  78
BRANCH  66  89
ATOM     89  C   UNL A   1      44.015  33.922  28.368  1.00  0.00     0.064 A 
ATOM     90  C   UNL A   1      43.751  33.836  26.987  1.00  0.00     0.173 A 
ATOM     91  C   UNL A   1      43.606  35.139  28.960  1.00  0.00     0.173 A 
ATOM     92  F   UNL A   1      43.869  32.682  26.324  1.00  0.00    -0.203 F 
ATOM     93  C   UNL A   1      43.298  34.922  26.232  1.00  0.00     0.198 A 
ATOM     94  C   UNL A   1      43.077  36.201  28.216  1.00  0.00     0.198 A 
ATOM     95  F   UNL A   1      43.678  35.332  30.284  1.00  0.00    -0.203 F 
ATOM     96  F   UNL A   1      43.165  34.796  24.903  1.00  0.00    -0.200 F 
ATOM     97  C   UNL A   1      42.973  36.112  26.845  1.00  0.00     0.200 A 
ATOM     98  F   UNL A   1      42.657  37.310  28.844  1.00  0.00    -0.200 F 
ATOM     99  F   UNL A   1      42.535  37.153  26.123  1.00  0.00    -0.200 F 
ENDBRANCH  66  89
ENDBRANCH  40  41
ENDBRANCH  33  35
ENDBRANCH  32  33
ENDBRANCH  31  32
ENDBRANCH  30  31
ENDBRANCH  29  30
ENDBRANCH   1  29
TORSDOF 19
ENDMDL
MODEL 2
REMARK VINA RESULT:     -12.1      0.924      2.144
REMARK SMILES COc1cc(C)c(S(=O)(=O)Nc2cc(C(=O)OCCOCCOC(=O)c3ccc(-c4c5nc(c(-c6c(F)c(F)c(F)c(F)c6F)c6ccc([nH]6)c(-c6c(F)c(F)c(F)c(F)c6F)c6nc(c(-c7c(F)c(F)c(F)c(F)c7F)c7ccc4[nH]7)C=C6)C=C5)cc3)ccc2F)cc1OC
REMARK SMILES IDX 19 1 18 2 17 3 15 4 16 5 14 6 12 7 13 8 91 9 90 10 92 11
REMARK SMILES IDX 89 12 11 13 8 15 9 16 10 17 7 18 3 19 4 20 94 21 5 22 93 23
REMARK SMILES IDX 6 24 2 25 1 26 95 27 96 28 20 29 21 30 22 31 23 32 24 33
REMARK SMILES IDX 25 34 26 35 27 36 88 37 28 38 87 39 29 40 30 41 31 42 81 43
REMARK SMILES IDX 32 44 86 45 80 46 82 47 33 48 85 49 79 50 78 51 34 53 66 54
REMARK SMILES IDX 46 55 65 56 47 57 50 58 64 59 83 60 48 61 49 62 63 64 84 65
REMARK SMILES IDX 51 66 35 67 36 68 44 69 37 70 38 71 42 72 45 73 39 74 40 75
REMARK SMILES IDX 43 76 41 77 67 78 68 79 76 80 69 81 70 82 74 83 77 84 71 85
REMARK SMILES IDX 72 86 75 87 73 88 52 89 53 90 61 91 54 92 55 93 59 94 62 95
REMARK SMILES IDX 56 96 57 97 60 98 58 99
REMARK H PARENT 11 14 82 52 50 63
REMARK Flexibility Score: inf
ROOT
ATOM      1  C   UNL A   1      35.538  20.184  25.075  1.00  0.00     0.202 C 
ENDROOT
BRANCH   1   2
ATOM      2  C   UNL A   1      34.274  20.770  25.581  1.00  0.00     0.261 C 
BRANCH   2   3
ATOM      3  O   UNL A   1      34.480  22.153  25.872  1.00  0.00    -0.460 OA
BRANCH   3   4
ATOM      4  C   UNL A   1      33.413  22.889  26.264  1.00  0.00     0.338 C 
ATOM      5  O   UNL A   1      32.549  22.631  27.083  1.00  0.00    -0.246 OA
BRANCH   4   6
ATOM      6  C   UNL A   1      33.339  24.022  25.313  1.00  0.00     0.062 A 
ATOM      7  C   UNL A   1      33.681  26.423  25.105  1.00  0.00     0.085 A 
ATOM      8  C   UNL A   1      33.272  25.328  25.847  1.00  0.00     0.045 A 
ATOM      9  C   UNL A   1      33.767  26.248  23.723  1.00  0.00     0.147 A 
ATOM     10  C   UNL A   1      33.769  24.956  23.155  1.00  0.00     0.042 A 
ATOM     11  F   UNL A   1      33.894  27.300  22.907  1.00  0.00    -0.205 F 
ATOM     12  C   UNL A   1      33.648  23.829  23.969  1.00  0.00     0.019 A 
BRANCH   7  13
ATOM     13  N   UNL A   1      33.893  27.620  25.866  1.00  0.00    -0.277 N 
ATOM     14  H   UNL A   1      34.695  27.638  26.436  1.00  0.00     0.180 HD
BRANCH  13  15
ATOM     15  S   UNL A   1      32.911  29.020  25.893  1.00  0.00     0.262 S 
ATOM     16  O   UNL A   1      31.667  28.538  26.468  1.00  0.00    -0.201 OA
ATOM     17  O   UNL A   1      32.923  29.618  24.580  1.00  0.00    -0.201 OA
BRANCH  15  18
ATOM     18  C   UNL A   1      33.513  30.278  27.083  1.00  0.00     0.094 A 
ATOM     19  C   UNL A   1      34.865  32.978  29.177  1.00  0.00     0.161 A 
ATOM     20  C   UNL A   1      33.420  33.269  28.109  1.00  0.00     0.055 A 
ATOM     21  C   UNL A   1      35.610  31.319  29.219  1.00  0.00     0.162 A 
ATOM     22  C   UNL A   1      32.725  31.875  27.090  1.00  0.00    -0.027 A 
ATOM     23  C   UNL A   1      34.919  29.976  28.169  1.00  0.00     0.073 A 
ATOM     24  C   UNL A   1      31.329  31.972  26.535  1.00  0.00     0.046 C 
BRANCH  19  25
ATOM     25  O   UNL A   1      35.415  33.932  29.982  1.00  0.00    -0.493 OA
ATOM     26  C   UNL A   1      34.559  34.478  30.964  1.00  0.00     0.278 C 
ENDBRANCH  19  25
BRANCH  21  27
ATOM     27  O   UNL A   1      36.636  30.935  30.052  1.00  0.00    -0.493 OA
ATOM     28  C   UNL A   1      36.227  30.645  31.386  1.00  0.00     0.278 C 
ENDBRANCH  21  27
ENDBRANCH  15  18
ENDBRANCH  13  15
ENDBRANCH   7  13
ENDBRANCH   4   6
ENDBRANCH   3   4
ENDBRANCH   2   3
ENDBRANCH   1   2
BRANCH   1  29
ATOM     29  O   UNL A   1      36.420  21.288  25.169  1.00  0.00    -0.374 OA
BRANCH  29  30
ATOM     30  C   UNL A   1      37.788  21.012  24.979  1.00  0.00     0.202 C 
BRANCH  30  31
ATOM     31  C   UNL A   1      38.563  21.875  25.966  1.00  0.00     0.261 C 
BRANCH  31  32
ATOM     32  O   UNL A   1      39.920  21.357  26.080  1.00  0.00    -0.460 OA
BRANCH  32  33
ATOM     33  C   UNL A   1      40.922  22.290  26.035  1.00  0.00     0.338 C 
ATOM     34  O   UNL A   1      42.022  22.097  25.537  1.00  0.00    -0.246 OA
BRANCH  33  35
ATOM     35  C   UNL A   1      40.616  23.475  26.919  1.00  0.00     0.060 A 
ATOM     36  C   UNL A   1      40.089  24.644  26.329  1.00  0.00     0.016 A 
ATOM     37  C   UNL A   1      41.257  23.563  28.154  1.00  0.00     0.016 A 
ATOM     38  C   UNL A   1      40.390  25.908  26.858  1.00  0.00     0.010 A 
ATOM     39  C   UNL A   1      41.658  24.815  28.601  1.00  0.00     0.010 A 
ATOM     40  C   UNL A   1      41.255  25.996  27.946  1.00  0.00    -0.014 A 
BRANCH  40  41
ATOM     41  C   UNL A   1      41.906  27.252  28.369  1.00  0.00     0.031 A 
ATOM     42  C   UNL A   1      41.179  28.207  29.254  1.00  0.00     0.074 A 
ATOM     43  C   UNL A   1      43.238  27.171  28.534  1.00  0.00     0.049 A 
ATOM     44  N   UNL A   1      41.675  29.265  29.823  1.00  0.00    -0.248 NA
ATOM     45  C   UNL A   1      39.736  28.092  29.396  1.00  0.00     0.031 C 
ATOM     46  C   UNL A   1      43.880  27.127  29.830  1.00  0.00     0.029 A 
ATOM     47  N   UNL A   1      44.270  26.995  27.607  1.00  0.00    -0.354 N 
ATOM     48  C   UNL A   1      40.644  29.899  30.500  1.00  0.00     0.074 A 
ATOM     49  C   UNL A   1      39.458  29.175  30.118  1.00  0.00     0.031 C 
ATOM     50  C   UNL A   1      45.189  26.972  29.609  1.00  0.00     0.029 A 
ATOM     51  C   UNL A   1      45.548  27.223  28.215  1.00  0.00     0.049 A 
ATOM     52  H   UNL A   1      44.137  26.748  26.664  1.00  0.00     0.167 HD
ATOM     53  C   UNL A   1      40.879  30.948  31.345  1.00  0.00     0.037 A 
ATOM     54  C   UNL A   1      46.510  28.200  27.722  1.00  0.00     0.037 A 
ATOM     55  C   UNL A   1      42.290  31.381  31.291  1.00  0.00     0.049 A 
ATOM     56  C   UNL A   1      47.093  30.211  28.220  1.00  0.00     0.074 A 
ATOM     57  C   UNL A   1      43.376  31.142  32.110  1.00  0.00     0.029 A 
ATOM     58  N   UNL A   1      42.805  32.043  30.173  1.00  0.00    -0.354 N 
ATOM     59  N   UNL A   1      46.695  31.053  29.304  1.00  0.00    -0.248 NA
ATOM     60  C   UNL A   1      47.859  31.461  27.456  1.00  0.00     0.031 C 
ATOM     61  C   UNL A   1      44.543  31.651  31.466  1.00  0.00     0.029 A 
ATOM     62  C   UNL A   1      44.201  32.202  30.237  1.00  0.00     0.049 A 
ATOM     63  H   UNL A   1      42.251  32.363  29.423  1.00  0.00     0.167 HD
ATOM     64  C   UNL A   1      46.249  32.279  28.843  1.00  0.00     0.074 A 
ATOM     65  C   UNL A   1      47.252  32.589  27.870  1.00  0.00     0.031 C 
ATOM     66  C   UNL A   1      44.999  32.817  29.132  1.00  0.00     0.037 A 
BRANCH  53  67
ATOM     67  C   UNL A   1      39.874  31.512  32.381  1.00  0.00     0.064 A 
ATOM     68  C   UNL A   1      39.544  30.747  33.526  1.00  0.00     0.173 A 
ATOM     69  C   UNL A   1      39.127  32.717  32.294  1.00  0.00     0.173 A 
ATOM     70  F   UNL A   1      40.177  29.597  33.791  1.00  0.00    -0.203 F 
ATOM     71  C   UNL A   1      38.542  31.120  34.442  1.00  0.00     0.198 A 
ATOM     72  C   UNL A   1      38.153  33.105  33.225  1.00  0.00     0.198 A 
ATOM     73  F   UNL A   1      39.253  33.586  31.294  1.00  0.00    -0.203 F 
ATOM     74  F   UNL A   1      38.252  30.315  35.473  1.00  0.00    -0.200 F 
ATOM     75  C   UNL A   1      37.843  32.298  34.289  1.00  0.00     0.200 A 
ATOM     76  F   UNL A   1      37.501  34.266  33.054  1.00  0.00    -0.200 F 
ATOM     77  F   UNL A   1      36.878  32.648  35.150  1.00  0.00    -0.200 F 
ENDBRANCH  53  67
BRANCH  54  78
ATOM     78  C   UNL A   1      46.838  27.162  26.369  1.00  0.00     0.064 A 
ATOM     79  C   UNL A   1      46.491  27.657  25.089  1.00  0.00     0.173 A 
ATOM     80  C   UNL A   1      47.940  26.262  26.390  1.00  0.00     0.173 A 
ATOM     81  F   UNL A   1      45.442  28.471  24.936  1.00  0.00    -0.203 F 
ATOM     82  C   UNL A   1      47.323  27.475  23.980  1.00  0.00     0.198 A 
ATOM     83  C   UNL A   1      48.787  26.119  25.287  1.00  0.00     0.198 A 
ATOM     84  F   UNL A   1      48.400  25.759  27.544  1.00  0.00    -0.203 F 
ATOM     85  F   UNL A   1      47.070  28.150  22.848  1.00  0.00    -0.200 F 
ATOM     86  C   UNL A   1      48.507  26.771  24.103  1.00  0.00     0.200 A 
ATOM     87  F   UNL A   1      49.974  25.514  25.449  1.00  0.00    -0.200 F 
ATOM     88  F   UNL A   1      49.433  26.835  23.135  1.00  0.00    -0.200 F 
ENDBRANCH  54  78
BRANCH  66  89
ATOM     89  C   UNL A   1      44.417  33.987  28.327  1.00  0.00     0.064 A 
ATOM     90  C   UNL A   1      44.403  35.323  28.774  1.00  0.00     0.173 A 
ATOM     91  C   UNL A   1      43.901  33.808  27.023  1.00  0.00     0.173 A 
ATOM     92  F   UNL A   1      45.051  35.696  29.881  1.00  0.00    -0.203 F 
ATOM     93  C   UNL A   1      43.768  36.351  28.071  1.00  0.00     0.198 A 
ATOM     94  C   UNL A   1      43.336  34.854  26.283  1.00  0.00     0.198 A 
ATOM     95  F   UNL A   1      43.954  32.619  26.407  1.00  0.00    -0.203 F 
ATOM     96  F   UNL A   1      43.707  37.580  28.605  1.00  0.00    -0.200 F 
ATOM     97  C   UNL A   1      43.221  36.114  26.829  1.00  0.00     0.200 A 
ATOM     98  F   UNL A   1      42.913  34.631  25.029  1.00  0.00    -0.200 F 
ATOM     99  F   UNL A   1      42.615  37.100  26.152  1.00  0.00    -0.200 F 
ENDBRANCH  66  89
ENDBRANCH  40  41
ENDBRANCH  33  35
ENDBRANCH  32  33
ENDBRANCH  31  32
ENDBRANCH  30  31
ENDBRANCH  29  30
ENDBRANCH   1  29
TORSDOF 19
ENDMDL
MODEL 3
REMARK VINA RESULT:     -12.0      4.294      7.777
REMARK SMILES COc1cc(C)c(S(=O)(=O)Nc2cc(C(=O)OCCOCCOC(=O)c3ccc(-c4c5nc(c(-c6c(F)c(F)c(F)c(F)c6F)c6ccc([nH]6)c(-c6c(F)c(F)c(F)c(F)c6F)c6nc(c(-c7c(F)c(F)c(F)c(F)c7F)c7ccc4[nH]7)C=C6)C=C5)cc3)ccc2F)cc1OC
REMARK SMILES IDX 19 1 18 2 17 3 15 4 16 5 14 6 12 7 13 8 91 9 90 10 92 11
REMARK SMILES IDX 89 12 11 13 8 15 9 16 10 17 7 18 3 19 4 20 94 21 5 22 93 23
REMARK SMILES IDX 6 24 2 25 1 26 95 27 96 28 20 29 21 30 22 31 23 32 24 33
REMARK SMILES IDX 25 34 26 35 27 36 88 37 28 38 87 39 29 40 30 41 31 42 81 43
REMARK SMILES IDX 32 44 86 45 80 46 82 47 33 48 85 49 79 50 78 51 34 53 66 54
REMARK SMILES IDX 46 55 65 56 47 57 50 58 64 59 83 60 48 61 49 62 63 64 84 65
REMARK SMILES IDX 51 66 35 67 36 68 44 69 37 70 38 71 42 72 45 73 39 74 40 75
REMARK SMILES IDX 43 76 41 77 67 78 68 79 76 80 69 81 70 82 74 83 77 84 71 85
REMARK SMILES IDX 72 86 75 87 73 88 52 89 53 90 61 91 54 92 55 93 59 94 62 95
REMARK SMILES IDX 56 96 57 97 60 98 58 99
REMARK H PARENT 11 14 82 52 50 63
REMARK Flexibility Score: inf
ROOT
ATOM      1  C   UNL A   1      42.432  18.653  26.419  1.00  0.00     0.202 C 
ENDROOT
BRANCH   1   2
ATOM      2  C   UNL A   1      43.464  18.568  25.357  1.00  0.00     0.261 C 
BRANCH   2   3
ATOM      3  O   UNL A   1      44.634  19.268  25.781  1.00  0.00    -0.460 OA
BRANCH   3   4
ATOM      4  C   UNL A   1      45.345  19.947  24.850  1.00  0.00     0.338 C 
ATOM      5  O   UNL A   1      46.242  19.560  24.122  1.00  0.00    -0.246 OA
BRANCH   4   6
ATOM      6  C   UNL A   1      44.988  21.372  25.036  1.00  0.00     0.062 A 
ATOM      7  C   UNL A   1      45.858  23.641  24.883  1.00  0.00     0.085 A 
ATOM      8  C   UNL A   1      46.041  22.302  25.186  1.00  0.00     0.045 A 
ATOM      9  C   UNL A   1      44.539  24.097  24.823  1.00  0.00     0.147 A 
ATOM     10  C   UNL A   1      43.462  23.189  24.740  1.00  0.00     0.042 A 
ATOM     11  F   UNL A   1      44.270  25.406  24.800  1.00  0.00    -0.205 F 
ATOM     12  C   UNL A   1      43.698  21.814  24.752  1.00  0.00     0.019 A 
BRANCH   7  13
ATOM     13  N   UNL A   1      47.068  24.396  24.739  1.00  0.00    -0.277 N 
ATOM     14  H   UNL A   1      47.488  24.382  23.850  1.00  0.00     0.180 HD
BRANCH  13  15
ATOM     15  S   UNL A   1      47.864  25.319  25.939  1.00  0.00     0.262 S 
ATOM     16  O   UNL A   1      49.022  25.844  25.237  1.00  0.00    -0.201 OA
ATOM     17  O   UNL A   1      48.035  24.499  27.114  1.00  0.00    -0.201 OA
BRANCH  15  18
ATOM     18  C   UNL A   1      46.909  26.805  26.432  1.00  0.00     0.094 A 
ATOM     19  C   UNL A   1      44.742  29.680  27.168  1.00  0.00     0.161 A 
ATOM     20  C   UNL A   1      44.281  28.007  27.718  1.00  0.00     0.055 A 
ATOM     21  C   UNL A   1      46.311  29.913  26.277  1.00  0.00     0.162 A 
ATOM     22  C   UNL A   1      45.416  26.572  27.373  1.00  0.00    -0.027 A 
ATOM     23  C   UNL A   1      47.388  28.465  25.919  1.00  0.00     0.073 A 
ATOM     24  C   UNL A   1      45.267  25.292  28.151  1.00  0.00     0.046 C 
BRANCH  19  25
ATOM     25  O   UNL A   1      43.989  30.790  27.411  1.00  0.00    -0.493 OA
ATOM     26  C   UNL A   1      43.197  30.754  28.580  1.00  0.00     0.278 C 
ENDBRANCH  19  25
BRANCH  21  27
ATOM     27  O   UNL A   1      46.828  31.130  25.894  1.00  0.00    -0.493 OA
ATOM     28  C   UNL A   1      47.248  31.952  26.979  1.00  0.00     0.278 C 
ENDBRANCH  21  27
ENDBRANCH  15  18
ENDBRANCH  13  15
ENDBRANCH   7  13
ENDBRANCH   4   6
ENDBRANCH   3   4
ENDBRANCH   2   3
ENDBRANCH   1   2
BRANCH   1  29
ATOM     29  O   UNL A   1      41.366  19.277  25.729  1.00  0.00    -0.374 OA
BRANCH  29  30
ATOM     30  C   UNL A   1      40.425  19.963  26.522  1.00  0.00     0.202 C 
BRANCH  30  31
ATOM     31  C   UNL A   1      40.140  21.292  25.837  1.00  0.00     0.261 C 
BRANCH  31  32
ATOM     32  O   UNL A   1      39.703  22.254  26.839  1.00  0.00    -0.460 OA
BRANCH  32  33
ATOM     33  C   UNL A   1      40.653  23.142  27.272  1.00  0.00     0.338 C 
ATOM     34  O   UNL A   1      41.734  22.819  27.743  1.00  0.00    -0.246 OA
BRANCH  33  35
ATOM     35  C   UNL A   1      40.099  24.543  27.368  1.00  0.00     0.060 A 
ATOM     36  C   UNL A   1      40.738  25.576  26.649  1.00  0.00     0.016 A 
ATOM     37  C   UNL A   1      39.303  24.866  28.466  1.00  0.00     0.016 A 
ATOM     38  C   UNL A   1      40.758  26.886  27.150  1.00  0.00     0.010 A 
ATOM     39  C   UNL A   1      39.430  26.132  29.022  1.00  0.00     0.010 A 
ATOM     40  C   UNL A   1      40.179  27.144  28.389  1.00  0.00    -0.014 A 
BRANCH  40  41
ATOM     41  C   UNL A   1      40.428  28.377  29.164  1.00  0.00     0.031 A 
ATOM     42  C   UNL A   1      39.401  29.458  29.195  1.00  0.00     0.074 A 
ATOM     43  C   UNL A   1      41.159  28.205  30.280  1.00  0.00     0.049 A 
ATOM     44  N   UNL A   1      39.418  30.518  29.947  1.00  0.00    -0.248 NA
ATOM     45  C   UNL A   1      38.345  29.470  28.195  1.00  0.00     0.031 C 
ATOM     46  C   UNL A   1      40.596  28.222  31.612  1.00  0.00     0.029 A 
ATOM     47  N   UNL A   1      42.506  27.871  30.454  1.00  0.00    -0.354 N 
ATOM     48  C   UNL A   1      38.313  31.286  29.612  1.00  0.00     0.074 A 
ATOM     49  C   UNL A   1      37.748  30.628  28.461  1.00  0.00     0.031 C 
ATOM     50  C   UNL A   1      41.593  27.946  32.458  1.00  0.00     0.029 A 
ATOM     51  C   UNL A   1      42.904  28.049  31.820  1.00  0.00     0.049 A 
ATOM     52  H   UNL A   1      43.100  27.555  29.736  1.00  0.00     0.167 HD
ATOM     53  C   UNL A   1      37.952  32.382  30.345  1.00  0.00     0.037 A 
ATOM     54  C   UNL A   1      44.011  28.901  32.229  1.00  0.00     0.037 A 
ATOM     55  C   UNL A   1      38.958  32.696  31.380  1.00  0.00     0.049 A 
ATOM     56  C   UNL A   1      44.249  30.895  33.004  1.00  0.00     0.074 A 
ATOM     57  C   UNL A   1      39.019  32.443  32.737  1.00  0.00     0.029 A 
ATOM     58  N   UNL A   1      40.210  33.219  31.042  1.00  0.00    -0.354 N 
ATOM     59  N   UNL A   1      43.272  31.855  33.414  1.00  0.00    -0.248 NA
ATOM     60  C   UNL A   1      45.465  32.012  33.089  1.00  0.00     0.031 C 
ATOM     61  C   UNL A   1      40.319  32.802  33.201  1.00  0.00     0.029 A 
ATOM     62  C   UNL A   1      41.085  33.271  32.141  1.00  0.00     0.049 A 
ATOM     63  H   UNL A   1      40.451  33.516  30.134  1.00  0.00     0.167 HD
ATOM     64  C   UNL A   1      43.472  33.069  32.781  1.00  0.00     0.074 A 
ATOM     65  C   UNL A   1      44.890  33.215  32.905  1.00  0.00     0.031 C 
ATOM     66  C   UNL A   1      42.505  33.726  32.025  1.00  0.00     0.037 A 
BRANCH  53  67
ATOM     67  C   UNL A   1      36.586  33.109  30.264  1.00  0.00     0.064 A 
ATOM     68  C   UNL A   1      36.178  33.700  29.043  1.00  0.00     0.173 A 
ATOM     69  C   UNL A   1      35.676  33.361  31.325  1.00  0.00     0.173 A 
ATOM     70  F   UNL A   1      36.895  33.535  27.925  1.00  0.00    -0.203 F 
ATOM     71  C   UNL A   1      35.023  34.495  28.918  1.00  0.00     0.198 A 
ATOM     72  C   UNL A   1      34.507  34.125  31.192  1.00  0.00     0.198 A 
ATOM     73  F   UNL A   1      35.860  32.922  32.568  1.00  0.00    -0.203 F 
ATOM     74  F   UNL A   1      34.731  35.063  27.740  1.00  0.00    -0.200 F 
ATOM     75  C   UNL A   1      34.189  34.711  29.994  1.00  0.00     0.200 A 
ATOM     76  F   UNL A   1      33.709  34.302  32.256  1.00  0.00    -0.200 F 
ATOM     77  F   UNL A   1      33.098  35.481  29.882  1.00  0.00    -0.200 F 
ENDBRANCH  53  67
BRANCH  54  78
ATOM     78  C   UNL A   1      45.122  27.730  31.589  1.00  0.00     0.064 A 
ATOM     79  C   UNL A   1      46.198  28.229  30.816  1.00  0.00     0.173 A 
ATOM     80  C   UNL A   1      45.392  26.521  32.290  1.00  0.00     0.173 A 
ATOM     81  F   UNL A   1      46.048  29.331  30.075  1.00  0.00    -0.203 F 
ATOM     82  C   UNL A   1      47.492  27.714  30.938  1.00  0.00     0.198 A 
ATOM     83  C   UNL A   1      46.696  26.038  32.438  1.00  0.00     0.198 A 
ATOM     84  F   UNL A   1      44.474  25.969  33.096  1.00  0.00    -0.203 F 
ATOM     85  F   UNL A   1      48.516  28.361  30.362  1.00  0.00    -0.200 F 
ATOM     86  C   UNL A   1      47.749  26.670  31.808  1.00  0.00     0.200 A 
ATOM     87  F   UNL A   1      46.941  25.089  33.354  1.00  0.00    -0.200 F 
ATOM     88  F   UNL A   1      49.012  26.364  32.140  1.00  0.00    -0.200 F 
ENDBRANCH  54  78
BRANCH  66  89
ATOM     89  C   UNL A   1      42.869  34.865  31.064  1.00  0.00     0.064 A 
ATOM     90  C   UNL A   1      43.343  36.126  31.477  1.00  0.00     0.173 A 
ATOM     91  C   UNL A   1      42.811  34.700  29.661  1.00  0.00     0.173 A 
ATOM     92  F   UNL A   1      43.667  36.367  32.750  1.00  0.00    -0.203 F 
ATOM     93  C   UNL A   1      43.561  37.183  30.588  1.00  0.00     0.198 A 
ATOM     94  C   UNL A   1      43.107  35.736  28.765  1.00  0.00     0.198 A 
ATOM     95  F   UNL A   1      42.496  33.522  29.108  1.00  0.00    -0.203 F 
ATOM     96  F   UNL A   1      43.916  38.386  31.063  1.00  0.00    -0.200 F 
ATOM     97  C   UNL A   1      43.429  36.992  29.230  1.00  0.00     0.200 A 
ATOM     98  F   UNL A   1      43.086  35.500  27.444  1.00  0.00    -0.200 F 
ATOM     99  F   UNL A   1      43.641  38.004  28.377  1.00  0.00    -0.200 F 
ENDBRANCH  66  89
ENDBRANCH  40  41
ENDBRANCH  33  35
ENDBRANCH  32  33
ENDBRANCH  31  32
ENDBRANCH  30  31
ENDBRANCH  29  30
ENDBRANCH   1  29
TORSDOF 19
ENDMDL
