MODEL 1
REMARK VINA RESULT:     -12.2      0.000      0.000
REMARK SMILES C[C@@H](C(=O)OCCOCCOC(=O)c1ccc(-c2c3nc(c(-c4c(F)c(F)c(F)c(F)c4F)c4ccc([nH]4)c(-c4c(F)c(F)c(F)c(F)c4F)c4nc(c(-c5c(F)c(F)c(F)c(F)c5F)c5ccc2[nH]5)C=C4)C=C3)cc1)c1ccc(-c2cccc(OC(=O)NCCCc3ccccc3)c2)c(F)c1
REMARK SMILES IDX 5 1 3 2 4 3 2 4 1 5 77 6 78 7 102 8 79 9 100 10 80 11 101 12
REMARK SMILES IDX 81 13 82 14 99 15 83 16 85 17 84 18 86 19 87 20 88 21 89 22
REMARK SMILES IDX 90 24 91 25 92 26 93 27 94 28 98 29 95 30 97 31 96 32 6 33
REMARK SMILES IDX 7 34 8 35 9 36 10 37 11 38 12 39 13 40 14 41 15 42 76 43
REMARK SMILES IDX 16 44 75 45 17 46 18 47 19 48 69 49 20 50 74 51 68 52 70 53
REMARK SMILES IDX 21 54 73 55 67 56 66 57 22 59 54 60 34 61 53 62 35 63 38 64
REMARK SMILES IDX 52 65 71 66 36 67 37 68 51 70 72 71 39 72 23 73 24 74 32 75
REMARK SMILES IDX 25 76 26 77 30 78 33 79 27 80 28 81 31 82 29 83 55 84 56 85
REMARK SMILES IDX 64 86 57 87 58 88 62 89 65 90 59 91 60 92 63 93 61 94 40 95
REMARK SMILES IDX 41 96 49 97 42 98 43 99 47 100 50 101 44 102 45 103 48 104
REMARK SMILES IDX 46 105
REMARK H PARENT 89 23 70 58 38 69
REMARK Flexibility Score: inf
ROOT
ATOM      1  O   UNL A   1      42.616  19.465  25.176  1.00  0.00    -0.463 OA
ENDROOT
BRANCH   1   2
ATOM      2  C   UNL A   1      42.192  19.731  26.442  1.00  0.00     0.313 C 
ATOM      3  O   UNL A   1      42.102  18.887  27.328  1.00  0.00    -0.252 OA
BRANCH   2   4
ATOM      4  C   UNL A   1      41.917  21.220  26.671  1.00  0.00     0.126 C 
ATOM      5  C   UNL A   1      42.282  21.749  28.064  1.00  0.00     0.025 C 
BRANCH   4   6
ATOM      6  C   UNL A   1      40.488  21.626  26.321  1.00  0.00    -0.031 A 
ATOM      7  C   UNL A   1      39.563  20.741  25.739  1.00  0.00     0.005 A 
ATOM      8  C   UNL A   1      40.066  22.934  26.587  1.00  0.00     0.044 A 
ATOM      9  C   UNL A   1      38.273  21.158  25.401  1.00  0.00     0.012 A 
ATOM     10  C   UNL A   1      38.783  23.348  26.232  1.00  0.00     0.131 A 
ATOM     11  C   UNL A   1      37.873  22.482  25.610  1.00  0.00     0.018 A 
ATOM     12  F   UNL A   1      38.452  24.631  26.454  1.00  0.00    -0.206 F 
BRANCH  11  13
ATOM     13  C   UNL A   1      36.631  22.977  25.011  1.00  0.00    -0.012 A 
ATOM     14  C   UNL A   1      36.299  22.792  23.662  1.00  0.00     0.009 A 
ATOM     15  C   UNL A   1      35.779  23.751  25.813  1.00  0.00     0.056 A 
ATOM     16  C   UNL A   1      35.143  23.376  23.131  1.00  0.00     0.004 A 
ATOM     17  C   UNL A   1      34.651  24.356  25.279  1.00  0.00     0.133 A 
ATOM     18  C   UNL A   1      34.321  24.165  23.938  1.00  0.00     0.047 A 
BRANCH  17  19
ATOM     19  O   UNL A   1      33.771  25.161  26.033  1.00  0.00    -0.410 OA
BRANCH  19  20
ATOM     20  C   UNL A   1      32.494  25.542  25.630  1.00  0.00     0.412 C 
ATOM     21  O   UNL A   1      32.191  26.545  24.986  1.00  0.00    -0.224 OA
ATOM     22  N   UNL A   1      31.527  24.658  26.006  1.00  0.00    -0.321 N 
ATOM     23  H   UNL A   1      30.591  24.925  25.862  1.00  0.00     0.167 HD
BRANCH  22  24
ATOM     24  C   UNL A   1      31.765  23.364  26.596  1.00  0.00     0.120 C 
BRANCH  24  25
ATOM     25  C   UNL A   1      31.127  22.203  25.837  1.00  0.00     0.026 C 
BRANCH  25  26
ATOM     26  C   UNL A   1      31.786  21.737  24.532  1.00  0.00     0.037 C 
BRANCH  26  27
ATOM     27  C   UNL A   1      32.719  20.547  24.519  1.00  0.00    -0.048 A 
ATOM     28  C   UNL A   1      33.976  20.512  25.127  1.00  0.00     0.004 A 
ATOM     29  C   UNL A   1      32.315  19.418  23.784  1.00  0.00     0.004 A 
ATOM     30  C   UNL A   1      34.808  19.394  25.001  1.00  0.00     0.000 A 
ATOM     31  C   UNL A   1      33.139  18.296  23.664  1.00  0.00     0.000 A 
ATOM     32  C   UNL A   1      34.390  18.287  24.269  1.00  0.00     0.000 A 
ENDBRANCH  26  27
ENDBRANCH  25  26
ENDBRANCH  24  25
ENDBRANCH  22  24
ENDBRANCH  19  20
ENDBRANCH  17  19
ENDBRANCH  11  13
ENDBRANCH   4   6
ENDBRANCH   2   4
ENDBRANCH   1   2
BRANCH   1  33
ATOM     33  C   UNL A   1      43.879  18.790  25.073  1.00  0.00     0.261 C 
BRANCH  33  34
ATOM     34  C   UNL A   1      44.961  19.742  24.556  1.00  0.00     0.202 C 
BRANCH  34  35
ATOM     35  O   UNL A   1      44.589  20.653  23.521  1.00  0.00    -0.374 OA
BRANCH  35  36
ATOM     36  C   UNL A   1      44.884  22.035  23.712  1.00  0.00     0.202 C 
BRANCH  36  37
ATOM     37  C   UNL A   1      44.453  22.696  25.025  1.00  0.00     0.261 C 
BRANCH  37  38
ATOM     38  O   UNL A   1      43.659  23.875  24.811  1.00  0.00    -0.460 OA
BRANCH  38  39
ATOM     39  C   UNL A   1      44.287  25.033  25.128  1.00  0.00     0.338 C 
ATOM     40  O   UNL A   1      45.301  25.490  24.626  1.00  0.00    -0.246 OA
BRANCH  39  41
ATOM     41  C   UNL A   1      43.457  25.810  26.063  1.00  0.00     0.060 A 
ATOM     42  C   UNL A   1      43.765  27.169  26.216  1.00  0.00     0.016 A 
ATOM     43  C   UNL A   1      42.456  25.214  26.831  1.00  0.00     0.016 A 
ATOM     44  C   UNL A   1      43.110  27.926  27.182  1.00  0.00     0.010 A 
ATOM     45  C   UNL A   1      41.806  25.974  27.807  1.00  0.00     0.010 A 
ATOM     46  C   UNL A   1      42.160  27.320  28.012  1.00  0.00    -0.014 A 
BRANCH  46  47
ATOM     47  C   UNL A   1      41.662  28.057  29.196  1.00  0.00     0.031 A 
ATOM     48  C   UNL A   1      42.396  27.914  30.501  1.00  0.00     0.074 A 
ATOM     49  C   UNL A   1      40.599  28.873  29.099  1.00  0.00     0.049 A 
ATOM     50  N   UNL A   1      42.125  28.436  31.670  1.00  0.00    -0.248 NA
ATOM     51  C   UNL A   1      43.599  27.066  30.485  1.00  0.00     0.031 C 
ATOM     52  C   UNL A   1      39.841  29.126  27.875  1.00  0.00     0.029 A 
ATOM     53  N   UNL A   1      39.971  29.635  30.050  1.00  0.00    -0.354 N 
ATOM     54  C   UNL A   1      43.113  27.970  32.528  1.00  0.00     0.074 A 
ATOM     55  C   UNL A   1      43.974  27.101  31.755  1.00  0.00     0.031 C 
ATOM     56  C   UNL A   1      38.843  29.982  28.151  1.00  0.00     0.029 A 
ATOM     57  C   UNL A   1      38.871  30.306  29.576  1.00  0.00     0.049 A 
ATOM     58  H   UNL A   1      40.279  29.697  30.982  1.00  0.00     0.167 HD
ATOM     59  C   UNL A   1      43.288  28.251  33.842  1.00  0.00     0.037 A 
ATOM     60  C   UNL A   1      37.976  31.073  30.229  1.00  0.00     0.037 A 
ATOM     61  C   UNL A   1      42.431  29.123  34.600  1.00  0.00     0.049 A 
ATOM     62  C   UNL A   1      38.153  31.307  31.707  1.00  0.00     0.074 A 
ATOM     63  C   UNL A   1      42.536  29.495  35.928  1.00  0.00     0.029 A 
ATOM     64  N   UNL A   1      41.303  29.756  34.096  1.00  0.00    -0.354 N 
ATOM     65  N   UNL A   1      39.102  30.887  32.507  1.00  0.00    -0.248 NA
ATOM     66  C   UNL A   1      37.130  32.128  32.373  1.00  0.00     0.031 C 
ATOM     67  C   UNL A   1      41.437  30.300  36.245  1.00  0.00     0.029 A 
ATOM     68  C   UNL A   1      40.684  30.487  35.097  1.00  0.00     0.049 A 
ATOM     69  H   UNL A   1      40.988  29.692  33.165  1.00  0.00     0.167 HD
ATOM     70  C   UNL A   1      38.813  31.417  33.758  1.00  0.00     0.074 A 
ATOM     71  C   UNL A   1      37.606  32.204  33.608  1.00  0.00     0.031 C 
ATOM     72  C   UNL A   1      39.487  31.272  34.926  1.00  0.00     0.037 A 
BRANCH  59  73
ATOM     73  C   UNL A   1      44.430  27.583  34.552  1.00  0.00     0.064 A 
ATOM     74  C   UNL A   1      44.317  26.292  35.090  1.00  0.00     0.173 A 
ATOM     75  C   UNL A   1      45.670  28.232  34.660  1.00  0.00     0.173 A 
ATOM     76  F   UNL A   1      43.151  25.633  35.028  1.00  0.00    -0.203 F 
ATOM     77  C   UNL A   1      45.396  25.686  35.732  1.00  0.00     0.198 A 
ATOM     78  C   UNL A   1      46.754  27.611  35.274  1.00  0.00     0.198 A 
ATOM     79  F   UNL A   1      45.833  29.466  34.161  1.00  0.00    -0.203 F 
ATOM     80  F   UNL A   1      45.251  24.472  36.280  1.00  0.00    -0.200 F 
ATOM     81  C   UNL A   1      46.615  26.342  35.815  1.00  0.00     0.200 A 
ATOM     82  F   UNL A   1      47.936  28.241  35.340  1.00  0.00    -0.200 F 
ATOM     83  F   UNL A   1      47.655  25.754  36.423  1.00  0.00    -0.200 F 
ENDBRANCH  59  73
BRANCH  60  84
ATOM     84  C   UNL A   1      36.826  31.666  29.496  1.00  0.00     0.064 A 
ATOM     85  C   UNL A   1      36.773  33.039  29.221  1.00  0.00     0.173 A 
ATOM     86  C   UNL A   1      35.745  30.875  29.077  1.00  0.00     0.173 A 
ATOM     87  F   UNL A   1      37.771  33.840  29.622  1.00  0.00    -0.203 F 
ATOM     88  C   UNL A   1      35.673  33.602  28.577  1.00  0.00     0.198 A 
ATOM     89  C   UNL A   1      34.661  31.434  28.404  1.00  0.00     0.198 A 
ATOM     90  F   UNL A   1      35.744  29.556  29.315  1.00  0.00    -0.203 F 
ATOM     91  F   UNL A   1      35.625  34.927  28.375  1.00  0.00    -0.200 F 
ATOM     92  C   UNL A   1      34.621  32.800  28.164  1.00  0.00     0.200 A 
ATOM     93  F   UNL A   1      33.652  30.652  27.995  1.00  0.00    -0.200 F 
ATOM     94  F   UNL A   1      33.564  33.342  27.543  1.00  0.00    -0.200 F 
ENDBRANCH  60  84
BRANCH  72  95
ATOM     95  C   UNL A   1      38.963  32.012  36.125  1.00  0.00     0.064 A 
ATOM     96  C   UNL A   1      39.267  33.361  36.355  1.00  0.00     0.173 A 
ATOM     97  C   UNL A   1      38.109  31.367  37.035  1.00  0.00     0.173 A 
ATOM     98  F   UNL A   1      40.089  34.019  35.523  1.00  0.00    -0.203 F 
ATOM     99  C   UNL A   1      38.762  34.030  37.467  1.00  0.00     0.198 A 
ATOM    100  C   UNL A   1      37.577  32.049  38.125  1.00  0.00     0.198 A 
ATOM    101  F   UNL A   1      37.778  30.079  36.857  1.00  0.00    -0.203 F 
ATOM    102  F   UNL A   1      39.110  35.303  37.696  1.00  0.00    -0.200 F 
ATOM    103  C   UNL A   1      37.911  33.376  38.346  1.00  0.00     0.200 A 
ATOM    104  F   UNL A   1      36.741  31.420  38.964  1.00  0.00    -0.200 F 
ATOM    105  F   UNL A   1      37.418  34.024  39.411  1.00  0.00    -0.200 F 
ENDBRANCH  72  95
ENDBRANCH  46  47
ENDBRANCH  39  41
ENDBRANCH  38  39
ENDBRANCH  37  38
ENDBRANCH  36  37
ENDBRANCH  35  36
ENDBRANCH  34  35
ENDBRANCH  33  34
ENDBRANCH   1  33
TORSDOF 22
ENDMDL
MODEL 2
REMARK VINA RESULT:     -12.1      1.529      7.280
REMARK SMILES C[C@@H](C(=O)OCCOCCOC(=O)c1ccc(-c2c3nc(c(-c4c(F)c(F)c(F)c(F)c4F)c4ccc([nH]4)c(-c4c(F)c(F)c(F)c(F)c4F)c4nc(c(-c5c(F)c(F)c(F)c(F)c5F)c5ccc2[nH]5)C=C4)C=C3)cc1)c1ccc(-c2cccc(OC(=O)NCCCc3ccccc3)c2)c(F)c1
REMARK SMILES IDX 5 1 3 2 4 3 2 4 1 5 77 6 78 7 102 8 79 9 100 10 80 11 101 12
REMARK SMILES IDX 81 13 82 14 99 15 83 16 85 17 84 18 86 19 87 20 88 21 89 22
REMARK SMILES IDX 90 24 91 25 92 26 93 27 94 28 98 29 95 30 97 31 96 32 6 33
REMARK SMILES IDX 7 34 8 35 9 36 10 37 11 38 12 39 13 40 14 41 15 42 76 43
REMARK SMILES IDX 16 44 75 45 17 46 18 47 19 48 69 49 20 50 74 51 68 52 70 53
REMARK SMILES IDX 21 54 73 55 67 56 66 57 22 59 54 60 34 61 53 62 35 63 38 64
REMARK SMILES IDX 52 65 71 66 36 67 37 68 51 70 72 71 39 72 23 73 24 74 32 75
REMARK SMILES IDX 25 76 26 77 30 78 33 79 27 80 28 81 31 82 29 83 55 84 56 85
REMARK SMILES IDX 64 86 57 87 58 88 62 89 65 90 59 91 60 92 63 93 61 94 40 95
REMARK SMILES IDX 41 96 49 97 42 98 43 99 47 100 50 101 44 102 45 103 48 104
REMARK SMILES IDX 46 105
REMARK H PARENT 89 23 70 58 38 69
REMARK Flexibility Score: inf
ROOT
ATOM      1  O   UNL A   1      42.502  20.318  25.373  1.00  0.00    -0.463 OA
ENDROOT
BRANCH   1   2
ATOM      2  C   UNL A   1      41.857  20.455  26.564  1.00  0.00     0.313 C 
ATOM      3  O   UNL A   1      41.584  19.519  27.309  1.00  0.00    -0.252 OA
BRANCH   2   4
ATOM      4  C   UNL A   1      41.581  21.918  26.920  1.00  0.00     0.126 C 
ATOM      5  C   UNL A   1      41.896  22.313  28.369  1.00  0.00     0.025 C 
BRANCH   4   6
ATOM      6  C   UNL A   1      40.168  22.367  26.557  1.00  0.00    -0.031 A 
ATOM      7  C   UNL A   1      39.669  23.645  26.865  1.00  0.00     0.005 A 
ATOM      8  C   UNL A   1      39.322  21.476  25.885  1.00  0.00     0.044 A 
ATOM      9  C   UNL A   1      38.358  24.008  26.545  1.00  0.00     0.012 A 
ATOM     10  C   UNL A   1      38.010  21.839  25.584  1.00  0.00     0.131 A 
ATOM     11  C   UNL A   1      37.495  23.096  25.930  1.00  0.00     0.018 A 
ATOM     12  F   UNL A   1      37.223  20.924  24.995  1.00  0.00    -0.206 F 
BRANCH  11  13
ATOM     13  C   UNL A   1      36.060  23.385  25.847  1.00  0.00    -0.012 A 
ATOM     14  C   UNL A   1      35.131  22.954  26.803  1.00  0.00     0.009 A 
ATOM     15  C   UNL A   1      35.590  24.049  24.704  1.00  0.00     0.056 A 
ATOM     16  C   UNL A   1      33.762  23.179  26.612  1.00  0.00     0.004 A 
ATOM     17  C   UNL A   1      34.232  24.243  24.499  1.00  0.00     0.133 A 
ATOM     18  C   UNL A   1      33.312  23.818  25.456  1.00  0.00     0.047 A 
BRANCH  17  19
ATOM     19  O   UNL A   1      33.703  24.885  23.360  1.00  0.00    -0.410 OA
BRANCH  19  20
ATOM     20  C   UNL A   1      33.265  24.236  22.210  1.00  0.00     0.412 C 
ATOM     21  O   UNL A   1      33.838  23.328  21.610  1.00  0.00    -0.224 OA
ATOM     22  N   UNL A   1      32.059  24.689  21.763  1.00  0.00    -0.321 N 
ATOM     23  H   UNL A   1      31.749  24.362  20.888  1.00  0.00     0.167 HD
BRANCH  22  24
ATOM     24  C   UNL A   1      31.202  25.609  22.469  1.00  0.00     0.120 C 
BRANCH  24  25
ATOM     25  C   UNL A   1      31.379  27.069  22.060  1.00  0.00     0.026 C 
BRANCH  25  26
ATOM     26  C   UNL A   1      31.293  28.146  23.149  1.00  0.00     0.037 C 
BRANCH  26  27
ATOM     27  C   UNL A   1      32.002  27.965  24.472  1.00  0.00    -0.048 A 
ATOM     28  C   UNL A   1      31.401  27.496  25.643  1.00  0.00     0.004 A 
ATOM     29  C   UNL A   1      33.351  28.363  24.542  1.00  0.00     0.004 A 
ATOM     30  C   UNL A   1      32.114  27.432  26.845  1.00  0.00     0.000 A 
ATOM     31  C   UNL A   1      34.068  28.290  25.738  1.00  0.00     0.000 A 
ATOM     32  C   UNL A   1      33.447  27.829  26.893  1.00  0.00     0.000 A 
ENDBRANCH  26  27
ENDBRANCH  25  26
ENDBRANCH  24  25
ENDBRANCH  22  24
ENDBRANCH  19  20
ENDBRANCH  17  19
ENDBRANCH  11  13
ENDBRANCH   4   6
ENDBRANCH   2   4
ENDBRANCH   1   2
BRANCH   1  33
ATOM     33  C   UNL A   1      43.743  19.597  25.418  1.00  0.00     0.261 C 
BRANCH  33  34
ATOM     34  C   UNL A   1      44.869  20.421  24.786  1.00  0.00     0.202 C 
BRANCH  34  35
ATOM     35  O   UNL A   1      44.510  21.322  23.738  1.00  0.00    -0.374 OA
BRANCH  35  36
ATOM     36  C   UNL A   1      44.852  22.698  23.897  1.00  0.00     0.202 C 
BRANCH  36  37
ATOM     37  C   UNL A   1      44.413  23.414  25.178  1.00  0.00     0.261 C 
BRANCH  37  38
ATOM     38  O   UNL A   1      43.561  24.541  24.914  1.00  0.00    -0.460 OA
BRANCH  38  39
ATOM     39  C   UNL A   1      44.115  25.739  25.217  1.00  0.00     0.338 C 
ATOM     40  O   UNL A   1      45.047  26.291  24.656  1.00  0.00    -0.246 OA
BRANCH  39  41
ATOM     41  C   UNL A   1      43.299  26.421  26.236  1.00  0.00     0.060 A 
ATOM     42  C   UNL A   1      43.615  27.756  26.522  1.00  0.00     0.016 A 
ATOM     43  C   UNL A   1      42.302  25.755  26.949  1.00  0.00     0.016 A 
ATOM     44  C   UNL A   1      42.974  28.414  27.566  1.00  0.00     0.010 A 
ATOM     45  C   UNL A   1      41.666  26.415  28.005  1.00  0.00     0.010 A 
ATOM     46  C   UNL A   1      42.030  27.732  28.341  1.00  0.00    -0.014 A 
BRANCH  46  47
ATOM     47  C   UNL A   1      41.547  28.347  29.599  1.00  0.00     0.031 A 
ATOM     48  C   UNL A   1      40.298  29.184  29.563  1.00  0.00     0.074 A 
ATOM     49  C   UNL A   1      42.188  28.129  30.759  1.00  0.00     0.049 A 
ATOM     50  N   UNL A   1      39.710  29.843  30.528  1.00  0.00    -0.248 NA
ATOM     51  C   UNL A   1      39.620  29.292  28.261  1.00  0.00     0.031 C 
ATOM     52  C   UNL A   1      43.378  27.296  30.921  1.00  0.00     0.029 A 
ATOM     53  N   UNL A   1      41.927  28.595  32.022  1.00  0.00    -0.354 N 
ATOM     54  C   UNL A   1      38.605  30.453  29.949  1.00  0.00     0.074 A 
ATOM     55  C   UNL A   1      38.617  30.111  28.543  1.00  0.00     0.031 C 
ATOM     56  C   UNL A   1      43.750  27.315  32.211  1.00  0.00     0.029 A 
ATOM     57  C   UNL A   1      42.847  28.190  32.956  1.00  0.00     0.049 A 
ATOM     58  H   UNL A   1      41.154  29.164  32.238  1.00  0.00     0.167 HD
ATOM     59  C   UNL A   1      37.661  31.223  30.541  1.00  0.00     0.037 A 
ATOM     60  C   UNL A   1      42.957  28.511  34.260  1.00  0.00     0.037 A 
ATOM     61  C   UNL A   1      37.652  31.551  31.942  1.00  0.00     0.049 A 
ATOM     62  C   UNL A   1      41.935  29.431  34.876  1.00  0.00     0.074 A 
ATOM     63  C   UNL A   1      36.728  32.301  32.647  1.00  0.00     0.029 A 
ATOM     64  N   UNL A   1      38.622  31.154  32.852  1.00  0.00    -0.354 N 
ATOM     65  N   UNL A   1      40.878  29.984  34.332  1.00  0.00    -0.248 NA
ATOM     66  C   UNL A   1      42.122  29.771  36.295  1.00  0.00     0.031 C 
ATOM     67  C   UNL A   1      37.171  32.411  33.969  1.00  0.00     0.029 A 
ATOM     68  C   UNL A   1      38.336  31.672  34.105  1.00  0.00     0.049 A 
ATOM     69  H   UNL A   1      39.399  30.589  32.639  1.00  0.00     0.167 HD
ATOM     70  C   UNL A   1      40.256  30.705  35.343  1.00  0.00     0.074 A 
ATOM     71  C   UNL A   1      41.048  30.508  36.540  1.00  0.00     0.031 C 
ATOM     72  C   UNL A   1      39.130  31.458  35.288  1.00  0.00     0.037 A 
BRANCH  59  73
ATOM     73  C   UNL A   1      36.577  31.792  29.671  1.00  0.00     0.064 A 
ATOM     74  C   UNL A   1      35.538  30.999  29.164  1.00  0.00     0.173 A 
ATOM     75  C   UNL A   1      36.559  33.164  29.374  1.00  0.00     0.173 A 
ATOM     76  F   UNL A   1      35.515  29.680  29.406  1.00  0.00    -0.203 F 
ATOM     77  C   UNL A   1      34.534  31.552  28.371  1.00  0.00     0.198 A 
ATOM     78  C   UNL A   1      35.538  33.719  28.608  1.00  0.00     0.198 A 
ATOM     79  F   UNL A   1      37.527  33.969  29.835  1.00  0.00    -0.203 F 
ATOM     80  F   UNL A   1      33.578  30.767  27.859  1.00  0.00    -0.200 F 
ATOM     81  C   UNL A   1      34.531  32.912  28.102  1.00  0.00     0.200 A 
ATOM     82  F   UNL A   1      35.528  35.037  28.361  1.00  0.00    -0.200 F 
ATOM     83  F   UNL A   1      33.559  33.446  27.348  1.00  0.00    -0.200 F 
ENDBRANCH  59  73
BRANCH  60  84
ATOM     84  C   UNL A   1      44.082  27.972  35.069  1.00  0.00     0.064 A 
ATOM     85  C   UNL A   1      45.355  28.555  35.019  1.00  0.00     0.173 A 
ATOM     86  C   UNL A   1      43.913  26.847  35.891  1.00  0.00     0.173 A 
ATOM     87  F   UNL A   1      45.574  29.617  34.230  1.00  0.00    -0.203 F 
ATOM     88  C   UNL A   1      46.421  28.020  35.739  1.00  0.00     0.198 A 
ATOM     89  C   UNL A   1      44.971  26.333  36.636  1.00  0.00     0.198 A 
ATOM     90  F   UNL A   1      42.715  26.249  35.976  1.00  0.00    -0.203 F 
ATOM     91  F   UNL A   1      47.641  28.566  35.631  1.00  0.00    -0.200 F 
ATOM     92  C   UNL A   1      46.228  26.914  36.552  1.00  0.00     0.200 A 
ATOM     93  F   UNL A   1      44.776  25.271  37.431  1.00  0.00    -0.200 F 
ATOM     94  F   UNL A   1      47.253  26.401  37.247  1.00  0.00    -0.200 F 
ENDBRANCH  60  84
BRANCH  72  95
ATOM     95  C   UNL A   1      38.659  32.092  36.567  1.00  0.00     0.064 A 
ATOM     96  C   UNL A   1      39.027  33.396  36.928  1.00  0.00     0.173 A 
ATOM     97  C   UNL A   1      37.793  31.394  37.425  1.00  0.00     0.173 A 
ATOM     98  F   UNL A   1      39.863  34.101  36.151  1.00  0.00    -0.203 F 
ATOM     99  C   UNL A   1      38.570  33.968  38.113  1.00  0.00     0.198 A 
ATOM    100  C   UNL A   1      37.310  31.981  38.590  1.00  0.00     0.198 A 
ATOM    101  F   UNL A   1      37.402  30.146  37.123  1.00  0.00    -0.203 F 
ATOM    102  F   UNL A   1      38.978  35.194  38.463  1.00  0.00    -0.200 F 
ATOM    103  C   UNL A   1      37.706  33.264  38.939  1.00  0.00     0.200 A 
ATOM    104  F   UNL A   1      36.461  31.306  39.378  1.00  0.00    -0.200 F 
ATOM    105  F   UNL A   1      37.260  33.819  40.074  1.00  0.00    -0.200 F 
ENDBRANCH  72  95
ENDBRANCH  46  47
ENDBRANCH  39  41
ENDBRANCH  38  39
ENDBRANCH  37  38
ENDBRANCH  36  37
ENDBRANCH  35  36
ENDBRANCH  34  35
ENDBRANCH  33  34
ENDBRANCH   1  33
TORSDOF 22
ENDMDL
MODEL 3
REMARK VINA RESULT:     -11.9      0.954      7.075
REMARK SMILES C[C@@H](C(=O)OCCOCCOC(=O)c1ccc(-c2c3nc(c(-c4c(F)c(F)c(F)c(F)c4F)c4ccc([nH]4)c(-c4c(F)c(F)c(F)c(F)c4F)c4nc(c(-c5c(F)c(F)c(F)c(F)c5F)c5ccc2[nH]5)C=C4)C=C3)cc1)c1ccc(-c2cccc(OC(=O)NCCCc3ccccc3)c2)c(F)c1
REMARK SMILES IDX 5 1 3 2 4 3 2 4 1 5 77 6 78 7 102 8 79 9 100 10 80 11 101 12
REMARK SMILES IDX 81 13 82 14 99 15 83 16 85 17 84 18 86 19 87 20 88 21 89 22
REMARK SMILES IDX 90 24 91 25 92 26 93 27 94 28 98 29 95 30 97 31 96 32 6 33
REMARK SMILES IDX 7 34 8 35 9 36 10 37 11 38 12 39 13 40 14 41 15 42 76 43
REMARK SMILES IDX 16 44 75 45 17 46 18 47 19 48 69 49 20 50 74 51 68 52 70 53
REMARK SMILES IDX 21 54 73 55 67 56 66 57 22 59 54 60 34 61 53 62 35 63 38 64
REMARK SMILES IDX 52 65 71 66 36 67 37 68 51 70 72 71 39 72 23 73 24 74 32 75
REMARK SMILES IDX 25 76 26 77 30 78 33 79 27 80 28 81 31 82 29 83 55 84 56 85
REMARK SMILES IDX 64 86 57 87 58 88 62 89 65 90 59 91 60 92 63 93 61 94 40 95
REMARK SMILES IDX 41 96 49 97 42 98 43 99 47 100 50 101 44 102 45 103 48 104
REMARK SMILES IDX 46 105
REMARK H PARENT 89 23 70 58 38 69
REMARK Flexibility Score: inf
ROOT
ATOM      1  O   UNL A   1      42.801  20.259  25.422  1.00  0.00    -0.463 OA
ENDROOT
BRANCH   1   2
ATOM      2  C   UNL A   1      42.293  20.351  26.681  1.00  0.00     0.313 C 
ATOM      3  O   UNL A   1      42.240  19.414  27.470  1.00  0.00    -0.252 OA
BRANCH   2   4
ATOM      4  C   UNL A   1      41.871  21.778  27.044  1.00  0.00     0.126 C 
ATOM      5  C   UNL A   1      42.063  22.166  28.516  1.00  0.00     0.025 C 
BRANCH   4   6
ATOM      6  C   UNL A   1      40.448  22.111  26.602  1.00  0.00    -0.031 A 
ATOM      7  C   UNL A   1      39.579  21.158  26.043  1.00  0.00     0.005 A 
ATOM      8  C   UNL A   1      39.976  23.420  26.754  1.00  0.00     0.044 A 
ATOM      9  C   UNL A   1      38.294  21.509  25.618  1.00  0.00     0.012 A 
ATOM     10  C   UNL A   1      38.700  23.767  26.314  1.00  0.00     0.131 A 
ATOM     11  C   UNL A   1      37.847  22.830  25.715  1.00  0.00     0.018 A 
ATOM     12  F   UNL A   1      38.321  25.050  26.428  1.00  0.00    -0.206 F 
BRANCH  11  13
ATOM     13  C   UNL A   1      36.620  23.241  25.026  1.00  0.00    -0.012 A 
ATOM     14  C   UNL A   1      36.357  22.950  23.681  1.00  0.00     0.009 A 
ATOM     15  C   UNL A   1      35.709  24.043  25.731  1.00  0.00     0.056 A 
ATOM     16  C   UNL A   1      35.211  23.458  23.058  1.00  0.00     0.004 A 
ATOM     17  C   UNL A   1      34.591  24.573  25.104  1.00  0.00     0.133 A 
ATOM     18  C   UNL A   1      34.330  24.276  23.768  1.00  0.00     0.047 A 
BRANCH  17  19
ATOM     19  O   UNL A   1      33.655  25.401  25.758  1.00  0.00    -0.410 OA
BRANCH  19  20
ATOM     20  C   UNL A   1      33.253  26.657  25.313  1.00  0.00     0.412 C 
ATOM     21  O   UNL A   1      33.947  27.669  25.233  1.00  0.00    -0.224 OA
ATOM     22  N   UNL A   1      31.947  26.697  24.924  1.00  0.00    -0.321 N 
ATOM     23  H   UNL A   1      31.565  27.580  24.716  1.00  0.00     0.167 HD
BRANCH  22  24
ATOM     24  C   UNL A   1      31.082  25.551  24.793  1.00  0.00     0.120 C 
BRANCH  24  25
ATOM     25  C   UNL A   1      30.218  25.275  26.020  1.00  0.00     0.026 C 
BRANCH  25  26
ATOM     26  C   UNL A   1      30.216  23.856  26.605  1.00  0.00     0.037 C 
BRANCH  26  27
ATOM     27  C   UNL A   1      31.393  22.931  26.393  1.00  0.00    -0.048 A 
ATOM     28  C   UNL A   1      31.595  22.144  25.256  1.00  0.00     0.004 A 
ATOM     29  C   UNL A   1      32.315  22.807  27.448  1.00  0.00     0.004 A 
ATOM     30  C   UNL A   1      32.674  21.257  25.175  1.00  0.00     0.000 A 
ATOM     31  C   UNL A   1      33.399  21.929  27.366  1.00  0.00     0.000 A 
ATOM     32  C   UNL A   1      33.575  21.149  26.229  1.00  0.00     0.000 A 
ENDBRANCH  26  27
ENDBRANCH  25  26
ENDBRANCH  24  25
ENDBRANCH  22  24
ENDBRANCH  19  20
ENDBRANCH  17  19
ENDBRANCH  11  13
ENDBRANCH   4   6
ENDBRANCH   2   4
ENDBRANCH   1   2
BRANCH   1  33
ATOM     33  C   UNL A   1      43.932  19.388  25.269  1.00  0.00     0.261 C 
BRANCH  33  34
ATOM     34  C   UNL A   1      45.043  20.080  24.473  1.00  0.00     0.202 C 
BRANCH  34  35
ATOM     35  O   UNL A   1      44.647  21.066  23.520  1.00  0.00    -0.374 OA
BRANCH  35  36
ATOM     36  C   UNL A   1      45.071  22.411  23.738  1.00  0.00     0.202 C 
BRANCH  36  37
ATOM     37  C   UNL A   1      44.586  23.132  25.000  1.00  0.00     0.261 C 
BRANCH  37  38
ATOM     38  O   UNL A   1      43.973  24.398  24.708  1.00  0.00    -0.460 OA
BRANCH  38  39
ATOM     39  C   UNL A   1      44.640  25.467  25.206  1.00  0.00     0.338 C 
ATOM     40  O   UNL A   1      45.705  25.922  24.825  1.00  0.00    -0.246 OA
BRANCH  39  41
ATOM     41  C   UNL A   1      43.795  26.167  26.188  1.00  0.00     0.060 A 
ATOM     42  C   UNL A   1      44.020  27.538  26.365  1.00  0.00     0.016 A 
ATOM     43  C   UNL A   1      42.863  25.489  26.974  1.00  0.00     0.016 A 
ATOM     44  C   UNL A   1      43.353  28.229  27.370  1.00  0.00     0.010 A 
ATOM     45  C   UNL A   1      42.200  26.183  27.991  1.00  0.00     0.010 A 
ATOM     46  C   UNL A   1      42.474  27.544  28.217  1.00  0.00    -0.014 A 
BRANCH  46  47
ATOM     47  C   UNL A   1      41.972  28.220  29.436  1.00  0.00     0.031 A 
ATOM     48  C   UNL A   1      40.657  28.948  29.371  1.00  0.00     0.074 A 
ATOM     49  C   UNL A   1      42.656  28.150  30.590  1.00  0.00     0.049 A 
ATOM     50  N   UNL A   1      40.040  29.635  30.297  1.00  0.00    -0.248 NA
ATOM     51  C   UNL A   1      39.943  28.894  28.085  1.00  0.00     0.031 C 
ATOM     52  C   UNL A   1      43.914  27.432  30.782  1.00  0.00     0.029 A 
ATOM     53  N   UNL A   1      42.387  28.696  31.819  1.00  0.00    -0.354 N 
ATOM     54  C   UNL A   1      38.875  30.104  29.705  1.00  0.00     0.074 A 
ATOM     55  C   UNL A   1      38.883  29.650  28.331  1.00  0.00     0.031 C 
ATOM     56  C   UNL A   1      44.313  27.586  32.055  1.00  0.00     0.029 A 
ATOM     57  C   UNL A   1      43.358  28.444  32.755  1.00  0.00     0.049 A 
ATOM     58  H   UNL A   1      41.575  29.217  32.012  1.00  0.00     0.167 HD
ATOM     59  C   UNL A   1      37.884  30.842  30.261  1.00  0.00     0.037 A 
ATOM     60  C   UNL A   1      43.472  28.879  34.025  1.00  0.00     0.037 A 
ATOM     61  C   UNL A   1      37.882  31.282  31.632  1.00  0.00     0.049 A 
ATOM     62  C   UNL A   1      42.392  29.762  34.596  1.00  0.00     0.074 A 
ATOM     63  C   UNL A   1      36.915  32.010  32.301  1.00  0.00     0.029 A 
ATOM     64  N   UNL A   1      38.902  31.040  32.541  1.00  0.00    -0.354 N 
ATOM     65  N   UNL A   1      41.281  30.180  34.041  1.00  0.00    -0.248 NA
ATOM     66  C   UNL A   1      42.583  30.230  35.976  1.00  0.00     0.031 C 
ATOM     67  C   UNL A   1      37.379  32.264  33.596  1.00  0.00     0.029 A 
ATOM     68  C   UNL A   1      38.603  31.635  33.756  1.00  0.00     0.049 A 
ATOM     69  H   UNL A   1      39.718  30.524  32.350  1.00  0.00     0.167 HD
ATOM     70  C   UNL A   1      40.625  30.930  35.009  1.00  0.00     0.074 A 
ATOM     71  C   UNL A   1      41.458  30.896  36.194  1.00  0.00     0.031 C 
ATOM     72  C   UNL A   1      39.440  31.583  34.928  1.00  0.00     0.037 A 
BRANCH  59  73
ATOM     73  C   UNL A   1      36.738  31.249  29.382  1.00  0.00     0.064 A 
ATOM     74  C   UNL A   1      36.621  32.547  28.865  1.00  0.00     0.173 A 
ATOM     75  C   UNL A   1      35.760  30.309  29.018  1.00  0.00     0.173 A 
ATOM     76  F   UNL A   1      37.520  33.488  29.192  1.00  0.00    -0.203 F 
ATOM     77  C   UNL A   1      35.556  32.898  28.038  1.00  0.00     0.198 A 
ATOM     78  C   UNL A   1      34.715  30.653  28.166  1.00  0.00     0.198 A 
ATOM     79  F   UNL A   1      35.824  29.052  29.482  1.00  0.00    -0.203 F 
ATOM     80  F   UNL A   1      35.440  34.157  27.594  1.00  0.00    -0.200 F 
ATOM     81  C   UNL A   1      34.609  31.949  27.683  1.00  0.00     0.200 A 
ATOM     82  F   UNL A   1      33.809  29.731  27.811  1.00  0.00    -0.200 F 
ATOM     83  F   UNL A   1      33.591  32.283  26.877  1.00  0.00    -0.200 F 
ENDBRANCH  59  73
BRANCH  60  84
ATOM     84  C   UNL A   1      44.656  28.500  34.841  1.00  0.00     0.064 A 
ATOM     85  C   UNL A   1      44.657  27.332  35.615  1.00  0.00     0.173 A 
ATOM     86  C   UNL A   1      45.801  29.310  34.881  1.00  0.00     0.173 A 
ATOM     87  F   UNL A   1      43.577  26.537  35.629  1.00  0.00    -0.203 F 
ATOM     88  C   UNL A   1      45.748  27.002  36.418  1.00  0.00     0.198 A 
ATOM     89  C   UNL A   1      46.903  28.962  35.658  1.00  0.00     0.198 A 
ATOM     90  F   UNL A   1      45.852  30.439  34.159  1.00  0.00    -0.203 F 
ATOM     91  F   UNL A   1      45.700  25.907  37.190  1.00  0.00    -0.200 F 
ATOM     92  C   UNL A   1      46.872  27.813  36.434  1.00  0.00     0.200 A 
ATOM     93  F   UNL A   1      47.993  29.742  35.660  1.00  0.00    -0.200 F 
ATOM     94  F   UNL A   1      47.921  27.494  37.205  1.00  0.00    -0.200 F 
ENDBRANCH  60  84
BRANCH  72  95
ATOM     95  C   UNL A   1      38.948  32.280  36.166  1.00  0.00     0.064 A 
ATOM     96  C   UNL A   1      38.156  31.624  37.121  1.00  0.00     0.173 A 
ATOM     97  C   UNL A   1      39.309  33.613  36.418  1.00  0.00     0.173 A 
ATOM     98  F   UNL A   1      37.772  30.354  36.922  1.00  0.00    -0.203 F 
ATOM     99  C   UNL A   1      37.719  32.286  38.266  1.00  0.00     0.198 A 
ATOM    100  C   UNL A   1      38.901  34.260  37.581  1.00  0.00     0.198 A 
ATOM    101  F   UNL A   1      40.072  34.284  35.542  1.00  0.00    -0.203 F 
ATOM    102  F   UNL A   1      36.920  31.656  39.136  1.00  0.00    -0.200 F 
ATOM    103  C   UNL A   1      38.099  33.600  38.499  1.00  0.00     0.200 A 
ATOM    104  F   UNL A   1      39.283  35.524  37.812  1.00  0.00    -0.200 F 
ATOM    105  F   UNL A   1      37.685  34.232  39.606  1.00  0.00    -0.200 F 
ENDBRANCH  72  95
ENDBRANCH  46  47
ENDBRANCH  39  41
ENDBRANCH  38  39
ENDBRANCH  37  38
ENDBRANCH  36  37
ENDBRANCH  35  36
ENDBRANCH  34  35
ENDBRANCH  33  34
ENDBRANCH   1  33
TORSDOF 22
ENDMDL
