MODEL 1
REMARK VINA RESULT:     -12.1      0.000      0.000
REMARK SMILES C/C=C(\C)[C@@H]1C(C)=C[C@@H]2[C@H]([C@@H]1/C=C/C=C/C(=O)OCCOCCOC(=O)c1ccc(-c3c4nc(c(-c5c(F)c(F)c(F)c(F)c5F)c5ccc([nH]5)c(-c5c(F)c(F)c(F)c(F)c5F)c5nc(c(-c6c(F)c(F)c(F)c(F)c6F)c6ccc3[nH]6)C=C5)C=C4)cc1)[C@@H](C)CC[C@@H]2O
REMARK SMILES IDX 20 1 19 2 18 3 16 4 17 5 15 6 14 7 13 8 12 9 11 10 5 11 6 12
REMARK SMILES IDX 7 13 8 14 10 15 9 16 90 17 94 18 91 19 92 20 93 21 3 22 1 23
REMARK SMILES IDX 2 24 4 25 95 26 21 28 22 29 23 30 24 31 25 32 26 33 27 34
REMARK SMILES IDX 28 35 89 36 29 37 88 38 30 39 31 40 32 41 82 42 33 43 87 44
REMARK SMILES IDX 81 45 83 46 34 47 86 48 80 49 79 50 35 52 67 53 47 54 66 55
REMARK SMILES IDX 48 56 51 57 65 58 84 59 49 60 50 61 64 63 85 64 52 65 36 66
REMARK SMILES IDX 37 67 45 68 38 69 39 70 43 71 46 72 40 73 41 74 44 75 42 76
REMARK SMILES IDX 68 77 69 78 77 79 70 80 71 81 75 82 78 83 72 84 73 85 76 86
REMARK SMILES IDX 74 87 53 88 54 89 62 90 55 91 56 92 60 93 63 94 57 95 58 96
REMARK SMILES IDX 61 97 59 98
REMARK H PARENT 95 27 83 51 51 62
REMARK Flexibility Score: inf
ROOT
ATOM      1  C   UNL A   1      41.221  20.179  26.261  1.00  0.00     0.202 C 
ENDROOT
BRANCH   1   2
ATOM      2  C   UNL A   1      39.803  19.786  25.845  1.00  0.00     0.261 C 
BRANCH   2   3
ATOM      3  O   UNL A   1      38.953  20.941  25.814  1.00  0.00    -0.460 OA
BRANCH   3   4
ATOM      4  C   UNL A   1      37.723  20.738  25.287  1.00  0.00     0.330 C 
ATOM      5  O   UNL A   1      37.293  19.697  24.814  1.00  0.00    -0.247 OA
BRANCH   4   6
ATOM      6  C   UNL A   1      36.866  21.932  25.408  1.00  0.00     0.093 C 
ATOM      7  C   UNL A   1      37.266  23.167  25.747  1.00  0.00     0.007 C 
BRANCH   7   8
ATOM      8  C   UNL A   1      36.330  24.265  25.682  1.00  0.00    -0.004 C 
ATOM      9  C   UNL A   1      35.060  24.108  25.275  1.00  0.00    -0.022 C 
BRANCH   9  10
ATOM     10  C   UNL A   1      33.979  25.121  25.642  1.00  0.00     0.027 C 
ATOM     11  C   UNL A   1      32.627  24.419  26.105  1.00  0.00     0.047 C 
ATOM     12  C   UNL A   1      31.379  24.945  25.408  1.00  0.00    -0.069 C 
ATOM     13  C   UNL A   1      30.069  24.775  26.125  1.00  0.00     0.040 C 
ATOM     14  C   UNL A   1      31.444  25.508  24.188  1.00  0.00    -0.021 C 
ATOM     15  C   UNL A   1      33.824  26.179  24.508  1.00  0.00     0.009 C 
ATOM     16  C   UNL A   1      32.768  25.702  23.478  1.00  0.00     0.044 C 
ATOM     17  C   UNL A   1      33.480  27.625  25.010  1.00  0.00    -0.010 C 
ATOM     18  C   UNL A   1      32.713  26.695  22.300  1.00  0.00     0.121 C 
ATOM     19  C   UNL A   1      34.533  28.202  25.964  1.00  0.00     0.008 C 
ATOM     20  C   UNL A   1      33.325  28.598  23.819  1.00  0.00     0.006 C 
ATOM     21  C   UNL A   1      32.354  28.105  22.752  1.00  0.00     0.033 C 
BRANCH  11  22
ATOM     22  C   UNL A   1      32.659  22.867  26.092  1.00  0.00    -0.070 C 
ATOM     23  C   UNL A   1      32.447  20.670  24.783  1.00  0.00     0.035 C 
ATOM     24  C   UNL A   1      32.402  22.150  24.974  1.00  0.00    -0.031 C 
ATOM     25  C   UNL A   1      33.003  22.236  27.419  1.00  0.00     0.040 C 
ENDBRANCH  11  22
BRANCH  18  26
ATOM     26  O   UNL A   1      31.822  26.252  21.280  1.00  0.00    -0.393 OA
ATOM     27  H   UNL A   1      31.576  25.328  21.444  1.00  0.00     0.210 HD
ENDBRANCH  18  26
ENDBRANCH   9  10
ENDBRANCH   7   8
ENDBRANCH   4   6
ENDBRANCH   3   4
ENDBRANCH   2   3
ENDBRANCH   1   2
BRANCH   1  28
ATOM     28  O   UNL A   1      42.281  19.486  25.602  1.00  0.00    -0.374 OA
BRANCH  28  29
ATOM     29  C   UNL A   1      43.459  20.231  25.289  1.00  0.00     0.202 C 
BRANCH  29  30
ATOM     30  C   UNL A   1      43.557  21.637  25.892  1.00  0.00     0.261 C 
BRANCH  30  31
ATOM     31  O   UNL A   1      42.954  22.634  25.049  1.00  0.00    -0.460 OA
BRANCH  31  32
ATOM     32  C   UNL A   1      43.603  23.821  25.018  1.00  0.00     0.338 C 
ATOM     33  O   UNL A   1      44.502  24.159  24.260  1.00  0.00    -0.246 OA
BRANCH  32  34
ATOM     34  C   UNL A   1      42.961  24.771  25.944  1.00  0.00     0.060 A 
ATOM     35  C   UNL A   1      43.513  26.054  26.044  1.00  0.00     0.016 A 
ATOM     36  C   UNL A   1      41.889  24.394  26.755  1.00  0.00     0.016 A 
ATOM     37  C   UNL A   1      43.022  26.956  26.986  1.00  0.00     0.010 A 
ATOM     38  C   UNL A   1      41.404  25.296  27.708  1.00  0.00     0.010 A 
ATOM     39  C   UNL A   1      41.988  26.567  27.850  1.00  0.00    -0.014 A 
BRANCH  39  40
ATOM     40  C   UNL A   1      41.609  27.442  28.985  1.00  0.00     0.031 A 
ATOM     41  C   UNL A   1      42.387  27.351  30.268  1.00  0.00     0.074 A 
ATOM     42  C   UNL A   1      40.589  28.310  28.873  1.00  0.00     0.049 A 
ATOM     43  N   UNL A   1      42.191  27.968  31.405  1.00  0.00    -0.248 NA
ATOM     44  C   UNL A   1      43.540  26.436  30.270  1.00  0.00     0.031 C 
ATOM     45  C   UNL A   1      39.782  28.513  27.672  1.00  0.00     0.029 A 
ATOM     46  N   UNL A   1      40.048  29.174  29.793  1.00  0.00    -0.354 N 
ATOM     47  C   UNL A   1      43.183  27.506  32.260  1.00  0.00     0.074 A 
ATOM     48  C   UNL A   1      43.968  26.543  31.520  1.00  0.00     0.031 C 
ATOM     49  C   UNL A   1      38.832  29.426  27.935  1.00  0.00     0.029 A 
ATOM     50  C   UNL A   1      38.945  29.846  29.331  1.00  0.00     0.049 A 
ATOM     51  H   UNL A   1      40.417  29.299  30.698  1.00  0.00     0.167 HD
ATOM     52  C   UNL A   1      43.418  27.859  33.547  1.00  0.00     0.037 A 
ATOM     53  C   UNL A   1      38.106  30.683  29.972  1.00  0.00     0.037 A 
ATOM     54  C   UNL A   1      42.642  28.828  34.277  1.00  0.00     0.049 A 
ATOM     55  C   UNL A   1      38.358  31.020  31.419  1.00  0.00     0.074 A 
ATOM     56  C   UNL A   1      42.830  29.285  35.569  1.00  0.00     0.029 A 
ATOM     57  N   UNL A   1      41.525  29.481  33.778  1.00  0.00    -0.354 N 
ATOM     58  N   UNL A   1      39.322  30.612  32.209  1.00  0.00    -0.248 NA
ATOM     59  C   UNL A   1      37.407  31.937  32.064  1.00  0.00     0.031 C 
ATOM     60  C   UNL A   1      41.794  30.175  35.872  1.00  0.00     0.029 A 
ATOM     61  C   UNL A   1      40.995  30.315  34.749  1.00  0.00     0.049 A 
ATOM     62  H   UNL A   1      41.163  29.368  32.870  1.00  0.00     0.167 HD
ATOM     63  C   UNL A   1      39.110  31.240  33.429  1.00  0.00     0.074 A 
ATOM     64  C   UNL A   1      37.934  32.069  33.273  1.00  0.00     0.031 C 
ATOM     65  C   UNL A   1      39.827  31.142  34.575  1.00  0.00     0.037 A 
BRANCH  52  66
ATOM     66  C   UNL A   1      44.544  27.176  34.263  1.00  0.00     0.064 A 
ATOM     67  C   UNL A   1      45.833  27.726  34.307  1.00  0.00     0.173 A 
ATOM     68  C   UNL A   1      44.315  25.980  34.961  1.00  0.00     0.173 A 
ATOM     69  F   UNL A   1      46.107  28.861  33.647  1.00  0.00    -0.203 F 
ATOM     70  C   UNL A   1      46.857  27.093  35.008  1.00  0.00     0.198 A 
ATOM     71  C   UNL A   1      45.335  25.365  35.682  1.00  0.00     0.198 A 
ATOM     72  F   UNL A   1      43.098  25.416  34.954  1.00  0.00    -0.203 F 
ATOM     73  F   UNL A   1      48.092  27.616  35.007  1.00  0.00    -0.200 F 
ATOM     74  C   UNL A   1      46.606  25.918  35.701  1.00  0.00     0.200 A 
ATOM     75  F   UNL A   1      45.085  24.237  36.361  1.00  0.00    -0.200 F 
ATOM     76  F   UNL A   1      47.589  25.317  36.385  1.00  0.00    -0.200 F 
ENDBRANCH  52  66
BRANCH  53  77
ATOM     77  C   UNL A   1      36.927  31.243  29.259  1.00  0.00     0.064 A 
ATOM     78  C   UNL A   1      35.796  30.457  28.999  1.00  0.00     0.173 A 
ATOM     79  C   UNL A   1      36.921  32.568  28.800  1.00  0.00     0.173 A 
ATOM     80  F   UNL A   1      35.765  29.177  29.394  1.00  0.00    -0.203 F 
ATOM     81  C   UNL A   1      34.711  30.971  28.289  1.00  0.00     0.198 A 
ATOM     82  C   UNL A   1      35.824  33.089  28.117  1.00  0.00     0.198 A 
ATOM     83  F   UNL A   1      37.980  33.360  29.021  1.00  0.00    -0.203 F 
ATOM     84  F   UNL A   1      33.663  30.185  28.011  1.00  0.00    -0.200 F 
ATOM     85  C   UNL A   1      34.724  32.287  27.854  1.00  0.00     0.200 A 
ATOM     86  F   UNL A   1      35.837  34.366  27.708  1.00  0.00    -0.200 F 
ATOM     87  F   UNL A   1      33.681  32.780  27.173  1.00  0.00    -0.200 F 
ENDBRANCH  53  77
BRANCH  65  88
ATOM     88  C   UNL A   1      39.386  31.975  35.743  1.00  0.00     0.064 A 
ATOM     89  C   UNL A   1      38.399  31.530  36.635  1.00  0.00     0.173 A 
ATOM     90  C   UNL A   1      39.995  33.213  36.002  1.00  0.00     0.173 A 
ATOM     91  F   UNL A   1      37.776  30.362  36.423  1.00  0.00    -0.203 F 
ATOM     92  C   UNL A   1      38.025  32.303  37.731  1.00  0.00     0.198 A 
ATOM     93  C   UNL A   1      39.641  33.969  37.115  1.00  0.00     0.198 A 
ATOM     94  F   UNL A   1      40.951  33.680  35.184  1.00  0.00    -0.203 F 
ATOM     95  F   UNL A   1      37.051  31.879  38.548  1.00  0.00    -0.200 F 
ATOM     96  C   UNL A   1      38.651  33.517  37.975  1.00  0.00     0.200 A 
ATOM     97  F   UNL A   1      40.257  35.134  37.356  1.00  0.00    -0.200 F 
ATOM     98  F   UNL A   1      38.297  34.254  39.037  1.00  0.00    -0.200 F 
ENDBRANCH  65  88
ENDBRANCH  39  40
ENDBRANCH  32  34
ENDBRANCH  31  32
ENDBRANCH  30  31
ENDBRANCH  29  30
ENDBRANCH  28  29
ENDBRANCH   1  28
TORSDOF 18
ENDMDL
MODEL 2
REMARK VINA RESULT:     -12.0      4.963      7.155
REMARK SMILES C/C=C(\C)[C@@H]1C(C)=C[C@@H]2[C@H]([C@@H]1/C=C/C=C/C(=O)OCCOCCOC(=O)c1ccc(-c3c4nc(c(-c5c(F)c(F)c(F)c(F)c5F)c5ccc([nH]5)c(-c5c(F)c(F)c(F)c(F)c5F)c5nc(c(-c6c(F)c(F)c(F)c(F)c6F)c6ccc3[nH]6)C=C5)C=C4)cc1)[C@@H](C)CC[C@@H]2O
REMARK SMILES IDX 20 1 19 2 18 3 16 4 17 5 15 6 14 7 13 8 12 9 11 10 5 11 6 12
REMARK SMILES IDX 7 13 8 14 10 15 9 16 90 17 94 18 91 19 92 20 93 21 3 22 1 23
REMARK SMILES IDX 2 24 4 25 95 26 21 28 22 29 23 30 24 31 25 32 26 33 27 34
REMARK SMILES IDX 28 35 89 36 29 37 88 38 30 39 31 40 32 41 82 42 33 43 87 44
REMARK SMILES IDX 81 45 83 46 34 47 86 48 80 49 79 50 35 52 67 53 47 54 66 55
REMARK SMILES IDX 48 56 51 57 65 58 84 59 49 60 50 61 64 63 85 64 52 65 36 66
REMARK SMILES IDX 37 67 45 68 38 69 39 70 43 71 46 72 40 73 41 74 44 75 42 76
REMARK SMILES IDX 68 77 69 78 77 79 70 80 71 81 75 82 78 83 72 84 73 85 76 86
REMARK SMILES IDX 74 87 53 88 54 89 62 90 55 91 56 92 60 93 63 94 57 95 58 96
REMARK SMILES IDX 61 97 59 98
REMARK H PARENT 95 27 83 51 51 62
REMARK Flexibility Score: inf
ROOT
ATOM      1  C   UNL A   1      40.347  19.950  26.126  1.00  0.00     0.202 C 
ENDROOT
BRANCH   1   2
ATOM      2  C   UNL A   1      40.429  21.470  26.276  1.00  0.00     0.261 C 
BRANCH   2   3
ATOM      3  O   UNL A   1      39.190  22.078  25.883  1.00  0.00    -0.460 OA
BRANCH   3   4
ATOM      4  C   UNL A   1      38.867  23.211  26.548  1.00  0.00     0.330 C 
ATOM      5  O   UNL A   1      39.470  23.703  27.490  1.00  0.00    -0.247 OA
BRANCH   4   6
ATOM      6  C   UNL A   1      37.697  23.885  25.956  1.00  0.00     0.093 C 
ATOM      7  C   UNL A   1      36.436  23.426  25.943  1.00  0.00     0.007 C 
BRANCH   7   8
ATOM      8  C   UNL A   1      35.373  24.270  25.450  1.00  0.00    -0.004 C 
ATOM      9  C   UNL A   1      34.135  24.250  25.969  1.00  0.00    -0.022 C 
BRANCH   9  10
ATOM     10  C   UNL A   1      33.178  25.424  25.785  1.00  0.00     0.027 C 
ATOM     11  C   UNL A   1      31.664  24.951  25.645  1.00  0.00     0.047 C 
ATOM     12  C   UNL A   1      30.929  25.550  24.453  1.00  0.00    -0.069 C 
ATOM     13  C   UNL A   1      29.430  25.625  24.537  1.00  0.00     0.040 C 
ATOM     14  C   UNL A   1      31.592  25.965  23.359  1.00  0.00    -0.021 C 
ATOM     15  C   UNL A   1      33.688  26.363  24.650  1.00  0.00     0.009 C 
ATOM     16  C   UNL A   1      33.105  25.912  23.286  1.00  0.00     0.044 C 
ATOM     17  C   UNL A   1      33.400  27.886  24.889  1.00  0.00    -0.010 C 
ATOM     18  C   UNL A   1      33.712  26.771  22.159  1.00  0.00     0.121 C 
ATOM     19  C   UNL A   1      34.028  28.427  26.179  1.00  0.00     0.008 C 
ATOM     20  C   UNL A   1      33.921  28.735  23.707  1.00  0.00     0.006 C 
ATOM     21  C   UNL A   1      33.426  28.255  22.347  1.00  0.00     0.033 C 
BRANCH  11  22
ATOM     22  C   UNL A   1      31.450  23.415  25.716  1.00  0.00    -0.070 C 
ATOM     23  C   UNL A   1      31.926  21.078  24.768  1.00  0.00     0.035 C 
ATOM     24  C   UNL A   1      31.989  22.570  24.809  1.00  0.00    -0.031 C 
ATOM     25  C   UNL A   1      30.602  22.953  26.876  1.00  0.00     0.040 C 
ENDBRANCH  11  22
BRANCH  18  26
ATOM     26  O   UNL A   1      33.278  26.334  20.873  1.00  0.00    -0.393 OA
ATOM     27  H   UNL A   1      32.379  25.976  20.940  1.00  0.00     0.210 HD
ENDBRANCH  18  26
ENDBRANCH   9  10
ENDBRANCH   7   8
ENDBRANCH   4   6
ENDBRANCH   3   4
ENDBRANCH   2   3
ENDBRANCH   1   2
BRANCH   1  28
ATOM     28  O   UNL A   1      41.436  19.329  25.443  1.00  0.00    -0.374 OA
BRANCH  28  29
ATOM     29  C   UNL A   1      42.488  18.786  26.240  1.00  0.00     0.202 C 
BRANCH  29  30
ATOM     30  C   UNL A   1      43.697  18.222  25.484  1.00  0.00     0.261 C 
BRANCH  30  31
ATOM     31  O   UNL A   1      43.935  18.913  24.245  1.00  0.00    -0.460 OA
BRANCH  31  32
ATOM     32  C   UNL A   1      45.113  19.576  24.181  1.00  0.00     0.338 C 
ATOM     33  O   UNL A   1      46.144  19.211  23.631  1.00  0.00    -0.246 OA
BRANCH  32  34
ATOM     34  C   UNL A   1      44.958  20.931  24.738  1.00  0.00     0.060 A 
ATOM     35  C   UNL A   1      44.553  21.949  23.865  1.00  0.00     0.016 A 
ATOM     36  C   UNL A   1      45.275  21.219  26.066  1.00  0.00     0.016 A 
ATOM     37  C   UNL A   1      44.503  23.270  24.306  1.00  0.00     0.010 A 
ATOM     38  C   UNL A   1      45.235  22.548  26.505  1.00  0.00     0.010 A 
ATOM     39  C   UNL A   1      44.880  23.581  25.619  1.00  0.00    -0.014 A 
BRANCH  39  40
ATOM     40  C   UNL A   1      45.030  24.999  26.026  1.00  0.00     0.031 A 
ATOM     41  C   UNL A   1      46.382  25.646  25.929  1.00  0.00     0.074 A 
ATOM     42  C   UNL A   1      43.974  25.701  26.472  1.00  0.00     0.049 A 
ATOM     43  N   UNL A   1      46.758  26.847  26.290  1.00  0.00    -0.248 NA
ATOM     44  C   UNL A   1      47.460  24.828  25.350  1.00  0.00     0.031 C 
ATOM     45  C   UNL A   1      42.608  25.193  26.581  1.00  0.00     0.029 A 
ATOM     46  N   UNL A   1      43.892  26.992  26.931  1.00  0.00    -0.354 N 
ATOM     47  C   UNL A   1      48.113  26.923  25.997  1.00  0.00     0.074 A 
ATOM     48  C   UNL A   1      48.501  25.643  25.447  1.00  0.00     0.031 C 
ATOM     49  C   UNL A   1      41.826  26.155  27.098  1.00  0.00     0.029 A 
ATOM     50  C   UNL A   1      42.643  27.333  27.387  1.00  0.00     0.049 A 
ATOM     51  H   UNL A   1      44.656  27.613  26.935  1.00  0.00     0.167 HD
ATOM     52  C   UNL A   1      48.955  27.970  26.169  1.00  0.00     0.037 A 
ATOM     53  C   UNL A   1      42.217  28.458  27.994  1.00  0.00     0.037 A 
ATOM     54  C   UNL A   1      48.563  29.247  26.705  1.00  0.00     0.049 A 
ATOM     55  C   UNL A   1      43.186  29.589  28.221  1.00  0.00     0.074 A 
ATOM     56  C   UNL A   1      49.333  30.384  26.876  1.00  0.00     0.029 A 
ATOM     57  N   UNL A   1      47.290  29.552  27.164  1.00  0.00    -0.354 N 
ATOM     58  N   UNL A   1      44.456  29.669  27.904  1.00  0.00    -0.248 NA
ATOM     59  C   UNL A   1      42.662  30.789  28.889  1.00  0.00     0.031 C 
ATOM     60  C   UNL A   1      48.541  31.360  27.489  1.00  0.00     0.029 A 
ATOM     61  C   UNL A   1      47.262  30.850  27.648  1.00  0.00     0.049 A 
ATOM     62  H   UNL A   1      46.521  28.937  27.150  1.00  0.00     0.167 HD
ATOM     63  C   UNL A   1      44.873  30.931  28.306  1.00  0.00     0.074 A 
ATOM     64  C   UNL A   1      43.719  31.590  28.879  1.00  0.00     0.031 C 
ATOM     65  C   UNL A   1      46.102  31.495  28.208  1.00  0.00     0.037 A 
BRANCH  52  66
ATOM     66  C   UNL A   1      50.396  27.774  25.800  1.00  0.00     0.064 A 
ATOM     67  C   UNL A   1      50.845  27.917  24.479  1.00  0.00     0.173 A 
ATOM     68  C   UNL A   1      51.347  27.494  26.792  1.00  0.00     0.173 A 
ATOM     69  F   UNL A   1      49.974  28.173  23.492  1.00  0.00    -0.203 F 
ATOM     70  C   UNL A   1      52.194  27.766  24.163  1.00  0.00     0.198 A 
ATOM     71  C   UNL A   1      52.697  27.370  26.476  1.00  0.00     0.198 A 
ATOM     72  F   UNL A   1      50.969  27.354  28.071  1.00  0.00    -0.203 F 
ATOM     73  F   UNL A   1      52.598  27.868  22.889  1.00  0.00    -0.200 F 
ATOM     74  C   UNL A   1      53.119  27.501  25.162  1.00  0.00     0.200 A 
ATOM     75  F   UNL A   1      53.590  27.127  27.445  1.00  0.00    -0.200 F 
ATOM     76  F   UNL A   1      54.417  27.368  24.857  1.00  0.00    -0.200 F 
ENDBRANCH  52  66
BRANCH  53  77
ATOM     77  C   UNL A   1      40.808  28.563  28.457  1.00  0.00     0.064 A 
ATOM     78  C   UNL A   1      39.792  29.002  27.596  1.00  0.00     0.173 A 
ATOM     79  C   UNL A   1      40.455  28.250  29.777  1.00  0.00     0.173 A 
ATOM     80  F   UNL A   1      40.085  29.338  26.332  1.00  0.00    -0.203 F 
ATOM     81  C   UNL A   1      38.480  29.143  28.046  1.00  0.00     0.198 A 
ATOM     82  C   UNL A   1      39.137  28.363  30.217  1.00  0.00     0.198 A 
ATOM     83  F   UNL A   1      41.389  27.827  30.641  1.00  0.00    -0.203 F 
ATOM     84  F   UNL A   1      37.538  29.612  27.217  1.00  0.00    -0.200 F 
ATOM     85  C   UNL A   1      38.153  28.818  29.353  1.00  0.00     0.200 A 
ATOM     86  F   UNL A   1      38.824  28.037  31.479  1.00  0.00    -0.200 F 
ATOM     87  F   UNL A   1      36.891  28.953  29.784  1.00  0.00    -0.200 F 
ENDBRANCH  53  77
BRANCH  65  88
ATOM     88  C   UNL A   1      46.258  32.906  28.695  1.00  0.00     0.064 A 
ATOM     89  C   UNL A   1      46.027  34.006  27.855  1.00  0.00     0.173 A 
ATOM     90  C   UNL A   1      46.594  33.161  30.034  1.00  0.00     0.173 A 
ATOM     91  F   UNL A   1      45.718  33.815  26.564  1.00  0.00    -0.203 F 
ATOM     92  C   UNL A   1      46.145  35.308  28.333  1.00  0.00     0.198 A 
ATOM     93  C   UNL A   1      46.683  34.463  30.516  1.00  0.00     0.198 A 
ATOM     94  F   UNL A   1      46.818  32.145  30.880  1.00  0.00    -0.203 F 
ATOM     95  F   UNL A   1      45.961  36.344  27.504  1.00  0.00    -0.200 F 
ATOM     96  C   UNL A   1      46.465  35.536  29.664  1.00  0.00     0.200 A 
ATOM     97  F   UNL A   1      46.977  34.681  31.805  1.00  0.00    -0.200 F 
ATOM     98  F   UNL A   1      46.569  36.790  30.125  1.00  0.00    -0.200 F 
ENDBRANCH  65  88
ENDBRANCH  39  40
ENDBRANCH  32  34
ENDBRANCH  31  32
ENDBRANCH  30  31
ENDBRANCH  29  30
ENDBRANCH  28  29
ENDBRANCH   1  28
TORSDOF 18
ENDMDL
MODEL 3
REMARK VINA RESULT:     -11.9      3.722      9.158
REMARK SMILES C/C=C(\C)[C@@H]1C(C)=C[C@@H]2[C@H]([C@@H]1/C=C/C=C/C(=O)OCCOCCOC(=O)c1ccc(-c3c4nc(c(-c5c(F)c(F)c(F)c(F)c5F)c5ccc([nH]5)c(-c5c(F)c(F)c(F)c(F)c5F)c5nc(c(-c6c(F)c(F)c(F)c(F)c6F)c6ccc3[nH]6)C=C5)C=C4)cc1)[C@@H](C)CC[C@@H]2O
REMARK SMILES IDX 20 1 19 2 18 3 16 4 17 5 15 6 14 7 13 8 12 9 11 10 5 11 6 12
REMARK SMILES IDX 7 13 8 14 10 15 9 16 90 17 94 18 91 19 92 20 93 21 3 22 1 23
REMARK SMILES IDX 2 24 4 25 95 26 21 28 22 29 23 30 24 31 25 32 26 33 27 34
REMARK SMILES IDX 28 35 89 36 29 37 88 38 30 39 31 40 32 41 82 42 33 43 87 44
REMARK SMILES IDX 81 45 83 46 34 47 86 48 80 49 79 50 35 52 67 53 47 54 66 55
REMARK SMILES IDX 48 56 51 57 65 58 84 59 49 60 50 61 64 63 85 64 52 65 36 66
REMARK SMILES IDX 37 67 45 68 38 69 39 70 43 71 46 72 40 73 41 74 44 75 42 76
REMARK SMILES IDX 68 77 69 78 77 79 70 80 71 81 75 82 78 83 72 84 73 85 76 86
REMARK SMILES IDX 74 87 53 88 54 89 62 90 55 91 56 92 60 93 63 94 57 95 58 96
REMARK SMILES IDX 61 97 59 98
REMARK H PARENT 95 27 83 51 51 62
REMARK Flexibility Score: inf
ROOT
ATOM      1  C   UNL A   1      34.543  32.830  29.216  1.00  0.00     0.202 C 
ENDROOT
BRANCH   1   2
ATOM      2  C   UNL A   1      34.677  32.048  27.908  1.00  0.00     0.261 C 
BRANCH   2   3
ATOM      3  O   UNL A   1      34.095  30.743  28.044  1.00  0.00    -0.460 OA
BRANCH   3   4
ATOM      4  C   UNL A   1      33.029  30.502  27.247  1.00  0.00     0.330 C 
ATOM      5  O   UNL A   1      32.201  31.316  26.866  1.00  0.00    -0.247 OA
BRANCH   4   6
ATOM      6  C   UNL A   1      32.991  29.102  26.785  1.00  0.00     0.093 C 
ATOM      7  C   UNL A   1      33.994  28.428  26.203  1.00  0.00     0.007 C 
BRANCH   7   8
ATOM      8  C   UNL A   1      33.848  27.016  25.938  1.00  0.00    -0.004 C 
ATOM      9  C   UNL A   1      33.882  26.506  24.697  1.00  0.00    -0.022 C 
BRANCH   9  10
ATOM     10  C   UNL A   1      34.195  25.032  24.452  1.00  0.00     0.027 C 
ATOM     11  C   UNL A   1      33.366  24.435  23.232  1.00  0.00     0.047 C 
ATOM     12  C   UNL A   1      32.650  23.127  23.543  1.00  0.00    -0.069 C 
ATOM     13  C   UNL A   1      32.326  22.228  22.383  1.00  0.00     0.040 C 
ATOM     14  C   UNL A   1      32.294  22.806  24.800  1.00  0.00    -0.021 C 
ATOM     15  C   UNL A   1      34.089  24.230  25.784  1.00  0.00     0.009 C 
ATOM     16  C   UNL A   1      32.644  23.702  25.971  1.00  0.00     0.044 C 
ATOM     17  C   UNL A   1      35.120  23.056  25.919  1.00  0.00    -0.010 C 
ATOM     18  C   UNL A   1      32.521  23.017  27.347  1.00  0.00     0.121 C 
ATOM     19  C   UNL A   1      36.580  23.518  25.837  1.00  0.00     0.008 C 
ATOM     20  C   UNL A   1      34.927  22.307  27.257  1.00  0.00     0.006 C 
ATOM     21  C   UNL A   1      33.492  21.853  27.499  1.00  0.00     0.033 C 
BRANCH  11  22
ATOM     22  C   UNL A   1      32.409  25.441  22.536  1.00  0.00    -0.070 C 
ATOM     23  C   UNL A   1      30.401  27.032  22.681  1.00  0.00     0.035 C 
ATOM     24  C   UNL A   1      31.370  26.013  23.185  1.00  0.00    -0.031 C 
ATOM     25  C   UNL A   1      32.741  25.724  21.091  1.00  0.00     0.040 C 
ENDBRANCH  11  22
BRANCH  18  26
ATOM     26  O   UNL A   1      31.185  22.594  27.607  1.00  0.00    -0.393 OA
ATOM     27  H   UNL A   1      30.974  21.829  27.050  1.00  0.00     0.210 HD
ENDBRANCH  18  26
ENDBRANCH   9  10
ENDBRANCH   7   8
ENDBRANCH   4   6
ENDBRANCH   3   4
ENDBRANCH   2   3
ENDBRANCH   1   2
BRANCH   1  28
ATOM     28  O   UNL A   1      33.478  33.778  29.273  1.00  0.00    -0.374 OA
BRANCH  28  29
ATOM     29  C   UNL A   1      33.801  35.146  29.022  1.00  0.00     0.202 C 
BRANCH  29  30
ATOM     30  C   UNL A   1      32.877  36.193  29.655  1.00  0.00     0.261 C 
BRANCH  30  31
ATOM     31  O   UNL A   1      33.266  36.521  31.000  1.00  0.00    -0.460 OA
BRANCH  31  32
ATOM     32  C   UNL A   1      32.839  35.650  31.943  1.00  0.00     0.338 C 
ATOM     33  O   UNL A   1      31.684  35.337  32.200  1.00  0.00    -0.246 OA
BRANCH  32  34
ATOM     34  C   UNL A   1      33.991  34.961  32.551  1.00  0.00     0.060 A 
ATOM     35  C   UNL A   1      35.252  35.551  32.403  1.00  0.00     0.016 A 
ATOM     36  C   UNL A   1      33.855  33.725  33.186  1.00  0.00     0.016 A 
ATOM     37  C   UNL A   1      36.392  34.888  32.854  1.00  0.00     0.010 A 
ATOM     38  C   UNL A   1      35.001  33.055  33.628  1.00  0.00     0.010 A 
ATOM     39  C   UNL A   1      36.275  33.618  33.435  1.00  0.00    -0.014 A 
BRANCH  39  40
ATOM     40  C   UNL A   1      37.495  32.824  33.721  1.00  0.00     0.031 A 
ATOM     41  C   UNL A   1      38.260  33.092  34.986  1.00  0.00     0.074 A 
ATOM     42  C   UNL A   1      37.910  31.873  32.867  1.00  0.00     0.049 A 
ATOM     43  N   UNL A   1      39.384  32.568  35.405  1.00  0.00    -0.248 NA
ATOM     44  C   UNL A   1      37.683  34.090  35.901  1.00  0.00     0.031 C 
ATOM     45  C   UNL A   1      37.235  31.500  31.626  1.00  0.00     0.029 A 
ATOM     46  N   UNL A   1      39.014  31.058  32.910  1.00  0.00    -0.354 N 
ATOM     47  C   UNL A   1      39.656  33.182  36.621  1.00  0.00     0.074 A 
ATOM     48  C   UNL A   1      38.592  34.131  36.865  1.00  0.00     0.031 C 
ATOM     49  C   UNL A   1      37.953  30.544  31.012  1.00  0.00     0.029 A 
ATOM     50  C   UNL A   1      39.151  30.263  31.799  1.00  0.00     0.049 A 
ATOM     51  H   UNL A   1      39.647  31.045  33.664  1.00  0.00     0.167 HD
ATOM     52  C   UNL A   1      40.698  32.967  37.459  1.00  0.00     0.037 A 
ATOM     53  C   UNL A   1      40.148  29.426  31.448  1.00  0.00     0.037 A 
ATOM     54  C   UNL A   1      41.748  32.012  37.219  1.00  0.00     0.049 A 
ATOM     55  C   UNL A   1      41.322  29.243  32.373  1.00  0.00     0.074 A 
ATOM     56  C   UNL A   1      42.823  31.691  38.029  1.00  0.00     0.029 A 
ATOM     57  N   UNL A   1      41.859  31.231  36.078  1.00  0.00    -0.354 N 
ATOM     58  N   UNL A   1      41.552  29.795  33.540  1.00  0.00    -0.248 NA
ATOM     59  C   UNL A   1      42.377  28.318  31.934  1.00  0.00     0.031 C 
ATOM     60  C   UNL A   1      43.614  30.755  37.355  1.00  0.00     0.029 A 
ATOM     61  C   UNL A   1      43.001  30.451  36.149  1.00  0.00     0.049 A 
ATOM     62  H   UNL A   1      41.220  31.233  35.328  1.00  0.00     0.167 HD
ATOM     63  C   UNL A   1      42.757  29.267  33.985  1.00  0.00     0.074 A 
ATOM     64  C   UNL A   1      43.205  28.338  32.969  1.00  0.00     0.031 C 
ATOM     65  C   UNL A   1      43.430  29.525  35.133  1.00  0.00     0.037 A 
BRANCH  52  66
ATOM     66  C   UNL A   1      40.774  33.798  38.705  1.00  0.00     0.064 A 
ATOM     67  C   UNL A   1      41.513  34.990  38.753  1.00  0.00     0.173 A 
ATOM     68  C   UNL A   1      40.054  33.424  39.849  1.00  0.00     0.173 A 
ATOM     69  F   UNL A   1      42.228  35.386  37.691  1.00  0.00    -0.203 F 
ATOM     70  C   UNL A   1      41.542  35.766  39.910  1.00  0.00     0.198 A 
ATOM     71  C   UNL A   1      40.065  34.215  40.994  1.00  0.00     0.198 A 
ATOM     72  F   UNL A   1      39.328  32.296  39.851  1.00  0.00    -0.203 F 
ATOM     73  F   UNL A   1      42.284  36.881  39.949  1.00  0.00    -0.200 F 
ATOM     74  C   UNL A   1      40.812  35.382  41.026  1.00  0.00     0.200 A 
ATOM     75  F   UNL A   1      39.348  33.849  42.065  1.00  0.00    -0.200 F 
ATOM     76  F   UNL A   1      40.832  36.136  42.134  1.00  0.00    -0.200 F 
ENDBRANCH  52  66
BRANCH  53  77
ATOM     77  C   UNL A   1      40.092  28.714  30.144  1.00  0.00     0.064 A 
ATOM     78  C   UNL A   1      39.476  27.460  30.028  1.00  0.00     0.173 A 
ATOM     79  C   UNL A   1      40.677  29.264  28.994  1.00  0.00     0.173 A 
ATOM     80  F   UNL A   1      38.927  26.881  31.105  1.00  0.00    -0.203 F 
ATOM     81  C   UNL A   1      39.467  26.774  28.814  1.00  0.00     0.198 A 
ATOM     82  C   UNL A   1      40.640  28.590  27.775  1.00  0.00     0.198 A 
ATOM     83  F   UNL A   1      41.280  30.459  29.052  1.00  0.00    -0.203 F 
ATOM     84  F   UNL A   1      38.916  25.555  28.741  1.00  0.00    -0.200 F 
ATOM     85  C   UNL A   1      40.043  27.341  27.688  1.00  0.00     0.200 A 
ATOM     86  F   UNL A   1      41.188  29.148  26.686  1.00  0.00    -0.200 F 
ATOM     87  F   UNL A   1      40.032  26.681  26.522  1.00  0.00    -0.200 F 
ENDBRANCH  53  77
BRANCH  65  88
ATOM     88  C   UNL A   1      44.704  28.770  35.374  1.00  0.00     0.064 A 
ATOM     89  C   UNL A   1      45.953  29.292  35.002  1.00  0.00     0.173 A 
ATOM     90  C   UNL A   1      44.682  27.530  36.033  1.00  0.00     0.173 A 
ATOM     91  F   UNL A   1      46.027  30.465  34.357  1.00  0.00    -0.203 F 
ATOM     92  C   UNL A   1      47.127  28.592  35.262  1.00  0.00     0.198 A 
ATOM     93  C   UNL A   1      45.859  26.847  36.318  1.00  0.00     0.198 A 
ATOM     94  F   UNL A   1      43.515  26.990  36.417  1.00  0.00    -0.203 F 
ATOM     95  F   UNL A   1      48.305  29.089  34.861  1.00  0.00    -0.200 F 
ATOM     96  C   UNL A   1      47.081  27.375  35.927  1.00  0.00     0.200 A 
ATOM     97  F   UNL A   1      45.814  25.679  36.973  1.00  0.00    -0.200 F 
ATOM     98  F   UNL A   1      48.214  26.707  36.186  1.00  0.00    -0.200 F 
ENDBRANCH  65  88
ENDBRANCH  39  40
ENDBRANCH  32  34
ENDBRANCH  31  32
ENDBRANCH  30  31
ENDBRANCH  29  30
ENDBRANCH  28  29
ENDBRANCH   1  28
TORSDOF 18
ENDMDL
