MODEL 1
REMARK VINA RESULT:     -10.8      0.000      0.000
REMARK SMILES CC[C@@H](C(=O)OCCOCCOC(=O)c1ccc(-c2c3nc(c(-c4c(F)c(F)c(F)c(F)c4F)c4ccc([nH]4)c(-c4c(F)c(F)c(F)c(F)c4F)c4nc(c(-c5c(F)c(F)c(F)c(F)c5F)c5ccc2[nH]5)C=C4)C=C3)cc1)N(C)C(=O)c1cn(C2C[NH2+]C2)nn1
REMARK SMILES IDX 8 1 7 2 6 3 4 4 5 5 3 6 2 7 1 8 78 9 79 10 80 11 81 12 82 13
REMARK SMILES IDX 83 14 90 15 84 16 89 17 85 18 86 19 88 20 87 21 9 24 10 25
REMARK SMILES IDX 11 26 12 27 13 28 14 29 15 30 16 31 77 32 17 33 76 34 18 35
REMARK SMILES IDX 19 36 20 37 70 38 21 39 75 40 69 41 71 42 22 43 74 44 68 45
REMARK SMILES IDX 67 46 23 48 55 49 35 50 54 51 36 52 39 53 53 54 72 55 37 56
REMARK SMILES IDX 38 57 52 59 73 60 40 61 24 62 25 63 33 64 26 65 27 66 31 67
REMARK SMILES IDX 34 68 28 69 29 70 32 71 30 72 56 73 57 74 65 75 58 76 59 77
REMARK SMILES IDX 63 78 66 79 60 80 61 81 64 82 62 83 41 84 42 85 50 86 43 87
REMARK SMILES IDX 44 88 48 89 51 90 45 91 46 92 49 93 47 94
REMARK H PARENT 87 22 87 23 71 47 39 58
REMARK Flexibility Score: inf
ROOT
ATOM      1  C   UNL A   1      31.819  29.202  26.023  1.00  0.00     0.202 C 
ENDROOT
BRANCH   1   2
ATOM      2  C   UNL A   1      31.489  27.898  26.753  1.00  0.00     0.261 C 
BRANCH   2   3
ATOM      3  O   UNL A   1      32.517  26.921  26.498  1.00  0.00    -0.462 OA
BRANCH   3   4
ATOM      4  C   UNL A   1      32.095  25.657  26.241  1.00  0.00     0.328 C 
ATOM      5  O   UNL A   1      31.254  25.064  26.912  1.00  0.00    -0.250 OA
BRANCH   4   6
ATOM      6  C   UNL A   1      32.836  25.004  25.054  1.00  0.00     0.194 C 
BRANCH   6   7
ATOM      7  C   UNL A   1      34.371  24.843  25.143  1.00  0.00     0.034 C 
ATOM      8  C   UNL A   1      34.853  23.688  26.013  1.00  0.00     0.007 C 
ENDBRANCH   6   7
BRANCH   6   9
ATOM      9  N   UNL A   1      32.394  25.723  23.821  1.00  0.00    -0.326 N 
ATOM     10  C   UNL A   1      33.450  26.263  22.974  1.00  0.00     0.148 C 
BRANCH   9  11
ATOM     11  C   UNL A   1      31.052  25.640  23.405  1.00  0.00     0.276 C 
ATOM     12  O   UNL A   1      30.500  24.563  23.193  1.00  0.00    -0.267 OA
BRANCH  11  13
ATOM     13  C   UNL A   1      30.300  26.875  23.195  1.00  0.00     0.170 A 
ATOM     14  C   UNL A   1      30.676  28.015  22.511  1.00  0.00     0.145 A 
ATOM     15  N   UNL A   1      28.995  27.017  23.599  1.00  0.00    -0.125 NA
ATOM     16  N   UNL A   1      29.588  28.838  22.607  1.00  0.00    -0.237 N 
ATOM     17  N   UNL A   1      28.580  28.229  23.255  1.00  0.00    -0.066 NA
BRANCH  16  18
ATOM     18  C   UNL A   1      29.468  30.199  22.177  1.00  0.00     0.218 C 
ATOM     19  C   UNL A   1      28.181  30.473  21.367  1.00  0.00     0.294 C 
ATOM     20  C   UNL A   1      28.826  31.147  23.212  1.00  0.00     0.294 C 
ATOM     21  N   UNL A   1      28.005  31.730  22.125  1.00  0.00    -0.342 N 
ATOM     22  H   UNL A   1      27.041  31.931  22.388  1.00  0.00     0.346 HD
ATOM     23  H   UNL A   1      28.240  32.632  21.712  1.00  0.00     0.346 HD
ENDBRANCH  16  18
ENDBRANCH  11  13
ENDBRANCH   9  11
ENDBRANCH   6   9
ENDBRANCH   4   6
ENDBRANCH   3   4
ENDBRANCH   2   3
ENDBRANCH   1   2
BRANCH   1  24
ATOM     24  O   UNL A   1      31.816  30.377  26.837  1.00  0.00    -0.374 OA
BRANCH  24  25
ATOM     25  C   UNL A   1      31.347  31.580  26.224  1.00  0.00     0.202 C 
BRANCH  25  26
ATOM     26  C   UNL A   1      31.849  32.887  26.843  1.00  0.00     0.261 C 
BRANCH  26  27
ATOM     27  O   UNL A   1      32.787  32.643  27.906  1.00  0.00    -0.460 OA
BRANCH  27  28
ATOM     28  C   UNL A   1      33.842  33.486  27.928  1.00  0.00     0.338 C 
ATOM     29  O   UNL A   1      33.822  34.709  27.855  1.00  0.00    -0.246 OA
BRANCH  28  30
ATOM     30  C   UNL A   1      35.080  32.742  28.223  1.00  0.00     0.060 A 
ATOM     31  C   UNL A   1      34.958  31.370  28.484  1.00  0.00     0.016 A 
ATOM     32  C   UNL A   1      36.322  33.374  28.314  1.00  0.00     0.016 A 
ATOM     33  C   UNL A   1      36.063  30.639  28.909  1.00  0.00     0.010 A 
ATOM     34  C   UNL A   1      37.430  32.641  28.751  1.00  0.00     0.010 A 
ATOM     35  C   UNL A   1      37.292  31.284  29.095  1.00  0.00    -0.014 A 
BRANCH  35  36
ATOM     36  C   UNL A   1      38.368  30.597  29.848  1.00  0.00     0.031 A 
ATOM     37  C   UNL A   1      38.561  30.951  31.297  1.00  0.00     0.074 A 
ATOM     38  C   UNL A   1      39.138  29.661  29.270  1.00  0.00     0.049 A 
ATOM     39  N   UNL A   1      39.474  30.546  32.140  1.00  0.00    -0.248 NA
ATOM     40  C   UNL A   1      37.588  31.895  31.873  1.00  0.00     0.031 C 
ATOM     41  C   UNL A   1      39.005  29.192  27.892  1.00  0.00     0.029 A 
ATOM     42  N   UNL A   1      40.193  28.943  29.773  1.00  0.00    -0.354 N 
ATOM     43  C   UNL A   1      39.196  31.194  33.337  1.00  0.00     0.074 A 
ATOM     44  C   UNL A   1      38.042  32.035  33.108  1.00  0.00     0.031 C 
ATOM     45  C   UNL A   1      39.959  28.273  27.654  1.00  0.00     0.029 A 
ATOM     46  C   UNL A   1      40.786  28.119  28.850  1.00  0.00     0.049 A 
ATOM     47  H   UNL A   1      40.496  29.014  30.707  1.00  0.00     0.167 HD
ATOM     48  C   UNL A   1      39.842  31.090  34.521  1.00  0.00     0.037 A 
ATOM     49  C   UNL A   1      41.887  27.349  28.957  1.00  0.00     0.037 A 
ATOM     50  C   UNL A   1      40.984  30.247  34.746  1.00  0.00     0.049 A 
ATOM     51  C   UNL A   1      42.633  27.303  30.266  1.00  0.00     0.074 A 
ATOM     52  C   UNL A   1      41.712  30.070  35.909  1.00  0.00     0.029 A 
ATOM     53  N   UNL A   1      41.566  29.440  33.780  1.00  0.00    -0.354 N 
ATOM     54  N   UNL A   1      42.363  27.915  31.394  1.00  0.00    -0.248 NA
ATOM     55  C   UNL A   1      43.837  26.461  30.318  1.00  0.00     0.031 C 
ATOM     56  C   UNL A   1      42.761  29.186  35.635  1.00  0.00     0.029 A 
ATOM     57  C   UNL A   1      42.656  28.774  34.317  1.00  0.00     0.049 A 
ATOM     58  H   UNL A   1      41.252  29.353  32.850  1.00  0.00     0.167 HD
ATOM     59  C   UNL A   1      43.335  27.503  32.296  1.00  0.00     0.074 A 
ATOM     60  C   UNL A   1      44.205  26.591  31.586  1.00  0.00     0.031 C 
ATOM     61  C   UNL A   1      43.489  27.846  33.598  1.00  0.00     0.037 A 
BRANCH  48  62
ATOM     62  C   UNL A   1      39.345  31.934  35.657  1.00  0.00     0.064 A 
ATOM     63  C   UNL A   1      38.406  31.449  36.580  1.00  0.00     0.173 A 
ATOM     64  C   UNL A   1      39.836  33.235  35.840  1.00  0.00     0.173 A 
ATOM     65  F   UNL A   1      37.895  30.217  36.439  1.00  0.00    -0.203 F 
ATOM     66  C   UNL A   1      37.961  32.245  37.632  1.00  0.00     0.198 A 
ATOM     67  C   UNL A   1      39.409  34.018  36.909  1.00  0.00     0.198 A 
ATOM     68  F   UNL A   1      40.737  33.744  34.986  1.00  0.00    -0.203 F 
ATOM     69  F   UNL A   1      37.033  31.777  38.477  1.00  0.00    -0.200 F 
ATOM     70  C   UNL A   1      38.468  33.525  37.800  1.00  0.00     0.200 A 
ATOM     71  F   UNL A   1      39.908  35.251  37.075  1.00  0.00    -0.200 F 
ATOM     72  F   UNL A   1      38.044  34.287  38.817  1.00  0.00    -0.200 F 
ENDBRANCH  48  62
BRANCH  49  73
ATOM     73  C   UNL A   1      42.363  26.569  27.785  1.00  0.00     0.064 A 
ATOM     74  C   UNL A   1      43.314  27.097  26.900  1.00  0.00     0.173 A 
ATOM     75  C   UNL A   1      41.866  25.285  27.517  1.00  0.00     0.173 A 
ATOM     76  F   UNL A   1      43.801  28.330  27.101  1.00  0.00    -0.203 F 
ATOM     77  C   UNL A   1      43.738  26.377  25.785  1.00  0.00     0.198 A 
ATOM     78  C   UNL A   1      42.309  24.556  26.416  1.00  0.00     0.198 A 
ATOM     79  F   UNL A   1      40.953  24.735  28.330  1.00  0.00    -0.203 F 
ATOM     80  F   UNL A   1      44.615  26.923  24.932  1.00  0.00    -0.200 F 
ATOM     81  C   UNL A   1      43.239  25.105  25.547  1.00  0.00     0.200 A 
ATOM     82  F   UNL A   1      41.832  23.323  26.196  1.00  0.00    -0.200 F 
ATOM     83  F   UNL A   1      43.648  24.412  24.475  1.00  0.00    -0.200 F 
ENDBRANCH  49  73
BRANCH  61  84
ATOM     84  C   UNL A   1      44.600  27.190  34.364  1.00  0.00     0.064 A 
ATOM     85  C   UNL A   1      45.857  27.794  34.505  1.00  0.00     0.173 A 
ATOM     86  C   UNL A   1      44.372  25.976  35.033  1.00  0.00     0.173 A 
ATOM     87  F   UNL A   1      46.127  28.947  33.876  1.00  0.00    -0.203 F 
ATOM     88  C   UNL A   1      46.850  27.200  35.279  1.00  0.00     0.198 A 
ATOM     89  C   UNL A   1      45.359  25.400  35.825  1.00  0.00     0.198 A 
ATOM     90  F   UNL A   1      43.182  25.364  34.935  1.00  0.00    -0.203 F 
ATOM     91  F   UNL A   1      48.055  27.778  35.378  1.00  0.00    -0.200 F 
ATOM     92  C   UNL A   1      46.597  26.010  35.946  1.00  0.00     0.200 A 
ATOM     93  F   UNL A   1      45.108  24.256  36.479  1.00  0.00    -0.200 F 
ATOM     94  F   UNL A   1      47.551  25.448  36.703  1.00  0.00    -0.200 F 
ENDBRANCH  61  84
ENDBRANCH  35  36
ENDBRANCH  28  30
ENDBRANCH  27  28
ENDBRANCH  26  27
ENDBRANCH  25  26
ENDBRANCH  24  25
ENDBRANCH   1  24
TORSDOF 19
ENDMDL
MODEL 2
REMARK VINA RESULT:     -10.7      1.262      3.649
REMARK SMILES CC[C@@H](C(=O)OCCOCCOC(=O)c1ccc(-c2c3nc(c(-c4c(F)c(F)c(F)c(F)c4F)c4ccc([nH]4)c(-c4c(F)c(F)c(F)c(F)c4F)c4nc(c(-c5c(F)c(F)c(F)c(F)c5F)c5ccc2[nH]5)C=C4)C=C3)cc1)N(C)C(=O)c1cn(C2C[NH2+]C2)nn1
REMARK SMILES IDX 8 1 7 2 6 3 4 4 5 5 3 6 2 7 1 8 78 9 79 10 80 11 81 12 82 13
REMARK SMILES IDX 83 14 90 15 84 16 89 17 85 18 86 19 88 20 87 21 9 24 10 25
REMARK SMILES IDX 11 26 12 27 13 28 14 29 15 30 16 31 77 32 17 33 76 34 18 35
REMARK SMILES IDX 19 36 20 37 70 38 21 39 75 40 69 41 71 42 22 43 74 44 68 45
REMARK SMILES IDX 67 46 23 48 55 49 35 50 54 51 36 52 39 53 53 54 72 55 37 56
REMARK SMILES IDX 38 57 52 59 73 60 40 61 24 62 25 63 33 64 26 65 27 66 31 67
REMARK SMILES IDX 34 68 28 69 29 70 32 71 30 72 56 73 57 74 65 75 58 76 59 77
REMARK SMILES IDX 63 78 66 79 60 80 61 81 64 82 62 83 41 84 42 85 50 86 43 87
REMARK SMILES IDX 44 88 48 89 51 90 45 91 46 92 49 93 47 94
REMARK H PARENT 87 22 87 23 71 47 39 58
REMARK Flexibility Score: inf
ROOT
ATOM      1  C   UNL A   1      32.509  29.788  27.134  1.00  0.00     0.202 C 
ENDROOT
BRANCH   1   2
ATOM      2  C   UNL A   1      32.547  28.474  26.352  1.00  0.00     0.261 C 
BRANCH   2   3
ATOM      3  O   UNL A   1      31.711  28.575  25.182  1.00  0.00    -0.462 OA
BRANCH   3   4
ATOM      4  C   UNL A   1      32.349  28.577  23.985  1.00  0.00     0.328 C 
ATOM      5  O   UNL A   1      33.476  29.033  23.808  1.00  0.00    -0.250 OA
BRANCH   4   6
ATOM      6  C   UNL A   1      31.483  28.009  22.840  1.00  0.00     0.194 C 
BRANCH   6   7
ATOM      7  C   UNL A   1      29.988  28.394  22.787  1.00  0.00     0.034 C 
ATOM      8  C   UNL A   1      29.674  29.672  22.019  1.00  0.00     0.007 C 
ENDBRANCH   6   7
BRANCH   6   9
ATOM      9  N   UNL A   1      31.708  26.530  22.822  1.00  0.00    -0.326 N 
ATOM     10  C   UNL A   1      30.601  25.704  23.290  1.00  0.00     0.148 C 
BRANCH   9  11
ATOM     11  C   UNL A   1      32.825  25.999  22.151  1.00  0.00     0.276 C 
ATOM     12  O   UNL A   1      33.036  26.220  20.961  1.00  0.00    -0.267 OA
BRANCH  11  13
ATOM     13  C   UNL A   1      33.748  25.139  22.887  1.00  0.00     0.170 A 
ATOM     14  C   UNL A   1      34.159  25.232  24.203  1.00  0.00     0.145 A 
ATOM     15  N   UNL A   1      34.276  23.993  22.344  1.00  0.00    -0.125 NA
ATOM     16  N   UNL A   1      34.996  24.163  24.369  1.00  0.00    -0.237 N 
ATOM     17  N   UNL A   1      35.054  23.420  23.251  1.00  0.00    -0.066 NA
BRANCH  16  18
ATOM     18  C   UNL A   1      35.799  23.838  25.510  1.00  0.00     0.218 C 
ATOM     19  C   UNL A   1      35.565  22.403  26.033  1.00  0.00     0.294 C 
ATOM     20  C   UNL A   1      37.211  23.313  25.175  1.00  0.00     0.294 C 
ATOM     21  N   UNL A   1      37.027  22.253  26.193  1.00  0.00    -0.342 N 
ATOM     22  H   UNL A   1      37.389  21.340  25.919  1.00  0.00     0.346 HD
ATOM     23  H   UNL A   1      37.467  22.321  27.110  1.00  0.00     0.346 HD
ENDBRANCH  16  18
ENDBRANCH  11  13
ENDBRANCH   9  11
ENDBRANCH   6   9
ENDBRANCH   4   6
ENDBRANCH   3   4
ENDBRANCH   2   3
ENDBRANCH   1   2
BRANCH   1  24
ATOM     24  O   UNL A   1      32.389  30.970  26.339  1.00  0.00    -0.374 OA
BRANCH  24  25
ATOM     25  C   UNL A   1      31.491  31.974  26.816  1.00  0.00     0.202 C 
BRANCH  25  26
ATOM     26  C   UNL A   1      32.111  33.344  27.108  1.00  0.00     0.261 C 
BRANCH  26  27
ATOM     27  O   UNL A   1      32.983  33.296  28.253  1.00  0.00    -0.460 OA
BRANCH  27  28
ATOM     28  C   UNL A   1      34.116  34.019  28.126  1.00  0.00     0.338 C 
ATOM     29  O   UNL A   1      34.214  35.227  27.947  1.00  0.00    -0.246 OA
BRANCH  28  30
ATOM     30  C   UNL A   1      35.291  33.172  28.397  1.00  0.00     0.060 A 
ATOM     31  C   UNL A   1      35.053  31.832  28.734  1.00  0.00     0.016 A 
ATOM     32  C   UNL A   1      36.591  33.682  28.393  1.00  0.00     0.016 A 
ATOM     33  C   UNL A   1      36.104  31.016  29.140  1.00  0.00     0.010 A 
ATOM     34  C   UNL A   1      37.646  32.865  28.812  1.00  0.00     0.010 A 
ATOM     35  C   UNL A   1      37.398  31.545  29.231  1.00  0.00    -0.014 A 
BRANCH  35  36
ATOM     36  C   UNL A   1      38.443  30.792  29.964  1.00  0.00     0.031 A 
ATOM     37  C   UNL A   1      38.654  31.101  31.421  1.00  0.00     0.074 A 
ATOM     38  C   UNL A   1      39.167  29.836  29.361  1.00  0.00     0.049 A 
ATOM     39  N   UNL A   1      39.550  30.634  32.251  1.00  0.00    -0.248 NA
ATOM     40  C   UNL A   1      37.727  32.074  32.022  1.00  0.00     0.031 C 
ATOM     41  C   UNL A   1      39.011  29.407  27.973  1.00  0.00     0.029 A 
ATOM     42  N   UNL A   1      40.190  29.058  29.843  1.00  0.00    -0.354 N 
ATOM     43  C   UNL A   1      39.303  31.264  33.464  1.00  0.00     0.074 A 
ATOM     44  C   UNL A   1      38.189  32.163  33.260  1.00  0.00     0.031 C 
ATOM     45  C   UNL A   1      39.921  28.452  27.709  1.00  0.00     0.029 A 
ATOM     46  C   UNL A   1      40.743  28.230  28.898  1.00  0.00     0.049 A 
ATOM     47  H   UNL A   1      40.498  29.092  30.778  1.00  0.00     0.167 HD
ATOM     48  C   UNL A   1      39.946  31.102  34.643  1.00  0.00     0.037 A 
ATOM     49  C   UNL A   1      41.808  27.409  28.983  1.00  0.00     0.037 A 
ATOM     50  C   UNL A   1      41.049  30.203  34.844  1.00  0.00     0.049 A 
ATOM     51  C   UNL A   1      42.553  27.297  30.289  1.00  0.00     0.074 A 
ATOM     52  C   UNL A   1      41.770  29.963  36.000  1.00  0.00     0.029 A 
ATOM     53  N   UNL A   1      41.592  29.393  33.857  1.00  0.00    -0.354 N 
ATOM     54  N   UNL A   1      42.313  27.893  31.432  1.00  0.00    -0.248 NA
ATOM     55  C   UNL A   1      43.717  26.400  30.316  1.00  0.00     0.031 C 
ATOM     56  C   UNL A   1      42.777  29.039  35.702  1.00  0.00     0.029 A 
ATOM     57  C   UNL A   1      42.650  28.665  34.374  1.00  0.00     0.049 A 
ATOM     58  H   UNL A   1      41.272  29.343  32.927  1.00  0.00     0.167 HD
ATOM     59  C   UNL A   1      43.267  27.414  32.321  1.00  0.00     0.074 A 
ATOM     60  C   UNL A   1      44.093  26.481  31.586  1.00  0.00     0.031 C 
ATOM     61  C   UNL A   1      43.439  27.718  33.631  1.00  0.00     0.037 A 
BRANCH  48  62
ATOM     62  C   UNL A   1      39.491  31.940  35.801  1.00  0.00     0.064 A 
ATOM     63  C   UNL A   1      40.059  33.194  36.072  1.00  0.00     0.173 A 
ATOM     64  C   UNL A   1      38.453  31.493  36.633  1.00  0.00     0.173 A 
ATOM     65  F   UNL A   1      41.063  33.658  35.315  1.00  0.00    -0.203 F 
ATOM     66  C   UNL A   1      39.618  33.960  37.148  1.00  0.00     0.198 A 
ATOM     67  C   UNL A   1      37.997  32.275  37.691  1.00  0.00     0.198 A 
ATOM     68  F   UNL A   1      37.876  30.302  36.414  1.00  0.00    -0.203 F 
ATOM     69  F   UNL A   1      40.203  35.136  37.414  1.00  0.00    -0.200 F 
ATOM     70  C   UNL A   1      38.584  33.503  37.952  1.00  0.00     0.200 A 
ATOM     71  F   UNL A   1      36.991  31.836  38.460  1.00  0.00    -0.200 F 
ATOM     72  F   UNL A   1      38.157  34.246  38.982  1.00  0.00    -0.200 F 
ENDBRANCH  48  62
BRANCH  49  73
ATOM     73  C   UNL A   1      42.245  26.637  27.791  1.00  0.00     0.064 A 
ATOM     74  C   UNL A   1      41.742  25.353  27.535  1.00  0.00     0.173 A 
ATOM     75  C   UNL A   1      43.186  27.160  26.892  1.00  0.00     0.173 A 
ATOM     76  F   UNL A   1      40.858  24.801  28.379  1.00  0.00    -0.203 F 
ATOM     77  C   UNL A   1      42.175  24.618  26.433  1.00  0.00     0.198 A 
ATOM     78  C   UNL A   1      43.600  26.434  25.778  1.00  0.00     0.198 A 
ATOM     79  F   UNL A   1      43.701  28.381  27.094  1.00  0.00    -0.203 F 
ATOM     80  F   UNL A   1      41.710  23.377  26.236  1.00  0.00    -0.200 F 
ATOM     81  C   UNL A   1      43.099  25.160  25.553  1.00  0.00     0.200 A 
ATOM     82  F   UNL A   1      44.484  26.966  24.924  1.00  0.00    -0.200 F 
ATOM     83  F   UNL A   1      43.514  24.453  24.493  1.00  0.00    -0.200 F 
ENDBRANCH  49  73
BRANCH  61  84
ATOM     84  C   UNL A   1      44.520  26.993  34.377  1.00  0.00     0.064 A 
ATOM     85  C   UNL A   1      45.790  27.555  34.569  1.00  0.00     0.173 A 
ATOM     86  C   UNL A   1      44.250  25.752  34.976  1.00  0.00     0.173 A 
ATOM     87  F   UNL A   1      46.099  28.733  34.008  1.00  0.00    -0.203 F 
ATOM     88  C   UNL A   1      46.755  26.895  35.326  1.00  0.00     0.198 A 
ATOM     89  C   UNL A   1      45.209  25.108  35.751  1.00  0.00     0.198 A 
ATOM     90  F   UNL A   1      43.047  25.177  34.827  1.00  0.00    -0.203 F 
ATOM     91  F   UNL A   1      47.972  27.435  35.473  1.00  0.00    -0.200 F 
ATOM     92  C   UNL A   1      46.461  25.678  35.923  1.00  0.00     0.200 A 
ATOM     93  F   UNL A   1      44.918  23.938  36.339  1.00  0.00    -0.200 F 
ATOM     94  F   UNL A   1      47.387  25.052  36.664  1.00  0.00    -0.200 F 
ENDBRANCH  61  84
ENDBRANCH  35  36
ENDBRANCH  28  30
ENDBRANCH  27  28
ENDBRANCH  26  27
ENDBRANCH  25  26
ENDBRANCH  24  25
ENDBRANCH   1  24
TORSDOF 19
ENDMDL
MODEL 3
REMARK VINA RESULT:     -10.5      0.378      7.366
REMARK SMILES CC[C@@H](C(=O)OCCOCCOC(=O)c1ccc(-c2c3nc(c(-c4c(F)c(F)c(F)c(F)c4F)c4ccc([nH]4)c(-c4c(F)c(F)c(F)c(F)c4F)c4nc(c(-c5c(F)c(F)c(F)c(F)c5F)c5ccc2[nH]5)C=C4)C=C3)cc1)N(C)C(=O)c1cn(C2C[NH2+]C2)nn1
REMARK SMILES IDX 8 1 7 2 6 3 4 4 5 5 3 6 2 7 1 8 78 9 79 10 80 11 81 12 82 13
REMARK SMILES IDX 83 14 90 15 84 16 89 17 85 18 86 19 88 20 87 21 9 24 10 25
REMARK SMILES IDX 11 26 12 27 13 28 14 29 15 30 16 31 77 32 17 33 76 34 18 35
REMARK SMILES IDX 19 36 20 37 70 38 21 39 75 40 69 41 71 42 22 43 74 44 68 45
REMARK SMILES IDX 67 46 23 48 55 49 35 50 54 51 36 52 39 53 53 54 72 55 37 56
REMARK SMILES IDX 38 57 52 59 73 60 40 61 24 62 25 63 33 64 26 65 27 66 31 67
REMARK SMILES IDX 34 68 28 69 29 70 32 71 30 72 56 73 57 74 65 75 58 76 59 77
REMARK SMILES IDX 63 78 66 79 60 80 61 81 64 82 62 83 41 84 42 85 50 86 43 87
REMARK SMILES IDX 44 88 48 89 51 90 45 91 46 92 49 93 47 94
REMARK H PARENT 87 22 87 23 71 47 39 58
REMARK Flexibility Score: inf
ROOT
ATOM      1  C   UNL A   1      31.541  29.158  25.872  1.00  0.00     0.202 C 
ENDROOT
BRANCH   1   2
ATOM      2  C   UNL A   1      31.975  28.187  26.972  1.00  0.00     0.261 C 
BRANCH   2   3
ATOM      3  O   UNL A   1      32.805  27.151  26.411  1.00  0.00    -0.462 OA
BRANCH   3   4
ATOM      4  C   UNL A   1      32.212  25.947  26.210  1.00  0.00     0.328 C 
ATOM      5  O   UNL A   1      31.239  25.547  26.845  1.00  0.00    -0.250 OA
BRANCH   4   6
ATOM      6  C   UNL A   1      32.931  25.090  25.146  1.00  0.00     0.194 C 
BRANCH   6   7
ATOM      7  C   UNL A   1      34.461  24.909  25.259  1.00  0.00     0.034 C 
ATOM      8  C   UNL A   1      34.914  23.581  25.853  1.00  0.00     0.007 C 
ENDBRANCH   6   7
BRANCH   6   9
ATOM      9  N   UNL A   1      32.500  25.610  23.812  1.00  0.00    -0.326 N 
ATOM     10  C   UNL A   1      33.565  25.986  22.891  1.00  0.00     0.148 C 
BRANCH   9  11
ATOM     11  C   UNL A   1      31.156  25.486  23.413  1.00  0.00     0.276 C 
ATOM     12  O   UNL A   1      30.630  24.391  23.224  1.00  0.00    -0.267 OA
BRANCH  11  13
ATOM     13  C   UNL A   1      30.369  26.697  23.193  1.00  0.00     0.170 A 
ATOM     14  C   UNL A   1      30.702  27.830  22.476  1.00  0.00     0.145 A 
ATOM     15  N   UNL A   1      29.071  26.817  23.624  1.00  0.00    -0.125 NA
ATOM     16  N   UNL A   1      29.597  28.629  22.579  1.00  0.00    -0.237 N 
ATOM     17  N   UNL A   1      28.619  28.011  23.262  1.00  0.00    -0.066 NA
BRANCH  16  18
ATOM     18  C   UNL A   1      29.435  29.976  22.122  1.00  0.00     0.218 C 
ATOM     19  C   UNL A   1      28.037  30.256  21.525  1.00  0.00     0.294 C 
ATOM     20  C   UNL A   1      28.993  30.977  23.211  1.00  0.00     0.294 C 
ATOM     21  N   UNL A   1      28.015  31.542  22.253  1.00  0.00    -0.342 N 
ATOM     22  H   UNL A   1      27.111  31.778  22.664  1.00  0.00     0.346 HD
ATOM     23  H   UNL A   1      28.195  32.424  21.772  1.00  0.00     0.346 HD
ENDBRANCH  16  18
ENDBRANCH  11  13
ENDBRANCH   9  11
ENDBRANCH   6   9
ENDBRANCH   4   6
ENDBRANCH   3   4
ENDBRANCH   2   3
ENDBRANCH   1   2
BRANCH   1  24
ATOM     24  O   UNL A   1      32.115  30.465  25.948  1.00  0.00    -0.374 OA
BRANCH  24  25
ATOM     25  C   UNL A   1      31.207  31.553  26.133  1.00  0.00     0.202 C 
BRANCH  25  26
ATOM     26  C   UNL A   1      31.762  32.769  26.880  1.00  0.00     0.261 C 
BRANCH  26  27
ATOM     27  O   UNL A   1      32.862  32.408  27.734  1.00  0.00    -0.460 OA
BRANCH  27  28
ATOM     28  C   UNL A   1      33.860  33.317  27.779  1.00  0.00     0.338 C 
ATOM     29  O   UNL A   1      33.770  34.532  27.639  1.00  0.00    -0.246 OA
BRANCH  28  30
ATOM     30  C   UNL A   1      35.118  32.670  28.192  1.00  0.00     0.060 A 
ATOM     31  C   UNL A   1      35.044  31.336  28.617  1.00  0.00     0.016 A 
ATOM     32  C   UNL A   1      36.330  33.363  28.233  1.00  0.00     0.016 A 
ATOM     33  C   UNL A   1      36.165  30.711  29.154  1.00  0.00     0.010 A 
ATOM     34  C   UNL A   1      37.454  32.737  28.783  1.00  0.00     0.010 A 
ATOM     35  C   UNL A   1      37.361  31.427  29.288  1.00  0.00    -0.014 A 
BRANCH  35  36
ATOM     36  C   UNL A   1      38.442  30.886  30.145  1.00  0.00     0.031 A 
ATOM     37  C   UNL A   1      39.386  29.878  29.548  1.00  0.00     0.074 A 
ATOM     38  C   UNL A   1      38.602  31.298  31.413  1.00  0.00     0.049 A 
ATOM     39  N   UNL A   1      40.357  29.208  30.113  1.00  0.00    -0.248 NA
ATOM     40  C   UNL A   1      39.206  29.583  28.117  1.00  0.00     0.031 C 
ATOM     41  C   UNL A   1      37.789  32.313  32.080  1.00  0.00     0.029 A 
ATOM     42  N   UNL A   1      39.504  30.903  32.369  1.00  0.00    -0.354 N 
ATOM     43  C   UNL A   1      40.893  28.408  29.113  1.00  0.00     0.074 A 
ATOM     44  C   UNL A   1      40.128  28.656  27.911  1.00  0.00     0.031 C 
ATOM     45  C   UNL A   1      38.220  32.448  33.347  1.00  0.00     0.029 A 
ATOM     46  C   UNL A   1      39.312  31.507  33.587  1.00  0.00     0.049 A 
ATOM     47  H   UNL A   1      40.219  30.249  32.197  1.00  0.00     0.167 HD
ATOM     48  C   UNL A   1      41.934  27.546  29.190  1.00  0.00     0.037 A 
ATOM     49  C   UNL A   1      39.934  31.298  34.764  1.00  0.00     0.037 A 
ATOM     50  C   UNL A   1      42.696  27.308  30.385  1.00  0.00     0.049 A 
ATOM     51  C   UNL A   1      41.045  30.283  34.843  1.00  0.00     0.074 A 
ATOM     52  C   UNL A   1      43.771  26.456  30.569  1.00  0.00     0.029 A 
ATOM     53  N   UNL A   1      42.459  27.926  31.604  1.00  0.00    -0.354 N 
ATOM     54  N   UNL A   1      41.549  29.531  33.894  1.00  0.00    -0.248 NA
ATOM     55  C   UNL A   1      41.674  30.085  36.157  1.00  0.00     0.031 C 
ATOM     56  C   UNL A   1      44.158  26.527  31.911  1.00  0.00     0.029 A 
ATOM     57  C   UNL A   1      43.358  27.461  32.549  1.00  0.00     0.049 A 
ATOM     58  H   UNL A   1      41.757  28.595  31.772  1.00  0.00     0.167 HD
ATOM     59  C   UNL A   1      42.575  28.804  34.484  1.00  0.00     0.074 A 
ATOM     60  C   UNL A   1      42.622  29.201  35.875  1.00  0.00     0.031 C 
ATOM     61  C   UNL A   1      43.407  27.893  33.922  1.00  0.00     0.037 A 
BRANCH  48  62
ATOM     62  C   UNL A   1      42.288  26.776  27.953  1.00  0.00     0.064 A 
ATOM     63  C   UNL A   1      43.222  27.261  27.025  1.00  0.00     0.173 A 
ATOM     64  C   UNL A   1      41.706  25.523  27.708  1.00  0.00     0.173 A 
ATOM     65  F   UNL A   1      43.794  28.460  27.206  1.00  0.00    -0.203 F 
ATOM     66  C   UNL A   1      43.543  26.528  25.885  1.00  0.00     0.198 A 
ATOM     67  C   UNL A   1      42.051  24.781  26.582  1.00  0.00     0.198 A 
ATOM     68  F   UNL A   1      40.810  25.015  28.567  1.00  0.00    -0.203 F 
ATOM     69  F   UNL A   1      44.405  27.029  24.990  1.00  0.00    -0.200 F 
ATOM     70  C   UNL A   1      42.963  25.287  25.668  1.00  0.00     0.200 A 
ATOM     71  F   UNL A   1      41.497  23.578  26.380  1.00  0.00    -0.200 F 
ATOM     72  F   UNL A   1      43.279  24.580  24.575  1.00  0.00    -0.200 F 
ENDBRANCH  48  62
BRANCH  49  73
ATOM     73  C   UNL A   1      39.512  32.056  35.970  1.00  0.00     0.064 A 
ATOM     74  C   UNL A   1      40.175  33.229  36.358  1.00  0.00     0.173 A 
ATOM     75  C   UNL A   1      38.445  31.616  36.767  1.00  0.00     0.173 A 
ATOM     76  F   UNL A   1      41.216  33.676  35.641  1.00  0.00    -0.203 F 
ATOM     77  C   UNL A   1      39.798  33.923  37.507  1.00  0.00     0.198 A 
ATOM     78  C   UNL A   1      38.052  32.324  37.901  1.00  0.00     0.198 A 
ATOM     79  F   UNL A   1      37.779  30.499  36.442  1.00  0.00    -0.203 F 
ATOM     80  F   UNL A   1      40.476  35.016  37.878  1.00  0.00    -0.200 F 
ATOM     81  C   UNL A   1      38.734  33.473  38.273  1.00  0.00     0.200 A 
ATOM     82  F   UNL A   1      37.017  31.892  38.633  1.00  0.00    -0.200 F 
ATOM     83  F   UNL A   1      38.370  34.142  39.376  1.00  0.00    -0.200 F 
ENDBRANCH  49  73
BRANCH  61  84
ATOM     84  C   UNL A   1      44.482  27.305  34.787  1.00  0.00     0.064 A 
ATOM     85  C   UNL A   1      44.299  26.096  35.472  1.00  0.00     0.173 A 
ATOM     86  C   UNL A   1      45.740  27.924  34.863  1.00  0.00     0.173 A 
ATOM     87  F   UNL A   1      43.112  25.473  35.439  1.00  0.00    -0.203 F 
ATOM     88  C   UNL A   1      45.336  25.533  36.212  1.00  0.00     0.198 A 
ATOM     89  C   UNL A   1      46.780  27.345  35.584  1.00  0.00     0.198 A 
ATOM     90  F   UNL A   1      45.965  29.079  34.218  1.00  0.00    -0.203 F 
ATOM     91  F   UNL A   1      45.133  24.391  36.884  1.00  0.00    -0.200 F 
ATOM     92  C   UNL A   1      46.576  26.152  36.259  1.00  0.00     0.200 A 
ATOM     93  F   UNL A   1      47.982  27.938  35.617  1.00  0.00    -0.200 F 
ATOM     94  F   UNL A   1      47.577  25.599  36.960  1.00  0.00    -0.200 F 
ENDBRANCH  61  84
ENDBRANCH  35  36
ENDBRANCH  28  30
ENDBRANCH  27  28
ENDBRANCH  26  27
ENDBRANCH  25  26
ENDBRANCH  24  25
ENDBRANCH   1  24
TORSDOF 19
ENDMDL
