MODEL 1
REMARK VINA RESULT:     -12.4      0.000      0.000
REMARK SMILES O=C(OCCOCCOC(=O)[C@H](c1c[nH]c2cc(F)ccc12)[NH+]1CC[NH+](CC(=O)N2CCOCC2)CC1)c1ccc(-c2c3nc(c(-c4c(F)c(F)c(F)c(F)c4F)c4ccc([nH]4)c(-c4c(F)c(F)c(F)c(F)c4F)c4nc(c(-c5c(F)c(F)c(F)c(F)c5F)c5ccc2[nH]5)C=C4)C=C3)cc1
REMARK SMILES IDX 7 1 6 2 5 3 4 4 3 5 2 6 1 7 38 8 39 9 100 10 40 11 99 12
REMARK SMILES IDX 41 13 42 14 43 15 93 16 44 17 98 18 92 19 94 20 45 21 97 22
REMARK SMILES IDX 91 23 90 24 46 26 78 27 58 28 77 29 59 30 62 31 76 32 95 33
REMARK SMILES IDX 60 34 61 35 75 37 96 38 63 39 47 40 48 41 56 42 49 43 50 44
REMARK SMILES IDX 54 45 57 46 51 47 52 48 55 49 53 50 79 51 80 52 88 53 81 54
REMARK SMILES IDX 82 55 86 56 89 57 83 58 84 59 87 60 85 61 64 62 65 63 73 64
REMARK SMILES IDX 66 65 67 66 71 67 74 68 68 69 69 70 72 71 70 72 8 73 9 74
REMARK SMILES IDX 10 75 11 76 12 77 23 78 24 79 37 80 25 82 36 83 26 84 27 86
REMARK SMILES IDX 28 87 29 88 30 89 31 90 35 91 32 92 34 93 33 94 13 95 14 96
REMARK SMILES IDX 22 97 15 98 16 99 21 100 17 102 20 103 18 104 19 105
REMARK H PARENT 94 25 62 36 23 81 26 85 15 101
REMARK Flexibility Score: inf
ROOT
ATOM      1  C   UNL A   1      34.469  23.999  23.349  1.00  0.00     0.202 C 
ENDROOT
BRANCH   1   2
ATOM      2  O   UNL A   1      35.485  23.072  22.980  1.00  0.00    -0.374 OA
BRANCH   2   3
ATOM      3  C   UNL A   1      36.701  23.071  23.709  1.00  0.00     0.202 C 
BRANCH   3   4
ATOM      4  C   UNL A   1      37.040  21.748  24.374  1.00  0.00     0.261 C 
BRANCH   4   5
ATOM      5  O   UNL A   1      37.509  21.992  25.704  1.00  0.00    -0.460 OA
BRANCH   5   6
ATOM      6  C   UNL A   1      38.805  21.921  26.085  1.00  0.00     0.338 C 
ATOM      7  O   UNL A   1      39.479  20.930  25.825  1.00  0.00    -0.246 OA
BRANCH   6   8
ATOM      8  C   UNL A   1      39.465  23.071  26.745  1.00  0.00     0.060 A 
ATOM      9  C   UNL A   1      40.590  22.926  27.555  1.00  0.00     0.016 A 
ATOM     10  C   UNL A   1      39.020  24.356  26.424  1.00  0.00     0.016 A 
ATOM     11  C   UNL A   1      41.235  24.017  28.100  1.00  0.00     0.010 A 
ATOM     12  C   UNL A   1      39.736  25.467  26.875  1.00  0.00     0.010 A 
ATOM     13  C   UNL A   1      40.864  25.291  27.692  1.00  0.00    -0.014 A 
BRANCH  13  14
ATOM     14  C   UNL A   1      41.729  26.415  28.083  1.00  0.00     0.031 A 
ATOM     15  C   UNL A   1      41.213  27.418  29.054  1.00  0.00     0.074 A 
ATOM     16  C   UNL A   1      42.981  26.470  27.588  1.00  0.00     0.049 A 
ATOM     17  N   UNL A   1      41.713  28.575  29.384  1.00  0.00    -0.248 NA
ATOM     18  C   UNL A   1      39.959  27.075  29.748  1.00  0.00     0.031 C 
ATOM     19  C   UNL A   1      43.596  25.455  26.721  1.00  0.00     0.029 A 
ATOM     20  N   UNL A   1      43.971  27.402  27.747  1.00  0.00    -0.354 N 
ATOM     21  C   UNL A   1      40.808  29.127  30.275  1.00  0.00     0.074 A 
ATOM     22  C   UNL A   1      39.739  28.171  30.460  1.00  0.00     0.031 C 
ATOM     23  C   UNL A   1      44.859  25.810  26.446  1.00  0.00     0.029 A 
ATOM     24  C   UNL A   1      45.103  27.125  27.016  1.00  0.00     0.049 A 
ATOM     25  H   UNL A   1      43.883  28.192  28.328  1.00  0.00     0.167 HD
ATOM     26  C   UNL A   1      40.871  30.347  30.852  1.00  0.00     0.037 A 
ATOM     27  C   UNL A   1      46.181  27.893  26.773  1.00  0.00     0.037 A 
ATOM     28  C   UNL A   1      41.973  31.249  30.652  1.00  0.00     0.049 A 
ATOM     29  C   UNL A   1      46.186  29.273  27.371  1.00  0.00     0.074 A 
ATOM     30  C   UNL A   1      42.159  32.517  31.165  1.00  0.00     0.029 A 
ATOM     31  N   UNL A   1      43.084  30.961  29.867  1.00  0.00    -0.354 N 
ATOM     32  N   UNL A   1      45.304  29.829  28.170  1.00  0.00    -0.248 NA
ATOM     33  C   UNL A   1      47.306  30.147  27.010  1.00  0.00     0.031 C 
ATOM     34  C   UNL A   1      43.359  33.017  30.649  1.00  0.00     0.029 A 
ATOM     35  C   UNL A   1      43.945  32.042  29.853  1.00  0.00     0.049 A 
ATOM     36  H   UNL A   1      43.236  30.112  29.391  1.00  0.00     0.167 HD
ATOM     37  C   UNL A   1      45.759  31.115  28.406  1.00  0.00     0.074 A 
ATOM     38  C   UNL A   1      47.017  31.245  27.694  1.00  0.00     0.031 C 
ATOM     39  C   UNL A   1      45.190  32.111  29.129  1.00  0.00     0.037 A 
BRANCH  26  40
ATOM     40  C   UNL A   1      39.694  30.793  31.662  1.00  0.00     0.064 A 
ATOM     41  C   UNL A   1      39.477  30.357  32.976  1.00  0.00     0.173 A 
ATOM     42  C   UNL A   1      38.760  31.678  31.099  1.00  0.00     0.173 A 
ATOM     43  F   UNL A   1      40.323  29.488  33.548  1.00  0.00    -0.203 F 
ATOM     44  C   UNL A   1      38.359  30.779  33.692  1.00  0.00     0.198 A 
ATOM     45  C   UNL A   1      37.657  32.114  31.826  1.00  0.00     0.198 A 
ATOM     46  F   UNL A   1      38.914  32.113  29.840  1.00  0.00    -0.203 F 
ATOM     47  F   UNL A   1      38.145  30.315  34.932  1.00  0.00    -0.200 F 
ATOM     48  C   UNL A   1      37.455  31.661  33.120  1.00  0.00     0.200 A 
ATOM     49  F   UNL A   1      36.785  32.967  31.270  1.00  0.00    -0.200 F 
ATOM     50  F   UNL A   1      36.380  32.065  33.812  1.00  0.00    -0.200 F 
ENDBRANCH  26  40
BRANCH  27  51
ATOM     51  C   UNL A   1      47.260  27.433  25.855  1.00  0.00     0.064 A 
ATOM     52  C   UNL A   1      48.376  26.733  26.334  1.00  0.00     0.173 A 
ATOM     53  C   UNL A   1      47.219  27.717  24.478  1.00  0.00     0.173 A 
ATOM     54  F   UNL A   1      48.480  26.454  27.640  1.00  0.00    -0.203 F 
ATOM     55  C   UNL A   1      49.417  26.362  25.482  1.00  0.00     0.198 A 
ATOM     56  C   UNL A   1      48.240  27.312  23.622  1.00  0.00     0.198 A 
ATOM     57  F   UNL A   1      46.180  28.388  23.959  1.00  0.00    -0.203 F 
ATOM     58  F   UNL A   1      50.501  25.751  25.978  1.00  0.00    -0.200 F 
ATOM     59  C   UNL A   1      49.347  26.648  24.126  1.00  0.00     0.200 A 
ATOM     60  F   UNL A   1      48.157  27.577  22.311  1.00  0.00    -0.200 F 
ATOM     61  F   UNL A   1      50.349  26.296  23.310  1.00  0.00    -0.200 F 
ENDBRANCH  27  51
BRANCH  39  62
ATOM     62  C   UNL A   1      45.934  33.407  29.182  1.00  0.00     0.064 A 
ATOM     63  C   UNL A   1      46.923  33.638  30.148  1.00  0.00     0.173 A 
ATOM     64  C   UNL A   1      45.699  34.398  28.218  1.00  0.00     0.173 A 
ATOM     65  F   UNL A   1      47.164  32.724  31.100  1.00  0.00    -0.203 F 
ATOM     66  C   UNL A   1      47.644  34.826  30.155  1.00  0.00     0.198 A 
ATOM     67  C   UNL A   1      46.444  35.571  28.210  1.00  0.00     0.198 A 
ATOM     68  F   UNL A   1      44.764  34.215  27.274  1.00  0.00    -0.203 F 
ATOM     69  F   UNL A   1      48.560  35.046  31.108  1.00  0.00    -0.200 F 
ATOM     70  C   UNL A   1      47.413  35.786  29.180  1.00  0.00     0.200 A 
ATOM     71  F   UNL A   1      46.230  36.490  27.258  1.00  0.00    -0.200 F 
ATOM     72  F   UNL A   1      48.122  36.922  29.176  1.00  0.00    -0.200 F 
ENDBRANCH  39  62
ENDBRANCH  13  14
ENDBRANCH   6   8
ENDBRANCH   5   6
ENDBRANCH   4   5
ENDBRANCH   3   4
ENDBRANCH   2   3
ENDBRANCH   1   2
BRANCH   1  73
ATOM     73  C   UNL A   1      33.300  23.797  22.367  1.00  0.00     0.261 C 
BRANCH  73  74
ATOM     74  O   UNL A   1      32.095  24.341  22.950  1.00  0.00    -0.459 OA
BRANCH  74  75
ATOM     75  C   UNL A   1      31.754  25.616  22.526  1.00  0.00     0.370 C 
ATOM     76  O   UNL A   1      31.842  26.000  21.366  1.00  0.00    -0.245 OA
BRANCH  75  77
ATOM     77  C   UNL A   1      31.135  26.349  23.718  1.00  0.00     0.328 C 
BRANCH  77  78
ATOM     78  N   UNL A   1      31.934  27.405  24.314  1.00  0.00    -0.310 N 
ATOM     79  C   UNL A   1      33.366  27.439  24.049  1.00  0.00     0.325 C 
ATOM     80  C   UNL A   1      31.460  27.952  25.566  1.00  0.00     0.325 C 
ATOM     81  H   UNL A   1      31.691  28.163  23.678  1.00  0.00     0.349 HD
ATOM     82  C   UNL A   1      33.942  28.837  24.377  1.00  0.00     0.325 C 
ATOM     83  C   UNL A   1      32.112  29.306  25.873  1.00  0.00     0.325 C 
ATOM     84  N   UNL A   1      33.567  29.352  25.702  1.00  0.00    -0.318 N 
ATOM     85  H   UNL A   1      33.850  30.331  25.713  1.00  0.00     0.348 HD
BRANCH  84  86
ATOM     86  C   UNL A   1      34.349  28.849  26.847  1.00  0.00     0.364 C 
BRANCH  86  87
ATOM     87  C   UNL A   1      35.432  29.767  27.439  1.00  0.00     0.277 C 
ATOM     88  O   UNL A   1      36.595  29.354  27.529  1.00  0.00    -0.268 OA
ATOM     89  N   UNL A   1      35.120  31.067  27.814  1.00  0.00    -0.333 N 
ATOM     90  C   UNL A   1      33.788  31.568  28.153  1.00  0.00     0.148 C 
ATOM     91  C   UNL A   1      36.211  31.926  28.283  1.00  0.00     0.148 C 
ATOM     92  C   UNL A   1      33.620  33.068  27.897  1.00  0.00     0.181 C 
ATOM     93  C   UNL A   1      35.947  33.396  27.951  1.00  0.00     0.181 C 
ATOM     94  O   UNL A   1      34.686  33.823  28.485  1.00  0.00    -0.378 OA
ENDBRANCH  86  87
ENDBRANCH  84  86
ENDBRANCH  77  78
BRANCH  77  95
ATOM     95  C   UNL A   1      29.738  26.901  23.636  1.00  0.00     0.046 A 
ATOM     96  C   UNL A   1      28.521  26.410  24.068  1.00  0.00     0.094 A 
ATOM     97  C   UNL A   1      29.465  28.135  22.949  1.00  0.00     0.009 A 
ATOM     98  N   UNL A   1      27.538  27.273  23.645  1.00  0.00    -0.361 N 
ATOM     99  C   UNL A   1      28.089  28.334  22.962  1.00  0.00     0.049 A 
ATOM    100  C   UNL A   1      30.296  29.077  22.301  1.00  0.00     0.014 A 
ATOM    101  H   UNL A   1      26.576  27.149  23.809  1.00  0.00     0.166 HD
ATOM    102  C   UNL A   1      27.498  29.438  22.335  1.00  0.00     0.065 A 
ATOM    103  C   UNL A   1      29.727  30.184  21.678  1.00  0.00     0.040 A 
ATOM    104  C   UNL A   1      28.350  30.347  21.699  1.00  0.00     0.125 A 
ATOM    105  F   UNL A   1      27.821  31.412  21.083  1.00  0.00    -0.207 F 
ENDBRANCH  77  95
ENDBRANCH  75  77
ENDBRANCH  74  75
ENDBRANCH  73  74
ENDBRANCH   1  73
TORSDOF 18
ENDMDL
MODEL 2
REMARK VINA RESULT:     -12.4      3.086      5.031
REMARK SMILES O=C(OCCOCCOC(=O)[C@H](c1c[nH]c2cc(F)ccc12)[NH+]1CC[NH+](CC(=O)N2CCOCC2)CC1)c1ccc(-c2c3nc(c(-c4c(F)c(F)c(F)c(F)c4F)c4ccc([nH]4)c(-c4c(F)c(F)c(F)c(F)c4F)c4nc(c(-c5c(F)c(F)c(F)c(F)c5F)c5ccc2[nH]5)C=C4)C=C3)cc1
REMARK SMILES IDX 7 1 6 2 5 3 4 4 3 5 2 6 1 7 38 8 39 9 100 10 40 11 99 12
REMARK SMILES IDX 41 13 42 14 43 15 93 16 44 17 98 18 92 19 94 20 45 21 97 22
REMARK SMILES IDX 91 23 90 24 46 26 78 27 58 28 77 29 59 30 62 31 76 32 95 33
REMARK SMILES IDX 60 34 61 35 75 37 96 38 63 39 47 40 48 41 56 42 49 43 50 44
REMARK SMILES IDX 54 45 57 46 51 47 52 48 55 49 53 50 79 51 80 52 88 53 81 54
REMARK SMILES IDX 82 55 86 56 89 57 83 58 84 59 87 60 85 61 64 62 65 63 73 64
REMARK SMILES IDX 66 65 67 66 71 67 74 68 68 69 69 70 72 71 70 72 8 73 9 74
REMARK SMILES IDX 10 75 11 76 12 77 23 78 24 79 37 80 25 82 36 83 26 84 27 86
REMARK SMILES IDX 28 87 29 88 30 89 31 90 35 91 32 92 34 93 33 94 13 95 14 96
REMARK SMILES IDX 22 97 15 98 16 99 21 100 17 102 20 103 18 104 19 105
REMARK H PARENT 94 25 62 36 23 81 26 85 15 101
REMARK Flexibility Score: inf
ROOT
ATOM      1  C   UNL A   1      36.975  22.339  25.753  1.00  0.00     0.202 C 
ENDROOT
BRANCH   1   2
ATOM      2  O   UNL A   1      37.180  21.323  24.776  1.00  0.00    -0.374 OA
BRANCH   2   3
ATOM      3  C   UNL A   1      38.112  20.292  25.055  1.00  0.00     0.202 C 
BRANCH   3   4
ATOM      4  C   UNL A   1      39.388  20.758  25.735  1.00  0.00     0.261 C 
BRANCH   4   5
ATOM      5  O   UNL A   1      40.201  19.623  26.046  1.00  0.00    -0.460 OA
BRANCH   5   6
ATOM      6  C   UNL A   1      41.554  19.628  26.052  1.00  0.00     0.338 C 
ATOM      7  O   UNL A   1      42.184  18.653  25.659  1.00  0.00    -0.246 OA
BRANCH   6   8
ATOM      8  C   UNL A   1      42.305  20.842  26.448  1.00  0.00     0.060 A 
ATOM      9  C   UNL A   1      42.730  21.796  25.524  1.00  0.00     0.016 A 
ATOM     10  C   UNL A   1      42.464  21.100  27.811  1.00  0.00     0.016 A 
ATOM     11  C   UNL A   1      43.362  22.956  25.920  1.00  0.00     0.010 A 
ATOM     12  C   UNL A   1      42.996  22.324  28.226  1.00  0.00     0.010 A 
ATOM     13  C   UNL A   1      43.418  23.263  27.273  1.00  0.00    -0.014 A 
BRANCH  13  14
ATOM     14  C   UNL A   1      43.859  24.616  27.651  1.00  0.00     0.031 A 
ATOM     15  C   UNL A   1      42.843  25.604  28.104  1.00  0.00     0.074 A 
ATOM     16  C   UNL A   1      45.176  24.897  27.623  1.00  0.00     0.049 A 
ATOM     17  N   UNL A   1      42.972  26.886  28.293  1.00  0.00    -0.248 NA
ATOM     18  C   UNL A   1      41.494  25.079  28.382  1.00  0.00     0.031 C 
ATOM     19  C   UNL A   1      46.242  23.939  27.301  1.00  0.00     0.029 A 
ATOM     20  N   UNL A   1      45.853  26.059  27.881  1.00  0.00    -0.354 N 
ATOM     21  C   UNL A   1      41.711  27.336  28.650  1.00  0.00     0.074 A 
ATOM     22  C   UNL A   1      40.833  26.187  28.681  1.00  0.00     0.031 C 
ATOM     23  C   UNL A   1      47.433  24.546  27.402  1.00  0.00     0.029 A 
ATOM     24  C   UNL A   1      47.210  25.956  27.679  1.00  0.00     0.049 A 
ATOM     25  H   UNL A   1      45.413  26.886  28.183  1.00  0.00     0.167 HD
ATOM     26  C   UNL A   1      41.338  28.610  28.895  1.00  0.00     0.037 A 
ATOM     27  C   UNL A   1      48.151  26.917  27.646  1.00  0.00     0.037 A 
ATOM     28  C   UNL A   1      42.262  29.712  28.875  1.00  0.00     0.049 A 
ATOM     29  C   UNL A   1      47.690  28.334  27.849  1.00  0.00     0.074 A 
ATOM     30  C   UNL A   1      42.016  31.053  29.092  1.00  0.00     0.029 A 
ATOM     31  N   UNL A   1      43.622  29.584  28.620  1.00  0.00    -0.354 N 
ATOM     32  N   UNL A   1      46.486  28.776  28.131  1.00  0.00    -0.248 NA
ATOM     33  C   UNL A   1      48.698  29.387  27.696  1.00  0.00     0.031 C 
ATOM     34  C   UNL A   1      43.220  31.744  28.918  1.00  0.00     0.029 A 
ATOM     35  C   UNL A   1      44.225  30.828  28.640  1.00  0.00     0.049 A 
ATOM     36  H   UNL A   1      44.088  28.733  28.450  1.00  0.00     0.167 HD
ATOM     37  C   UNL A   1      46.589  30.156  28.186  1.00  0.00     0.074 A 
ATOM     38  C   UNL A   1      47.984  30.476  27.946  1.00  0.00     0.031 C 
ATOM     39  C   UNL A   1      45.624  31.083  28.399  1.00  0.00     0.037 A 
BRANCH  26  40
ATOM     40  C   UNL A   1      39.881  28.877  29.111  1.00  0.00     0.064 A 
ATOM     41  C   UNL A   1      39.266  28.728  30.362  1.00  0.00     0.173 A 
ATOM     42  C   UNL A   1      39.083  29.288  28.031  1.00  0.00     0.173 A 
ATOM     43  F   UNL A   1      39.978  28.307  31.418  1.00  0.00    -0.203 F 
ATOM     44  C   UNL A   1      37.903  28.966  30.520  1.00  0.00     0.198 A 
ATOM     45  C   UNL A   1      37.727  29.547  28.198  1.00  0.00     0.198 A 
ATOM     46  F   UNL A   1      39.620  29.432  26.810  1.00  0.00    -0.203 F 
ATOM     47  F   UNL A   1      37.325  28.774  31.714  1.00  0.00    -0.200 F 
ATOM     48  C   UNL A   1      37.136  29.382  29.441  1.00  0.00     0.200 A 
ATOM     49  F   UNL A   1      36.989  29.949  27.153  1.00  0.00    -0.200 F 
ATOM     50  F   UNL A   1      35.825  29.611  29.596  1.00  0.00    -0.200 F 
ENDBRANCH  26  40
BRANCH  27  51
ATOM     51  C   UNL A   1      49.564  26.595  27.301  1.00  0.00     0.064 A 
ATOM     52  C   UNL A   1      50.526  26.374  28.297  1.00  0.00     0.173 A 
ATOM     53  C   UNL A   1      49.996  26.539  25.964  1.00  0.00     0.173 A 
ATOM     54  F   UNL A   1      50.176  26.437  29.589  1.00  0.00    -0.203 F 
ATOM     55  C   UNL A   1      51.862  26.139  27.972  1.00  0.00     0.198 A 
ATOM     56  C   UNL A   1      51.323  26.266  25.640  1.00  0.00     0.198 A 
ATOM     57  F   UNL A   1      49.126  26.747  24.965  1.00  0.00    -0.203 F 
ATOM     58  F   UNL A   1      52.770  25.995  28.946  1.00  0.00    -0.200 F 
ATOM     59  C   UNL A   1      52.259  26.080  26.645  1.00  0.00     0.200 A 
ATOM     60  F   UNL A   1      51.696  26.195  24.355  1.00  0.00    -0.200 F 
ATOM     61  F   UNL A   1      53.544  25.860  26.334  1.00  0.00    -0.200 F 
ENDBRANCH  27  51
BRANCH  39  62
ATOM     62  C   UNL A   1      46.058  32.515  28.387  1.00  0.00     0.064 A 
ATOM     63  C   UNL A   1      45.973  33.291  27.223  1.00  0.00     0.173 A 
ATOM     64  C   UNL A   1      46.501  33.129  29.567  1.00  0.00     0.173 A 
ATOM     65  F   UNL A   1      45.575  32.735  26.069  1.00  0.00    -0.203 F 
ATOM     66  C   UNL A   1      46.330  34.634  27.238  1.00  0.00     0.198 A 
ATOM     67  C   UNL A   1      46.827  34.480  29.585  1.00  0.00     0.198 A 
ATOM     68  F   UNL A   1      46.593  32.424  30.704  1.00  0.00    -0.203 F 
ATOM     69  F   UNL A   1      46.279  35.351  26.107  1.00  0.00    -0.200 F 
ATOM     70  C   UNL A   1      46.745  35.230  28.420  1.00  0.00     0.200 A 
ATOM     71  F   UNL A   1      47.213  35.058  30.731  1.00  0.00    -0.200 F 
ATOM     72  F   UNL A   1      47.070  36.530  28.437  1.00  0.00    -0.200 F 
ENDBRANCH  39  62
ENDBRANCH  13  14
ENDBRANCH   6   8
ENDBRANCH   5   6
ENDBRANCH   4   5
ENDBRANCH   3   4
ENDBRANCH   2   3
ENDBRANCH   1   2
BRANCH   1  73
ATOM     73  C   UNL A   1      36.608  23.626  24.991  1.00  0.00     0.261 C 
BRANCH  73  74
ATOM     74  O   UNL A   1      35.169  23.725  24.898  1.00  0.00    -0.459 OA
BRANCH  74  75
ATOM     75  C   UNL A   1      34.610  23.187  23.750  1.00  0.00     0.370 C 
ATOM     76  O   UNL A   1      35.124  23.255  22.640  1.00  0.00    -0.245 OA
BRANCH  75  77
ATOM     77  C   UNL A   1      33.363  22.404  24.166  1.00  0.00     0.328 C 
BRANCH  77  78
ATOM     78  N   UNL A   1      32.181  23.189  24.478  1.00  0.00    -0.310 N 
ATOM     79  C   UNL A   1      31.924  24.407  23.721  1.00  0.00     0.325 C 
ATOM     80  C   UNL A   1      31.692  23.115  25.837  1.00  0.00     0.325 C 
ATOM     81  H   UNL A   1      31.485  22.618  24.001  1.00  0.00     0.349 HD
ATOM     82  C   UNL A   1      30.446  24.836  23.877  1.00  0.00     0.325 C 
ATOM     83  C   UNL A   1      30.245  23.613  25.944  1.00  0.00     0.325 C 
ATOM     84  N   UNL A   1      29.971  24.884  25.267  1.00  0.00    -0.318 N 
ATOM     85  H   UNL A   1      28.959  24.996  25.215  1.00  0.00     0.348 HD
BRANCH  84  86
ATOM     86  C   UNL A   1      30.319  26.092  26.039  1.00  0.00     0.364 C 
BRANCH  86  87
ATOM     87  C   UNL A   1      30.787  27.334  25.260  1.00  0.00     0.277 C 
ATOM     88  O   UNL A   1      30.136  27.718  24.280  1.00  0.00    -0.268 OA
ATOM     89  N   UNL A   1      31.896  28.053  25.688  1.00  0.00    -0.333 N 
ATOM     90  C   UNL A   1      32.978  27.543  26.531  1.00  0.00     0.148 C 
ATOM     91  C   UNL A   1      32.240  29.280  24.963  1.00  0.00     0.148 C 
ATOM     92  C   UNL A   1      33.675  28.633  27.349  1.00  0.00     0.181 C 
ATOM     93  C   UNL A   1      32.906  30.303  25.884  1.00  0.00     0.181 C 
ATOM     94  O   UNL A   1      34.060  29.741  26.526  1.00  0.00    -0.378 OA
ENDBRANCH  86  87
ENDBRANCH  84  86
ENDBRANCH  77  78
BRANCH  77  95
ATOM     95  C   UNL A   1      32.870  21.250  23.336  1.00  0.00     0.046 A 
ATOM     96  C   UNL A   1      32.033  21.189  22.240  1.00  0.00     0.094 A 
ATOM     97  C   UNL A   1      33.206  19.894  23.676  1.00  0.00     0.009 A 
ATOM     98  N   UNL A   1      31.830  19.865  21.931  1.00  0.00    -0.361 N 
ATOM     99  C   UNL A   1      32.535  19.055  22.792  1.00  0.00     0.049 A 
ATOM    100  C   UNL A   1      34.014  19.330  24.689  1.00  0.00     0.014 A 
ATOM    101  H   UNL A   1      31.260  19.542  21.197  1.00  0.00     0.166 HD
ATOM    102  C   UNL A   1      32.627  17.661  22.886  1.00  0.00     0.065 A 
ATOM    103  C   UNL A   1      34.121  17.946  24.794  1.00  0.00     0.040 A 
ATOM    104  C   UNL A   1      33.431  17.138  23.903  1.00  0.00     0.125 A 
ATOM    105  F   UNL A   1      33.538  15.808  24.029  1.00  0.00    -0.207 F 
ENDBRANCH  77  95
ENDBRANCH  75  77
ENDBRANCH  74  75
ENDBRANCH  73  74
ENDBRANCH   1  73
TORSDOF 18
ENDMDL
MODEL 3
REMARK VINA RESULT:     -12.3      4.191      9.941
REMARK SMILES O=C(OCCOCCOC(=O)[C@H](c1c[nH]c2cc(F)ccc12)[NH+]1CC[NH+](CC(=O)N2CCOCC2)CC1)c1ccc(-c2c3nc(c(-c4c(F)c(F)c(F)c(F)c4F)c4ccc([nH]4)c(-c4c(F)c(F)c(F)c(F)c4F)c4nc(c(-c5c(F)c(F)c(F)c(F)c5F)c5ccc2[nH]5)C=C4)C=C3)cc1
REMARK SMILES IDX 7 1 6 2 5 3 4 4 3 5 2 6 1 7 38 8 39 9 100 10 40 11 99 12
REMARK SMILES IDX 41 13 42 14 43 15 93 16 44 17 98 18 92 19 94 20 45 21 97 22
REMARK SMILES IDX 91 23 90 24 46 26 78 27 58 28 77 29 59 30 62 31 76 32 95 33
REMARK SMILES IDX 60 34 61 35 75 37 96 38 63 39 47 40 48 41 56 42 49 43 50 44
REMARK SMILES IDX 54 45 57 46 51 47 52 48 55 49 53 50 79 51 80 52 88 53 81 54
REMARK SMILES IDX 82 55 86 56 89 57 83 58 84 59 87 60 85 61 64 62 65 63 73 64
REMARK SMILES IDX 66 65 67 66 71 67 74 68 68 69 69 70 72 71 70 72 8 73 9 74
REMARK SMILES IDX 10 75 11 76 12 77 23 78 24 79 37 80 25 82 36 83 26 84 27 86
REMARK SMILES IDX 28 87 29 88 30 89 31 90 35 91 32 92 34 93 33 94 13 95 14 96
REMARK SMILES IDX 22 97 15 98 16 99 21 100 17 102 20 103 18 104 19 105
REMARK H PARENT 94 25 62 36 23 81 26 85 15 101
REMARK Flexibility Score: inf
ROOT
ATOM      1  C   UNL A   1      32.737  29.705  27.215  1.00  0.00     0.202 C 
ENDROOT
BRANCH   1   2
ATOM      2  O   UNL A   1      32.905  31.119  27.261  1.00  0.00    -0.374 OA
BRANCH   2   3
ATOM      3  C   UNL A   1      31.812  31.944  26.896  1.00  0.00     0.202 C 
BRANCH   3   4
ATOM      4  C   UNL A   1      32.130  33.429  26.838  1.00  0.00     0.261 C 
BRANCH   4   5
ATOM      5  O   UNL A   1      32.228  33.946  28.169  1.00  0.00    -0.460 OA
BRANCH   5   6
ATOM      6  C   UNL A   1      33.306  34.600  28.658  1.00  0.00     0.338 C 
ATOM      7  O   UNL A   1      33.273  35.813  28.834  1.00  0.00    -0.246 OA
BRANCH   6   8
ATOM      8  C   UNL A   1      34.518  33.858  29.076  1.00  0.00     0.060 A 
ATOM      9  C   UNL A   1      35.807  34.318  28.810  1.00  0.00     0.016 A 
ATOM     10  C   UNL A   1      34.352  32.732  29.885  1.00  0.00     0.016 A 
ATOM     11  C   UNL A   1      36.923  33.651  29.273  1.00  0.00     0.010 A 
ATOM     12  C   UNL A   1      35.471  32.119  30.454  1.00  0.00     0.010 A 
ATOM     13  C   UNL A   1      36.757  32.602  30.166  1.00  0.00    -0.014 A 
BRANCH  13  14
ATOM     14  C   UNL A   1      37.957  32.080  30.842  1.00  0.00     0.031 A 
ATOM     15  C   UNL A   1      38.784  31.055  30.150  1.00  0.00     0.074 A 
ATOM     16  C   UNL A   1      38.294  32.589  32.043  1.00  0.00     0.049 A 
ATOM     17  N   UNL A   1      39.751  30.323  30.625  1.00  0.00    -0.248 NA
ATOM     18  C   UNL A   1      38.480  30.816  28.728  1.00  0.00     0.031 C 
ATOM     19  C   UNL A   1      37.593  33.682  32.729  1.00  0.00     0.029 A 
ATOM     20  N   UNL A   1      39.315  32.272  32.898  1.00  0.00    -0.354 N 
ATOM     21  C   UNL A   1      40.132  29.493  29.583  1.00  0.00     0.074 A 
ATOM     22  C   UNL A   1      39.314  29.827  28.439  1.00  0.00     0.031 C 
ATOM     23  C   UNL A   1      38.217  33.957  33.883  1.00  0.00     0.029 A 
ATOM     24  C   UNL A   1      39.283  32.987  34.073  1.00  0.00     0.049 A 
ATOM     25  H   UNL A   1      40.005  31.600  32.693  1.00  0.00     0.167 HD
ATOM     26  C   UNL A   1      41.068  28.520  29.615  1.00  0.00     0.037 A 
ATOM     27  C   UNL A   1      39.991  32.816  35.205  1.00  0.00     0.037 A 
ATOM     28  C   UNL A   1      41.872  28.248  30.777  1.00  0.00     0.049 A 
ATOM     29  C   UNL A   1      40.973  31.677  35.232  1.00  0.00     0.074 A 
ATOM     30  C   UNL A   1      42.846  27.286  30.950  1.00  0.00     0.029 A 
ATOM     31  N   UNL A   1      41.784  28.957  31.969  1.00  0.00    -0.354 N 
ATOM     32  N   UNL A   1      41.299  30.846  34.268  1.00  0.00    -0.248 NA
ATOM     33  C   UNL A   1      41.655  31.421  36.504  1.00  0.00     0.031 C 
ATOM     34  C   UNL A   1      43.313  27.379  32.265  1.00  0.00     0.029 A 
ATOM     35  C   UNL A   1      42.664  28.431  32.897  1.00  0.00     0.049 A 
ATOM     36  H   UNL A   1      41.185  29.722  32.130  1.00  0.00     0.167 HD
ATOM     37  C   UNL A   1      42.222  29.971  34.815  1.00  0.00     0.074 A 
ATOM     38  C   UNL A   1      42.432  30.395  36.187  1.00  0.00     0.031 C 
ATOM     39  C   UNL A   1      42.834  28.901  34.249  1.00  0.00     0.037 A 
BRANCH  26  40
ATOM     40  C   UNL A   1      41.199  27.643  28.410  1.00  0.00     0.064 A 
ATOM     41  C   UNL A   1      40.424  26.488  28.233  1.00  0.00     0.173 A 
ATOM     42  C   UNL A   1      42.130  27.970  27.411  1.00  0.00     0.173 A 
ATOM     43  F   UNL A   1      39.544  26.115  29.173  1.00  0.00    -0.203 F 
ATOM     44  C   UNL A   1      40.588  25.685  27.107  1.00  0.00     0.198 A 
ATOM     45  C   UNL A   1      42.274  27.178  26.277  1.00  0.00     0.198 A 
ATOM     46  F   UNL A   1      42.905  29.057  27.540  1.00  0.00    -0.203 F 
ATOM     47  F   UNL A   1      39.870  24.560  26.978  1.00  0.00    -0.200 F 
ATOM     48  C   UNL A   1      41.506  26.033  26.127  1.00  0.00     0.200 A 
ATOM     49  F   UNL A   1      43.163  27.517  25.332  1.00  0.00    -0.200 F 
ATOM     50  F   UNL A   1      41.662  25.258  25.045  1.00  0.00    -0.200 F 
ENDBRANCH  26  40
BRANCH  27  51
ATOM     51  C   UNL A   1      39.720  33.646  36.412  1.00  0.00     0.064 A 
ATOM     52  C   UNL A   1      38.831  33.218  37.407  1.00  0.00     0.173 A 
ATOM     53  C   UNL A   1      40.316  34.909  36.579  1.00  0.00     0.173 A 
ATOM     54  F   UNL A   1      38.216  32.033  37.289  1.00  0.00    -0.203 F 
ATOM     55  C   UNL A   1      38.528  34.027  38.502  1.00  0.00     0.198 A 
ATOM     56  C   UNL A   1      40.042  35.699  37.693  1.00  0.00     0.198 A 
ATOM     57  F   UNL A   1      41.173  35.378  35.659  1.00  0.00    -0.203 F 
ATOM     58  F   UNL A   1      37.625  33.619  39.405  1.00  0.00    -0.200 F 
ATOM     59  C   UNL A   1      39.137  35.265  38.648  1.00  0.00     0.200 A 
ATOM     60  F   UNL A   1      40.648  36.886  37.834  1.00  0.00    -0.200 F 
ATOM     61  F   UNL A   1      38.841  36.043  39.697  1.00  0.00    -0.200 F 
ENDBRANCH  27  51
BRANCH  39  62
ATOM     62  C   UNL A   1      43.783  28.138  35.117  1.00  0.00     0.064 A 
ATOM     63  C   UNL A   1      43.377  26.981  35.796  1.00  0.00     0.173 A 
ATOM     64  C   UNL A   1      45.125  28.534  35.216  1.00  0.00     0.173 A 
ATOM     65  F   UNL A   1      42.098  26.581  35.744  1.00  0.00    -0.203 F 
ATOM     66  C   UNL A   1      44.283  26.251  36.558  1.00  0.00     0.198 A 
ATOM     67  C   UNL A   1      46.033  27.784  35.953  1.00  0.00     0.198 A 
ATOM     68  F   UNL A   1      45.555  29.633  34.579  1.00  0.00    -0.203 F 
ATOM     69  F   UNL A   1      43.869  25.169  37.231  1.00  0.00    -0.200 F 
ATOM     70  C   UNL A   1      45.611  26.646  36.626  1.00  0.00     0.200 A 
ATOM     71  F   UNL A   1      47.319  28.157  36.006  1.00  0.00    -0.200 F 
ATOM     72  F   UNL A   1      46.487  25.930  37.344  1.00  0.00    -0.200 F 
ENDBRANCH  39  62
ENDBRANCH  13  14
ENDBRANCH   6   8
ENDBRANCH   5   6
ENDBRANCH   4   5
ENDBRANCH   3   4
ENDBRANCH   2   3
ENDBRANCH   1   2
BRANCH   1  73
ATOM     73  C   UNL A   1      31.858  29.399  25.988  1.00  0.00     0.261 C 
BRANCH  73  74
ATOM     74  O   UNL A   1      31.662  27.970  25.893  1.00  0.00    -0.459 OA
BRANCH  74  75
ATOM     75  C   UNL A   1      32.374  27.339  24.886  1.00  0.00     0.370 C 
ATOM     76  O   UNL A   1      33.585  27.439  24.735  1.00  0.00    -0.245 OA
BRANCH  75  77
ATOM     77  C   UNL A   1      31.403  26.420  24.140  1.00  0.00     0.328 C 
BRANCH  77  78
ATOM     78  N   UNL A   1      31.357  25.036  24.577  1.00  0.00    -0.310 N 
ATOM     79  C   UNL A   1      30.925  24.742  25.937  1.00  0.00     0.325 C 
ATOM     80  C   UNL A   1      32.280  24.122  23.943  1.00  0.00     0.325 C 
ATOM     81  H   UNL A   1      30.485  24.760  24.127  1.00  0.00     0.349 HD
ATOM     82  C   UNL A   1      30.517  23.255  26.063  1.00  0.00     0.325 C 
ATOM     83  C   UNL A   1      31.863  22.661  24.155  1.00  0.00     0.325 C 
ATOM     84  N   UNL A   1      31.506  22.307  25.532  1.00  0.00    -0.318 N 
ATOM     85  H   UNL A   1      31.042  21.400  25.508  1.00  0.00     0.348 HD
BRANCH  84  86
ATOM     86  C   UNL A   1      32.646  21.985  26.411  1.00  0.00     0.364 C 
BRANCH  86  87
ATOM     87  C   UNL A   1      33.815  21.186  25.811  1.00  0.00     0.277 C 
ATOM     88  O   UNL A   1      33.624  20.025  25.426  1.00  0.00    -0.268 OA
ATOM     89  N   UNL A   1      35.060  21.781  25.648  1.00  0.00    -0.333 N 
ATOM     90  C   UNL A   1      35.562  22.941  26.384  1.00  0.00     0.148 C 
ATOM     91  C   UNL A   1      36.111  21.003  24.985  1.00  0.00     0.148 C 
ATOM     92  C   UNL A   1      36.607  23.747  25.609  1.00  0.00     0.181 C 
ATOM     93  C   UNL A   1      37.080  21.908  24.223  1.00  0.00     0.181 C 
ATOM     94  O   UNL A   1      37.642  22.903  25.091  1.00  0.00    -0.378 OA
ENDBRANCH  86  87
ENDBRANCH  84  86
ENDBRANCH  77  78
BRANCH  77  95
ATOM     95  C   UNL A   1      29.969  26.825  23.935  1.00  0.00     0.046 A 
ATOM     96  C   UNL A   1      28.778  26.220  24.286  1.00  0.00     0.094 A 
ATOM     97  C   UNL A   1      29.629  28.010  23.195  1.00  0.00     0.009 A 
ATOM     98  N   UNL A   1      27.750  26.969  23.765  1.00  0.00    -0.361 N 
ATOM     99  C   UNL A   1      28.243  28.067  23.096  1.00  0.00     0.049 A 
ATOM    100  C   UNL A   1      30.410  29.018  22.586  1.00  0.00     0.014 A 
ATOM    101  H   UNL A   1      26.794  26.751  23.857  1.00  0.00     0.166 HD
ATOM    102  C   UNL A   1      27.596  29.092  22.395  1.00  0.00     0.065 A 
ATOM    103  C   UNL A   1      29.784  30.048  21.891  1.00  0.00     0.040 A 
ATOM    104  C   UNL A   1      28.400  30.070  21.801  1.00  0.00     0.125 A 
ATOM    105  F   UNL A   1      27.818  31.063  21.116  1.00  0.00    -0.207 F 
ENDBRANCH  77  95
ENDBRANCH  75  77
ENDBRANCH  74  75
ENDBRANCH  73  74
ENDBRANCH   1  73
TORSDOF 18
ENDMDL
