MODEL 1
REMARK VINA RESULT:     -12.6      0.000      0.000
REMARK SMILES O=C(OCCOCCOC(=O)c1ccc(-c2c3nc(c(-c4c(F)c(F)c(F)c(F)c4F)c4ccc([nH]4)c(-c4c(F)c(F)c(F)c(F)c4F)c4nc(c(-c5c(F)c(F)c(F)c(F)c5F)c5ccc2[nH]5)C=C4)C=C3)cc1)C1=Cc2cc(Cl)cc(Cl)c2O[C@@H]1C(F)(F)F
REMARK SMILES IDX 7 1 6 2 5 3 4 4 3 5 2 6 1 7 75 8 76 9 86 10 77 11 85 12
REMARK SMILES IDX 78 13 84 14 79 15 82 16 80 17 81 18 83 19 87 20 88 21 89 22
REMARK SMILES IDX 90 23 8 24 9 25 10 26 11 27 12 28 13 29 74 30 14 31 73 32
REMARK SMILES IDX 15 33 16 34 17 35 67 36 18 37 72 38 66 39 68 40 19 41 71 42
REMARK SMILES IDX 65 43 64 44 20 46 52 47 32 48 51 49 33 50 36 51 50 52 69 53
REMARK SMILES IDX 34 54 35 55 49 57 70 58 37 59 21 60 22 61 30 62 23 63 24 64
REMARK SMILES IDX 28 65 31 66 25 67 26 68 29 69 27 70 53 71 54 72 62 73 55 74
REMARK SMILES IDX 56 75 60 76 63 77 57 78 58 79 61 80 59 81 38 82 39 83 47 84
REMARK SMILES IDX 40 85 41 86 45 87 48 88 42 89 43 90 46 91 44 92
REMARK H PARENT 68 45 36 56
REMARK Flexibility Score: inf
ROOT
ATOM      1  C   UNL A   1      42.782  20.707  26.174  1.00  0.00     0.202 C 
ENDROOT
BRANCH   1   2
ATOM      2  O   UNL A   1      41.532  21.236  25.708  1.00  0.00    -0.374 OA
BRANCH   2   3
ATOM      3  C   UNL A   1      40.068  21.237  26.330  1.00  0.00     0.202 C 
BRANCH   3   4
ATOM      4  C   UNL A   1      38.127  21.599  25.438  1.00  0.00     0.261 C 
BRANCH   4   5
ATOM      5  O   UNL A   1      37.295  22.902  25.547  1.00  0.00    -0.460 OA
BRANCH   5   6
ATOM      6  C   UNL A   1      36.541  23.130  24.469  1.00  0.00     0.338 C 
ATOM      7  O   UNL A   1      36.854  23.423  23.345  1.00  0.00    -0.246 OA
BRANCH   6   8
ATOM      8  C   UNL A   1      35.298  23.223  25.193  1.00  0.00     0.087 C 
ATOM      9  C   UNL A   1      35.085  24.623  25.688  1.00  0.00     0.027 C 
ATOM     10  C   UNL A   1      34.182  22.343  23.869  1.00  0.00     0.316 C 
ATOM     11  C   UNL A   1      33.856  25.767  24.967  1.00  0.00     0.020 A 
ATOM     12  O   UNL A   1      32.929  23.554  23.067  1.00  0.00    -0.474 OA
ATOM     13  C   UNL A   1      33.862  27.087  25.332  1.00  0.00     0.032 A 
ATOM     14  C   UNL A   1      32.845  25.277  23.645  1.00  0.00     0.146 A 
ATOM     15  C   UNL A   1      33.079  27.931  24.520  1.00  0.00     0.043 A 
ATOM     16  C   UNL A   1      32.262  26.205  22.829  1.00  0.00     0.085 A 
ATOM     17  Cl  UNL A   1      33.043  29.613  24.944  1.00  0.00    -0.084 Cl
ATOM     18  C   UNL A   1      32.365  27.528  23.318  1.00  0.00     0.045 A 
ATOM     19  Cl  UNL A   1      31.787  25.870  21.228  1.00  0.00    -0.080 Cl
BRANCH  10  20
ATOM     20  C   UNL A   1      33.912  20.949  24.541  1.00  0.00     0.430 C 
ATOM     21  F   UNL A   1      33.245  21.005  25.708  1.00  0.00    -0.167 F 
ATOM     22  F   UNL A   1      33.108  20.240  23.697  1.00  0.00    -0.167 F 
ATOM     23  F   UNL A   1      35.013  20.183  24.705  1.00  0.00    -0.167 F 
ENDBRANCH  10  20
ENDBRANCH   6   8
ENDBRANCH   5   6
ENDBRANCH   4   5
ENDBRANCH   3   4
ENDBRANCH   2   3
ENDBRANCH   1   2
BRANCH   1  24
ATOM     24  C   UNL A   1      43.981  21.358  25.486  1.00  0.00     0.261 C 
BRANCH  24  25
ATOM     25  O   UNL A   1      44.436  22.516  26.182  1.00  0.00    -0.460 OA
BRANCH  25  26
ATOM     26  C   UNL A   1      44.142  23.689  25.576  1.00  0.00     0.338 C 
ATOM     27  O   UNL A   1      44.277  23.984  24.401  1.00  0.00    -0.246 OA
BRANCH  26  28
ATOM     28  C   UNL A   1      43.593  24.610  26.587  1.00  0.00     0.060 A 
ATOM     29  C   UNL A   1      44.131  25.899  26.670  1.00  0.00     0.016 A 
ATOM     30  C   UNL A   1      42.529  24.224  27.413  1.00  0.00     0.016 A 
ATOM     31  C   UNL A   1      43.570  26.824  27.548  1.00  0.00     0.010 A 
ATOM     32  C   UNL A   1      41.968  25.148  28.288  1.00  0.00     0.010 A 
ATOM     33  C   UNL A   1      42.488  26.449  28.356  1.00  0.00    -0.014 A 
BRANCH  33  34
ATOM     34  C   UNL A   1      42.001  27.362  29.407  1.00  0.00     0.031 A 
ATOM     35  C   UNL A   1      42.695  27.318  30.731  1.00  0.00     0.074 A 
ATOM     36  C   UNL A   1      40.959  28.181  29.189  1.00  0.00     0.049 A 
ATOM     37  N   UNL A   1      42.449  28.002  31.816  1.00  0.00    -0.248 NA
ATOM     38  C   UNL A   1      43.819  26.374  30.850  1.00  0.00     0.031 C 
ATOM     39  C   UNL A   1      40.220  28.297  27.934  1.00  0.00     0.029 A 
ATOM     40  N   UNL A   1      40.330  29.064  30.029  1.00  0.00    -0.354 N 
ATOM     41  C   UNL A   1      43.396  27.581  32.737  1.00  0.00     0.074 A 
ATOM     42  C   UNL A   1      44.192  26.554  32.106  1.00  0.00     0.031 C 
ATOM     43  C   UNL A   1      39.227  29.190  28.088  1.00  0.00     0.029 A 
ATOM     44  C   UNL A   1      39.243  29.685  29.463  1.00  0.00     0.049 A 
ATOM     45  H   UNL A   1      40.629  29.237  30.951  1.00  0.00     0.167 HD
ATOM     46  C   UNL A   1      43.587  28.030  33.997  1.00  0.00     0.037 A 
ATOM     47  C   UNL A   1      38.354  30.536  30.009  1.00  0.00     0.037 A 
ATOM     48  C   UNL A   1      42.765  29.029  34.623  1.00  0.00     0.049 A 
ATOM     49  C   UNL A   1      38.539  30.948  31.448  1.00  0.00     0.074 A 
ATOM     50  C   UNL A   1      42.881  29.568  35.890  1.00  0.00     0.029 A 
ATOM     51  N   UNL A   1      41.659  29.622  34.031  1.00  0.00    -0.354 N 
ATOM     52  N   UNL A   1      39.483  30.607  32.295  1.00  0.00    -0.248 NA
ATOM     53  C   UNL A   1      37.544  31.872  32.006  1.00  0.00     0.031 C 
ATOM     54  C   UNL A   1      41.803  30.435  36.091  1.00  0.00     0.029 A 
ATOM     55  C   UNL A   1      41.059  30.493  34.923  1.00  0.00     0.049 A 
ATOM     56  H   UNL A   1      41.347  29.448  33.114  1.00  0.00     0.167 HD
ATOM     57  C   UNL A   1      39.216  31.303  33.467  1.00  0.00     0.074 A 
ATOM     58  C   UNL A   1      38.034  32.099  33.217  1.00  0.00     0.031 C 
ATOM     59  C   UNL A   1      39.887  31.284  34.646  1.00  0.00     0.037 A 
BRANCH  46  60
ATOM     60  C   UNL A   1      44.706  27.421  34.784  1.00  0.00     0.064 A 
ATOM     61  C   UNL A   1      45.985  27.997  34.812  1.00  0.00     0.173 A 
ATOM     62  C   UNL A   1      44.488  26.265  35.547  1.00  0.00     0.173 A 
ATOM     63  F   UNL A   1      46.251  29.090  34.079  1.00  0.00    -0.203 F 
ATOM     64  C   UNL A   1      47.009  27.428  35.562  1.00  0.00     0.198 A 
ATOM     65  C   UNL A   1      45.506  25.717  36.321  1.00  0.00     0.198 A 
ATOM     66  F   UNL A   1      43.286  25.671  35.547  1.00  0.00    -0.203 F 
ATOM     67  F   UNL A   1      48.235  27.969  35.540  1.00  0.00    -0.200 F 
ATOM     68  C   UNL A   1      46.765  26.296  36.325  1.00  0.00     0.200 A 
ATOM     69  F   UNL A   1      45.266  24.628  37.064  1.00  0.00    -0.200 F 
ATOM     70  F   UNL A   1      47.748  25.757  37.059  1.00  0.00    -0.200 F 
ENDBRANCH  46  60
BRANCH  47  71
ATOM     71  C   UNL A   1      37.203  31.048  29.215  1.00  0.00     0.064 A 
ATOM     72  C   UNL A   1      37.159  32.381  28.777  1.00  0.00     0.173 A 
ATOM     73  C   UNL A   1      36.094  30.238  28.931  1.00  0.00     0.173 A 
ATOM     74  F   UNL A   1      38.184  33.205  29.040  1.00  0.00    -0.203 F 
ATOM     75  C   UNL A   1      36.038  32.892  28.127  1.00  0.00     0.198 A 
ATOM     76  C   UNL A   1      34.987  30.739  28.247  1.00  0.00     0.198 A 
ATOM     77  F   UNL A   1      36.081  28.955  29.322  1.00  0.00    -0.203 F 
ATOM     78  F   UNL A   1      35.996  34.187  27.787  1.00  0.00    -0.200 F 
ATOM     79  C   UNL A   1      34.953  32.070  27.860  1.00  0.00     0.200 A 
ATOM     80  F   UNL A   1      33.947  29.938  27.981  1.00  0.00    -0.200 F 
ATOM     81  F   UNL A   1      33.871  32.564  27.245  1.00  0.00    -0.200 F 
ENDBRANCH  47  71
BRANCH  59  82
ATOM     82  C   UNL A   1      39.385  32.185  35.738  1.00  0.00     0.064 A 
ATOM     83  C   UNL A   1      38.446  31.749  36.685  1.00  0.00     0.173 A 
ATOM     84  C   UNL A   1      39.892  33.488  35.868  1.00  0.00     0.173 A 
ATOM     85  F   UNL A   1      37.922  30.516  36.599  1.00  0.00    -0.203 F 
ATOM     86  C   UNL A   1      38.008  32.595  37.699  1.00  0.00     0.198 A 
ATOM     87  C   UNL A   1      39.482  34.317  36.908  1.00  0.00     0.198 A 
ATOM     88  F   UNL A   1      40.800  33.952  34.996  1.00  0.00    -0.203 F 
ATOM     89  F   UNL A   1      37.067  32.176  38.557  1.00  0.00    -0.200 F 
ATOM     90  C   UNL A   1      38.533  33.873  37.817  1.00  0.00     0.200 A 
ATOM     91  F   UNL A   1      40.006  35.543  37.032  1.00  0.00    -0.200 F 
ATOM     92  F   UNL A   1      38.119  34.681  38.802  1.00  0.00    -0.200 F 
ENDBRANCH  59  82
ENDBRANCH  33  34
ENDBRANCH  26  28
ENDBRANCH  25  26
ENDBRANCH  24  25
ENDBRANCH   1  24
TORSDOF 15
ENDMDL
MODEL 2
REMARK VINA RESULT:     -12.6      3.469      8.636
REMARK SMILES O=C(OCCOCCOC(=O)c1ccc(-c2c3nc(c(-c4c(F)c(F)c(F)c(F)c4F)c4ccc([nH]4)c(-c4c(F)c(F)c(F)c(F)c4F)c4nc(c(-c5c(F)c(F)c(F)c(F)c5F)c5ccc2[nH]5)C=C4)C=C3)cc1)C1=Cc2cc(Cl)cc(Cl)c2O[C@@H]1C(F)(F)F
REMARK SMILES IDX 7 1 6 2 5 3 4 4 3 5 2 6 1 7 75 8 76 9 86 10 77 11 85 12
REMARK SMILES IDX 78 13 84 14 79 15 82 16 80 17 81 18 83 19 87 20 88 21 89 22
REMARK SMILES IDX 90 23 8 24 9 25 10 26 11 27 12 28 13 29 74 30 14 31 73 32
REMARK SMILES IDX 15 33 16 34 17 35 67 36 18 37 72 38 66 39 68 40 19 41 71 42
REMARK SMILES IDX 65 43 64 44 20 46 52 47 32 48 51 49 33 50 36 51 50 52 69 53
REMARK SMILES IDX 34 54 35 55 49 57 70 58 37 59 21 60 22 61 30 62 23 63 24 64
REMARK SMILES IDX 28 65 31 66 25 67 26 68 29 69 27 70 53 71 54 72 62 73 55 74
REMARK SMILES IDX 56 75 60 76 63 77 57 78 58 79 61 80 59 81 38 82 39 83 47 84
REMARK SMILES IDX 40 85 41 86 45 87 48 88 42 89 43 90 46 91 44 92
REMARK H PARENT 68 45 36 56
REMARK Flexibility Score: inf
ROOT
ATOM      1  C   UNL A   1      31.405  31.689  26.473  1.00  0.00     0.202 C 
ENDROOT
BRANCH   1   2
ATOM      2  O   UNL A   1      32.508  30.779  26.350  1.00  0.00    -0.374 OA
BRANCH   2   3
ATOM      3  C   UNL A   1      32.879  29.434  27.113  1.00  0.00     0.202 C 
BRANCH   3   4
ATOM      4  C   UNL A   1      31.790  27.579  27.371  1.00  0.00     0.261 C 
BRANCH   4   5
ATOM      5  O   UNL A   1      31.310  26.631  26.243  1.00  0.00    -0.460 OA
BRANCH   5   6
ATOM      6  C   UNL A   1      31.738  25.376  26.400  1.00  0.00     0.338 C 
ATOM      7  O   UNL A   1      31.751  24.672  27.375  1.00  0.00    -0.246 OA
BRANCH   6   8
ATOM      8  C   UNL A   1      32.441  25.317  25.143  1.00  0.00     0.087 C 
ATOM      9  C   UNL A   1      33.923  25.302  25.371  1.00  0.00     0.027 C 
ATOM     10  C   UNL A   1      31.431  23.846  24.373  1.00  0.00     0.316 C 
ATOM     11  C   UNL A   1      34.960  23.816  25.136  1.00  0.00     0.020 A 
ATOM     12  O   UNL A   1      32.501  22.267  24.179  1.00  0.00    -0.474 OA
ATOM     13  C   UNL A   1      36.262  23.824  25.560  1.00  0.00     0.032 A 
ATOM     14  C   UNL A   1      34.266  22.313  24.618  1.00  0.00     0.146 A 
ATOM     15  C   UNL A   1      36.882  22.560  25.597  1.00  0.00     0.043 A 
ATOM     16  C   UNL A   1      34.905  21.129  24.855  1.00  0.00     0.085 A 
ATOM     17  Cl  UNL A   1      38.537  22.513  26.118  1.00  0.00    -0.084 Cl
ATOM     18  C   UNL A   1      36.234  21.289  25.311  1.00  0.00     0.045 A 
ATOM     19  Cl  UNL A   1      34.093  19.635  24.949  1.00  0.00    -0.080 Cl
BRANCH  10  20
ATOM     20  C   UNL A   1      30.551  24.579  23.297  1.00  0.00     0.430 C 
ATOM     21  F   UNL A   1      31.247  25.182  22.316  1.00  0.00    -0.167 F 
ATOM     22  F   UNL A   1      29.796  23.628  22.675  1.00  0.00    -0.167 F 
ATOM     23  F   UNL A   1      29.662  25.459  23.805  1.00  0.00    -0.167 F 
ENDBRANCH  10  20
ENDBRANCH   6   8
ENDBRANCH   5   6
ENDBRANCH   4   5
ENDBRANCH   3   4
ENDBRANCH   2   3
ENDBRANCH   1   2
BRANCH   1  24
ATOM     24  C   UNL A   1      31.832  33.048  27.026  1.00  0.00     0.261 C 
BRANCH  24  25
ATOM     25  O   UNL A   1      33.247  33.217  27.002  1.00  0.00    -0.460 OA
BRANCH  25  26
ATOM     26  C   UNL A   1      33.745  33.951  28.024  1.00  0.00     0.338 C 
ATOM     27  O   UNL A   1      33.358  35.032  28.432  1.00  0.00    -0.246 OA
BRANCH  26  28
ATOM     28  C   UNL A   1      34.876  33.215  28.617  1.00  0.00     0.060 A 
ATOM     29  C   UNL A   1      34.626  31.957  29.178  1.00  0.00     0.016 A 
ATOM     30  C   UNL A   1      36.176  33.737  28.581  1.00  0.00     0.016 A 
ATOM     31  C   UNL A   1      35.687  31.195  29.659  1.00  0.00     0.010 A 
ATOM     32  C   UNL A   1      37.236  32.974  29.060  1.00  0.00     0.010 A 
ATOM     33  C   UNL A   1      36.993  31.702  29.599  1.00  0.00    -0.014 A 
BRANCH  33  34
ATOM     34  C   UNL A   1      38.096  30.981  30.259  1.00  0.00     0.031 A 
ATOM     35  C   UNL A   1      38.390  31.330  31.684  1.00  0.00     0.074 A 
ATOM     36  C   UNL A   1      38.823  30.065  29.598  1.00  0.00     0.049 A 
ATOM     37  N   UNL A   1      39.312  30.856  32.477  1.00  0.00    -0.248 NA
ATOM     38  C   UNL A   1      37.527  32.354  32.298  1.00  0.00     0.031 C 
ATOM     39  C   UNL A   1      38.612  29.656  28.212  1.00  0.00     0.029 A 
ATOM     40  N   UNL A   1      39.902  29.322  30.005  1.00  0.00    -0.354 N 
ATOM     41  C   UNL A   1      39.130  31.512  33.685  1.00  0.00     0.074 A 
ATOM     42  C   UNL A   1      38.043  32.448  33.512  1.00  0.00     0.031 C 
ATOM     43  C   UNL A   1      39.541  28.744  27.875  1.00  0.00     0.029 A 
ATOM     44  C   UNL A   1      40.430  28.529  29.015  1.00  0.00     0.049 A 
ATOM     45  H   UNL A   1      40.263  29.353  30.920  1.00  0.00     0.167 HD
ATOM     46  C   UNL A   1      39.807  31.332  34.840  1.00  0.00     0.037 A 
ATOM     47  C   UNL A   1      41.522  27.742  29.031  1.00  0.00     0.037 A 
ATOM     48  C   UNL A   1      40.908  30.420  34.987  1.00  0.00     0.049 A 
ATOM     49  C   UNL A   1      42.314  27.632  30.310  1.00  0.00     0.074 A 
ATOM     50  C   UNL A   1      41.655  30.147  36.117  1.00  0.00     0.029 A 
ATOM     51  N   UNL A   1      41.433  29.648  33.960  1.00  0.00    -0.354 N 
ATOM     52  N   UNL A   1      42.093  28.195  31.475  1.00  0.00    -0.248 NA
ATOM     53  C   UNL A   1      43.501  26.768  30.282  1.00  0.00     0.031 C 
ATOM     54  C   UNL A   1      42.676  29.265  35.758  1.00  0.00     0.029 A 
ATOM     55  C   UNL A   1      42.521  28.928  34.422  1.00  0.00     0.049 A 
ATOM     56  H   UNL A   1      41.084  29.618  33.040  1.00  0.00     0.167 HD
ATOM     57  C   UNL A   1      43.087  27.725  32.323  1.00  0.00     0.074 A 
ATOM     58  C   UNL A   1      43.901  26.816  31.545  1.00  0.00     0.031 C 
ATOM     59  C   UNL A   1      43.309  28.020  33.629  1.00  0.00     0.037 A 
BRANCH  46  60
ATOM     60  C   UNL A   1      39.394  32.158  36.019  1.00  0.00     0.064 A 
ATOM     61  C   UNL A   1      38.419  31.713  36.924  1.00  0.00     0.173 A 
ATOM     62  C   UNL A   1      40.004  33.396  36.264  1.00  0.00     0.173 A 
ATOM     63  F   UNL A   1      37.788  30.546  36.719  1.00  0.00    -0.203 F 
ATOM     64  C   UNL A   1      38.059  32.485  38.024  1.00  0.00     0.198 A 
ATOM     65  C   UNL A   1      39.664  34.151  37.383  1.00  0.00     0.198 A 
ATOM     66  F   UNL A   1      40.936  33.870  35.424  1.00  0.00    -0.203 F 
ATOM     67  F   UNL A   1      37.094  32.062  38.852  1.00  0.00    -0.200 F 
ATOM     68  C   UNL A   1      38.690  33.697  38.258  1.00  0.00     0.200 A 
ATOM     69  F   UNL A   1      40.282  35.318  37.612  1.00  0.00    -0.200 F 
ATOM     70  F   UNL A   1      38.353  34.434  39.326  1.00  0.00    -0.200 F 
ENDBRANCH  46  60
BRANCH  47  71
ATOM     71  C   UNL A   1      41.948  27.006  27.808  1.00  0.00     0.064 A 
ATOM     72  C   UNL A   1      41.536  25.686  27.575  1.00  0.00     0.173 A 
ATOM     73  C   UNL A   1      42.827  27.583  26.880  1.00  0.00     0.173 A 
ATOM     74  F   UNL A   1      40.713  25.079  28.443  1.00  0.00    -0.203 F 
ATOM     75  C   UNL A   1      42.018  24.959  26.488  1.00  0.00     0.198 A 
ATOM     76  C   UNL A   1      43.280  26.868  25.772  1.00  0.00     0.198 A 
ATOM     77  F   UNL A   1      43.253  28.843  27.049  1.00  0.00    -0.203 F 
ATOM     78  F   UNL A   1      41.664  23.676  26.333  1.00  0.00    -0.200 F 
ATOM     79  C   UNL A   1      42.889  25.552  25.585  1.00  0.00     0.200 A 
ATOM     80  F   UNL A   1      44.110  27.449  24.896  1.00  0.00    -0.200 F 
ATOM     81  F   UNL A   1      43.360  24.850  24.547  1.00  0.00    -0.200 F 
ENDBRANCH  47  71
BRANCH  59  82
ATOM     82  C   UNL A   1      44.449  27.317  34.309  1.00  0.00     0.064 A 
ATOM     83  C   UNL A   1      44.296  26.051  34.895  1.00  0.00     0.173 A 
ATOM     84  C   UNL A   1      45.727  27.899  34.330  1.00  0.00     0.173 A 
ATOM     85  F   UNL A   1      43.093  25.456  34.912  1.00  0.00    -0.203 F 
ATOM     86  C   UNL A   1      45.370  25.411  35.504  1.00  0.00     0.198 A 
ATOM     87  C   UNL A   1      46.808  27.237  34.904  1.00  0.00     0.198 A 
ATOM     88  F   UNL A   1      45.931  29.103  33.774  1.00  0.00    -0.203 F 
ATOM     89  F   UNL A   1      45.186  24.228  36.108  1.00  0.00    -0.200 F 
ATOM     90  C   UNL A   1      46.626  25.998  35.500  1.00  0.00     0.200 A 
ATOM     91  F   UNL A   1      48.024  27.797  34.879  1.00  0.00    -0.200 F 
ATOM     92  F   UNL A   1      47.662  25.373  36.076  1.00  0.00    -0.200 F 
ENDBRANCH  59  82
ENDBRANCH  33  34
ENDBRANCH  26  28
ENDBRANCH  25  26
ENDBRANCH  24  25
ENDBRANCH   1  24
TORSDOF 15
ENDMDL
MODEL 3
REMARK VINA RESULT:     -12.5      3.039      8.431
REMARK SMILES O=C(OCCOCCOC(=O)c1ccc(-c2c3nc(c(-c4c(F)c(F)c(F)c(F)c4F)c4ccc([nH]4)c(-c4c(F)c(F)c(F)c(F)c4F)c4nc(c(-c5c(F)c(F)c(F)c(F)c5F)c5ccc2[nH]5)C=C4)C=C3)cc1)C1=Cc2cc(Cl)cc(Cl)c2O[C@@H]1C(F)(F)F
REMARK SMILES IDX 7 1 6 2 5 3 4 4 3 5 2 6 1 7 75 8 76 9 86 10 77 11 85 12
REMARK SMILES IDX 78 13 84 14 79 15 82 16 80 17 81 18 83 19 87 20 88 21 89 22
REMARK SMILES IDX 90 23 8 24 9 25 10 26 11 27 12 28 13 29 74 30 14 31 73 32
REMARK SMILES IDX 15 33 16 34 17 35 67 36 18 37 72 38 66 39 68 40 19 41 71 42
REMARK SMILES IDX 65 43 64 44 20 46 52 47 32 48 51 49 33 50 36 51 50 52 69 53
REMARK SMILES IDX 34 54 35 55 49 57 70 58 37 59 21 60 22 61 30 62 23 63 24 64
REMARK SMILES IDX 28 65 31 66 25 67 26 68 29 69 27 70 53 71 54 72 62 73 55 74
REMARK SMILES IDX 56 75 60 76 63 77 57 78 58 79 61 80 59 81 38 82 39 83 47 84
REMARK SMILES IDX 40 85 41 86 45 87 48 88 42 89 43 90 46 91 44 92
REMARK H PARENT 68 45 36 56
REMARK Flexibility Score: inf
ROOT
ATOM      1  C   UNL A   1      31.030  30.030  24.665  1.00  0.00     0.202 C 
ENDROOT
BRANCH   1   2
ATOM      2  O   UNL A   1      30.689  28.885  23.871  1.00  0.00    -0.374 OA
BRANCH   2   3
ATOM      3  C   UNL A   1      31.178  28.387  22.442  1.00  0.00     0.202 C 
BRANCH   3   4
ATOM      4  C   UNL A   1      31.648  26.409  21.692  1.00  0.00     0.261 C 
BRANCH   4   5
ATOM      5  O   UNL A   1      31.447  25.070  22.444  1.00  0.00    -0.460 OA
BRANCH   5   6
ATOM      6  C   UNL A   1      32.566  24.346  22.528  1.00  0.00     0.338 C 
ATOM      7  O   UNL A   1      33.338  24.001  21.672  1.00  0.00    -0.246 OA
BRANCH   6   8
ATOM      8  C   UNL A   1      32.324  23.882  23.870  1.00  0.00     0.087 C 
ATOM      9  C   UNL A   1      31.902  22.443  23.860  1.00  0.00     0.027 C 
ATOM     10  C   UNL A   1      33.980  24.537  24.651  1.00  0.00     0.316 C 
ATOM     11  C   UNL A   1      32.981  21.075  24.410  1.00  0.00     0.020 A 
ATOM     12  O   UNL A   1      35.141  23.103  25.176  1.00  0.00    -0.474 OA
ATOM     13  C   UNL A   1      32.604  19.779  24.178  1.00  0.00     0.032 A 
ATOM     14  C   UNL A   1      34.586  21.380  24.991  1.00  0.00     0.146 A 
ATOM     15  C   UNL A   1      33.618  18.822  24.375  1.00  0.00     0.043 A 
ATOM     16  C   UNL A   1      35.532  20.394  24.985  1.00  0.00     0.085 A 
ATOM     17  Cl  UNL A   1      33.192  17.161  24.105  1.00  0.00    -0.084 Cl
ATOM     18  C   UNL A   1      35.005  19.111  24.708  1.00  0.00     0.045 A 
ATOM     19  Cl  UNL A   1      37.206  20.708  24.946  1.00  0.00    -0.080 Cl
BRANCH  10  20
ATOM     20  C   UNL A   1      33.481  25.762  25.499  1.00  0.00     0.430 C 
ATOM     21  F   UNL A   1      32.691  25.443  26.540  1.00  0.00    -0.167 F 
ATOM     22  F   UNL A   1      34.583  26.352  26.046  1.00  0.00    -0.167 F 
ATOM     23  F   UNL A   1      32.882  26.735  24.779  1.00  0.00    -0.167 F 
ENDBRANCH  10  20
ENDBRANCH   6   8
ENDBRANCH   5   6
ENDBRANCH   4   5
ENDBRANCH   3   4
ENDBRANCH   2   3
ENDBRANCH   1   2
BRANCH   1  24
ATOM     24  C   UNL A   1      31.776  29.650  25.944  1.00  0.00     0.261 C 
BRANCH  24  25
ATOM     25  O   UNL A   1      33.083  30.217  25.991  1.00  0.00    -0.460 OA
BRANCH  25  26
ATOM     26  C   UNL A   1      33.232  31.216  26.891  1.00  0.00     0.338 C 
ATOM     27  O   UNL A   1      32.504  32.176  27.077  1.00  0.00    -0.246 OA
BRANCH  26  28
ATOM     28  C   UNL A   1      34.458  30.963  27.668  1.00  0.00     0.060 A 
ATOM     29  C   UNL A   1      34.727  29.650  28.071  1.00  0.00     0.016 A 
ATOM     30  C   UNL A   1      35.357  31.998  27.958  1.00  0.00     0.016 A 
ATOM     31  C   UNL A   1      35.924  29.360  28.722  1.00  0.00     0.010 A 
ATOM     32  C   UNL A   1      36.553  31.709  28.606  1.00  0.00     0.010 A 
ATOM     33  C   UNL A   1      36.838  30.389  28.989  1.00  0.00    -0.014 A 
BRANCH  33  34
ATOM     34  C   UNL A   1      38.022  30.126  29.826  1.00  0.00     0.031 A 
ATOM     35  C   UNL A   1      39.045  29.176  29.291  1.00  0.00     0.074 A 
ATOM     36  C   UNL A   1      38.162  30.699  31.033  1.00  0.00     0.049 A 
ATOM     37  N   UNL A   1      40.159  28.767  29.836  1.00  0.00    -0.248 NA
ATOM     38  C   UNL A   1      38.776  28.607  27.958  1.00  0.00     0.031 C 
ATOM     39  C   UNL A   1      37.222  31.639  31.639  1.00  0.00     0.029 A 
ATOM     40  N   UNL A   1      39.149  30.560  31.976  1.00  0.00    -0.354 N 
ATOM     41  C   UNL A   1      40.728  27.908  28.909  1.00  0.00     0.074 A 
ATOM     42  C   UNL A   1      39.822  27.815  27.787  1.00  0.00     0.031 C 
ATOM     43  C   UNL A   1      37.668  31.983  32.860  1.00  0.00     0.029 A 
ATOM     44  C   UNL A   1      38.910  31.263  33.131  1.00  0.00     0.049 A 
ATOM     45  H   UNL A   1      39.952  30.008  31.837  1.00  0.00     0.167 HD
ATOM     46  C   UNL A   1      41.914  27.265  28.988  1.00  0.00     0.037 A 
ATOM     47  C   UNL A   1      39.610  31.297  34.281  1.00  0.00     0.037 A 
ATOM     48  C   UNL A   1      42.789  27.341  30.125  1.00  0.00     0.049 A 
ATOM     49  C   UNL A   1      40.885  30.494  34.374  1.00  0.00     0.074 A 
ATOM     50  C   UNL A   1      44.022  26.743  30.304  1.00  0.00     0.029 A 
ATOM     51  N   UNL A   1      42.509  28.044  31.289  1.00  0.00    -0.354 N 
ATOM     52  N   UNL A   1      41.461  29.743  33.465  1.00  0.00    -0.248 NA
ATOM     53  C   UNL A   1      41.613  30.553  35.648  1.00  0.00     0.031 C 
ATOM     54  C   UNL A   1      44.456  27.025  31.601  1.00  0.00     0.029 A 
ATOM     55  C   UNL A   1      43.530  27.861  32.205  1.00  0.00     0.049 A 
ATOM     56  H   UNL A   1      41.704  28.590  31.439  1.00  0.00     0.167 HD
ATOM     57  C   UNL A   1      42.633  29.273  34.042  1.00  0.00     0.074 A 
ATOM     58  C   UNL A   1      42.696  29.839  35.373  1.00  0.00     0.031 C 
ATOM     59  C   UNL A   1      43.574  28.446  33.521  1.00  0.00     0.037 A 
BRANCH  46  60
ATOM     60  C   UNL A   1      42.312  26.406  27.828  1.00  0.00     0.064 A 
ATOM     61  C   UNL A   1      43.196  26.866  26.841  1.00  0.00     0.173 A 
ATOM     62  C   UNL A   1      41.829  25.095  27.720  1.00  0.00     0.173 A 
ATOM     63  F   UNL A   1      43.667  28.122  26.886  1.00  0.00    -0.203 F 
ATOM     64  C   UNL A   1      43.570  26.049  25.779  1.00  0.00     0.198 A 
ATOM     65  C   UNL A   1      42.230  24.269  26.674  1.00  0.00     0.198 A 
ATOM     66  F   UNL A   1      40.975  24.610  28.633  1.00  0.00    -0.203 F 
ATOM     67  F   UNL A   1      44.381  26.522  24.823  1.00  0.00    -0.200 F 
ATOM     68  C   UNL A   1      43.096  24.748  25.703  1.00  0.00     0.200 A 
ATOM     69  F   UNL A   1      41.777  23.009  26.607  1.00  0.00    -0.200 F 
ATOM     70  F   UNL A   1      43.468  23.956  24.688  1.00  0.00    -0.200 F 
ENDBRANCH  46  60
BRANCH  47  71
ATOM     71  C   UNL A   1      39.130  32.095  35.442  1.00  0.00     0.064 A 
ATOM     72  C   UNL A   1      39.471  33.449  35.583  1.00  0.00     0.173 A 
ATOM     73  C   UNL A   1      38.375  31.509  36.469  1.00  0.00     0.173 A 
ATOM     74  F   UNL A   1      40.209  34.054  34.641  1.00  0.00    -0.203 F 
ATOM     75  C   UNL A   1      39.113  34.170  36.720  1.00  0.00     0.198 A 
ATOM     76  C   UNL A   1      37.985  32.241  37.589  1.00  0.00     0.198 A 
ATOM     77  F   UNL A   1      38.017  30.219  36.388  1.00  0.00    -0.203 F 
ATOM     78  F   UNL A   1      39.516  35.441  36.859  1.00  0.00    -0.200 F 
ATOM     79  C   UNL A   1      38.368  33.567  37.722  1.00  0.00     0.200 A 
ATOM     80  F   UNL A   1      37.254  31.657  38.548  1.00  0.00    -0.200 F 
ATOM     81  F   UNL A   1      38.034  34.257  38.819  1.00  0.00    -0.200 F 
ENDBRANCH  47  71
BRANCH  59  82
ATOM     82  C   UNL A   1      44.773  28.142  34.374  1.00  0.00     0.064 A 
ATOM     83  C   UNL A   1      45.922  28.946  34.350  1.00  0.00     0.173 A 
ATOM     84  C   UNL A   1      44.749  27.058  35.266  1.00  0.00     0.173 A 
ATOM     85  F   UNL A   1      46.000  29.987  33.507  1.00  0.00    -0.203 F 
ATOM     86  C   UNL A   1      47.014  28.656  35.161  1.00  0.00     0.198 A 
ATOM     87  C   UNL A   1      45.827  26.795  36.105  1.00  0.00     0.198 A 
ATOM     88  F   UNL A   1      43.670  26.263  35.337  1.00  0.00    -0.203 F 
ATOM     89  F   UNL A   1      48.124  29.403  35.078  1.00  0.00    -0.200 F 
ATOM     90  C   UNL A   1      46.963  27.588  36.045  1.00  0.00     0.200 A 
ATOM     91  F   UNL A   1      45.766  25.776  36.973  1.00  0.00    -0.200 F 
ATOM     92  F   UNL A   1      48.011  27.319  36.834  1.00  0.00    -0.200 F 
ENDBRANCH  59  82
ENDBRANCH  33  34
ENDBRANCH  26  28
ENDBRANCH  25  26
ENDBRANCH  24  25
ENDBRANCH   1  24
TORSDOF 15
ENDMDL
