MODEL 1
REMARK VINA RESULT:     -11.3      0.000      0.000
REMARK SMILES COc1cc(/C=C/C(=O)OCCOCCOC(=O)c2ccc(-c3c4nc(c(-c5c(F)c(F)c(F)c(F)c5F)c5ccc([nH]5)c(-c5c(F)c(F)c(F)c(F)c5F)c5nc(c(-c6c(F)c(F)c(F)c(F)c6F)c6ccc3[nH]6)C=C5)C=C4)cc2)cc(OC)c1O
REMARK SMILES IDX 13 1 12 2 11 3 10 4 8 5 9 6 7 7 6 8 5 9 3 10 4 11 86 12
REMARK SMILES IDX 83 13 82 14 2 15 1 16 87 17 84 19 85 20 14 21 15 22 16 23
REMARK SMILES IDX 17 24 18 25 19 26 20 27 81 28 21 29 80 30 22 31 23 32 24 33
REMARK SMILES IDX 74 34 25 35 79 36 73 37 75 38 26 39 78 40 72 41 71 42 27 44
REMARK SMILES IDX 59 45 39 46 58 47 40 48 43 49 57 50 76 51 41 52 42 53 56 55
REMARK SMILES IDX 77 56 44 57 28 58 29 59 37 60 30 61 31 62 35 63 38 64 32 65
REMARK SMILES IDX 33 66 36 67 34 68 60 69 61 70 69 71 62 72 63 73 67 74 70 75
REMARK SMILES IDX 64 76 65 77 68 78 66 79 45 80 46 81 54 82 47 83 48 84 52 85
REMARK SMILES IDX 55 86 49 87 50 88 53 89 51 90
REMARK H PARENT 87 18 75 43 43 54
REMARK Flexibility Score: inf
ROOT
ATOM      1  O   UNL A   1      34.369  22.542  24.799  1.00  0.00    -0.374 OA
ENDROOT
BRANCH   1   2
ATOM      2  C   UNL A   1      33.210  21.768  24.504  1.00  0.00     0.202 C 
BRANCH   2   3
ATOM      3  C   UNL A   1      32.175  21.661  25.625  1.00  0.00     0.261 C 
BRANCH   3   4
ATOM      4  O   UNL A   1      31.056  22.534  25.393  1.00  0.00    -0.460 OA
BRANCH   4   5
ATOM      5  C   UNL A   1      31.050  23.659  26.146  1.00  0.00     0.330 C 
ATOM      6  O   UNL A   1      31.045  23.717  27.368  1.00  0.00    -0.247 OA
BRANCH   5   7
ATOM      7  C   UNL A   1      31.121  24.888  25.335  1.00  0.00     0.094 C 
ATOM      8  C   UNL A   1      30.118  25.731  25.037  1.00  0.00     0.016 C 
BRANCH   8   9
ATOM      9  C   UNL A   1      30.347  26.930  24.211  1.00  0.00    -0.018 A 
ATOM     10  C   UNL A   1      29.532  28.629  22.646  1.00  0.00     0.165 A 
ATOM     11  C   UNL A   1      29.305  27.553  23.514  1.00  0.00     0.058 A 
ATOM     12  C   UNL A   1      30.835  29.126  22.505  1.00  0.00     0.200 A 
ATOM     13  C   UNL A   1      31.887  28.571  23.255  1.00  0.00     0.165 A 
ATOM     14  C   UNL A   1      31.627  27.478  24.101  1.00  0.00     0.058 A 
BRANCH  10  15
ATOM     15  O   UNL A   1      28.376  29.044  22.042  1.00  0.00    -0.493 OA
ATOM     16  C   UNL A   1      27.723  30.217  22.495  1.00  0.00     0.278 C 
ENDBRANCH  10  15
BRANCH  12  17
ATOM     17  O   UNL A   1      31.089  30.138  21.623  1.00  0.00    -0.502 OA
ATOM     18  H   UNL A   1      31.437  30.951  21.932  1.00  0.00     0.293 HD
ENDBRANCH  12  17
BRANCH  13  19
ATOM     19  O   UNL A   1      33.209  28.931  23.265  1.00  0.00    -0.493 OA
ATOM     20  C   UNL A   1      34.086  28.373  22.297  1.00  0.00     0.278 C 
ENDBRANCH  13  19
ENDBRANCH   8   9
ENDBRANCH   5   7
ENDBRANCH   4   5
ENDBRANCH   3   4
ENDBRANCH   2   3
ENDBRANCH   1   2
BRANCH   1  21
ATOM     21  C   UNL A   1      35.228  22.056  25.834  1.00  0.00     0.202 C 
BRANCH  21  22
ATOM     22  C   UNL A   1      36.355  21.121  25.379  1.00  0.00     0.261 C 
BRANCH  22  23
ATOM     23  O   UNL A   1      37.572  21.844  25.113  1.00  0.00    -0.460 OA
BRANCH  23  24
ATOM     24  C   UNL A   1      38.651  21.451  25.827  1.00  0.00     0.338 C 
ATOM     25  O   UNL A   1      39.176  20.343  25.837  1.00  0.00    -0.246 OA
BRANCH  24  26
ATOM     26  C   UNL A   1      39.254  22.619  26.493  1.00  0.00     0.060 A 
ATOM     27  C   UNL A   1      38.748  23.890  26.181  1.00  0.00     0.016 A 
ATOM     28  C   UNL A   1      40.334  22.479  27.363  1.00  0.00     0.016 A 
ATOM     29  C   UNL A   1      39.352  25.031  26.708  1.00  0.00     0.010 A 
ATOM     30  C   UNL A   1      40.945  23.623  27.880  1.00  0.00     0.010 A 
ATOM     31  C   UNL A   1      40.478  24.903  27.530  1.00  0.00    -0.014 A 
BRANCH  31  32
ATOM     32  C   UNL A   1      41.282  26.091  27.902  1.00  0.00     0.031 A 
ATOM     33  C   UNL A   1      40.604  27.212  28.635  1.00  0.00     0.074 A 
ATOM     34  C   UNL A   1      42.578  26.186  27.562  1.00  0.00     0.049 A 
ATOM     35  N   UNL A   1      41.042  28.414  28.908  1.00  0.00    -0.248 NA
ATOM     36  C   UNL A   1      39.239  26.943  29.114  1.00  0.00     0.031 C 
ATOM     37  C   UNL A   1      43.358  25.144  26.901  1.00  0.00     0.029 A 
ATOM     38  N   UNL A   1      43.459  27.230  27.704  1.00  0.00    -0.354 N 
ATOM     39  C   UNL A   1      40.000  29.050  29.570  1.00  0.00     0.074 A 
ATOM     40  C   UNL A   1      38.903  28.110  29.646  1.00  0.00     0.031 C 
ATOM     41  C   UNL A   1      44.598  25.611  26.666  1.00  0.00     0.029 A 
ATOM     42  C   UNL A   1      44.679  26.998  27.119  1.00  0.00     0.049 A 
ATOM     43  H   UNL A   1      43.237  28.064  28.177  1.00  0.00     0.167 HD
ATOM     44  C   UNL A   1      39.964  30.310  30.066  1.00  0.00     0.037 A 
ATOM     45  C   UNL A   1      45.725  27.829  26.936  1.00  0.00     0.037 A 
ATOM     46  C   UNL A   1      41.060  31.238  29.990  1.00  0.00     0.049 A 
ATOM     47  C   UNL A   1      45.636  29.249  27.434  1.00  0.00     0.074 A 
ATOM     48  C   UNL A   1      41.128  32.534  30.468  1.00  0.00     0.029 A 
ATOM     49  N   UNL A   1      42.281  30.966  29.392  1.00  0.00    -0.354 N 
ATOM     50  N   UNL A   1      44.652  29.848  28.059  1.00  0.00    -0.248 NA
ATOM     51  C   UNL A   1      46.804  30.111  27.198  1.00  0.00     0.031 C 
ATOM     52  C   UNL A   1      42.375  33.063  30.119  1.00  0.00     0.029 A 
ATOM     53  C   UNL A   1      43.104  32.077  29.472  1.00  0.00     0.049 A 
ATOM     54  H   UNL A   1      42.526  30.110  28.972  1.00  0.00     0.167 HD
ATOM     55  C   UNL A   1      45.094  31.138  28.327  1.00  0.00     0.074 A 
ATOM     56  C   UNL A   1      46.436  31.237  27.793  1.00  0.00     0.031 C 
ATOM     57  C   UNL A   1      44.449  32.145  28.963  1.00  0.00     0.037 A 
BRANCH  44  58
ATOM     58  C   UNL A   1      38.686  30.768  30.705  1.00  0.00     0.064 A 
ATOM     59  C   UNL A   1      37.602  31.226  29.941  1.00  0.00     0.173 A 
ATOM     60  C   UNL A   1      38.533  30.716  32.098  1.00  0.00     0.173 A 
ATOM     61  F   UNL A   1      37.703  31.308  28.606  1.00  0.00    -0.203 F 
ATOM     62  C   UNL A   1      36.420  31.639  30.552  1.00  0.00     0.198 A 
ATOM     63  C   UNL A   1      37.341  31.103  32.703  1.00  0.00     0.198 A 
ATOM     64  F   UNL A   1      39.539  30.283  32.873  1.00  0.00    -0.203 F 
ATOM     65  F   UNL A   1      35.414  32.117  29.808  1.00  0.00    -0.200 F 
ATOM     66  C   UNL A   1      36.288  31.571  31.932  1.00  0.00     0.200 A 
ATOM     67  F   UNL A   1      37.211  31.024  34.036  1.00  0.00    -0.200 F 
ATOM     68  F   UNL A   1      35.149  31.962  32.518  1.00  0.00    -0.200 F 
ENDBRANCH  44  58
BRANCH  45  69
ATOM     69  C   UNL A   1      46.940  27.348  26.229  1.00  0.00     0.064 A 
ATOM     70  C   UNL A   1      47.084  27.515  24.846  1.00  0.00     0.173 A 
ATOM     71  C   UNL A   1      47.975  26.698  26.918  1.00  0.00     0.173 A 
ATOM     72  F   UNL A   1      46.109  28.107  24.139  1.00  0.00    -0.203 F 
ATOM     73  C   UNL A   1      48.207  27.036  24.175  1.00  0.00     0.198 A 
ATOM     74  C   UNL A   1      49.111  26.244  26.252  1.00  0.00     0.198 A 
ATOM     75  F   UNL A   1      47.886  26.510  28.243  1.00  0.00    -0.203 F 
ATOM     76  F   UNL A   1      48.298  27.169  22.845  1.00  0.00    -0.200 F 
ATOM     77  C   UNL A   1      49.223  26.407  24.878  1.00  0.00     0.200 A 
ATOM     78  F   UNL A   1      50.094  25.646  26.937  1.00  0.00    -0.200 F 
ATOM     79  F   UNL A   1      50.303  25.948  24.234  1.00  0.00    -0.200 F 
ENDBRANCH  45  69
BRANCH  57  80
ATOM     80  C   UNL A   1      45.202  33.424  29.186  1.00  0.00     0.064 A 
ATOM     81  C   UNL A   1      46.019  33.618  30.309  1.00  0.00     0.173 A 
ATOM     82  C   UNL A   1      45.162  34.440  28.217  1.00  0.00     0.173 A 
ATOM     83  F   UNL A   1      46.080  32.682  31.267  1.00  0.00    -0.203 F 
ATOM     84  C   UNL A   1      46.760  34.786  30.459  1.00  0.00     0.198 A 
ATOM     85  C   UNL A   1      45.926  35.595  28.358  1.00  0.00     0.198 A 
ATOM     86  F   UNL A   1      44.401  34.299  27.122  1.00  0.00    -0.203 F 
ATOM     87  F   UNL A   1      47.511  34.965  31.554  1.00  0.00    -0.200 F 
ATOM     88  C   UNL A   1      46.721  35.769  29.480  1.00  0.00     0.200 A 
ATOM     89  F   UNL A   1      45.897  36.535  27.403  1.00  0.00    -0.200 F 
ATOM     90  F   UNL A   1      47.448  36.886  29.619  1.00  0.00    -0.200 F 
ENDBRANCH  57  80
ENDBRANCH  31  32
ENDBRANCH  24  26
ENDBRANCH  23  24
ENDBRANCH  22  23
ENDBRANCH  21  22
ENDBRANCH   1  21
TORSDOF 18
ENDMDL
MODEL 2
REMARK VINA RESULT:     -11.2      0.566      1.838
REMARK SMILES COc1cc(/C=C/C(=O)OCCOCCOC(=O)c2ccc(-c3c4nc(c(-c5c(F)c(F)c(F)c(F)c5F)c5ccc([nH]5)c(-c5c(F)c(F)c(F)c(F)c5F)c5nc(c(-c6c(F)c(F)c(F)c(F)c6F)c6ccc3[nH]6)C=C5)C=C4)cc2)cc(OC)c1O
REMARK SMILES IDX 13 1 12 2 11 3 10 4 8 5 9 6 7 7 6 8 5 9 3 10 4 11 86 12
REMARK SMILES IDX 83 13 82 14 2 15 1 16 87 17 84 19 85 20 14 21 15 22 16 23
REMARK SMILES IDX 17 24 18 25 19 26 20 27 81 28 21 29 80 30 22 31 23 32 24 33
REMARK SMILES IDX 74 34 25 35 79 36 73 37 75 38 26 39 78 40 72 41 71 42 27 44
REMARK SMILES IDX 59 45 39 46 58 47 40 48 43 49 57 50 76 51 41 52 42 53 56 55
REMARK SMILES IDX 77 56 44 57 28 58 29 59 37 60 30 61 31 62 35 63 38 64 32 65
REMARK SMILES IDX 33 66 36 67 34 68 60 69 61 70 69 71 62 72 63 73 67 74 70 75
REMARK SMILES IDX 64 76 65 77 68 78 66 79 45 80 46 81 54 82 47 83 48 84 52 85
REMARK SMILES IDX 55 86 49 87 50 88 53 89 51 90
REMARK H PARENT 87 18 75 43 43 54
REMARK Flexibility Score: inf
ROOT
ATOM      1  O   UNL A   1      35.256  22.176  26.231  1.00  0.00    -0.374 OA
ENDROOT
BRANCH   1   2
ATOM      2  C   UNL A   1      34.106  23.010  26.114  1.00  0.00     0.202 C 
BRANCH   2   3
ATOM      3  C   UNL A   1      32.868  22.551  26.885  1.00  0.00     0.261 C 
BRANCH   3   4
ATOM      4  O   UNL A   1      32.115  23.668  27.386  1.00  0.00    -0.460 OA
BRANCH   4   5
ATOM      5  C   UNL A   1      30.913  23.853  26.792  1.00  0.00     0.330 C 
ATOM      6  O   UNL A   1      29.863  23.299  27.085  1.00  0.00    -0.247 OA
BRANCH   5   7
ATOM      7  C   UNL A   1      30.950  24.886  25.740  1.00  0.00     0.094 C 
ATOM      8  C   UNL A   1      29.967  25.733  25.389  1.00  0.00     0.016 C 
BRANCH   8   9
ATOM      9  C   UNL A   1      30.156  26.720  24.311  1.00  0.00    -0.018 A 
ATOM     10  C   UNL A   1      31.620  27.972  22.797  1.00  0.00     0.165 A 
ATOM     11  C   UNL A   1      31.414  26.963  23.748  1.00  0.00     0.058 A 
ATOM     12  C   UNL A   1      30.524  28.731  22.364  1.00  0.00     0.200 A 
ATOM     13  C   UNL A   1      29.235  28.454  22.854  1.00  0.00     0.165 A 
ATOM     14  C   UNL A   1      29.069  27.448  23.822  1.00  0.00     0.058 A 
BRANCH  10  15
ATOM     15  O   UNL A   1      32.934  28.056  22.425  1.00  0.00    -0.493 OA
ATOM     16  C   UNL A   1      33.808  28.935  23.110  1.00  0.00     0.278 C 
ENDBRANCH  10  15
BRANCH  12  17
ATOM     17  O   UNL A   1      30.709  29.756  21.480  1.00  0.00    -0.502 OA
ATOM     18  H   UNL A   1      31.128  29.595  20.657  1.00  0.00     0.293 HD
ENDBRANCH  12  17
BRANCH  13  19
ATOM     19  O   UNL A   1      28.053  29.071  22.538  1.00  0.00    -0.493 OA
ATOM     20  C   UNL A   1      27.746  30.324  23.130  1.00  0.00     0.278 C 
ENDBRANCH  13  19
ENDBRANCH   8   9
ENDBRANCH   5   7
ENDBRANCH   4   5
ENDBRANCH   3   4
ENDBRANCH   2   3
ENDBRANCH   1   2
BRANCH   1  21
ATOM     21  C   UNL A   1      35.363  21.085  25.314  1.00  0.00     0.202 C 
BRANCH  21  22
ATOM     22  C   UNL A   1      36.790  20.621  24.995  1.00  0.00     0.261 C 
BRANCH  22  23
ATOM     23  O   UNL A   1      37.751  21.672  25.208  1.00  0.00    -0.460 OA
BRANCH  23  24
ATOM     24  C   UNL A   1      38.855  21.320  25.904  1.00  0.00     0.338 C 
ATOM     25  O   UNL A   1      39.413  20.229  25.916  1.00  0.00    -0.246 OA
BRANCH  24  26
ATOM     26  C   UNL A   1      39.434  22.514  26.545  1.00  0.00     0.060 A 
ATOM     27  C   UNL A   1      38.966  23.773  26.141  1.00  0.00     0.016 A 
ATOM     28  C   UNL A   1      40.460  22.406  27.484  1.00  0.00     0.016 A 
ATOM     29  C   UNL A   1      39.554  24.932  26.646  1.00  0.00     0.010 A 
ATOM     30  C   UNL A   1      41.056  23.568  27.979  1.00  0.00     0.010 A 
ATOM     31  C   UNL A   1      40.628  24.834  27.538  1.00  0.00    -0.014 A 
BRANCH  31  32
ATOM     32  C   UNL A   1      41.425  26.030  27.898  1.00  0.00     0.031 A 
ATOM     33  C   UNL A   1      40.754  27.133  28.663  1.00  0.00     0.074 A 
ATOM     34  C   UNL A   1      42.708  26.149  27.517  1.00  0.00     0.049 A 
ATOM     35  N   UNL A   1      41.182  28.338  28.936  1.00  0.00    -0.248 NA
ATOM     36  C   UNL A   1      39.409  26.838  29.183  1.00  0.00     0.031 C 
ATOM     37  C   UNL A   1      43.482  25.125  26.820  1.00  0.00     0.029 A 
ATOM     38  N   UNL A   1      43.577  27.205  27.642  1.00  0.00    -0.354 N 
ATOM     39  C   UNL A   1      40.153  28.952  29.637  1.00  0.00     0.074 A 
ATOM     40  C   UNL A   1      39.073  27.994  29.737  1.00  0.00     0.031 C 
ATOM     41  C   UNL A   1      44.706  25.614  26.552  1.00  0.00     0.029 A 
ATOM     42  C   UNL A   1      44.782  26.997  27.017  1.00  0.00     0.049 A 
ATOM     43  H   UNL A   1      43.358  28.030  28.131  1.00  0.00     0.167 HD
ATOM     44  C   UNL A   1      40.113  30.205  30.148  1.00  0.00     0.037 A 
ATOM     45  C   UNL A   1      45.808  27.846  26.810  1.00  0.00     0.037 A 
ATOM     46  C   UNL A   1      41.192  31.151  30.047  1.00  0.00     0.049 A 
ATOM     47  C   UNL A   1      45.714  29.259  27.325  1.00  0.00     0.074 A 
ATOM     48  C   UNL A   1      41.256  32.443  30.537  1.00  0.00     0.029 A 
ATOM     49  N   UNL A   1      42.398  30.904  29.407  1.00  0.00    -0.354 N 
ATOM     50  N   UNL A   1      44.741  29.836  27.988  1.00  0.00    -0.248 NA
ATOM     51  C   UNL A   1      46.861  30.141  27.062  1.00  0.00     0.031 C 
ATOM     52  C   UNL A   1      42.483  32.994  30.154  1.00  0.00     0.029 A 
ATOM     53  C   UNL A   1      43.206  32.027  29.474  1.00  0.00     0.049 A 
ATOM     54  H   UNL A   1      42.642  30.056  28.970  1.00  0.00     0.167 HD
ATOM     55  C   UNL A   1      45.172  31.130  28.256  1.00  0.00     0.074 A 
ATOM     56  C   UNL A   1      46.495  31.256  27.680  1.00  0.00     0.031 C 
ATOM     57  C   UNL A   1      44.533  32.121  28.923  1.00  0.00     0.037 A 
BRANCH  44  58
ATOM     58  C   UNL A   1      38.850  30.637  30.831  1.00  0.00     0.064 A 
ATOM     59  C   UNL A   1      37.746  31.115  30.109  1.00  0.00     0.173 A 
ATOM     60  C   UNL A   1      38.731  30.540  32.226  1.00  0.00     0.173 A 
ATOM     61  F   UNL A   1      37.814  31.241  28.776  1.00  0.00    -0.203 F 
ATOM     62  C   UNL A   1      36.578  31.503  30.762  1.00  0.00     0.198 A 
ATOM     63  C   UNL A   1      37.553  30.902  32.871  1.00  0.00     0.198 A 
ATOM     64  F   UNL A   1      39.757  30.087  32.962  1.00  0.00    -0.203 F 
ATOM     65  F   UNL A   1      35.552  32.000  30.057  1.00  0.00    -0.200 F 
ATOM     66  C   UNL A   1      36.480  31.390  32.141  1.00  0.00     0.200 A 
ATOM     67  F   UNL A   1      37.455  30.780  34.203  1.00  0.00    -0.200 F 
ATOM     68  F   UNL A   1      35.354  31.757  32.767  1.00  0.00    -0.200 F 
ENDBRANCH  44  58
BRANCH  45  69
ATOM     69  C   UNL A   1      47.008  27.391  26.060  1.00  0.00     0.064 A 
ATOM     70  C   UNL A   1      48.096  26.810  26.724  1.00  0.00     0.173 A 
ATOM     71  C   UNL A   1      47.096  27.539  24.668  1.00  0.00     0.173 A 
ATOM     72  F   UNL A   1      48.069  26.671  28.057  1.00  0.00    -0.203 F 
ATOM     73  C   UNL A   1      49.236  26.411  26.027  1.00  0.00     0.198 A 
ATOM     74  C   UNL A   1      48.224  27.115  23.968  1.00  0.00     0.198 A 
ATOM     75  F   UNL A   1      46.083  28.092  23.985  1.00  0.00    -0.203 F 
ATOM     76  F   UNL A   1      50.281  25.901  26.692  1.00  0.00    -0.200 F 
ATOM     77  C   UNL A   1      49.296  26.558  24.650  1.00  0.00     0.200 A 
ATOM     78  F   UNL A   1      48.275  27.250  22.636  1.00  0.00    -0.200 F 
ATOM     79  F   UNL A   1      50.391  26.173  23.980  1.00  0.00    -0.200 F 
ENDBRANCH  45  69
BRANCH  57  80
ATOM     80  C   UNL A   1      45.273  33.409  29.136  1.00  0.00     0.064 A 
ATOM     81  C   UNL A   1      46.132  33.599  30.227  1.00  0.00     0.173 A 
ATOM     82  C   UNL A   1      45.178  34.438  28.186  1.00  0.00     0.173 A 
ATOM     83  F   UNL A   1      46.247  32.650  31.168  1.00  0.00    -0.203 F 
ATOM     84  C   UNL A   1      46.860  34.778  30.366  1.00  0.00     0.198 A 
ATOM     85  C   UNL A   1      45.927  35.604  28.314  1.00  0.00     0.198 A 
ATOM     86  F   UNL A   1      44.375  34.301  27.119  1.00  0.00    -0.203 F 
ATOM     87  F   UNL A   1      47.651  34.952  31.433  1.00  0.00    -0.200 F 
ATOM     88  C   UNL A   1      46.765  35.774  29.405  1.00  0.00     0.200 A 
ATOM     89  F   UNL A   1      45.845  36.558  27.376  1.00  0.00    -0.200 F 
ATOM     90  F   UNL A   1      47.478  36.901  29.533  1.00  0.00    -0.200 F 
ENDBRANCH  57  80
ENDBRANCH  31  32
ENDBRANCH  24  26
ENDBRANCH  23  24
ENDBRANCH  22  23
ENDBRANCH  21  22
ENDBRANCH   1  21
TORSDOF 18
ENDMDL
MODEL 3
REMARK VINA RESULT:     -10.9      2.602      8.599
REMARK SMILES COc1cc(/C=C/C(=O)OCCOCCOC(=O)c2ccc(-c3c4nc(c(-c5c(F)c(F)c(F)c(F)c5F)c5ccc([nH]5)c(-c5c(F)c(F)c(F)c(F)c5F)c5nc(c(-c6c(F)c(F)c(F)c(F)c6F)c6ccc3[nH]6)C=C5)C=C4)cc2)cc(OC)c1O
REMARK SMILES IDX 13 1 12 2 11 3 10 4 8 5 9 6 7 7 6 8 5 9 3 10 4 11 86 12
REMARK SMILES IDX 83 13 82 14 2 15 1 16 87 17 84 19 85 20 14 21 15 22 16 23
REMARK SMILES IDX 17 24 18 25 19 26 20 27 81 28 21 29 80 30 22 31 23 32 24 33
REMARK SMILES IDX 74 34 25 35 79 36 73 37 75 38 26 39 78 40 72 41 71 42 27 44
REMARK SMILES IDX 59 45 39 46 58 47 40 48 43 49 57 50 76 51 41 52 42 53 56 55
REMARK SMILES IDX 77 56 44 57 28 58 29 59 37 60 30 61 31 62 35 63 38 64 32 65
REMARK SMILES IDX 33 66 36 67 34 68 60 69 61 70 69 71 62 72 63 73 67 74 70 75
REMARK SMILES IDX 64 76 65 77 68 78 66 79 45 80 46 81 54 82 47 83 48 84 52 85
REMARK SMILES IDX 55 86 49 87 50 88 53 89 51 90
REMARK H PARENT 87 18 75 43 43 54
REMARK Flexibility Score: inf
ROOT
ATOM      1  O   UNL A   1      41.965  21.204  26.742  1.00  0.00    -0.374 OA
ENDROOT
BRANCH   1   2
ATOM      2  C   UNL A   1      41.003  22.068  26.144  1.00  0.00     0.202 C 
BRANCH   2   3
ATOM      3  C   UNL A   1      39.670  22.195  26.882  1.00  0.00     0.261 C 
BRANCH   3   4
ATOM      4  O   UNL A   1      38.840  23.215  26.300  1.00  0.00    -0.460 OA
BRANCH   4   5
ATOM      5  C   UNL A   1      37.761  22.751  25.627  1.00  0.00     0.330 C 
ATOM      6  O   UNL A   1      37.737  21.803  24.856  1.00  0.00    -0.247 OA
BRANCH   5   7
ATOM      7  C   UNL A   1      36.524  23.478  25.965  1.00  0.00     0.094 C 
ATOM      8  C   UNL A   1      35.429  23.629  25.200  1.00  0.00     0.016 C 
BRANCH   8   9
ATOM      9  C   UNL A   1      34.259  24.387  25.680  1.00  0.00    -0.018 A 
ATOM     10  C   UNL A   1      32.044  24.457  26.722  1.00  0.00     0.165 A 
ATOM     11  C   UNL A   1      33.205  23.763  26.355  1.00  0.00     0.058 A 
ATOM     12  C   UNL A   1      31.954  25.827  26.444  1.00  0.00     0.200 A 
ATOM     13  C   UNL A   1      33.033  26.497  25.838  1.00  0.00     0.165 A 
ATOM     14  C   UNL A   1      34.174  25.765  25.465  1.00  0.00     0.058 A 
BRANCH  10  15
ATOM     15  O   UNL A   1      31.133  23.635  27.329  1.00  0.00    -0.493 OA
ATOM     16  C   UNL A   1      30.276  22.826  26.542  1.00  0.00     0.278 C 
ENDBRANCH  10  15
BRANCH  12  17
ATOM     17  O   UNL A   1      30.810  26.513  26.742  1.00  0.00    -0.502 OA
ATOM     18  H   UNL A   1      30.816  27.160  27.419  1.00  0.00     0.293 HD
ENDBRANCH  12  17
BRANCH  13  19
ATOM     19  O   UNL A   1      33.136  27.823  25.507  1.00  0.00    -0.493 OA
ATOM     20  C   UNL A   1      32.491  28.295  24.334  1.00  0.00     0.278 C 
ENDBRANCH  13  19
ENDBRANCH   8   9
ENDBRANCH   5   7
ENDBRANCH   4   5
ENDBRANCH   3   4
ENDBRANCH   2   3
ENDBRANCH   1   2
BRANCH   1  21
ATOM     21  C   UNL A   1      41.645  19.811  26.790  1.00  0.00     0.202 C 
BRANCH  21  22
ATOM     22  C   UNL A   1      42.634  18.876  26.081  1.00  0.00     0.261 C 
BRANCH  22  23
ATOM     23  O   UNL A   1      43.009  19.381  24.786  1.00  0.00    -0.460 OA
BRANCH  23  24
ATOM     24  C   UNL A   1      44.338  19.508  24.572  1.00  0.00     0.338 C 
ATOM     25  O   UNL A   1      45.107  18.660  24.134  1.00  0.00    -0.246 OA
BRANCH  24  26
ATOM     26  C   UNL A   1      44.738  20.911  24.775  1.00  0.00     0.060 A 
ATOM     27  C   UNL A   1      45.421  21.238  25.956  1.00  0.00     0.016 A 
ATOM     28  C   UNL A   1      44.400  21.902  23.853  1.00  0.00     0.016 A 
ATOM     29  C   UNL A   1      45.732  22.568  26.239  1.00  0.00     0.010 A 
ATOM     30  C   UNL A   1      44.700  23.234  24.144  1.00  0.00     0.010 A 
ATOM     31  C   UNL A   1      45.337  23.576  25.352  1.00  0.00    -0.014 A 
BRANCH  31  32
ATOM     32  C   UNL A   1      45.432  25.003  25.737  1.00  0.00     0.031 A 
ATOM     33  C   UNL A   1      46.772  25.677  25.661  1.00  0.00     0.074 A 
ATOM     34  C   UNL A   1      44.358  25.676  26.183  1.00  0.00     0.049 A 
ATOM     35  N   UNL A   1      47.142  26.849  26.107  1.00  0.00    -0.248 NA
ATOM     36  C   UNL A   1      47.845  24.916  25.000  1.00  0.00     0.031 C 
ATOM     37  C   UNL A   1      42.998  25.148  26.250  1.00  0.00     0.029 A 
ATOM     38  N   UNL A   1      44.254  26.946  26.692  1.00  0.00    -0.354 N 
ATOM     39  C   UNL A   1      48.493  26.957  25.801  1.00  0.00     0.074 A 
ATOM     40  C   UNL A   1      48.882  25.728  25.146  1.00  0.00     0.031 C 
ATOM     41  C   UNL A   1      42.197  26.078  26.799  1.00  0.00     0.029 A 
ATOM     42  C   UNL A   1      42.999  27.244  27.163  1.00  0.00     0.049 A 
ATOM     43  H   UNL A   1      45.006  27.581  26.719  1.00  0.00     0.167 HD
ATOM     44  C   UNL A   1      49.331  27.991  26.051  1.00  0.00     0.037 A 
ATOM     45  C   UNL A   1      42.563  28.322  27.846  1.00  0.00     0.037 A 
ATOM     46  C   UNL A   1      48.935  29.211  26.701  1.00  0.00     0.049 A 
ATOM     47  C   UNL A   1      43.530  29.429  28.176  1.00  0.00     0.074 A 
ATOM     48  C   UNL A   1      49.705  30.322  26.994  1.00  0.00     0.029 A 
ATOM     49  N   UNL A   1      47.654  29.478  27.162  1.00  0.00    -0.354 N 
ATOM     50  N   UNL A   1      44.805  29.529  27.886  1.00  0.00    -0.248 NA
ATOM     51  C   UNL A   1      43.000  30.574  28.931  1.00  0.00     0.031 C 
ATOM     52  C   UNL A   1      48.902  31.243  27.673  1.00  0.00     0.029 A 
ATOM     53  C   UNL A   1      47.617  30.729  27.754  1.00  0.00     0.049 A 
ATOM     54  H   UNL A   1      46.886  28.867  27.080  1.00  0.00     0.167 HD
ATOM     55  C   UNL A   1      45.218  30.759  28.384  1.00  0.00     0.074 A 
ATOM     56  C   UNL A   1      44.057  31.370  28.999  1.00  0.00     0.031 C 
ATOM     57  C   UNL A   1      46.444  31.333  28.331  1.00  0.00     0.037 A 
BRANCH  44  58
ATOM     58  C   UNL A   1      50.768  27.831  25.651  1.00  0.00     0.064 A 
ATOM     59  C   UNL A   1      51.754  27.450  26.574  1.00  0.00     0.173 A 
ATOM     60  C   UNL A   1      51.158  28.031  24.318  1.00  0.00     0.173 A 
ATOM     61  F   UNL A   1      51.435  27.261  27.863  1.00  0.00    -0.203 F 
ATOM     62  C   UNL A   1      53.081  27.298  26.181  1.00  0.00     0.198 A 
ATOM     63  C   UNL A   1      52.480  27.851  23.924  1.00  0.00     0.198 A 
ATOM     64  F   UNL A   1      50.253  28.393  23.397  1.00  0.00    -0.203 F 
ATOM     65  F   UNL A   1      54.015  26.979  27.088  1.00  0.00    -0.200 F 
ATOM     66  C   UNL A   1      53.442  27.492  24.855  1.00  0.00     0.200 A 
ATOM     67  F   UNL A   1      52.824  28.026  22.639  1.00  0.00    -0.200 F 
ATOM     68  F   UNL A   1      54.718  27.339  24.477  1.00  0.00    -0.200 F 
ENDBRANCH  44  58
BRANCH  45  69
ATOM     69  C   UNL A   1      41.145  28.397  28.286  1.00  0.00     0.064 A 
ATOM     70  C   UNL A   1      40.164  28.964  27.463  1.00  0.00     0.173 A 
ATOM     71  C   UNL A   1      40.746  27.918  29.543  1.00  0.00     0.173 A 
ATOM     72  F   UNL A   1      40.501  29.459  26.264  1.00  0.00    -0.203 F 
ATOM     73  C   UNL A   1      38.840  29.065  27.886  1.00  0.00     0.198 A 
ATOM     74  C   UNL A   1      39.417  27.994  29.954  1.00  0.00     0.198 A 
ATOM     75  F   UNL A   1      41.647  27.369  30.371  1.00  0.00    -0.203 F 
ATOM     76  F   UNL A   1      37.930  29.652  27.097  1.00  0.00    -0.200 F 
ATOM     77  C   UNL A   1      38.466  28.574  29.128  1.00  0.00     0.200 A 
ATOM     78  F   UNL A   1      39.058  27.510  31.151  1.00  0.00    -0.200 F 
ATOM     79  F   UNL A   1      37.193  28.670  29.533  1.00  0.00    -0.200 F 
ENDBRANCH  45  69
BRANCH  57  80
ATOM     80  C   UNL A   1      46.591  32.719  28.887  1.00  0.00     0.064 A 
ATOM     81  C   UNL A   1      46.971  32.949  30.216  1.00  0.00     0.173 A 
ATOM     82  C   UNL A   1      46.423  33.832  28.048  1.00  0.00     0.173 A 
ATOM     83  F   UNL A   1      47.132  31.919  31.060  1.00  0.00    -0.203 F 
ATOM     84  C   UNL A   1      47.166  34.244  30.689  1.00  0.00     0.198 A 
ATOM     85  C   UNL A   1      46.644  35.124  28.517  1.00  0.00     0.198 A 
ATOM     86  F   UNL A   1      46.066  33.664  26.765  1.00  0.00    -0.203 F 
ATOM     87  F   UNL A   1      47.499  34.444  31.971  1.00  0.00    -0.200 F 
ATOM     88  C   UNL A   1      47.013  35.329  29.837  1.00  0.00     0.200 A 
ATOM     89  F   UNL A   1      46.510  36.168  27.688  1.00  0.00    -0.200 F 
ATOM     90  F   UNL A   1      47.216  36.573  30.290  1.00  0.00    -0.200 F 
ENDBRANCH  57  80
ENDBRANCH  31  32
ENDBRANCH  24  26
ENDBRANCH  23  24
ENDBRANCH  22  23
ENDBRANCH  21  22
ENDBRANCH   1  21
TORSDOF 18
ENDMDL
