MODEL 1
REMARK VINA RESULT:     -12.1      0.000      0.000
REMARK SMILES COc1cccc(C(=O)N2[C@@H](C(=O)OCCOCCOC(=O)c3ccc(-c4c5nc(c(-c6c(F)c(F)c(F)c(F)c6F)c6ccc([nH]6)c(-c6c(F)c(F)c(F)c(F)c6F)c6nc(c(-c7c(F)c(F)c(F)c(F)c7F)c7ccc4[nH]7)C=C6)C=C5)cc3)CS[C@@H]2c2ccccc2Cl)c1
REMARK SMILES IDX 16 1 15 2 14 3 12 4 13 5 11 6 10 7 88 8 86 9 87 10 8 11 9 12
REMARK SMILES IDX 7 13 3 14 4 15 96 16 5 17 6 18 2 19 1 20 89 21 90 22 94 23
REMARK SMILES IDX 91 24 93 25 95 26 92 27 17 28 18 29 19 30 20 31 21 32 22 33
REMARK SMILES IDX 23 34 24 35 85 36 25 37 84 38 26 39 27 40 28 41 78 42 29 43
REMARK SMILES IDX 83 44 77 45 79 46 30 47 82 48 76 49 75 50 31 52 63 53 43 54
REMARK SMILES IDX 62 55 44 56 47 57 61 58 80 59 45 60 46 61 60 63 81 64 48 65
REMARK SMILES IDX 32 66 33 67 41 68 34 69 35 70 39 71 42 72 36 73 37 74 40 75
REMARK SMILES IDX 38 76 64 77 65 78 73 79 66 80 67 81 71 82 74 83 68 84 69 85
REMARK SMILES IDX 72 86 70 87 49 88 50 89 58 90 51 91 52 92 56 93 59 94 53 95
REMARK SMILES IDX 54 96 57 97 55 98
REMARK H PARENT 79 51 47 62
REMARK Flexibility Score: inf
ROOT
ATOM      1  C   UNL A   1      39.808  20.685  26.099  1.00  0.00     0.202 C 
ENDROOT
BRANCH   1   2
ATOM      2  C   UNL A   1      39.121  22.044  26.005  1.00  0.00     0.261 C 
BRANCH   2   3
ATOM      3  O   UNL A   1      37.902  21.934  25.255  1.00  0.00    -0.462 OA
BRANCH   3   4
ATOM      4  C   UNL A   1      36.865  22.677  25.704  1.00  0.00     0.329 C 
ATOM      5  O   UNL A   1      36.973  23.813  26.164  1.00  0.00    -0.250 OA
BRANCH   4   6
ATOM      6  C   UNL A   1      35.487  22.046  25.471  1.00  0.00     0.206 C 
ATOM      7  N   UNL A   1      34.385  22.664  24.695  1.00  0.00    -0.308 N 
ATOM      8  C   UNL A   1      33.080  22.096  25.032  1.00  0.00     0.176 C 
ATOM      9  C   UNL A   1      34.926  21.813  26.897  1.00  0.00     0.109 C 
ATOM     10  S   UNL A   1      33.177  22.318  26.863  1.00  0.00    -0.129 SA
BRANCH   7  11
ATOM     11  C   UNL A   1      34.627  23.493  23.610  1.00  0.00     0.255 C 
ATOM     12  O   UNL A   1      35.481  23.234  22.763  1.00  0.00    -0.269 OA
BRANCH  11  13
ATOM     13  C   UNL A   1      33.899  24.799  23.489  1.00  0.00     0.043 A 
ATOM     14  C   UNL A   1      33.258  26.997  24.319  1.00  0.00     0.119 A 
ATOM     15  C   UNL A   1      32.591  27.247  23.119  1.00  0.00     0.046 A 
ATOM     16  C   UNL A   1      33.930  25.783  24.496  1.00  0.00     0.060 A 
ATOM     17  C   UNL A   1      32.608  26.305  22.090  1.00  0.00     0.005 A 
ATOM     18  C   UNL A   1      33.261  25.086  22.275  1.00  0.00     0.014 A 
BRANCH  14  19
ATOM     19  O   UNL A   1      33.141  27.992  25.249  1.00  0.00    -0.497 OA
ATOM     20  C   UNL A   1      33.167  29.330  24.770  1.00  0.00     0.278 C 
ENDBRANCH  14  19
ENDBRANCH  11  13
ENDBRANCH   7  11
BRANCH   8  21
ATOM     21  C   UNL A   1      32.825  20.609  24.704  1.00  0.00     0.003 A 
ATOM     22  C   UNL A   1      32.896  19.686  25.782  1.00  0.00     0.008 A 
ATOM     23  C   UNL A   1      32.514  20.056  23.447  1.00  0.00     0.047 A 
ATOM     24  C   UNL A   1      32.836  18.301  25.595  1.00  0.00     0.001 A 
ATOM     25  C   UNL A   1      32.488  18.663  23.255  1.00  0.00     0.021 A 
ATOM     26  Cl  UNL A   1      32.073  20.979  22.058  1.00  0.00    -0.084 Cl
ATOM     27  C   UNL A   1      32.673  17.787  24.319  1.00  0.00     0.002 A 
ENDBRANCH   8  21
ENDBRANCH   4   6
ENDBRANCH   3   4
ENDBRANCH   2   3
ENDBRANCH   1   2
BRANCH   1  28
ATOM     28  O   UNL A   1      41.058  20.693  26.789  1.00  0.00    -0.374 OA
BRANCH  28  29
ATOM     29  C   UNL A   1      42.185  20.158  26.094  1.00  0.00     0.202 C 
BRANCH  29  30
ATOM     30  C   UNL A   1      43.249  21.180  25.688  1.00  0.00     0.261 C 
BRANCH  30  31
ATOM     31  O   UNL A   1      42.675  22.336  25.046  1.00  0.00    -0.460 OA
BRANCH  31  32
ATOM     32  C   UNL A   1      43.444  23.448  25.062  1.00  0.00     0.338 C 
ATOM     33  O   UNL A   1      44.406  23.699  24.341  1.00  0.00    -0.246 OA
BRANCH  32  34
ATOM     34  C   UNL A   1      42.897  24.435  26.006  1.00  0.00     0.060 A 
ATOM     35  C   UNL A   1      43.462  25.714  26.044  1.00  0.00     0.016 A 
ATOM     36  C   UNL A   1      41.905  24.077  26.919  1.00  0.00     0.016 A 
ATOM     37  C   UNL A   1      43.042  26.637  27.006  1.00  0.00     0.010 A 
ATOM     38  C   UNL A   1      41.478  25.004  27.877  1.00  0.00     0.010 A 
ATOM     39  C   UNL A   1      42.058  26.284  27.943  1.00  0.00    -0.014 A 
BRANCH  39  40
ATOM     40  C   UNL A   1      41.703  27.216  29.046  1.00  0.00     0.031 A 
ATOM     41  C   UNL A   1      42.522  27.224  30.309  1.00  0.00     0.074 A 
ATOM     42  C   UNL A   1      40.662  28.061  28.922  1.00  0.00     0.049 A 
ATOM     43  N   UNL A   1      42.350  27.915  31.408  1.00  0.00    -0.248 NA
ATOM     44  C   UNL A   1      43.691  26.330  30.339  1.00  0.00     0.031 C 
ATOM     45  C   UNL A   1      39.796  28.168  27.749  1.00  0.00     0.029 A 
ATOM     46  N   UNL A   1      40.152  28.986  29.802  1.00  0.00    -0.354 N 
ATOM     47  C   UNL A   1      43.381  27.539  32.259  1.00  0.00     0.074 A 
ATOM     48  C   UNL A   1      44.156  26.533  31.564  1.00  0.00     0.031 C 
ATOM     49  C   UNL A   1      38.857  29.101  27.984  1.00  0.00     0.029 A 
ATOM     50  C   UNL A   1      39.036  29.634  29.332  1.00  0.00     0.049 A 
ATOM     51  H   UNL A   1      40.549  29.166  30.684  1.00  0.00     0.167 HD
ATOM     52  C   UNL A   1      43.666  28.000  33.500  1.00  0.00     0.037 A 
ATOM     53  C   UNL A   1      38.234  30.537  29.932  1.00  0.00     0.037 A 
ATOM     54  C   UNL A   1      42.908  29.009  34.193  1.00  0.00     0.049 A 
ATOM     55  C   UNL A   1      38.539  30.987  31.338  1.00  0.00     0.074 A 
ATOM     56  C   UNL A   1      43.139  29.556  35.443  1.00  0.00     0.029 A 
ATOM     57  N   UNL A   1      41.771  29.623  33.692  1.00  0.00    -0.354 N 
ATOM     58  N   UNL A   1      39.531  30.644  32.122  1.00  0.00    -0.248 NA
ATOM     59  C   UNL A   1      37.606  31.951  31.944  1.00  0.00     0.031 C 
ATOM     60  C   UNL A   1      42.121  30.474  35.716  1.00  0.00     0.029 A 
ATOM     61  C   UNL A   1      41.277  30.528  34.619  1.00  0.00     0.049 A 
ATOM     62  H   UNL A   1      41.372  29.445  32.810  1.00  0.00     0.167 HD
ATOM     63  C   UNL A   1      39.353  31.357  33.301  1.00  0.00     0.074 A 
ATOM     64  C   UNL A   1      38.169  32.170  33.125  1.00  0.00     0.031 C 
ATOM     65  C   UNL A   1      40.100  31.334  34.431  1.00  0.00     0.037 A 
BRANCH  52  66
ATOM     66  C   UNL A   1      44.858  27.421  34.201  1.00  0.00     0.064 A 
ATOM     67  C   UNL A   1      46.124  28.014  34.099  1.00  0.00     0.173 A 
ATOM     68  C   UNL A   1      44.719  26.301  35.036  1.00  0.00     0.173 A 
ATOM     69  F   UNL A   1      46.308  29.080  33.306  1.00  0.00    -0.203 F 
ATOM     70  C   UNL A   1      47.214  27.499  34.798  1.00  0.00     0.198 A 
ATOM     71  C   UNL A   1      45.806  25.803  35.751  1.00  0.00     0.198 A 
ATOM     72  F   UNL A   1      43.526  25.702  35.173  1.00  0.00    -0.203 F 
ATOM     73  F   UNL A   1      48.421  28.064  34.663  1.00  0.00    -0.200 F 
ATOM     74  C   UNL A   1      47.051  26.400  35.629  1.00  0.00     0.200 A 
ATOM     75  F   UNL A   1      45.645  24.749  36.562  1.00  0.00    -0.200 F 
ATOM     76  F   UNL A   1      48.098  25.914  36.310  1.00  0.00    -0.200 F 
ENDBRANCH  52  66
BRANCH  53  77
ATOM     77  C   UNL A   1      37.040  31.064  29.222  1.00  0.00     0.064 A 
ATOM     78  C   UNL A   1      35.917  30.255  28.995  1.00  0.00     0.173 A 
ATOM     79  C   UNL A   1      37.016  32.370  28.712  1.00  0.00     0.173 A 
ATOM     80  F   UNL A   1      35.906  28.987  29.433  1.00  0.00    -0.203 F 
ATOM     81  C   UNL A   1      34.827  30.726  28.267  1.00  0.00     0.198 A 
ATOM     82  C   UNL A   1      35.914  32.850  28.008  1.00  0.00     0.198 A 
ATOM     83  F   UNL A   1      38.070  33.181  28.894  1.00  0.00    -0.203 F 
ATOM     84  F   UNL A   1      33.791  29.914  28.015  1.00  0.00    -0.200 F 
ATOM     85  C   UNL A   1      34.824  32.024  27.778  1.00  0.00     0.200 A 
ATOM     86  F   UNL A   1      35.914  34.105  27.541  1.00  0.00    -0.200 F 
ATOM     87  F   UNL A   1      33.779  32.474  27.070  1.00  0.00    -0.200 F 
ENDBRANCH  53  77
BRANCH  65  88
ATOM     88  C   UNL A   1      39.672  32.223  35.560  1.00  0.00     0.064 A 
ATOM     89  C   UNL A   1      40.153  33.535  35.679  1.00  0.00     0.173 A 
ATOM     90  C   UNL A   1      38.734  31.778  36.504  1.00  0.00     0.173 A 
ATOM     91  F   UNL A   1      41.063  34.001  34.810  1.00  0.00    -0.203 F 
ATOM     92  C   UNL A   1      39.725  34.362  36.713  1.00  0.00     0.198 A 
ATOM     93  C   UNL A   1      38.290  32.616  37.523  1.00  0.00     0.198 A 
ATOM     94  F   UNL A   1      38.239  30.533  36.430  1.00  0.00    -0.203 F 
ATOM     95  F   UNL A   1      40.226  35.601  36.830  1.00  0.00    -0.200 F 
ATOM     96  C   UNL A   1      38.789  33.906  37.630  1.00  0.00     0.200 A 
ATOM     97  F   UNL A   1      37.377  32.178  38.400  1.00  0.00    -0.200 F 
ATOM     98  F   UNL A   1      38.371  34.707  38.619  1.00  0.00    -0.200 F 
ENDBRANCH  65  88
ENDBRANCH  39  40
ENDBRANCH  32  34
ENDBRANCH  31  32
ENDBRANCH  30  31
ENDBRANCH  29  30
ENDBRANCH  28  29
ENDBRANCH   1  28
TORSDOF 18
ENDMDL
MODEL 2
REMARK VINA RESULT:     -11.9      3.185      9.078
REMARK SMILES COc1cccc(C(=O)N2[C@@H](C(=O)OCCOCCOC(=O)c3ccc(-c4c5nc(c(-c6c(F)c(F)c(F)c(F)c6F)c6ccc([nH]6)c(-c6c(F)c(F)c(F)c(F)c6F)c6nc(c(-c7c(F)c(F)c(F)c(F)c7F)c7ccc4[nH]7)C=C6)C=C5)cc3)CS[C@@H]2c2ccccc2Cl)c1
REMARK SMILES IDX 16 1 15 2 14 3 12 4 13 5 11 6 10 7 88 8 86 9 87 10 8 11 9 12
REMARK SMILES IDX 7 13 3 14 4 15 96 16 5 17 6 18 2 19 1 20 89 21 90 22 94 23
REMARK SMILES IDX 91 24 93 25 95 26 92 27 17 28 18 29 19 30 20 31 21 32 22 33
REMARK SMILES IDX 23 34 24 35 85 36 25 37 84 38 26 39 27 40 28 41 78 42 29 43
REMARK SMILES IDX 83 44 77 45 79 46 30 47 82 48 76 49 75 50 31 52 63 53 43 54
REMARK SMILES IDX 62 55 44 56 47 57 61 58 80 59 45 60 46 61 60 63 81 64 48 65
REMARK SMILES IDX 32 66 33 67 41 68 34 69 35 70 39 71 42 72 36 73 37 74 40 75
REMARK SMILES IDX 38 76 64 77 65 78 73 79 66 80 67 81 71 82 74 83 68 84 69 85
REMARK SMILES IDX 72 86 70 87 49 88 50 89 58 90 51 91 52 92 56 93 59 94 53 95
REMARK SMILES IDX 54 96 57 97 55 98
REMARK H PARENT 79 51 47 62
REMARK Flexibility Score: inf
ROOT
ATOM      1  C   UNL A   1      34.764  30.256  27.245  1.00  0.00     0.202 C 
ENDROOT
BRANCH   1   2
ATOM      2  C   UNL A   1      34.121  28.964  27.742  1.00  0.00     0.261 C 
BRANCH   2   3
ATOM      3  O   UNL A   1      33.541  28.243  26.645  1.00  0.00    -0.462 OA
BRANCH   3   4
ATOM      4  C   UNL A   1      32.209  28.018  26.725  1.00  0.00     0.329 C 
ATOM      5  O   UNL A   1      31.601  27.829  27.777  1.00  0.00    -0.250 OA
BRANCH   4   6
ATOM      6  C   UNL A   1      31.463  28.150  25.392  1.00  0.00     0.206 C 
ATOM      7  N   UNL A   1      31.096  27.021  24.504  1.00  0.00    -0.308 N 
ATOM      8  C   UNL A   1      30.843  27.453  23.130  1.00  0.00     0.176 C 
ATOM      9  C   UNL A   1      32.360  29.086  24.542  1.00  0.00     0.109 C 
ATOM     10  S   UNL A   1      32.419  28.379  22.865  1.00  0.00    -0.129 SA
BRANCH   7  11
ATOM     11  C   UNL A   1      30.790  25.764  25.005  1.00  0.00     0.255 C 
ATOM     12  O   UNL A   1      29.914  25.590  25.849  1.00  0.00    -0.269 OA
BRANCH  11  13
ATOM     13  C   UNL A   1      31.600  24.573  24.583  1.00  0.00     0.043 A 
ATOM     14  C   UNL A   1      33.498  23.065  24.810  1.00  0.00     0.119 A 
ATOM     15  C   UNL A   1      32.979  22.271  23.786  1.00  0.00     0.046 A 
ATOM     16  C   UNL A   1      32.798  24.204  25.223  1.00  0.00     0.060 A 
ATOM     17  C   UNL A   1      31.761  22.593  23.189  1.00  0.00     0.005 A 
ATOM     18  C   UNL A   1      31.073  23.740  23.587  1.00  0.00     0.014 A 
BRANCH  14  19
ATOM     19  O   UNL A   1      34.709  22.650  25.290  1.00  0.00    -0.497 OA
ATOM     20  C   UNL A   1      34.808  21.295  25.707  1.00  0.00     0.278 C 
ENDBRANCH  14  19
ENDBRANCH  11  13
ENDBRANCH   7  11
BRANCH   8  21
ATOM     21  C   UNL A   1      29.642  28.388  22.868  1.00  0.00     0.003 A 
ATOM     22  C   UNL A   1      29.896  29.580  22.138  1.00  0.00     0.008 A 
ATOM     23  C   UNL A   1      28.306  28.188  23.264  1.00  0.00     0.047 A 
ATOM     24  C   UNL A   1      28.934  30.580  21.967  1.00  0.00     0.001 A 
ATOM     25  C   UNL A   1      27.348  29.209  23.121  1.00  0.00     0.021 A 
ATOM     26  Cl  UNL A   1      27.684  26.703  23.884  1.00  0.00    -0.084 Cl
ATOM     27  C   UNL A   1      27.666  30.410  22.497  1.00  0.00     0.002 A 
ENDBRANCH   8  21
ENDBRANCH   4   6
ENDBRANCH   3   4
ENDBRANCH   2   3
ENDBRANCH   1   2
BRANCH   1  28
ATOM     28  O   UNL A   1      34.119  31.453  27.681  1.00  0.00    -0.374 OA
BRANCH  28  29
ATOM     29  C   UNL A   1      32.812  31.707  27.166  1.00  0.00     0.202 C 
BRANCH  29  30
ATOM     30  C   UNL A   1      32.170  33.017  27.626  1.00  0.00     0.261 C 
BRANCH  30  31
ATOM     31  O   UNL A   1      33.051  34.145  27.450  1.00  0.00    -0.460 OA
BRANCH  31  32
ATOM     32  C   UNL A   1      33.221  34.922  28.544  1.00  0.00     0.338 C 
ATOM     33  O   UNL A   1      32.507  35.849  28.916  1.00  0.00    -0.246 OA
BRANCH  32  34
ATOM     34  C   UNL A   1      34.347  34.430  29.351  1.00  0.00     0.060 A 
ATOM     35  C   UNL A   1      35.644  34.544  28.838  1.00  0.00     0.016 A 
ATOM     36  C   UNL A   1      34.125  33.767  30.558  1.00  0.00     0.016 A 
ATOM     37  C   UNL A   1      36.722  33.984  29.529  1.00  0.00     0.010 A 
ATOM     38  C   UNL A   1      35.206  33.214  31.254  1.00  0.00     0.010 A 
ATOM     39  C   UNL A   1      36.510  33.298  30.735  1.00  0.00    -0.014 A 
BRANCH  39  40
ATOM     40  C   UNL A   1      37.635  32.591  31.403  1.00  0.00     0.031 A 
ATOM     41  C   UNL A   1      38.318  31.446  30.704  1.00  0.00     0.074 A 
ATOM     42  C   UNL A   1      38.056  32.971  32.625  1.00  0.00     0.049 A 
ATOM     43  N   UNL A   1      39.276  30.663  31.131  1.00  0.00    -0.248 NA
ATOM     44  C   UNL A   1      37.856  31.140  29.340  1.00  0.00     0.031 C 
ATOM     45  C   UNL A   1      37.495  34.071  33.406  1.00  0.00     0.029 A 
ATOM     46  N   UNL A   1      39.051  32.464  33.425  1.00  0.00    -0.354 N 
ATOM     47  C   UNL A   1      39.530  29.773  30.096  1.00  0.00     0.074 A 
ATOM     48  C   UNL A   1      38.601  30.089  29.031  1.00  0.00     0.031 C 
ATOM     49  C   UNL A   1      38.150  34.153  34.578  1.00  0.00     0.029 A 
ATOM     50  C   UNL A   1      39.153  33.094  34.642  1.00  0.00     0.049 A 
ATOM     51  H   UNL A   1      39.636  31.720  33.152  1.00  0.00     0.167 HD
ATOM     52  C   UNL A   1      40.461  28.792  30.030  1.00  0.00     0.037 A 
ATOM     53  C   UNL A   1      39.949  32.828  35.697  1.00  0.00     0.037 A 
ATOM     54  C   UNL A   1      41.397  28.479  31.079  1.00  0.00     0.049 A 
ATOM     55  C   UNL A   1      40.934  31.690  35.621  1.00  0.00     0.074 A 
ATOM     56  C   UNL A   1      42.392  27.518  31.090  1.00  0.00     0.029 A 
ATOM     57  N   UNL A   1      41.450  29.124  32.305  1.00  0.00    -0.354 N 
ATOM     58  N   UNL A   1      41.181  30.872  34.628  1.00  0.00    -0.248 NA
ATOM     59  C   UNL A   1      41.749  31.436  36.820  1.00  0.00     0.031 C 
ATOM     60  C   UNL A   1      43.025  27.555  32.336  1.00  0.00     0.029 A 
ATOM     61  C   UNL A   1      42.449  28.566  33.087  1.00  0.00     0.049 A 
ATOM     62  H   UNL A   1      40.867  29.868  32.579  1.00  0.00     0.167 HD
ATOM     63  C   UNL A   1      42.186  30.022  35.072  1.00  0.00     0.074 A 
ATOM     64  C   UNL A   1      42.520  30.434  36.418  1.00  0.00     0.031 C 
ATOM     65  C   UNL A   1      42.775  28.988  34.424  1.00  0.00     0.037 A 
BRANCH  52  66
ATOM     66  C   UNL A   1      40.524  27.973  28.776  1.00  0.00     0.064 A 
ATOM     67  C   UNL A   1      41.323  28.361  27.691  1.00  0.00     0.173 A 
ATOM     68  C   UNL A   1      39.830  26.757  28.682  1.00  0.00     0.173 A 
ATOM     69  F   UNL A   1      41.997  29.520  27.730  1.00  0.00    -0.203 F 
ATOM     70  C   UNL A   1      41.417  27.567  26.551  1.00  0.00     0.198 A 
ATOM     71  C   UNL A   1      39.945  25.954  27.549  1.00  0.00     0.198 A 
ATOM     72  F   UNL A   1      39.057  26.339  29.695  1.00  0.00    -0.203 F 
ATOM     73  F   UNL A   1      42.164  27.971  25.515  1.00  0.00    -0.200 F 
ATOM     74  C   UNL A   1      40.734  26.361  26.485  1.00  0.00     0.200 A 
ATOM     75  F   UNL A   1      39.294  24.784  27.491  1.00  0.00    -0.200 F 
ATOM     76  F   UNL A   1      40.835  25.592  25.392  1.00  0.00    -0.200 F 
ENDBRANCH  52  66
BRANCH  53  77
ATOM     77  C   UNL A   1      39.835  33.635  36.940  1.00  0.00     0.064 A 
ATOM     78  C   UNL A   1      38.887  33.321  37.923  1.00  0.00     0.173 A 
ATOM     79  C   UNL A   1      40.637  34.767  37.146  1.00  0.00     0.173 A 
ATOM     80  F   UNL A   1      38.072  32.268  37.755  1.00  0.00    -0.203 F 
ATOM     81  C   UNL A   1      38.731  34.119  39.054  1.00  0.00     0.198 A 
ATOM     82  C   UNL A   1      40.501  35.549  38.290  1.00  0.00     0.198 A 
ATOM     83  F   UNL A   1      41.553  35.117  36.230  1.00  0.00    -0.203 F 
ATOM     84  F   UNL A   1      37.779  33.829  39.951  1.00  0.00    -0.200 F 
ATOM     85  C   UNL A   1      39.541  35.230  39.239  1.00  0.00     0.200 A 
ATOM     86  F   UNL A   1      41.287  36.619  38.466  1.00  0.00    -0.200 F 
ATOM     87  F   UNL A   1      39.385  36.003  40.323  1.00  0.00    -0.200 F 
ENDBRANCH  53  77
BRANCH  65  88
ATOM     88  C   UNL A   1      43.850  28.238  35.153  1.00  0.00     0.064 A 
ATOM     89  C   UNL A   1      45.188  28.655  35.110  1.00  0.00     0.173 A 
ATOM     90  C   UNL A   1      43.533  27.121  35.941  1.00  0.00     0.173 A 
ATOM     91  F   UNL A   1      45.543  29.709  34.359  1.00  0.00    -0.203 F 
ATOM     92  C   UNL A   1      46.173  27.970  35.817  1.00  0.00     0.198 A 
ATOM     93  C   UNL A   1      44.517  26.453  36.665  1.00  0.00     0.198 A 
ATOM     94  F   UNL A   1      42.266  26.686  36.019  1.00  0.00    -0.203 F 
ATOM     95  F   UNL A   1      47.452  28.364  35.732  1.00  0.00    -0.200 F 
ATOM     96  C   UNL A   1      45.837  26.875  36.599  1.00  0.00     0.200 A 
ATOM     97  F   UNL A   1      44.189  25.403  37.429  1.00  0.00    -0.200 F 
ATOM     98  F   UNL A   1      46.785  26.223  37.285  1.00  0.00    -0.200 F 
ENDBRANCH  65  88
ENDBRANCH  39  40
ENDBRANCH  32  34
ENDBRANCH  31  32
ENDBRANCH  30  31
ENDBRANCH  29  30
ENDBRANCH  28  29
ENDBRANCH   1  28
TORSDOF 18
ENDMDL
MODEL 3
REMARK VINA RESULT:     -11.9      4.559      8.740
REMARK SMILES COc1cccc(C(=O)N2[C@@H](C(=O)OCCOCCOC(=O)c3ccc(-c4c5nc(c(-c6c(F)c(F)c(F)c(F)c6F)c6ccc([nH]6)c(-c6c(F)c(F)c(F)c(F)c6F)c6nc(c(-c7c(F)c(F)c(F)c(F)c7F)c7ccc4[nH]7)C=C6)C=C5)cc3)CS[C@@H]2c2ccccc2Cl)c1
REMARK SMILES IDX 16 1 15 2 14 3 12 4 13 5 11 6 10 7 88 8 86 9 87 10 8 11 9 12
REMARK SMILES IDX 7 13 3 14 4 15 96 16 5 17 6 18 2 19 1 20 89 21 90 22 94 23
REMARK SMILES IDX 91 24 93 25 95 26 92 27 17 28 18 29 19 30 20 31 21 32 22 33
REMARK SMILES IDX 23 34 24 35 85 36 25 37 84 38 26 39 27 40 28 41 78 42 29 43
REMARK SMILES IDX 83 44 77 45 79 46 30 47 82 48 76 49 75 50 31 52 63 53 43 54
REMARK SMILES IDX 62 55 44 56 47 57 61 58 80 59 45 60 46 61 60 63 81 64 48 65
REMARK SMILES IDX 32 66 33 67 41 68 34 69 35 70 39 71 42 72 36 73 37 74 40 75
REMARK SMILES IDX 38 76 64 77 65 78 73 79 66 80 67 81 71 82 74 83 68 84 69 85
REMARK SMILES IDX 72 86 70 87 49 88 50 89 58 90 51 91 52 92 56 93 59 94 53 95
REMARK SMILES IDX 54 96 57 97 55 98
REMARK H PARENT 79 51 47 62
REMARK Flexibility Score: inf
ROOT
ATOM      1  C   UNL A   1      38.883  22.813  26.604  1.00  0.00     0.202 C 
ENDROOT
BRANCH   1   2
ATOM      2  C   UNL A   1      38.131  23.984  25.978  1.00  0.00     0.261 C 
BRANCH   2   3
ATOM      3  O   UNL A   1      36.736  23.669  25.853  1.00  0.00    -0.462 OA
BRANCH   3   4
ATOM      4  C   UNL A   1      36.351  23.165  24.659  1.00  0.00     0.329 C 
ATOM      5  O   UNL A   1      36.967  23.326  23.606  1.00  0.00    -0.250 OA
BRANCH   4   6
ATOM      6  C   UNL A   1      35.130  22.239  24.727  1.00  0.00     0.206 C 
ATOM      7  N   UNL A   1      33.722  22.671  24.555  1.00  0.00    -0.308 N 
ATOM      8  C   UNL A   1      32.774  21.719  25.132  1.00  0.00     0.176 C 
ATOM      9  C   UNL A   1      35.211  21.601  26.137  1.00  0.00     0.109 C 
ATOM     10  S   UNL A   1      33.522  21.612  26.818  1.00  0.00    -0.129 SA
BRANCH   7  11
ATOM     11  C   UNL A   1      33.374  23.723  23.721  1.00  0.00     0.255 C 
ATOM     12  O   UNL A   1      33.663  23.736  22.526  1.00  0.00    -0.269 OA
BRANCH  11  13
ATOM     13  C   UNL A   1      32.699  24.937  24.289  1.00  0.00     0.043 A 
ATOM     14  C   UNL A   1      30.942  26.623  24.295  1.00  0.00     0.119 A 
ATOM     15  C   UNL A   1      31.454  27.140  25.487  1.00  0.00     0.046 A 
ATOM     16  C   UNL A   1      31.551  25.510  23.708  1.00  0.00     0.060 A 
ATOM     17  C   UNL A   1      32.551  26.541  26.104  1.00  0.00     0.005 A 
ATOM     18  C   UNL A   1      33.171  25.443  25.507  1.00  0.00     0.014 A 
BRANCH  14  19
ATOM     19  O   UNL A   1      29.881  27.320  23.786  1.00  0.00    -0.497 OA
ATOM     20  C   UNL A   1      28.602  26.706  23.876  1.00  0.00     0.278 C 
ENDBRANCH  14  19
ENDBRANCH  11  13
ENDBRANCH   7  11
BRANCH   8  21
ATOM     21  C   UNL A   1      32.688  20.307  24.513  1.00  0.00     0.003 A 
ATOM     22  C   UNL A   1      32.921  19.204  25.379  1.00  0.00     0.008 A 
ATOM     23  C   UNL A   1      32.392  19.981  23.176  1.00  0.00     0.047 A 
ATOM     24  C   UNL A   1      33.024  17.890  24.914  1.00  0.00     0.001 A 
ATOM     25  C   UNL A   1      32.529  18.663  22.704  1.00  0.00     0.021 A 
ATOM     26  Cl  UNL A   1      31.779  21.098  22.013  1.00  0.00    -0.084 Cl
ATOM     27  C   UNL A   1      32.868  17.624  23.564  1.00  0.00     0.002 A 
ENDBRANCH   8  21
ENDBRANCH   4   6
ENDBRANCH   3   4
ENDBRANCH   2   3
ENDBRANCH   1   2
BRANCH   1  28
ATOM     28  O   UNL A   1      39.386  21.856  25.670  1.00  0.00    -0.374 OA
BRANCH  28  29
ATOM     29  C   UNL A   1      38.647  20.643  25.526  1.00  0.00     0.202 C 
BRANCH  29  30
ATOM     30  C   UNL A   1      39.486  19.366  25.481  1.00  0.00     0.261 C 
BRANCH  30  31
ATOM     31  O   UNL A   1      40.424  19.294  26.574  1.00  0.00    -0.460 OA
BRANCH  31  32
ATOM     32  C   UNL A   1      41.727  19.246  26.216  1.00  0.00     0.338 C 
ATOM     33  O   UNL A   1      42.312  18.323  25.654  1.00  0.00    -0.246 OA
BRANCH  32  34
ATOM     34  C   UNL A   1      42.377  20.540  26.473  1.00  0.00     0.060 A 
ATOM     35  C   UNL A   1      42.278  21.100  27.751  1.00  0.00     0.016 A 
ATOM     36  C   UNL A   1      42.990  21.249  25.440  1.00  0.00     0.016 A 
ATOM     37  C   UNL A   1      42.786  22.379  27.997  1.00  0.00     0.010 A 
ATOM     38  C   UNL A   1      43.506  22.526  25.689  1.00  0.00     0.010 A 
ATOM     39  C   UNL A   1      43.389  23.111  26.962  1.00  0.00    -0.014 A 
BRANCH  39  40
ATOM     40  C   UNL A   1      43.812  24.519  27.188  1.00  0.00     0.031 A 
ATOM     41  C   UNL A   1      42.810  25.529  27.680  1.00  0.00     0.074 A 
ATOM     42  C   UNL A   1      45.084  24.898  26.965  1.00  0.00     0.049 A 
ATOM     43  N   UNL A   1      42.956  26.814  27.887  1.00  0.00    -0.248 NA
ATOM     44  C   UNL A   1      41.460  25.024  27.978  1.00  0.00     0.031 C 
ATOM     45  C   UNL A   1      46.157  24.020  26.502  1.00  0.00     0.029 A 
ATOM     46  N   UNL A   1      45.686  26.127  27.091  1.00  0.00    -0.354 N 
ATOM     47  C   UNL A   1      41.724  27.270  28.333  1.00  0.00     0.074 A 
ATOM     48  C   UNL A   1      40.828  26.133  28.335  1.00  0.00     0.031 C 
ATOM     49  C   UNL A   1      47.286  24.739  26.377  1.00  0.00     0.029 A 
ATOM     50  C   UNL A   1      47.009  26.132  26.719  1.00  0.00     0.049 A 
ATOM     51  H   UNL A   1      45.215  26.927  27.417  1.00  0.00     0.167 HD
ATOM     52  C   UNL A   1      41.372  28.519  28.720  1.00  0.00     0.037 A 
ATOM     53  C   UNL A   1      47.889  27.151  26.640  1.00  0.00     0.037 A 
ATOM     54  C   UNL A   1      42.259  29.653  28.734  1.00  0.00     0.049 A 
ATOM     55  C   UNL A   1      47.453  28.543  27.018  1.00  0.00     0.074 A 
ATOM     56  C   UNL A   1      41.995  30.951  29.134  1.00  0.00     0.029 A 
ATOM     57  N   UNL A   1      43.584  29.622  28.326  1.00  0.00    -0.354 N 
ATOM     58  N   UNL A   1      46.292  28.957  27.462  1.00  0.00    -0.248 NA
ATOM     59  C   UNL A   1      48.454  29.613  26.879  1.00  0.00     0.031 C 
ATOM     60  C   UNL A   1      43.149  31.716  28.935  1.00  0.00     0.029 A 
ATOM     61  C   UNL A   1      44.144  30.884  28.447  1.00  0.00     0.049 A 
ATOM     62  H   UNL A   1      44.057  28.823  28.000  1.00  0.00     0.167 HD
ATOM     63  C   UNL A   1      46.426  30.324  27.670  1.00  0.00     0.074 A 
ATOM     64  C   UNL A   1      47.788  30.670  27.324  1.00  0.00     0.031 C 
ATOM     65  C   UNL A   1      45.501  31.214  28.103  1.00  0.00     0.037 A 
BRANCH  52  66
ATOM     66  C   UNL A   1      39.958  28.737  29.170  1.00  0.00     0.064 A 
ATOM     67  C   UNL A   1      39.588  28.583  30.513  1.00  0.00     0.173 A 
ATOM     68  C   UNL A   1      38.979  29.167  28.261  1.00  0.00     0.173 A 
ATOM     69  F   UNL A   1      40.486  28.165  31.417  1.00  0.00    -0.203 F 
ATOM     70  C   UNL A   1      38.284  28.840  30.931  1.00  0.00     0.198 A 
ATOM     71  C   UNL A   1      37.682  29.445  28.686  1.00  0.00     0.198 A 
ATOM     72  F   UNL A   1      39.285  29.336  26.966  1.00  0.00    -0.203 F 
ATOM     73  F   UNL A   1      37.945  28.659  32.214  1.00  0.00    -0.200 F 
ATOM     74  C   UNL A   1      37.335  29.279  30.018  1.00  0.00     0.200 A 
ATOM     75  F   UNL A   1      36.769  29.880  27.806  1.00  0.00    -0.200 F 
ATOM     76  F   UNL A   1      36.084  29.538  30.423  1.00  0.00    -0.200 F 
ENDBRANCH  52  66
BRANCH  53  77
ATOM     77  C   UNL A   1      49.272  26.906  26.155  1.00  0.00     0.064 A 
ATOM     78  C   UNL A   1      49.589  27.000  24.793  1.00  0.00     0.173 A 
ATOM     79  C   UNL A   1      50.293  26.526  27.037  1.00  0.00     0.173 A 
ATOM     80  F   UNL A   1      48.637  27.327  23.905  1.00  0.00    -0.203 F 
ATOM     81  C   UNL A   1      50.868  26.701  24.329  1.00  0.00     0.198 A 
ATOM     82  C   UNL A   1      51.580  26.254  26.577  1.00  0.00     0.198 A 
ATOM     83  F   UNL A   1      50.039  26.412  28.350  1.00  0.00    -0.203 F 
ATOM     84  F   UNL A   1      51.130  26.743  23.016  1.00  0.00    -0.200 F 
ATOM     85  C   UNL A   1      51.863  26.333  25.222  1.00  0.00     0.200 A 
ATOM     86  F   UNL A   1      52.539  25.902  27.443  1.00  0.00    -0.200 F 
ATOM     87  F   UNL A   1      53.092  26.037  24.775  1.00  0.00    -0.200 F 
ENDBRANCH  53  77
BRANCH  65  88
ATOM     88  C   UNL A   1      45.931  32.645  28.242  1.00  0.00     0.064 A 
ATOM     89  C   UNL A   1      46.521  33.118  29.423  1.00  0.00     0.173 A 
ATOM     90  C   UNL A   1      45.797  33.538  27.169  1.00  0.00     0.173 A 
ATOM     91  F   UNL A   1      46.657  32.305  30.482  1.00  0.00    -0.203 F 
ATOM     92  C   UNL A   1      46.945  34.439  29.530  1.00  0.00     0.198 A 
ATOM     93  C   UNL A   1      46.245  34.853  27.271  1.00  0.00     0.198 A 
ATOM     94  F   UNL A   1      45.244  33.132  26.016  1.00  0.00    -0.203 F 
ATOM     95  F   UNL A   1      47.473  34.881  30.681  1.00  0.00    -0.200 F 
ATOM     96  C   UNL A   1      46.814  35.304  28.453  1.00  0.00     0.200 A 
ATOM     97  F   UNL A   1      46.128  35.683  26.226  1.00  0.00    -0.200 F 
ATOM     98  F   UNL A   1      47.231  36.573  28.556  1.00  0.00    -0.200 F 
ENDBRANCH  65  88
ENDBRANCH  39  40
ENDBRANCH  32  34
ENDBRANCH  31  32
ENDBRANCH  30  31
ENDBRANCH  29  30
ENDBRANCH  28  29
ENDBRANCH   1  28
TORSDOF 18
ENDMDL
