MODEL 1
REMARK VINA RESULT:     -11.7      0.000      0.000
REMARK SMILES COc1ccc([C@H]2CC(c3ccccc3)=NN2C(=O)CCCC(=O)OCCOCCOC(=O)c2ccc(-c3c4nc(c(-c5c(F)c(F)c(F)c(F)c5F)c5ccc([nH]5)c(-c5c(F)c(F)c(F)c(F)c5F)c5nc(c(-c6c(F)c(F)c(F)c(F)c6F)c6ccc3[nH]6)C=C5)C=C4)cc2)cc1
REMARK SMILES IDX 26 1 25 2 23 3 24 4 22 5 21 6 20 7 18 8 19 9 17 10 7 11 8 12
REMARK SMILES IDX 9 13 16 14 6 15 3 16 4 17 98 18 5 19 97 20 2 21 1 22 10 23
REMARK SMILES IDX 11 24 15 25 12 26 14 27 13 28 27 29 28 30 29 31 30 32 31 33
REMARK SMILES IDX 32 34 33 35 34 36 35 37 96 38 36 39 95 40 37 41 38 42 39 43
REMARK SMILES IDX 89 44 40 45 94 46 88 47 90 48 41 49 93 50 87 51 86 52 42 54
REMARK SMILES IDX 74 55 54 56 73 57 55 58 58 59 72 60 91 61 56 62 57 63 71 65
REMARK SMILES IDX 92 66 59 67 43 68 44 69 52 70 45 71 46 72 50 73 53 74 47 75
REMARK SMILES IDX 48 76 51 77 49 78 75 79 76 80 84 81 77 82 78 83 82 84 85 85
REMARK SMILES IDX 79 86 80 87 83 88 81 89 60 90 61 91 69 92 62 93 63 94 67 95
REMARK SMILES IDX 70 96 64 97 65 98 68 99 66 100
REMARK H PARENT 90 53 58 64
REMARK Flexibility Score: inf
ROOT
ATOM      1  C   UNL A   1      41.365  21.108  26.694  1.00  0.00     0.261 C 
ENDROOT
BRANCH   1   2
ATOM      2  O   UNL A   1      40.407  21.752  25.843  1.00  0.00    -0.463 OA
BRANCH   2   3
ATOM      3  C   UNL A   1      39.477  22.473  26.512  1.00  0.00     0.305 C 
ATOM      4  O   UNL A   1      39.666  22.965  27.617  1.00  0.00    -0.252 OA
BRANCH   3   5
ATOM      5  C   UNL A   1      38.224  22.699  25.695  1.00  0.00     0.123 C 
BRANCH   5   6
ATOM      6  C   UNL A   1      37.702  21.503  24.922  1.00  0.00     0.022 C 
BRANCH   6   7
ATOM      7  C   UNL A   1      36.199  21.496  24.682  1.00  0.00     0.103 C 
BRANCH   7   8
ATOM      8  C   UNL A   1      35.674  22.576  23.755  1.00  0.00     0.243 C 
ATOM      9  O   UNL A   1      36.321  22.880  22.749  1.00  0.00    -0.273 OA
BRANCH   8  10
ATOM     10  N   UNL A   1      34.397  23.049  24.004  1.00  0.00    -0.225 N 
ATOM     11  C   UNL A   1      33.100  22.584  23.476  1.00  0.00     0.147 C 
ATOM     12  C   UNL A   1      32.098  23.604  23.995  1.00  0.00     0.091 C 
ATOM     13  C   UNL A   1      33.047  24.619  24.556  1.00  0.00     0.071 C 
ATOM     14  N   UNL A   1      34.297  24.281  24.597  1.00  0.00    -0.174 NA
BRANCH  11  15
ATOM     15  C   UNL A   1      32.738  21.152  23.848  1.00  0.00    -0.023 A 
ATOM     16  C   UNL A   1      32.772  18.391  24.362  1.00  0.00     0.118 A 
ATOM     17  C   UNL A   1      32.477  18.848  23.081  1.00  0.00     0.047 A 
ATOM     18  C   UNL A   1      32.908  19.299  25.409  1.00  0.00     0.047 A 
ATOM     19  C   UNL A   1      32.423  20.226  22.834  1.00  0.00     0.010 A 
ATOM     20  C   UNL A   1      32.868  20.673  25.160  1.00  0.00     0.010 A 
BRANCH  16  21
ATOM     21  O   UNL A   1      33.159  17.104  24.609  1.00  0.00    -0.497 OA
ATOM     22  C   UNL A   1      34.220  16.654  23.779  1.00  0.00     0.278 C 
ENDBRANCH  16  21
ENDBRANCH  11  15
BRANCH  13  23
ATOM     23  C   UNL A   1      32.579  25.939  24.987  1.00  0.00    -0.002 A 
ATOM     24  C   UNL A   1      32.925  27.054  24.218  1.00  0.00     0.010 A 
ATOM     25  C   UNL A   1      31.823  26.081  26.151  1.00  0.00     0.010 A 
ATOM     26  C   UNL A   1      32.513  28.323  24.618  1.00  0.00     0.001 A 
ATOM     27  C   UNL A   1      31.430  27.356  26.555  1.00  0.00     0.001 A 
ATOM     28  C   UNL A   1      31.773  28.474  25.791  1.00  0.00     0.000 A 
ENDBRANCH  13  23
ENDBRANCH   8  10
ENDBRANCH   7   8
ENDBRANCH   6   7
ENDBRANCH   5   6
ENDBRANCH   3   5
ENDBRANCH   2   3
ENDBRANCH   1   2
BRANCH   1  29
ATOM     29  C   UNL A   1      42.103  19.945  26.009  1.00  0.00     0.202 C 
BRANCH  29  30
ATOM     30  O   UNL A   1      43.105  20.250  25.048  1.00  0.00    -0.374 OA
BRANCH  30  31
ATOM     31  C   UNL A   1      44.113  21.220  25.336  1.00  0.00     0.202 C 
BRANCH  31  32
ATOM     32  C   UNL A   1      44.227  22.485  24.466  1.00  0.00     0.261 C 
BRANCH  32  33
ATOM     33  O   UNL A   1      43.354  23.542  24.910  1.00  0.00    -0.460 OA
BRANCH  33  34
ATOM     34  C   UNL A   1      43.961  24.722  25.165  1.00  0.00     0.338 C 
ATOM     35  O   UNL A   1      44.974  25.158  24.633  1.00  0.00    -0.246 OA
BRANCH  34  36
ATOM     36  C   UNL A   1      43.110  25.567  26.023  1.00  0.00     0.060 A 
ATOM     37  C   UNL A   1      43.419  26.933  26.082  1.00  0.00     0.016 A 
ATOM     38  C   UNL A   1      42.135  25.025  26.865  1.00  0.00     0.016 A 
ATOM     39  C   UNL A   1      42.797  27.752  27.019  1.00  0.00     0.010 A 
ATOM     40  C   UNL A   1      41.527  25.847  27.826  1.00  0.00     0.010 A 
ATOM     41  C   UNL A   1      41.896  27.201  27.938  1.00  0.00    -0.014 A 
BRANCH  41  42
ATOM     42  C   UNL A   1      41.560  28.004  29.141  1.00  0.00     0.031 A 
ATOM     43  C   UNL A   1      40.318  28.856  29.104  1.00  0.00     0.074 A 
ATOM     44  C   UNL A   1      42.262  27.889  30.280  1.00  0.00     0.049 A 
ATOM     45  N   UNL A   1      39.752  29.550  30.059  1.00  0.00    -0.248 NA
ATOM     46  C   UNL A   1      39.608  28.916  27.815  1.00  0.00     0.031 C 
ATOM     47  C   UNL A   1      43.441  27.047  30.463  1.00  0.00     0.029 A 
ATOM     48  N   UNL A   1      42.065  28.470  31.508  1.00  0.00    -0.354 N 
ATOM     49  C   UNL A   1      38.614  30.111  29.493  1.00  0.00     0.074 A 
ATOM     50  C   UNL A   1      38.587  29.709  28.103  1.00  0.00     0.031 C 
ATOM     51  C   UNL A   1      43.859  27.156  31.736  1.00  0.00     0.029 A 
ATOM     52  C   UNL A   1      42.989  28.091  32.450  1.00  0.00     0.049 A 
ATOM     53  H   UNL A   1      41.332  29.099  31.695  1.00  0.00     0.167 HD
ATOM     54  C   UNL A   1      37.666  30.878  30.080  1.00  0.00     0.037 A 
ATOM     55  C   UNL A   1      43.114  28.460  33.740  1.00  0.00     0.037 A 
ATOM     56  C   UNL A   1      37.700  31.301  31.454  1.00  0.00     0.049 A 
ATOM     57  C   UNL A   1      42.110  29.411  34.340  1.00  0.00     0.074 A 
ATOM     58  C   UNL A   1      36.798  32.094  32.139  1.00  0.00     0.029 A 
ATOM     59  N   UNL A   1      38.705  30.971  32.351  1.00  0.00    -0.354 N 
ATOM     60  N   UNL A   1      41.028  29.922  33.804  1.00  0.00    -0.248 NA
ATOM     61  C   UNL A   1      42.349  29.836  35.728  1.00  0.00     0.031 C 
ATOM     62  C   UNL A   1      37.281  32.283  33.439  1.00  0.00     0.029 A 
ATOM     63  C   UNL A   1      38.460  31.568  33.577  1.00  0.00     0.049 A 
ATOM     64  H   UNL A   1      39.479  30.397  32.147  1.00  0.00     0.167 HD
ATOM     65  C   UNL A   1      40.442  30.702  34.794  1.00  0.00     0.074 A 
ATOM     66  C   UNL A   1      41.285  30.591  35.966  1.00  0.00     0.031 C 
ATOM     67  C   UNL A   1      39.307  31.443  34.736  1.00  0.00     0.037 A 
BRANCH  54  68
ATOM     68  C   UNL A   1      36.527  31.336  29.216  1.00  0.00     0.064 A 
ATOM     69  C   UNL A   1      36.445  32.655  28.746  1.00  0.00     0.173 A 
ATOM     70  C   UNL A   1      35.504  30.446  28.858  1.00  0.00     0.173 A 
ATOM     71  F   UNL A   1      37.391  33.549  29.077  1.00  0.00    -0.203 F 
ATOM     72  C   UNL A   1      35.366  33.075  27.974  1.00  0.00     0.198 A 
ATOM     73  C   UNL A   1      34.438  30.863  28.065  1.00  0.00     0.198 A 
ATOM     74  F   UNL A   1      35.535  29.173  29.280  1.00  0.00    -0.203 F 
ATOM     75  F   UNL A   1      35.282  34.354  27.580  1.00  0.00    -0.200 F 
ATOM     76  C   UNL A   1      34.365  32.178  27.632  1.00  0.00     0.200 A 
ATOM     77  F   UNL A   1      33.476  29.994  27.727  1.00  0.00    -0.200 F 
ATOM     78  F   UNL A   1      33.324  32.585  26.891  1.00  0.00    -0.200 F 
ENDBRANCH  54  68
BRANCH  55  79
ATOM     79  C   UNL A   1      44.231  27.924  34.561  1.00  0.00     0.064 A 
ATOM     80  C   UNL A   1      45.487  28.547  34.568  1.00  0.00     0.173 A 
ATOM     81  C   UNL A   1      44.070  26.769  35.341  1.00  0.00     0.173 A 
ATOM     82  F   UNL A   1      45.698  29.636  33.816  1.00  0.00    -0.203 F 
ATOM     83  C   UNL A   1      46.541  28.031  35.321  1.00  0.00     0.198 A 
ATOM     84  C   UNL A   1      45.117  26.268  36.111  1.00  0.00     0.198 A 
ATOM     85  F   UNL A   1      42.890  26.132  35.361  1.00  0.00    -0.203 F 
ATOM     86  F   UNL A   1      47.741  28.625  35.282  1.00  0.00    -0.200 F 
ATOM     87  C   UNL A   1      46.354  26.896  36.096  1.00  0.00     0.200 A 
ATOM     88  F   UNL A   1      44.929  25.177  36.865  1.00  0.00    -0.200 F 
ATOM     89  F   UNL A   1      47.366  26.403  36.823  1.00  0.00    -0.200 F 
ENDBRANCH  55  79
BRANCH  67  90
ATOM     90  C   UNL A   1      38.892  32.166  35.984  1.00  0.00     0.064 A 
ATOM     91  C   UNL A   1      38.143  31.532  36.985  1.00  0.00     0.173 A 
ATOM     92  C   UNL A   1      39.287  33.495  36.199  1.00  0.00     0.173 A 
ATOM     93  F   UNL A   1      37.730  30.267  36.820  1.00  0.00    -0.203 F 
ATOM     94  C   UNL A   1      37.785  32.210  38.148  1.00  0.00     0.198 A 
ATOM     95  C   UNL A   1      38.950  34.160  37.374  1.00  0.00     0.198 A 
ATOM     96  F   UNL A   1      40.009  34.144  35.274  1.00  0.00    -0.203 F 
ATOM     97  F   UNL A   1      37.034  31.598  39.075  1.00  0.00    -0.200 F 
ATOM     98  C   UNL A   1      38.196  33.520  38.345  1.00  0.00     0.200 A 
ATOM     99  F   UNL A   1      39.357  35.424  37.567  1.00  0.00    -0.200 F 
ATOM    100  F   UNL A   1      37.856  34.168  39.468  1.00  0.00    -0.200 F 
ENDBRANCH  67  90
ENDBRANCH  41  42
ENDBRANCH  34  36
ENDBRANCH  33  34
ENDBRANCH  32  33
ENDBRANCH  31  32
ENDBRANCH  30  31
ENDBRANCH  29  30
ENDBRANCH   1  29
TORSDOF 21
ENDMDL
MODEL 2
REMARK VINA RESULT:     -11.6      1.335      7.118
REMARK SMILES COc1ccc([C@H]2CC(c3ccccc3)=NN2C(=O)CCCC(=O)OCCOCCOC(=O)c2ccc(-c3c4nc(c(-c5c(F)c(F)c(F)c(F)c5F)c5ccc([nH]5)c(-c5c(F)c(F)c(F)c(F)c5F)c5nc(c(-c6c(F)c(F)c(F)c(F)c6F)c6ccc3[nH]6)C=C5)C=C4)cc2)cc1
REMARK SMILES IDX 26 1 25 2 23 3 24 4 22 5 21 6 20 7 18 8 19 9 17 10 7 11 8 12
REMARK SMILES IDX 9 13 16 14 6 15 3 16 4 17 98 18 5 19 97 20 2 21 1 22 10 23
REMARK SMILES IDX 11 24 15 25 12 26 14 27 13 28 27 29 28 30 29 31 30 32 31 33
REMARK SMILES IDX 32 34 33 35 34 36 35 37 96 38 36 39 95 40 37 41 38 42 39 43
REMARK SMILES IDX 89 44 40 45 94 46 88 47 90 48 41 49 93 50 87 51 86 52 42 54
REMARK SMILES IDX 74 55 54 56 73 57 55 58 58 59 72 60 91 61 56 62 57 63 71 65
REMARK SMILES IDX 92 66 59 67 43 68 44 69 52 70 45 71 46 72 50 73 53 74 47 75
REMARK SMILES IDX 48 76 51 77 49 78 75 79 76 80 84 81 77 82 78 83 82 84 85 85
REMARK SMILES IDX 79 86 80 87 83 88 81 89 60 90 61 91 69 92 62 93 63 94 67 95
REMARK SMILES IDX 70 96 64 97 65 98 68 99 66 100
REMARK H PARENT 90 53 58 64
REMARK Flexibility Score: inf
ROOT
ATOM      1  C   UNL A   1      39.292  22.021  26.186  1.00  0.00     0.261 C 
ENDROOT
BRANCH   1   2
ATOM      2  O   UNL A   1      38.146  21.580  25.445  1.00  0.00    -0.463 OA
BRANCH   2   3
ATOM      3  C   UNL A   1      37.432  22.588  24.889  1.00  0.00     0.305 C 
ATOM      4  O   UNL A   1      37.000  22.561  23.744  1.00  0.00    -0.252 OA
BRANCH   3   5
ATOM      5  C   UNL A   1      37.130  23.694  25.876  1.00  0.00     0.123 C 
BRANCH   5   6
ATOM      6  C   UNL A   1      35.664  24.032  26.075  1.00  0.00     0.022 C 
BRANCH   6   7
ATOM      7  C   UNL A   1      34.893  23.064  26.961  1.00  0.00     0.103 C 
BRANCH   7   8
ATOM      8  C   UNL A   1      33.389  23.045  26.765  1.00  0.00     0.243 C 
ATOM      9  O   UNL A   1      32.650  22.913  27.745  1.00  0.00    -0.273 OA
BRANCH   8  10
ATOM     10  N   UNL A   1      32.919  23.352  25.500  1.00  0.00    -0.225 N 
ATOM     11  C   UNL A   1      33.430  22.939  24.179  1.00  0.00     0.147 C 
ATOM     12  C   UNL A   1      32.588  23.729  23.188  1.00  0.00     0.091 C 
ATOM     13  C   UNL A   1      31.878  24.643  24.141  1.00  0.00     0.071 C 
ATOM     14  N   UNL A   1      32.033  24.393  25.403  1.00  0.00    -0.174 NA
BRANCH  11  15
ATOM     15  C   UNL A   1      33.394  21.438  23.924  1.00  0.00    -0.023 A 
ATOM     16  C   UNL A   1      32.917  18.673  24.061  1.00  0.00     0.118 A 
ATOM     17  C   UNL A   1      34.008  19.216  24.732  1.00  0.00     0.047 A 
ATOM     18  C   UNL A   1      32.153  19.474  23.215  1.00  0.00     0.047 A 
ATOM     19  C   UNL A   1      34.268  20.589  24.632  1.00  0.00     0.010 A 
ATOM     20  C   UNL A   1      32.404  20.845  23.127  1.00  0.00     0.010 A 
BRANCH  16  21
ATOM     21  O   UNL A   1      32.412  17.439  24.361  1.00  0.00    -0.497 OA
ATOM     22  C   UNL A   1      33.327  16.376  24.140  1.00  0.00     0.278 C 
ENDBRANCH  16  21
ENDBRANCH  11  15
BRANCH  13  23
ATOM     23  C   UNL A   1      31.093  25.782  23.659  1.00  0.00    -0.002 A 
ATOM     24  C   UNL A   1      31.718  26.718  22.828  1.00  0.00     0.010 A 
ATOM     25  C   UNL A   1      29.760  25.939  24.037  1.00  0.00     0.010 A 
ATOM     26  C   UNL A   1      31.001  27.823  22.374  1.00  0.00     0.001 A 
ATOM     27  C   UNL A   1      29.055  27.058  23.594  1.00  0.00     0.001 A 
ATOM     28  C   UNL A   1      29.673  27.996  22.765  1.00  0.00     0.000 A 
ENDBRANCH  13  23
ENDBRANCH   8  10
ENDBRANCH   7   8
ENDBRANCH   6   7
ENDBRANCH   5   6
ENDBRANCH   3   5
ENDBRANCH   2   3
ENDBRANCH   1   2
BRANCH   1  29
ATOM     29  C   UNL A   1      40.405  20.963  26.273  1.00  0.00     0.202 C 
BRANCH  29  30
ATOM     30  O   UNL A   1      41.698  21.372  26.698  1.00  0.00    -0.374 OA
BRANCH  30  31
ATOM     31  C   UNL A   1      42.855  21.025  25.935  1.00  0.00     0.202 C 
BRANCH  31  32
ATOM     32  C   UNL A   1      43.825  22.127  25.474  1.00  0.00     0.261 C 
BRANCH  32  33
ATOM     33  O   UNL A   1      43.145  23.256  24.892  1.00  0.00    -0.460 OA
BRANCH  33  34
ATOM     34  C   UNL A   1      43.768  24.445  25.044  1.00  0.00     0.338 C 
ATOM     35  O   UNL A   1      44.796  24.813  24.489  1.00  0.00    -0.246 OA
BRANCH  34  36
ATOM     36  C   UNL A   1      42.919  25.380  25.806  1.00  0.00     0.060 A 
ATOM     37  C   UNL A   1      43.508  26.580  26.225  1.00  0.00     0.016 A 
ATOM     38  C   UNL A   1      41.634  25.036  26.232  1.00  0.00     0.016 A 
ATOM     39  C   UNL A   1      42.841  27.415  27.116  1.00  0.00     0.010 A 
ATOM     40  C   UNL A   1      40.972  25.866  27.150  1.00  0.00     0.010 A 
ATOM     41  C   UNL A   1      41.597  27.031  27.633  1.00  0.00    -0.014 A 
BRANCH  41  42
ATOM     42  C   UNL A   1      41.107  27.734  28.845  1.00  0.00     0.031 A 
ATOM     43  C   UNL A   1      41.899  27.593  30.118  1.00  0.00     0.074 A 
ATOM     44  C   UNL A   1      40.061  28.575  28.794  1.00  0.00     0.049 A 
ATOM     45  N   UNL A   1      41.746  28.198  31.269  1.00  0.00    -0.248 NA
ATOM     46  C   UNL A   1      43.034  26.655  30.079  1.00  0.00     0.031 C 
ATOM     47  C   UNL A   1      39.256  28.849  27.607  1.00  0.00     0.029 A 
ATOM     48  N   UNL A   1      39.514  29.374  29.767  1.00  0.00    -0.354 N 
ATOM     49  C   UNL A   1      42.771  27.729  32.081  1.00  0.00     0.074 A 
ATOM     50  C   UNL A   1      43.519  26.762  31.307  1.00  0.00     0.031 C 
ATOM     51  C   UNL A   1      38.321  29.764  27.918  1.00  0.00     0.029 A 
ATOM     52  C   UNL A   1      38.450  30.123  29.330  1.00  0.00     0.049 A 
ATOM     53  H   UNL A   1      39.852  29.406  30.691  1.00  0.00     0.167 HD
ATOM     54  C   UNL A   1      43.074  28.082  33.352  1.00  0.00     0.037 A 
ATOM     55  C   UNL A   1      37.673  30.998  29.998  1.00  0.00     0.037 A 
ATOM     56  C   UNL A   1      42.320  29.023  34.135  1.00  0.00     0.049 A 
ATOM     57  C   UNL A   1      37.959  31.286  31.450  1.00  0.00     0.074 A 
ATOM     58  C   UNL A   1      42.534  29.435  35.438  1.00  0.00     0.029 A 
ATOM     59  N   UNL A   1      41.191  29.692  33.684  1.00  0.00    -0.354 N 
ATOM     60  N   UNL A   1      38.940  30.853  32.204  1.00  0.00    -0.248 NA
ATOM     61  C   UNL A   1      37.026  32.188  32.142  1.00  0.00     0.031 C 
ATOM     62  C   UNL A   1      41.508  30.318  35.791  1.00  0.00     0.029 A 
ATOM     63  C   UNL A   1      40.681  30.492  34.693  1.00  0.00     0.049 A 
ATOM     64  H   UNL A   1      40.809  29.609  32.781  1.00  0.00     0.167 HD
ATOM     65  C   UNL A   1      38.761  31.450  33.447  1.00  0.00     0.074 A 
ATOM     66  C   UNL A   1      37.581  32.283  33.343  1.00  0.00     0.031 C 
ATOM     67  C   UNL A   1      39.508  31.319  34.571  1.00  0.00     0.037 A 
BRANCH  54  68
ATOM     68  C   UNL A   1      44.261  27.413  33.982  1.00  0.00     0.064 A 
ATOM     69  C   UNL A   1      44.143  26.186  34.652  1.00  0.00     0.173 A 
ATOM     70  C   UNL A   1      45.530  28.007  33.917  1.00  0.00     0.173 A 
ATOM     71  F   UNL A   1      42.946  25.587  34.757  1.00  0.00    -0.203 F 
ATOM     72  C   UNL A   1      45.246  25.593  35.261  1.00  0.00     0.198 A 
ATOM     73  C   UNL A   1      46.636  27.399  34.506  1.00  0.00     0.198 A 
ATOM     74  F   UNL A   1      45.697  29.179  33.286  1.00  0.00    -0.203 F 
ATOM     75  F   UNL A   1      45.099  24.448  35.941  1.00  0.00    -0.200 F 
ATOM     76  C   UNL A   1      46.491  26.198  35.184  1.00  0.00     0.200 A 
ATOM     77  F   UNL A   1      47.840  27.980  34.424  1.00  0.00    -0.200 F 
ATOM     78  F   UNL A   1      47.551  25.629  35.774  1.00  0.00    -0.200 F 
ENDBRANCH  54  68
BRANCH  55  79
ATOM     79  C   UNL A   1      36.548  31.674  29.301  1.00  0.00     0.064 A 
ATOM     80  C   UNL A   1      36.573  33.055  29.060  1.00  0.00     0.173 A 
ATOM     81  C   UNL A   1      35.420  30.957  28.876  1.00  0.00     0.173 A 
ATOM     82  F   UNL A   1      37.616  33.788  29.473  1.00  0.00    -0.203 F 
ATOM     83  C   UNL A   1      35.508  33.694  28.426  1.00  0.00     0.198 A 
ATOM     84  C   UNL A   1      34.367  31.593  28.222  1.00  0.00     0.198 A 
ATOM     85  F   UNL A   1      35.345  29.636  29.091  1.00  0.00    -0.203 F 
ATOM     86  F   UNL A   1      35.540  35.020  28.240  1.00  0.00    -0.200 F 
ATOM     87  C   UNL A   1      34.409  32.961  28.003  1.00  0.00     0.200 A 
ATOM     88  F   UNL A   1      33.312  30.879  27.806  1.00  0.00    -0.200 F 
ATOM     89  F   UNL A   1      33.387  33.575  27.389  1.00  0.00    -0.200 F 
ENDBRANCH  55  79
BRANCH  67  90
ATOM     90  C   UNL A   1      39.091  32.119  35.771  1.00  0.00     0.064 A 
ATOM     91  C   UNL A   1      38.264  31.576  36.764  1.00  0.00     0.173 A 
ATOM     92  C   UNL A   1      39.564  33.428  35.952  1.00  0.00     0.173 A 
ATOM     93  F   UNL A   1      37.775  30.334  36.631  1.00  0.00    -0.203 F 
ATOM     94  C   UNL A   1      37.906  32.323  37.884  1.00  0.00     0.198 A 
ATOM     95  C   UNL A   1      39.226  34.161  37.085  1.00  0.00     0.198 A 
ATOM     96  F   UNL A   1      40.364  33.990  35.034  1.00  0.00    -0.203 F 
ATOM     97  F   UNL A   1      37.079  31.799  38.801  1.00  0.00    -0.200 F 
ATOM     98  C   UNL A   1      38.393  33.611  38.047  1.00  0.00     0.200 A 
ATOM     99  F   UNL A   1      39.707  35.403  37.246  1.00  0.00    -0.200 F 
ATOM    100  F   UNL A   1      38.053  34.326  39.129  1.00  0.00    -0.200 F 
ENDBRANCH  67  90
ENDBRANCH  41  42
ENDBRANCH  34  36
ENDBRANCH  33  34
ENDBRANCH  32  33
ENDBRANCH  31  32
ENDBRANCH  30  31
ENDBRANCH  29  30
ENDBRANCH   1  29
TORSDOF 21
ENDMDL
MODEL 3
REMARK VINA RESULT:     -11.3      3.396      8.823
REMARK SMILES COc1ccc([C@H]2CC(c3ccccc3)=NN2C(=O)CCCC(=O)OCCOCCOC(=O)c2ccc(-c3c4nc(c(-c5c(F)c(F)c(F)c(F)c5F)c5ccc([nH]5)c(-c5c(F)c(F)c(F)c(F)c5F)c5nc(c(-c6c(F)c(F)c(F)c(F)c6F)c6ccc3[nH]6)C=C5)C=C4)cc2)cc1
REMARK SMILES IDX 26 1 25 2 23 3 24 4 22 5 21 6 20 7 18 8 19 9 17 10 7 11 8 12
REMARK SMILES IDX 9 13 16 14 6 15 3 16 4 17 98 18 5 19 97 20 2 21 1 22 10 23
REMARK SMILES IDX 11 24 15 25 12 26 14 27 13 28 27 29 28 30 29 31 30 32 31 33
REMARK SMILES IDX 32 34 33 35 34 36 35 37 96 38 36 39 95 40 37 41 38 42 39 43
REMARK SMILES IDX 89 44 40 45 94 46 88 47 90 48 41 49 93 50 87 51 86 52 42 54
REMARK SMILES IDX 74 55 54 56 73 57 55 58 58 59 72 60 91 61 56 62 57 63 71 65
REMARK SMILES IDX 92 66 59 67 43 68 44 69 52 70 45 71 46 72 50 73 53 74 47 75
REMARK SMILES IDX 48 76 51 77 49 78 75 79 76 80 84 81 77 82 78 83 82 84 85 85
REMARK SMILES IDX 79 86 80 87 83 88 81 89 60 90 61 91 69 92 62 93 63 94 67 95
REMARK SMILES IDX 70 96 64 97 65 98 68 99 66 100
REMARK H PARENT 90 53 58 64
REMARK Flexibility Score: inf
ROOT
ATOM      1  C   UNL A   1      31.388  28.097  25.330  1.00  0.00     0.261 C 
ENDROOT
BRANCH   1   2
ATOM      2  O   UNL A   1      32.757  27.895  25.712  1.00  0.00    -0.463 OA
BRANCH   2   3
ATOM      3  C   UNL A   1      33.512  27.314  24.750  1.00  0.00     0.305 C 
ATOM      4  O   UNL A   1      33.802  27.860  23.693  1.00  0.00    -0.252 OA
BRANCH   3   5
ATOM      5  C   UNL A   1      34.054  25.967  25.176  1.00  0.00     0.123 C 
BRANCH   5   6
ATOM      6  C   UNL A   1      33.356  25.304  26.348  1.00  0.00     0.022 C 
BRANCH   6   7
ATOM      7  C   UNL A   1      33.910  23.941  26.741  1.00  0.00     0.103 C 
BRANCH   7   8
ATOM      8  C   UNL A   1      32.906  22.805  26.771  1.00  0.00     0.243 C 
ATOM      9  O   UNL A   1      32.115  22.717  27.714  1.00  0.00    -0.273 OA
BRANCH   8  10
ATOM     10  N   UNL A   1      32.820  22.016  25.636  1.00  0.00    -0.225 N 
ATOM     11  C   UNL A   1      31.909  22.124  24.481  1.00  0.00     0.147 C 
ATOM     12  C   UNL A   1      32.204  20.879  23.656  1.00  0.00     0.091 C 
ATOM     13  C   UNL A   1      33.092  20.150  24.618  1.00  0.00     0.071 C 
ATOM     14  N   UNL A   1      33.458  20.803  25.675  1.00  0.00    -0.174 NA
BRANCH  11  15
ATOM     15  C   UNL A   1      32.046  23.412  23.681  1.00  0.00    -0.023 A 
ATOM     16  C   UNL A   1      32.001  25.379  21.676  1.00  0.00     0.118 A 
ATOM     17  C   UNL A   1      33.103  24.536  21.787  1.00  0.00     0.047 A 
ATOM     18  C   UNL A   1      30.997  25.340  22.641  1.00  0.00     0.047 A 
ATOM     19  C   UNL A   1      33.141  23.580  22.811  1.00  0.00     0.010 A 
ATOM     20  C   UNL A   1      31.029  24.378  23.652  1.00  0.00     0.010 A 
BRANCH  16  21
ATOM     21  O   UNL A   1      31.739  26.096  20.543  1.00  0.00    -0.497 OA
ATOM     22  C   UNL A   1      32.384  25.592  19.383  1.00  0.00     0.278 C 
ENDBRANCH  16  21
ENDBRANCH  11  15
BRANCH  13  23
ATOM     23  C   UNL A   1      33.479  18.755  24.387  1.00  0.00    -0.002 A 
ATOM     24  C   UNL A   1      34.776  18.358  24.725  1.00  0.00     0.010 A 
ATOM     25  C   UNL A   1      32.579  17.851  23.822  1.00  0.00     0.010 A 
ATOM     26  C   UNL A   1      35.177  17.045  24.494  1.00  0.00     0.001 A 
ATOM     27  C   UNL A   1      32.994  16.543  23.576  1.00  0.00     0.001 A 
ATOM     28  C   UNL A   1      34.289  16.141  23.912  1.00  0.00     0.000 A 
ENDBRANCH  13  23
ENDBRANCH   8  10
ENDBRANCH   7   8
ENDBRANCH   6   7
ENDBRANCH   5   6
ENDBRANCH   3   5
ENDBRANCH   2   3
ENDBRANCH   1   2
BRANCH   1  29
ATOM     29  C   UNL A   1      31.073  29.553  24.946  1.00  0.00     0.202 C 
BRANCH  29  30
ATOM     30  O   UNL A   1      31.938  30.580  25.413  1.00  0.00    -0.374 OA
BRANCH  30  31
ATOM     31  C   UNL A   1      31.767  31.134  26.719  1.00  0.00     0.202 C 
BRANCH  31  32
ATOM     32  C   UNL A   1      31.978  32.641  26.944  1.00  0.00     0.261 C 
BRANCH  32  33
ATOM     33  O   UNL A   1      32.487  32.938  28.259  1.00  0.00    -0.460 OA
BRANCH  33  34
ATOM     34  C   UNL A   1      33.547  33.776  28.290  1.00  0.00     0.338 C 
ATOM     35  O   UNL A   1      33.520  34.993  28.419  1.00  0.00    -0.246 OA
BRANCH  34  36
ATOM     36  C   UNL A   1      34.806  33.012  28.388  1.00  0.00     0.060 A 
ATOM     37  C   UNL A   1      34.725  31.713  28.906  1.00  0.00     0.016 A 
ATOM     38  C   UNL A   1      36.049  33.595  28.128  1.00  0.00     0.016 A 
ATOM     39  C   UNL A   1      35.885  31.010  29.219  1.00  0.00     0.010 A 
ATOM     40  C   UNL A   1      37.217  32.895  28.467  1.00  0.00     0.010 A 
ATOM     41  C   UNL A   1      37.135  31.622  29.061  1.00  0.00    -0.014 A 
BRANCH  41  42
ATOM     42  C   UNL A   1      38.295  31.008  29.754  1.00  0.00     0.031 A 
ATOM     43  C   UNL A   1      38.532  31.364  31.199  1.00  0.00     0.074 A 
ATOM     44  C   UNL A   1      39.047  30.065  29.163  1.00  0.00     0.049 A 
ATOM     45  N   UNL A   1      39.399  30.874  32.049  1.00  0.00    -0.248 NA
ATOM     46  C   UNL A   1      37.655  32.402  31.766  1.00  0.00     0.031 C 
ATOM     47  C   UNL A   1      38.876  29.585  27.794  1.00  0.00     0.029 A 
ATOM     48  N   UNL A   1      40.094  29.325  29.654  1.00  0.00    -0.354 N 
ATOM     49  C   UNL A   1      39.159  31.529  33.250  1.00  0.00     0.074 A 
ATOM     50  C   UNL A   1      38.092  32.477  33.013  1.00  0.00     0.031 C 
ATOM     51  C   UNL A   1      39.781  28.620  27.557  1.00  0.00     0.029 A 
ATOM     52  C   UNL A   1      40.607  28.429  28.749  1.00  0.00     0.049 A 
ATOM     53  H   UNL A   1      40.444  29.427  30.569  1.00  0.00     0.167 HD
ATOM     54  C   UNL A   1      39.761  31.348  34.449  1.00  0.00     0.037 A 
ATOM     55  C   UNL A   1      41.627  27.558  28.874  1.00  0.00     0.037 A 
ATOM     56  C   UNL A   1      40.838  30.425  34.685  1.00  0.00     0.049 A 
ATOM     57  C   UNL A   1      42.361  27.458  30.187  1.00  0.00     0.074 A 
ATOM     58  C   UNL A   1      41.528  30.180  35.858  1.00  0.00     0.029 A 
ATOM     59  N   UNL A   1      41.392  29.601  33.715  1.00  0.00    -0.354 N 
ATOM     60  N   UNL A   1      42.116  28.066  31.322  1.00  0.00    -0.248 NA
ATOM     61  C   UNL A   1      43.514  26.546  30.233  1.00  0.00     0.031 C 
ATOM     62  C   UNL A   1      42.530  29.241  35.588  1.00  0.00     0.029 A 
ATOM     63  C   UNL A   1      42.434  28.867  34.257  1.00  0.00     0.049 A 
ATOM     64  H   UNL A   1      41.089  29.547  32.780  1.00  0.00     0.167 HD
ATOM     65  C   UNL A   1      43.062  27.592  32.223  1.00  0.00     0.074 A 
ATOM     66  C   UNL A   1      43.881  26.638  31.504  1.00  0.00     0.031 C 
ATOM     67  C   UNL A   1      43.236  27.918  33.528  1.00  0.00     0.037 A 
BRANCH  54  68
ATOM     68  C   UNL A   1      39.281  32.197  35.590  1.00  0.00     0.064 A 
ATOM     69  C   UNL A   1      39.723  33.517  35.759  1.00  0.00     0.173 A 
ATOM     70  C   UNL A   1      38.371  31.683  36.525  1.00  0.00     0.173 A 
ATOM     71  F   UNL A   1      40.608  34.048  34.900  1.00  0.00    -0.203 F 
ATOM     72  C   UNL A   1      39.296  34.283  36.841  1.00  0.00     0.198 A 
ATOM     73  C   UNL A   1      37.926  32.460  37.592  1.00  0.00     0.198 A 
ATOM     74  F   UNL A   1      37.916  30.427  36.407  1.00  0.00    -0.203 F 
ATOM     75  F   UNL A   1      39.772  35.524  37.012  1.00  0.00    -0.200 F 
ATOM     76  C   UNL A   1      38.396  33.754  37.754  1.00  0.00     0.200 A 
ATOM     77  F   UNL A   1      37.050  31.951  38.469  1.00  0.00    -0.200 F 
ATOM     78  F   UNL A   1      37.988  34.491  38.797  1.00  0.00    -0.200 F 
ENDBRANCH  54  68
BRANCH  55  79
ATOM     79  C   UNL A   1      42.016  26.700  27.725  1.00  0.00     0.064 A 
ATOM     80  C   UNL A   1      41.374  25.477  27.485  1.00  0.00     0.173 A 
ATOM     81  C   UNL A   1      43.048  27.078  26.852  1.00  0.00     0.173 A 
ATOM     82  F   UNL A   1      40.402  25.059  28.307  1.00  0.00    -0.203 F 
ATOM     83  C   UNL A   1      41.754  24.662  26.419  1.00  0.00     0.198 A 
ATOM     84  C   UNL A   1      43.411  26.274  25.775  1.00  0.00     0.198 A 
ATOM     85  F   UNL A   1      43.698  28.235  27.044  1.00  0.00    -0.203 F 
ATOM     86  F   UNL A   1      41.148  23.482  26.234  1.00  0.00    -0.200 F 
ATOM     87  C   UNL A   1      42.767  25.064  25.562  1.00  0.00     0.200 A 
ATOM     88  F   UNL A   1      44.384  26.670  24.944  1.00  0.00    -0.200 F 
ATOM     89  F   UNL A   1      43.129  24.282  24.535  1.00  0.00    -0.200 F 
ENDBRANCH  55  79
BRANCH  67  90
ATOM     90  C   UNL A   1      44.332  27.214  34.274  1.00  0.00     0.064 A 
ATOM     91  C   UNL A   1      44.113  25.988  34.918  1.00  0.00     0.173 A 
ATOM     92  C   UNL A   1      45.628  27.752  34.305  1.00  0.00     0.173 A 
ATOM     93  F   UNL A   1      42.889  25.440  34.928  1.00  0.00    -0.203 F 
ATOM     94  C   UNL A   1      45.147  25.336  35.586  1.00  0.00     0.198 A 
ATOM     95  C   UNL A   1      46.665  27.084  34.951  1.00  0.00     0.198 A 
ATOM     96  F   UNL A   1      45.891  28.918  33.699  1.00  0.00    -0.203 F 
ATOM     97  F   UNL A   1      44.906  24.185  36.230  1.00  0.00    -0.200 F 
ATOM     98  C   UNL A   1      46.423  25.880  35.595  1.00  0.00     0.200 A 
ATOM     99  F   UNL A   1      47.900  27.606  34.949  1.00  0.00    -0.200 F 
ATOM    100  F   UNL A   1      47.418  25.248  36.233  1.00  0.00    -0.200 F 
ENDBRANCH  67  90
ENDBRANCH  41  42
ENDBRANCH  34  36
ENDBRANCH  33  34
ENDBRANCH  32  33
ENDBRANCH  31  32
ENDBRANCH  30  31
ENDBRANCH  29  30
ENDBRANCH   1  29
TORSDOF 21
ENDMDL
