MODEL 1
REMARK VINA RESULT:     -10.8      0.000      0.000
REMARK SMILES COc1cc([C@@H]2CC[NH2+][C@@H]2C(=O)OCCOCCOC(=O)c2ccc(-c3c4nc(c(-c5c(F)c(F)c(F)c(F)c5F)c5ccc([nH]5)c(-c5c(F)c(F)c(F)c(F)c5F)c5nc(c(-c6c(F)c(F)c(F)c(F)c6F)c6ccc3[nH]6)C=C5)C=C4)cc2)cc(OC)c1OC
REMARK SMILES IDX 16 1 15 2 14 3 13 4 11 5 12 6 10 7 6 8 7 9 8 10 9 11 5 14
REMARK SMILES IDX 3 15 4 16 89 17 86 18 85 19 2 20 1 21 90 22 91 23 87 24
REMARK SMILES IDX 88 25 17 26 18 27 19 28 20 29 21 30 22 31 23 32 84 33 24 34
REMARK SMILES IDX 83 35 25 36 26 37 27 38 77 39 28 40 82 41 76 42 78 43 29 44
REMARK SMILES IDX 81 45 75 46 74 47 30 49 62 50 42 51 61 52 43 53 46 54 60 55
REMARK SMILES IDX 79 56 44 57 45 58 59 60 80 61 47 62 31 63 32 64 40 65 33 66
REMARK SMILES IDX 34 67 38 68 41 69 35 70 36 71 39 72 37 73 63 74 64 75 72 76
REMARK SMILES IDX 65 77 66 78 70 79 73 80 67 81 68 82 71 83 69 84 48 85 49 86
REMARK SMILES IDX 57 87 50 88 51 89 55 90 58 91 52 92 53 93 56 94 54 95
REMARK H PARENT 9 12 9 13 78 48 46 59
REMARK Flexibility Score: inf
ROOT
ATOM      1  O   UNL A   1      32.277  27.986  25.050  1.00  0.00    -0.374 OA
ENDROOT
BRANCH   1   2
ATOM      2  C   UNL A   1      32.649  27.212  26.188  1.00  0.00     0.202 C 
BRANCH   2   3
ATOM      3  C   UNL A   1      31.910  25.888  26.394  1.00  0.00     0.261 C 
BRANCH   3   4
ATOM      4  O   UNL A   1      32.480  24.818  25.629  1.00  0.00    -0.459 OA
BRANCH   4   5
ATOM      5  C   UNL A   1      31.591  24.049  24.941  1.00  0.00     0.365 C 
ATOM      6  O   UNL A   1      30.829  23.231  25.450  1.00  0.00    -0.245 OA
BRANCH   5   7
ATOM      7  C   UNL A   1      31.616  24.305  23.431  1.00  0.00     0.301 C 
ATOM      8  C   UNL A   1      32.528  23.328  22.670  1.00  0.00     0.095 C 
ATOM      9  C   UNL A   1      33.089  24.190  21.540  1.00  0.00     0.076 C 
ATOM     10  C   UNL A   1      33.093  25.607  22.080  1.00  0.00     0.262 C 
ATOM     11  N   UNL A   1      31.995  25.697  23.042  1.00  0.00    -0.334 N 
ATOM     12  H   UNL A   1      31.198  26.169  22.617  1.00  0.00     0.347 HD
ATOM     13  H   UNL A   1      32.283  26.231  23.863  1.00  0.00     0.347 HD
BRANCH   8  14
ATOM     14  C   UNL A   1      33.578  22.634  23.521  1.00  0.00    -0.030 A 
ATOM     15  C   UNL A   1      35.858  22.574  24.388  1.00  0.00     0.164 A 
ATOM     16  C   UNL A   1      34.808  23.257  23.751  1.00  0.00     0.055 A 
ATOM     17  C   UNL A   1      35.697  21.258  24.859  1.00  0.00     0.203 A 
ATOM     18  C   UNL A   1      34.457  20.629  24.635  1.00  0.00     0.164 A 
ATOM     19  C   UNL A   1      33.422  21.323  23.982  1.00  0.00     0.055 A 
BRANCH  15  20
ATOM     20  O   UNL A   1      37.032  23.268  24.553  1.00  0.00    -0.493 OA
ATOM     21  C   UNL A   1      37.106  23.852  25.858  1.00  0.00     0.278 C 
ENDBRANCH  15  20
BRANCH  17  22
ATOM     22  O   UNL A   1      36.657  20.510  25.483  1.00  0.00    -0.490 OA
ATOM     23  C   UNL A   1      37.693  19.901  24.733  1.00  0.00     0.278 C 
ENDBRANCH  17  22
BRANCH  18  24
ATOM     24  O   UNL A   1      34.065  19.350  24.947  1.00  0.00    -0.493 OA
ATOM     25  C   UNL A   1      32.708  19.097  25.269  1.00  0.00     0.278 C 
ENDBRANCH  18  24
ENDBRANCH   8  14
ENDBRANCH   5   7
ENDBRANCH   4   5
ENDBRANCH   3   4
ENDBRANCH   2   3
ENDBRANCH   1   2
BRANCH   1  26
ATOM     26  C   UNL A   1      32.778  29.320  24.969  1.00  0.00     0.202 C 
BRANCH  26  27
ATOM     27  C   UNL A   1      32.039  30.376  25.796  1.00  0.00     0.261 C 
BRANCH  27  28
ATOM     28  O   UNL A   1      32.555  30.462  27.136  1.00  0.00    -0.460 OA
BRANCH  28  29
ATOM     29  C   UNL A   1      33.264  31.587  27.397  1.00  0.00     0.338 C 
ATOM     30  O   UNL A   1      32.852  32.733  27.426  1.00  0.00    -0.246 OA
BRANCH  29  31
ATOM     31  C   UNL A   1      34.635  31.236  27.809  1.00  0.00     0.060 A 
ATOM     32  C   UNL A   1      34.887  29.894  28.124  1.00  0.00     0.016 A 
ATOM     33  C   UNL A   1      35.622  32.207  27.983  1.00  0.00     0.016 A 
ATOM     34  C   UNL A   1      36.110  29.527  28.679  1.00  0.00     0.010 A 
ATOM     35  C   UNL A   1      36.846  31.839  28.551  1.00  0.00     0.010 A 
ATOM     36  C   UNL A   1      37.076  30.507  28.939  1.00  0.00    -0.014 A 
BRANCH  36  37
ATOM     37  C   UNL A   1      38.255  30.164  29.768  1.00  0.00     0.031 A 
ATOM     38  C   UNL A   1      39.264  29.190  29.226  1.00  0.00     0.074 A 
ATOM     39  C   UNL A   1      38.432  30.722  30.977  1.00  0.00     0.049 A 
ATOM     40  N   UNL A   1      40.345  28.713  29.786  1.00  0.00    -0.248 NA
ATOM     41  C   UNL A   1      39.016  28.683  27.866  1.00  0.00     0.031 C 
ATOM     42  C   UNL A   1      37.536  31.697  31.592  1.00  0.00     0.029 A 
ATOM     43  N   UNL A   1      39.422  30.533  31.907  1.00  0.00    -0.354 N 
ATOM     44  C   UNL A   1      40.898  27.843  28.856  1.00  0.00     0.074 A 
ATOM     45  C   UNL A   1      40.024  27.839  27.703  1.00  0.00     0.031 C 
ATOM     46  C   UNL A   1      38.005  32.007  32.813  1.00  0.00     0.029 A 
ATOM     47  C   UNL A   1      39.217  31.230  33.071  1.00  0.00     0.049 A 
ATOM     48  H   UNL A   1      40.203  29.953  31.756  1.00  0.00     0.167 HD
ATOM     49  C   UNL A   1      42.037  27.116  28.955  1.00  0.00     0.037 A 
ATOM     50  C   UNL A   1      39.918  31.220  34.222  1.00  0.00     0.037 A 
ATOM     51  C   UNL A   1      42.908  27.130  30.101  1.00  0.00     0.049 A 
ATOM     52  C   UNL A   1      41.156  30.369  34.326  1.00  0.00     0.074 A 
ATOM     53  C   UNL A   1      44.108  26.466  30.280  1.00  0.00     0.029 A 
ATOM     54  N   UNL A   1      42.663  27.840  31.268  1.00  0.00    -0.354 N 
ATOM     55  N   UNL A   1      41.697  29.582  33.429  1.00  0.00    -0.248 NA
ATOM     56  C   UNL A   1      41.884  30.412  35.602  1.00  0.00     0.031 C 
ATOM     57  C   UNL A   1      44.564  26.734  31.576  1.00  0.00     0.029 A 
ATOM     58  C   UNL A   1      43.673  27.604  32.185  1.00  0.00     0.049 A 
ATOM     59  H   UNL A   1      41.885  28.423  31.420  1.00  0.00     0.167 HD
ATOM     60  C   UNL A   1      42.835  29.050  34.020  1.00  0.00     0.074 A 
ATOM     61  C   UNL A   1      42.915  29.616  35.351  1.00  0.00     0.031 C 
ATOM     62  C   UNL A   1      43.735  28.176  33.506  1.00  0.00     0.037 A 
BRANCH  49  63
ATOM     63  C   UNL A   1      42.388  26.221  27.804  1.00  0.00     0.064 A 
ATOM     64  C   UNL A   1      43.306  26.611  26.818  1.00  0.00     0.173 A 
ATOM     65  C   UNL A   1      41.812  24.946  27.700  1.00  0.00     0.173 A 
ATOM     66  F   UNL A   1      43.873  27.825  26.864  1.00  0.00    -0.203 F 
ATOM     67  C   UNL A   1      43.614  25.766  25.753  1.00  0.00     0.198 A 
ATOM     68  C   UNL A   1      42.142  24.095  26.649  1.00  0.00     0.198 A 
ATOM     69  F   UNL A   1      40.930  24.525  28.619  1.00  0.00    -0.203 F 
ATOM     70  F   UNL A   1      44.458  26.177  24.796  1.00  0.00    -0.200 F 
ATOM     71  C   UNL A   1      43.036  24.508  25.673  1.00  0.00     0.200 A 
ATOM     72  F   UNL A   1      41.590  22.876  26.578  1.00  0.00    -0.200 F 
ATOM     73  F   UNL A   1      43.335  23.696  24.650  1.00  0.00    -0.200 F 
ENDBRANCH  49  63
BRANCH  50  74
ATOM     74  C   UNL A   1      39.446  32.030  35.372  1.00  0.00     0.064 A 
ATOM     75  C   UNL A   1      39.861  33.357  35.545  1.00  0.00     0.173 A 
ATOM     76  C   UNL A   1      38.562  31.492  36.320  1.00  0.00     0.173 A 
ATOM     77  F   UNL A   1      40.725  33.906  34.679  1.00  0.00    -0.203 F 
ATOM     78  C   UNL A   1      39.417  34.112  36.628  1.00  0.00     0.198 A 
ATOM     79  C   UNL A   1      38.099  32.257  37.388  1.00  0.00     0.198 A 
ATOM     80  F   UNL A   1      38.139  30.225  36.200  1.00  0.00    -0.203 F 
ATOM     81  F   UNL A   1      39.856  35.368  36.791  1.00  0.00    -0.200 F 
ATOM     82  C   UNL A   1      38.531  33.565  37.545  1.00  0.00     0.200 A 
ATOM     83  F   UNL A   1      37.236  31.726  38.265  1.00  0.00    -0.200 F 
ATOM     84  F   UNL A   1      38.098  34.295  38.581  1.00  0.00    -0.200 F 
ENDBRANCH  50  74
BRANCH  62  85
ATOM     85  C   UNL A   1      44.895  27.789  34.376  1.00  0.00     0.064 A 
ATOM     86  C   UNL A   1      46.075  28.546  34.405  1.00  0.00     0.173 A 
ATOM     87  C   UNL A   1      44.804  26.677  35.228  1.00  0.00     0.173 A 
ATOM     88  F   UNL A   1      46.215  29.608  33.598  1.00  0.00    -0.203 F 
ATOM     89  C   UNL A   1      47.130  28.193  35.243  1.00  0.00     0.198 A 
ATOM     90  C   UNL A   1      45.849  26.344  36.083  1.00  0.00     0.198 A 
ATOM     91  F   UNL A   1      43.693  25.925  35.242  1.00  0.00    -0.203 F 
ATOM     92  F   UNL A   1      48.264  28.908  35.227  1.00  0.00    -0.200 F 
ATOM     93  C   UNL A   1      47.013  27.098  36.086  1.00  0.00     0.200 A 
ATOM     94  F   UNL A   1      45.731  25.293  36.907  1.00  0.00    -0.200 F 
ATOM     95  F   UNL A   1      48.026  26.766  36.900  1.00  0.00    -0.200 F 
ENDBRANCH  62  85
ENDBRANCH  36  37
ENDBRANCH  29  31
ENDBRANCH  28  29
ENDBRANCH  27  28
ENDBRANCH  26  27
ENDBRANCH   1  26
TORSDOF 18
ENDMDL
MODEL 2
REMARK VINA RESULT:     -10.8      0.237      1.591
REMARK SMILES COc1cc([C@@H]2CC[NH2+][C@@H]2C(=O)OCCOCCOC(=O)c2ccc(-c3c4nc(c(-c5c(F)c(F)c(F)c(F)c5F)c5ccc([nH]5)c(-c5c(F)c(F)c(F)c(F)c5F)c5nc(c(-c6c(F)c(F)c(F)c(F)c6F)c6ccc3[nH]6)C=C5)C=C4)cc2)cc(OC)c1OC
REMARK SMILES IDX 16 1 15 2 14 3 13 4 11 5 12 6 10 7 6 8 7 9 8 10 9 11 5 14
REMARK SMILES IDX 3 15 4 16 89 17 86 18 85 19 2 20 1 21 90 22 91 23 87 24
REMARK SMILES IDX 88 25 17 26 18 27 19 28 20 29 21 30 22 31 23 32 84 33 24 34
REMARK SMILES IDX 83 35 25 36 26 37 27 38 77 39 28 40 82 41 76 42 78 43 29 44
REMARK SMILES IDX 81 45 75 46 74 47 30 49 62 50 42 51 61 52 43 53 46 54 60 55
REMARK SMILES IDX 79 56 44 57 45 58 59 60 80 61 47 62 31 63 32 64 40 65 33 66
REMARK SMILES IDX 34 67 38 68 41 69 35 70 36 71 39 72 37 73 63 74 64 75 72 76
REMARK SMILES IDX 65 77 66 78 70 79 73 80 67 81 68 82 71 83 69 84 48 85 49 86
REMARK SMILES IDX 57 87 50 88 51 89 55 90 58 91 52 92 53 93 56 94 54 95
REMARK H PARENT 9 12 9 13 78 48 46 59
REMARK Flexibility Score: inf
ROOT
ATOM      1  O   UNL A   1      32.035  28.290  25.222  1.00  0.00    -0.374 OA
ENDROOT
BRANCH   1   2
ATOM      2  C   UNL A   1      32.463  27.465  26.303  1.00  0.00     0.202 C 
BRANCH   2   3
ATOM      3  C   UNL A   1      31.762  26.114  26.460  1.00  0.00     0.261 C 
BRANCH   3   4
ATOM      4  O   UNL A   1      32.412  25.071  25.723  1.00  0.00    -0.459 OA
BRANCH   4   5
ATOM      5  C   UNL A   1      31.586  24.246  25.019  1.00  0.00     0.365 C 
ATOM      6  O   UNL A   1      30.885  23.368  25.515  1.00  0.00    -0.245 OA
BRANCH   5   7
ATOM      7  C   UNL A   1      31.602  24.521  23.513  1.00  0.00     0.301 C 
ATOM      8  C   UNL A   1      32.524  23.567  22.735  1.00  0.00     0.095 C 
ATOM      9  C   UNL A   1      33.067  24.450  21.615  1.00  0.00     0.076 C 
ATOM     10  C   UNL A   1      33.055  25.860  22.173  1.00  0.00     0.262 C 
ATOM     11  N   UNL A   1      31.960  25.923  23.141  1.00  0.00    -0.334 N 
ATOM     12  H   UNL A   1      31.154  26.390  22.725  1.00  0.00     0.347 HD
ATOM     13  H   UNL A   1      32.244  26.451  23.966  1.00  0.00     0.347 HD
BRANCH   8  14
ATOM     14  C   UNL A   1      33.586  22.876  23.574  1.00  0.00    -0.030 A 
ATOM     15  C   UNL A   1      35.869  22.841  24.436  1.00  0.00     0.164 A 
ATOM     16  C   UNL A   1      34.806  23.517  23.812  1.00  0.00     0.055 A 
ATOM     17  C   UNL A   1      35.731  21.514  24.885  1.00  0.00     0.203 A 
ATOM     18  C   UNL A   1      34.501  20.869  24.652  1.00  0.00     0.164 A 
ATOM     19  C   UNL A   1      33.454  21.556  24.013  1.00  0.00     0.055 A 
BRANCH  15  20
ATOM     20  O   UNL A   1      37.030  23.552  24.611  1.00  0.00    -0.493 OA
ATOM     21  C   UNL A   1      37.272  23.809  25.998  1.00  0.00     0.278 C 
ENDBRANCH  15  20
BRANCH  17  22
ATOM     22  O   UNL A   1      36.704  20.773  25.495  1.00  0.00    -0.490 OA
ATOM     23  C   UNL A   1      37.562  19.945  24.729  1.00  0.00     0.278 C 
ENDBRANCH  17  22
BRANCH  18  24
ATOM     24  O   UNL A   1      34.131  19.578  24.943  1.00  0.00    -0.493 OA
ATOM     25  C   UNL A   1      32.763  19.277  25.159  1.00  0.00     0.278 C 
ENDBRANCH  18  24
ENDBRANCH   8  14
ENDBRANCH   5   7
ENDBRANCH   4   5
ENDBRANCH   3   4
ENDBRANCH   2   3
ENDBRANCH   1   2
BRANCH   1  26
ATOM     26  C   UNL A   1      32.533  29.627  25.175  1.00  0.00     0.202 C 
BRANCH  26  27
ATOM     27  C   UNL A   1      31.805  30.654  26.047  1.00  0.00     0.261 C 
BRANCH  27  28
ATOM     28  O   UNL A   1      32.447  30.823  27.323  1.00  0.00    -0.460 OA
BRANCH  28  29
ATOM     29  C   UNL A   1      33.254  31.908  27.409  1.00  0.00     0.338 C 
ATOM     30  O   UNL A   1      32.939  33.079  27.291  1.00  0.00    -0.246 OA
BRANCH  29  31
ATOM     31  C   UNL A   1      34.607  31.499  27.830  1.00  0.00     0.060 A 
ATOM     32  C   UNL A   1      34.792  30.155  28.179  1.00  0.00     0.016 A 
ATOM     33  C   UNL A   1      35.641  32.423  27.981  1.00  0.00     0.016 A 
ATOM     34  C   UNL A   1      35.994  29.741  28.744  1.00  0.00     0.010 A 
ATOM     35  C   UNL A   1      36.845  32.010  28.559  1.00  0.00     0.010 A 
ATOM     36  C   UNL A   1      37.009  30.677  28.980  1.00  0.00    -0.014 A 
BRANCH  36  37
ATOM     37  C   UNL A   1      38.169  30.296  29.818  1.00  0.00     0.031 A 
ATOM     38  C   UNL A   1      39.165  29.311  29.273  1.00  0.00     0.074 A 
ATOM     39  C   UNL A   1      38.341  30.831  31.039  1.00  0.00     0.049 A 
ATOM     40  N   UNL A   1      40.229  28.803  29.839  1.00  0.00    -0.248 NA
ATOM     41  C   UNL A   1      38.925  28.832  27.902  1.00  0.00     0.031 C 
ATOM     42  C   UNL A   1      37.458  31.814  31.659  1.00  0.00     0.029 A 
ATOM     43  N   UNL A   1      39.315  30.606  31.978  1.00  0.00    -0.354 N 
ATOM     44  C   UNL A   1      40.777  27.937  28.902  1.00  0.00     0.074 A 
ATOM     45  C   UNL A   1      39.918  27.970  27.738  1.00  0.00     0.031 C 
ATOM     46  C   UNL A   1      37.917  32.093  32.891  1.00  0.00     0.029 A 
ATOM     47  C   UNL A   1      39.109  31.287  33.151  1.00  0.00     0.049 A 
ATOM     48  H   UNL A   1      40.086  30.013  31.827  1.00  0.00     0.167 HD
ATOM     49  C   UNL A   1      41.899  27.186  29.003  1.00  0.00     0.037 A 
ATOM     50  C   UNL A   1      39.794  31.244  34.310  1.00  0.00     0.037 A 
ATOM     51  C   UNL A   1      42.755  27.162  30.159  1.00  0.00     0.049 A 
ATOM     52  C   UNL A   1      41.014  30.367  34.416  1.00  0.00     0.074 A 
ATOM     53  C   UNL A   1      43.939  26.471  30.343  1.00  0.00     0.029 A 
ATOM     54  N   UNL A   1      42.509  27.858  31.335  1.00  0.00    -0.354 N 
ATOM     55  N   UNL A   1      41.550  29.583  33.512  1.00  0.00    -0.248 NA
ATOM     56  C   UNL A   1      41.726  30.373  35.701  1.00  0.00     0.031 C 
ATOM     57  C   UNL A   1      44.383  26.709  31.649  1.00  0.00     0.029 A 
ATOM     58  C   UNL A   1      43.502  27.586  32.261  1.00  0.00     0.049 A 
ATOM     59  H   UNL A   1      41.741  28.455  31.487  1.00  0.00     0.167 HD
ATOM     60  C   UNL A   1      42.670  29.019  34.109  1.00  0.00     0.074 A 
ATOM     61  C   UNL A   1      42.744  29.560  35.451  1.00  0.00     0.031 C 
ATOM     62  C   UNL A   1      43.558  28.135  33.593  1.00  0.00     0.037 A 
BRANCH  49  63
ATOM     63  C   UNL A   1      42.247  26.303  27.841  1.00  0.00     0.064 A 
ATOM     64  C   UNL A   1      41.660  25.040  27.671  1.00  0.00     0.173 A 
ATOM     65  C   UNL A   1      43.165  26.736  26.874  1.00  0.00     0.173 A 
ATOM     66  F   UNL A   1      40.786  24.574  28.576  1.00  0.00    -0.203 F 
ATOM     67  C   UNL A   1      42.000  24.232  26.588  1.00  0.00     0.198 A 
ATOM     68  C   UNL A   1      43.484  25.938  25.779  1.00  0.00     0.198 A 
ATOM     69  F   UNL A   1      43.753  27.937  26.989  1.00  0.00    -0.203 F 
ATOM     70  F   UNL A   1      41.462  23.011  26.470  1.00  0.00    -0.200 F 
ATOM     71  C   UNL A   1      42.907  24.684  25.641  1.00  0.00     0.200 A 
ATOM     72  F   UNL A   1      44.353  26.379  24.860  1.00  0.00    -0.200 F 
ATOM     73  F   UNL A   1      43.232  23.908  24.599  1.00  0.00    -0.200 F 
ENDBRANCH  49  63
BRANCH  50  74
ATOM     74  C   UNL A   1      39.325  32.045  35.468  1.00  0.00     0.064 A 
ATOM     75  C   UNL A   1      38.515  31.480  36.462  1.00  0.00     0.173 A 
ATOM     76  C   UNL A   1      39.686  33.394  35.607  1.00  0.00     0.173 A 
ATOM     77  F   UNL A   1      38.123  30.202  36.359  1.00  0.00    -0.203 F 
ATOM     78  C   UNL A   1      38.075  32.237  37.546  1.00  0.00     0.198 A 
ATOM     79  C   UNL A   1      39.267  34.142  36.704  1.00  0.00     0.198 A 
ATOM     80  F   UNL A   1      40.458  33.981  34.680  1.00  0.00    -0.203 F 
ATOM     81  F   UNL A   1      37.272  31.683  38.464  1.00  0.00    -0.200 F 
ATOM     82  C   UNL A   1      38.457  33.565  37.670  1.00  0.00     0.200 A 
ATOM     83  F   UNL A   1      39.647  35.421  36.825  1.00  0.00    -0.200 F 
ATOM     84  F   UNL A   1      38.041  34.289  38.718  1.00  0.00    -0.200 F 
ENDBRANCH  50  74
BRANCH  62  85
ATOM     85  C   UNL A   1      44.699  27.709  34.470  1.00  0.00     0.064 A 
ATOM     86  C   UNL A   1      45.893  28.442  34.527  1.00  0.00     0.173 A 
ATOM     87  C   UNL A   1      44.574  26.586  35.301  1.00  0.00     0.173 A 
ATOM     88  F   UNL A   1      46.065  29.515  33.742  1.00  0.00    -0.203 F 
ATOM     89  C   UNL A   1      46.929  28.053  35.373  1.00  0.00     0.198 A 
ATOM     90  C   UNL A   1      45.601  26.217  36.165  1.00  0.00     0.198 A 
ATOM     91  F   UNL A   1      43.448  25.856  35.288  1.00  0.00    -0.203 F 
ATOM     92  F   UNL A   1      48.077  28.746  35.385  1.00  0.00    -0.200 F 
ATOM     93  C   UNL A   1      46.780  26.947  36.195  1.00  0.00     0.200 A 
ATOM     94  F   UNL A   1      45.451  25.154  36.968  1.00  0.00    -0.200 F 
ATOM     95  F   UNL A   1      47.775  26.581  37.016  1.00  0.00    -0.200 F 
ENDBRANCH  62  85
ENDBRANCH  36  37
ENDBRANCH  29  31
ENDBRANCH  28  29
ENDBRANCH  27  28
ENDBRANCH  26  27
ENDBRANCH   1  26
TORSDOF 18
ENDMDL
MODEL 3
REMARK VINA RESULT:     -10.8      0.969      2.453
REMARK SMILES COc1cc([C@@H]2CC[NH2+][C@@H]2C(=O)OCCOCCOC(=O)c2ccc(-c3c4nc(c(-c5c(F)c(F)c(F)c(F)c5F)c5ccc([nH]5)c(-c5c(F)c(F)c(F)c(F)c5F)c5nc(c(-c6c(F)c(F)c(F)c(F)c6F)c6ccc3[nH]6)C=C5)C=C4)cc2)cc(OC)c1OC
REMARK SMILES IDX 16 1 15 2 14 3 13 4 11 5 12 6 10 7 6 8 7 9 8 10 9 11 5 14
REMARK SMILES IDX 3 15 4 16 89 17 86 18 85 19 2 20 1 21 90 22 91 23 87 24
REMARK SMILES IDX 88 25 17 26 18 27 19 28 20 29 21 30 22 31 23 32 84 33 24 34
REMARK SMILES IDX 83 35 25 36 26 37 27 38 77 39 28 40 82 41 76 42 78 43 29 44
REMARK SMILES IDX 81 45 75 46 74 47 30 49 62 50 42 51 61 52 43 53 46 54 60 55
REMARK SMILES IDX 79 56 44 57 45 58 59 60 80 61 47 62 31 63 32 64 40 65 33 66
REMARK SMILES IDX 34 67 38 68 41 69 35 70 36 71 39 72 37 73 63 74 64 75 72 76
REMARK SMILES IDX 65 77 66 78 70 79 73 80 67 81 68 82 71 83 69 84 48 85 49 86
REMARK SMILES IDX 57 87 50 88 51 89 55 90 58 91 52 92 53 93 56 94 54 95
REMARK H PARENT 9 12 9 13 78 48 46 59
REMARK Flexibility Score: inf
ROOT
ATOM      1  O   UNL A   1      32.266  29.577  23.911  1.00  0.00    -0.374 OA
ENDROOT
BRANCH   1   2
ATOM      2  C   UNL A   1      32.494  28.265  23.402  1.00  0.00     0.202 C 
BRANCH   2   3
ATOM      3  C   UNL A   1      32.486  27.120  24.418  1.00  0.00     0.261 C 
BRANCH   3   4
ATOM      4  O   UNL A   1      33.174  25.958  23.938  1.00  0.00    -0.459 OA
BRANCH   4   5
ATOM      5  C   UNL A   1      32.466  24.795  23.986  1.00  0.00     0.365 C 
ATOM      6  O   UNL A   1      32.342  24.010  23.049  1.00  0.00    -0.245 OA
BRANCH   5   7
ATOM      7  C   UNL A   1      31.823  24.537  25.352  1.00  0.00     0.301 C 
ATOM      8  C   UNL A   1      32.780  23.867  26.352  1.00  0.00     0.095 C 
ATOM      9  C   UNL A   1      31.852  22.967  27.166  1.00  0.00     0.076 C 
ATOM     10  C   UNL A   1      30.712  22.616  26.231  1.00  0.00     0.262 C 
ATOM     11  N   UNL A   1      30.562  23.738  25.305  1.00  0.00    -0.334 N 
ATOM     12  H   UNL A   1      29.771  24.317  25.585  1.00  0.00     0.347 HD
ATOM     13  H   UNL A   1      30.389  23.399  24.358  1.00  0.00     0.347 HD
BRANCH   8  14
ATOM     14  C   UNL A   1      33.968  23.156  25.725  1.00  0.00    -0.030 A 
ATOM     15  C   UNL A   1      34.983  21.079  24.943  1.00  0.00     0.164 A 
ATOM     16  C   UNL A   1      33.859  21.809  25.365  1.00  0.00     0.055 A 
ATOM     17  C   UNL A   1      36.247  21.686  24.822  1.00  0.00     0.203 A 
ATOM     18  C   UNL A   1      36.359  23.044  25.178  1.00  0.00     0.164 A 
ATOM     19  C   UNL A   1      35.226  23.754  25.613  1.00  0.00     0.055 A 
BRANCH  15  20
ATOM     20  O   UNL A   1      34.776  19.759  24.627  1.00  0.00    -0.493 OA
ATOM     21  C   UNL A   1      33.435  19.362  24.931  1.00  0.00     0.278 C 
ENDBRANCH  15  20
BRANCH  17  22
ATOM     22  O   UNL A   1      37.398  21.061  24.428  1.00  0.00    -0.490 OA
ATOM     23  C   UNL A   1      38.218  20.401  25.376  1.00  0.00     0.278 C 
ENDBRANCH  17  22
BRANCH  18  24
ATOM     24  O   UNL A   1      37.475  23.846  25.197  1.00  0.00    -0.493 OA
ATOM     25  C   UNL A   1      38.179  24.029  26.413  1.00  0.00     0.278 C 
ENDBRANCH  18  24
ENDBRANCH   8  14
ENDBRANCH   5   7
ENDBRANCH   4   5
ENDBRANCH   3   4
ENDBRANCH   2   3
ENDBRANCH   1   2
BRANCH   1  26
ATOM     26  C   UNL A   1      31.297  29.722  24.948  1.00  0.00     0.202 C 
BRANCH  26  27
ATOM     27  C   UNL A   1      31.705  30.590  26.143  1.00  0.00     0.261 C 
BRANCH  27  28
ATOM     28  O   UNL A   1      33.115  30.500  26.411  1.00  0.00    -0.460 OA
BRANCH  28  29
ATOM     29  C   UNL A   1      33.596  31.465  27.232  1.00  0.00     0.338 C 
ATOM     30  O   UNL A   1      33.002  32.437  27.662  1.00  0.00    -0.246 OA
BRANCH  29  31
ATOM     31  C   UNL A   1      34.951  31.108  27.690  1.00  0.00     0.060 A 
ATOM     32  C   UNL A   1      35.219  29.750  27.906  1.00  0.00     0.016 A 
ATOM     33  C   UNL A   1      35.903  32.080  28.000  1.00  0.00     0.016 A 
ATOM     34  C   UNL A   1      36.418  29.362  28.497  1.00  0.00     0.010 A 
ATOM     35  C   UNL A   1      37.103  31.691  28.603  1.00  0.00     0.010 A 
ATOM     36  C   UNL A   1      37.344  30.335  28.891  1.00  0.00    -0.014 A 
BRANCH  36  37
ATOM     37  C   UNL A   1      38.484  29.947  29.755  1.00  0.00     0.031 A 
ATOM     38  C   UNL A   1      39.472  28.937  29.240  1.00  0.00     0.074 A 
ATOM     39  C   UNL A   1      38.645  30.497  30.970  1.00  0.00     0.049 A 
ATOM     40  N   UNL A   1      40.517  28.419  29.832  1.00  0.00    -0.248 NA
ATOM     41  C   UNL A   1      39.246  28.441  27.873  1.00  0.00     0.031 C 
ATOM     42  C   UNL A   1      37.769  31.504  31.561  1.00  0.00     0.029 A 
ATOM     43  N   UNL A   1      39.599  30.269  31.928  1.00  0.00    -0.354 N 
ATOM     44  C   UNL A   1      41.065  27.530  28.916  1.00  0.00     0.074 A 
ATOM     45  C   UNL A   1      40.226  27.561  27.738  1.00  0.00     0.031 C 
ATOM     46  C   UNL A   1      38.212  31.793  32.796  1.00  0.00     0.029 A 
ATOM     47  C   UNL A   1      39.386  30.971  33.087  1.00  0.00     0.049 A 
ATOM     48  H   UNL A   1      40.362  29.661  31.799  1.00  0.00     0.167 HD
ATOM     49  C   UNL A   1      42.173  26.762  29.047  1.00  0.00     0.037 A 
ATOM     50  C   UNL A   1      40.051  30.933  34.259  1.00  0.00     0.037 A 
ATOM     51  C   UNL A   1      43.009  26.741  30.218  1.00  0.00     0.049 A 
ATOM     52  C   UNL A   1      41.253  30.037  34.397  1.00  0.00     0.074 A 
ATOM     53  C   UNL A   1      44.177  26.032  30.432  1.00  0.00     0.029 A 
ATOM     54  N   UNL A   1      42.755  27.458  31.379  1.00  0.00    -0.354 N 
ATOM     55  N   UNL A   1      41.791  29.232  33.515  1.00  0.00    -0.248 NA
ATOM     56  C   UNL A   1      41.944  30.050  35.695  1.00  0.00     0.031 C 
ATOM     57  C   UNL A   1      44.604  26.282  31.741  1.00  0.00     0.029 A 
ATOM     58  C   UNL A   1      43.728  27.183  32.325  1.00  0.00     0.049 A 
ATOM     59  H   UNL A   1      41.996  28.070  31.510  1.00  0.00     0.167 HD
ATOM     60  C   UNL A   1      42.890  28.657  34.138  1.00  0.00     0.074 A 
ATOM     61  C   UNL A   1      42.952  29.217  35.473  1.00  0.00     0.031 C 
ATOM     62  C   UNL A   1      43.772  27.750  33.650  1.00  0.00     0.037 A 
BRANCH  49  63
ATOM     63  C   UNL A   1      42.524  25.855  27.905  1.00  0.00     0.064 A 
ATOM     64  C   UNL A   1      43.484  26.212  26.947  1.00  0.00     0.173 A 
ATOM     65  C   UNL A   1      41.905  24.603  27.780  1.00  0.00     0.173 A 
ATOM     66  F   UNL A   1      44.094  27.405  27.013  1.00  0.00    -0.203 F 
ATOM     67  C   UNL A   1      43.792  25.359  25.889  1.00  0.00     0.198 A 
ATOM     68  C   UNL A   1      42.234  23.741  26.738  1.00  0.00     0.198 A 
ATOM     69  F   UNL A   1      40.981  24.213  28.672  1.00  0.00    -0.203 F 
ATOM     70  F   UNL A   1      44.679  25.739  24.959  1.00  0.00    -0.200 F 
ATOM     71  C   UNL A   1      43.171  24.123  25.789  1.00  0.00     0.200 A 
ATOM     72  F   UNL A   1      41.640  22.544  26.647  1.00  0.00    -0.200 F 
ATOM     73  F   UNL A   1      43.470  23.301  24.774  1.00  0.00    -0.200 F 
ENDBRANCH  49  63
BRANCH  50  74
ATOM     74  C   UNL A   1      39.576  31.759  35.397  1.00  0.00     0.064 A 
ATOM     75  C   UNL A   1      38.598  31.286  36.280  1.00  0.00     0.173 A 
ATOM     76  C   UNL A   1      40.102  33.040  35.628  1.00  0.00     0.173 A 
ATOM     77  F   UNL A   1      38.048  30.078  36.085  1.00  0.00    -0.203 F 
ATOM     78  C   UNL A   1      38.154  32.066  37.346  1.00  0.00     0.198 A 
ATOM     79  C   UNL A   1      39.675  33.809  36.709  1.00  0.00     0.198 A 
ATOM     80  F   UNL A   1      41.039  33.539  34.808  1.00  0.00    -0.203 F 
ATOM     81  F   UNL A   1      37.192  31.604  38.156  1.00  0.00    -0.200 F 
ATOM     82  C   UNL A   1      38.699  33.323  37.564  1.00  0.00     0.200 A 
ATOM     83  F   UNL A   1      40.211  35.018  36.920  1.00  0.00    -0.200 F 
ATOM     84  F   UNL A   1      38.277  34.069  38.594  1.00  0.00    -0.200 F 
ENDBRANCH  50  74
BRANCH  62  85
ATOM     85  C   UNL A   1      44.890  27.319  34.552  1.00  0.00     0.064 A 
ATOM     86  C   UNL A   1      44.783  26.176  35.358  1.00  0.00     0.173 A 
ATOM     87  C   UNL A   1      46.101  28.027  34.571  1.00  0.00     0.173 A 
ATOM     88  F   UNL A   1      43.641  25.473  35.385  1.00  0.00    -0.203 F 
ATOM     89  C   UNL A   1      45.843  25.769  36.164  1.00  0.00     0.198 A 
ATOM     90  C   UNL A   1      47.167  27.602  35.358  1.00  0.00     0.198 A 
ATOM     91  F   UNL A   1      46.255  29.123  33.813  1.00  0.00    -0.203 F 
ATOM     92  F   UNL A   1      45.707  24.695  36.955  1.00  0.00    -0.200 F 
ATOM     93  C   UNL A   1      47.035  26.476  36.157  1.00  0.00     0.200 A 
ATOM     94  F   UNL A   1      48.324  28.280  35.341  1.00  0.00    -0.200 F 
ATOM     95  F   UNL A   1      48.058  26.077  36.927  1.00  0.00    -0.200 F 
ENDBRANCH  62  85
ENDBRANCH  36  37
ENDBRANCH  29  31
ENDBRANCH  28  29
ENDBRANCH  27  28
ENDBRANCH  26  27
ENDBRANCH   1  26
TORSDOF 18
ENDMDL
