MODEL 1
REMARK VINA RESULT:     -11.3      0.000      0.000
REMARK SMILES O=C(OCCOCCOC(=O)c1c(F)cccc1NS(=O)(=O)C(F)(F)F)c1ccc(-c2c3nc(c(-c4c(F)c(F)c(F)c(F)c4F)c4ccc([nH]4)c(-c4c(F)c(F)c(F)c(F)c4F)c4nc(c(-c5c(F)c(F)c(F)c(F)c5F)c5ccc2[nH]5)C=C4)C=C3)cc1
REMARK SMILES IDX 7 1 6 2 5 3 4 4 3 5 2 6 1 7 27 8 28 9 89 10 29 11 88 12
REMARK SMILES IDX 30 13 31 14 32 15 82 16 33 17 87 18 81 19 83 20 34 21 86 22
REMARK SMILES IDX 80 23 79 24 35 26 67 27 47 28 66 29 48 30 51 31 65 32 84 33
REMARK SMILES IDX 49 34 50 35 64 37 85 38 52 39 36 40 37 41 45 42 38 43 39 44
REMARK SMILES IDX 43 45 46 46 40 47 41 48 44 49 42 50 68 51 69 52 77 53 70 54
REMARK SMILES IDX 71 55 75 56 78 57 72 58 73 59 76 60 74 61 53 62 54 63 62 64
REMARK SMILES IDX 55 65 56 66 60 67 63 68 57 69 58 70 61 71 59 72 8 73 9 74
REMARK SMILES IDX 10 75 11 76 12 77 13 78 18 79 14 80 15 81 17 82 16 83 19 84
REMARK SMILES IDX 20 86 21 87 22 88 23 89 24 90 25 91 26 92
REMARK H PARENT 83 25 51 36 19 85
REMARK Flexibility Score: inf
ROOT
ATOM      1  C   UNL A   1      32.670  29.606  27.060  1.00  0.00     0.202 C 
ENDROOT
BRANCH   1   2
ATOM      2  O   UNL A   1      32.709  30.949  26.589  1.00  0.00    -0.374 OA
BRANCH   2   3
ATOM      3  C   UNL A   1      31.564  31.746  26.870  1.00  0.00     0.202 C 
BRANCH   3   4
ATOM      4  C   UNL A   1      31.799  33.245  26.675  1.00  0.00     0.261 C 
BRANCH   4   5
ATOM      5  O   UNL A   1      32.248  33.838  27.905  1.00  0.00    -0.460 OA
BRANCH   5   6
ATOM      6  C   UNL A   1      33.478  34.335  28.174  1.00  0.00     0.338 C 
ATOM      7  O   UNL A   1      33.716  35.510  27.899  1.00  0.00    -0.246 OA
BRANCH   6   8
ATOM      8  C   UNL A   1      34.565  33.545  28.828  1.00  0.00     0.060 A 
ATOM      9  C   UNL A   1      34.446  32.222  29.258  1.00  0.00     0.016 A 
ATOM     10  C   UNL A   1      35.826  34.155  28.928  1.00  0.00     0.016 A 
ATOM     11  C   UNL A   1      35.514  31.524  29.789  1.00  0.00     0.010 A 
ATOM     12  C   UNL A   1      36.920  33.456  29.444  1.00  0.00     0.010 A 
ATOM     13  C   UNL A   1      36.756  32.135  29.876  1.00  0.00    -0.014 A 
BRANCH  13  14
ATOM     14  C   UNL A   1      37.834  31.385  30.532  1.00  0.00     0.031 A 
ATOM     15  C   UNL A   1      38.014  31.560  32.002  1.00  0.00     0.074 A 
ATOM     16  C   UNL A   1      38.522  30.470  29.830  1.00  0.00     0.049 A 
ATOM     17  N   UNL A   1      38.949  31.095  32.780  1.00  0.00    -0.248 NA
ATOM     18  C   UNL A   1      36.989  32.361  32.694  1.00  0.00     0.031 C 
ATOM     19  C   UNL A   1      38.276  30.128  28.427  1.00  0.00     0.029 A 
ATOM     20  N   UNL A   1      39.543  29.641  30.203  1.00  0.00    -0.354 N 
ATOM     21  C   UNL A   1      38.652  31.582  34.044  1.00  0.00     0.074 A 
ATOM     22  C   UNL A   1      37.443  32.365  33.936  1.00  0.00     0.031 C 
ATOM     23  C   UNL A   1      39.115  29.144  28.064  1.00  0.00     0.029 A 
ATOM     24  C   UNL A   1      40.005  28.850  29.181  1.00  0.00     0.049 A 
ATOM     25  H   UNL A   1      39.909  29.612  31.116  1.00  0.00     0.167 HD
ATOM     26  C   UNL A   1      39.355  31.394  35.182  1.00  0.00     0.037 A 
ATOM     27  C   UNL A   1      41.063  28.020  29.152  1.00  0.00     0.037 A 
ATOM     28  C   UNL A   1      40.550  30.598  35.236  1.00  0.00     0.049 A 
ATOM     29  C   UNL A   1      41.889  27.901  30.403  1.00  0.00     0.074 A 
ATOM     30  C   UNL A   1      41.410  30.393  36.296  1.00  0.00     0.029 A 
ATOM     31  N   UNL A   1      41.047  29.867  34.162  1.00  0.00    -0.354 N 
ATOM     32  N   UNL A   1      41.688  28.457  31.576  1.00  0.00    -0.248 NA
ATOM     33  C   UNL A   1      43.098  27.074  30.330  1.00  0.00     0.031 C 
ATOM     34  C   UNL A   1      42.449  29.569  35.851  1.00  0.00     0.029 A 
ATOM     35  C   UNL A   1      42.209  29.217  34.529  1.00  0.00     0.049 A 
ATOM     36  H   UNL A   1      40.631  29.819  33.271  1.00  0.00     0.167 HD
ATOM     37  C   UNL A   1      42.734  28.042  32.384  1.00  0.00     0.074 A 
ATOM     38  C   UNL A   1      43.564  27.174  31.568  1.00  0.00     0.031 C 
ATOM     39  C   UNL A   1      42.992  28.351  33.679  1.00  0.00     0.037 A 
BRANCH  26  40
ATOM     40  C   UNL A   1      38.893  32.129  36.403  1.00  0.00     0.064 A 
ATOM     41  C   UNL A   1      38.037  31.499  37.320  1.00  0.00     0.173 A 
ATOM     42  C   UNL A   1      39.316  33.434  36.693  1.00  0.00     0.173 A 
ATOM     43  F   UNL A   1      37.612  30.246  37.096  1.00  0.00    -0.203 F 
ATOM     44  C   UNL A   1      37.624  32.147  38.480  1.00  0.00     0.198 A 
ATOM     45  C   UNL A   1      38.922  34.070  37.869  1.00  0.00     0.198 A 
ATOM     46  F   UNL A   1      40.160  34.071  35.866  1.00  0.00    -0.203 F 
ATOM     47  F   UNL A   1      36.803  31.525  39.336  1.00  0.00    -0.200 F 
ATOM     48  C   UNL A   1      38.073  33.429  38.758  1.00  0.00     0.200 A 
ATOM     49  F   UNL A   1      39.386  35.296  38.154  1.00  0.00    -0.200 F 
ATOM     50  F   UNL A   1      37.701  34.040  39.891  1.00  0.00    -0.200 F 
ENDBRANCH  26  40
BRANCH  27  51
ATOM     51  C   UNL A   1      41.403  27.299  27.898  1.00  0.00     0.064 A 
ATOM     52  C   UNL A   1      40.979  25.976  27.682  1.00  0.00     0.173 A 
ATOM     53  C   UNL A   1      42.206  27.889  26.915  1.00  0.00     0.173 A 
ATOM     54  F   UNL A   1      40.207  25.362  28.589  1.00  0.00    -0.203 F 
ATOM     55  C   UNL A   1      41.377  25.265  26.552  1.00  0.00     0.198 A 
ATOM     56  C   UNL A   1      42.580  27.185  25.770  1.00  0.00     0.198 A 
ATOM     57  F   UNL A   1      42.621  29.157  27.062  1.00  0.00    -0.203 F 
ATOM     58  F   UNL A   1      40.995  23.989  26.397  1.00  0.00    -0.200 F 
ATOM     59  C   UNL A   1      42.175  25.871  25.595  1.00  0.00     0.200 A 
ATOM     60  F   UNL A   1      43.335  27.781  24.836  1.00  0.00    -0.200 F 
ATOM     61  F   UNL A   1      42.554  25.187  24.506  1.00  0.00    -0.200 F 
ENDBRANCH  27  51
BRANCH  39  62
ATOM     62  C   UNL A   1      44.200  27.727  34.306  1.00  0.00     0.064 A 
ATOM     63  C   UNL A   1      45.447  28.360  34.207  1.00  0.00     0.173 A 
ATOM     64  C   UNL A   1      44.142  26.454  34.886  1.00  0.00     0.173 A 
ATOM     65  F   UNL A   1      45.546  29.576  33.647  1.00  0.00    -0.203 F 
ATOM     66  C   UNL A   1      46.604  27.724  34.643  1.00  0.00     0.198 A 
ATOM     67  C   UNL A   1      45.299  25.831  35.344  1.00  0.00     0.198 A 
ATOM     68  F   UNL A   1      42.966  25.819  35.009  1.00  0.00    -0.203 F 
ATOM     69  F   UNL A   1      47.792  28.325  34.496  1.00  0.00    -0.200 F 
ATOM     70  C   UNL A   1      46.528  26.460  35.210  1.00  0.00     0.200 A 
ATOM     71  F   UNL A   1      45.225  24.618  35.909  1.00  0.00    -0.200 F 
ATOM     72  F   UNL A   1      47.645  25.845  35.624  1.00  0.00    -0.200 F 
ENDBRANCH  39  62
ENDBRANCH  13  14
ENDBRANCH   6   8
ENDBRANCH   5   6
ENDBRANCH   4   5
ENDBRANCH   3   4
ENDBRANCH   2   3
ENDBRANCH   1   2
BRANCH   1  73
ATOM     73  C   UNL A   1      33.137  28.700  25.925  1.00  0.00     0.261 C 
BRANCH  73  74
ATOM     74  O   UNL A   1      32.885  29.366  24.677  1.00  0.00    -0.460 OA
BRANCH  74  75
ATOM     75  C   UNL A   1      32.991  28.654  23.529  1.00  0.00     0.343 C 
ATOM     76  O   UNL A   1      33.813  28.789  22.637  1.00  0.00    -0.246 OA
BRANCH  75  77
ATOM     77  C   UNL A   1      32.053  27.514  23.602  1.00  0.00     0.119 A 
ATOM     78  C   UNL A   1      32.566  26.211  23.555  1.00  0.00     0.139 A 
ATOM     79  C   UNL A   1      30.657  27.714  23.652  1.00  0.00     0.066 A 
ATOM     80  F   UNL A   1      33.887  25.978  23.578  1.00  0.00    -0.206 F 
ATOM     81  C   UNL A   1      31.725  25.108  23.509  1.00  0.00     0.040 A 
ATOM     82  C   UNL A   1      29.823  26.587  23.629  1.00  0.00     0.028 A 
ATOM     83  C   UNL A   1      30.350  25.297  23.534  1.00  0.00     0.005 A 
BRANCH  79  84
ATOM     84  N   UNL A   1      30.073  29.016  23.853  1.00  0.00    -0.275 N 
ATOM     85  H   UNL A   1      30.390  29.579  24.596  1.00  0.00     0.180 HD
BRANCH  84  86
ATOM     86  S   UNL A   1      28.844  29.601  22.830  1.00  0.00     0.333 S 
ATOM     87  O   UNL A   1      29.485  29.675  21.527  1.00  0.00    -0.197 OA
ATOM     88  O   UNL A   1      27.696  28.724  22.994  1.00  0.00    -0.197 OA
BRANCH  86  89
ATOM     89  C   UNL A   1      28.437  31.326  23.423  1.00  0.00     0.516 C 
ATOM     90  F   UNL A   1      28.319  32.196  22.377  1.00  0.00    -0.155 F 
ATOM     91  F   UNL A   1      27.255  31.376  24.100  1.00  0.00    -0.155 F 
ATOM     92  F   UNL A   1      29.395  31.836  24.244  1.00  0.00    -0.155 F 
ENDBRANCH  86  89
ENDBRANCH  84  86
ENDBRANCH  79  84
ENDBRANCH  75  77
ENDBRANCH  74  75
ENDBRANCH  73  74
ENDBRANCH   1  73
TORSDOF 17
ENDMDL
MODEL 2
REMARK VINA RESULT:     -10.9      1.494      7.522
REMARK SMILES O=C(OCCOCCOC(=O)c1c(F)cccc1NS(=O)(=O)C(F)(F)F)c1ccc(-c2c3nc(c(-c4c(F)c(F)c(F)c(F)c4F)c4ccc([nH]4)c(-c4c(F)c(F)c(F)c(F)c4F)c4nc(c(-c5c(F)c(F)c(F)c(F)c5F)c5ccc2[nH]5)C=C4)C=C3)cc1
REMARK SMILES IDX 7 1 6 2 5 3 4 4 3 5 2 6 1 7 27 8 28 9 89 10 29 11 88 12
REMARK SMILES IDX 30 13 31 14 32 15 82 16 33 17 87 18 81 19 83 20 34 21 86 22
REMARK SMILES IDX 80 23 79 24 35 26 67 27 47 28 66 29 48 30 51 31 65 32 84 33
REMARK SMILES IDX 49 34 50 35 64 37 85 38 52 39 36 40 37 41 45 42 38 43 39 44
REMARK SMILES IDX 43 45 46 46 40 47 41 48 44 49 42 50 68 51 69 52 77 53 70 54
REMARK SMILES IDX 71 55 75 56 78 57 72 58 73 59 76 60 74 61 53 62 54 63 62 64
REMARK SMILES IDX 55 65 56 66 60 67 63 68 57 69 58 70 61 71 59 72 8 73 9 74
REMARK SMILES IDX 10 75 11 76 12 77 13 78 18 79 14 80 15 81 17 82 16 83 19 84
REMARK SMILES IDX 20 86 21 87 22 88 23 89 24 90 25 91 26 92
REMARK H PARENT 83 25 51 36 19 85
REMARK Flexibility Score: inf
ROOT
ATOM      1  C   UNL A   1      33.041  30.277  27.217  1.00  0.00     0.202 C 
ENDROOT
BRANCH   1   2
ATOM      2  O   UNL A   1      31.699  30.749  27.165  1.00  0.00    -0.374 OA
BRANCH   2   3
ATOM      3  C   UNL A   1      31.528  32.111  26.789  1.00  0.00     0.202 C 
BRANCH   3   4
ATOM      4  C   UNL A   1      32.740  32.990  27.105  1.00  0.00     0.261 C 
BRANCH   4   5
ATOM      5  O   UNL A   1      32.340  34.112  27.909  1.00  0.00    -0.460 OA
BRANCH   5   6
ATOM      6  C   UNL A   1      33.086  34.771  28.826  1.00  0.00     0.338 C 
ATOM      7  O   UNL A   1      32.748  35.905  29.162  1.00  0.00    -0.246 OA
BRANCH   6   8
ATOM      8  C   UNL A   1      34.288  34.183  29.493  1.00  0.00     0.060 A 
ATOM      9  C   UNL A   1      35.611  34.450  29.137  1.00  0.00     0.016 A 
ATOM     10  C   UNL A   1      34.062  33.380  30.622  1.00  0.00     0.016 A 
ATOM     11  C   UNL A   1      36.680  33.931  29.843  1.00  0.00     0.010 A 
ATOM     12  C   UNL A   1      35.132  32.864  31.358  1.00  0.00     0.010 A 
ATOM     13  C   UNL A   1      36.444  33.143  30.960  1.00  0.00    -0.014 A 
BRANCH  13  14
ATOM     14  C   UNL A   1      37.609  32.540  31.620  1.00  0.00     0.031 A 
ATOM     15  C   UNL A   1      38.371  31.497  30.877  1.00  0.00     0.074 A 
ATOM     16  C   UNL A   1      38.033  33.038  32.794  1.00  0.00     0.049 A 
ATOM     17  N   UNL A   1      39.360  30.751  31.282  1.00  0.00    -0.248 NA
ATOM     18  C   UNL A   1      37.974  31.272  29.476  1.00  0.00     0.031 C 
ATOM     19  C   UNL A   1      37.429  34.176  33.491  1.00  0.00     0.029 A 
ATOM     20  N   UNL A   1      39.083  32.675  33.590  1.00  0.00    -0.354 N 
ATOM     21  C   UNL A   1      39.673  29.937  30.203  1.00  0.00     0.074 A 
ATOM     22  C   UNL A   1      38.784  30.288  29.120  1.00  0.00     0.031 C 
ATOM     23  C   UNL A   1      38.134  34.429  34.605  1.00  0.00     0.029 A 
ATOM     24  C   UNL A   1      39.180  33.421  34.738  1.00  0.00     0.049 A 
ATOM     25  H   UNL A   1      39.708  31.950  33.362  1.00  0.00     0.167 HD
ATOM     26  C   UNL A   1      40.615  28.971  30.150  1.00  0.00     0.037 A 
ATOM     27  C   UNL A   1      39.999  33.265  35.793  1.00  0.00     0.037 A 
ATOM     28  C   UNL A   1      41.479  28.666  31.257  1.00  0.00     0.049 A 
ATOM     29  C   UNL A   1      40.975  32.121  35.754  1.00  0.00     0.074 A 
ATOM     30  C   UNL A   1      42.417  27.660  31.376  1.00  0.00     0.029 A 
ATOM     31  N   UNL A   1      41.505  29.388  32.446  1.00  0.00    -0.354 N 
ATOM     32  N   UNL A   1      41.197  31.263  34.785  1.00  0.00    -0.248 NA
ATOM     33  C   UNL A   1      41.791  31.898  36.952  1.00  0.00     0.031 C 
ATOM     34  C   UNL A   1      42.981  27.748  32.652  1.00  0.00     0.029 A 
ATOM     35  C   UNL A   1      42.435  28.843  33.310  1.00  0.00     0.049 A 
ATOM     36  H   UNL A   1      40.944  30.173  32.642  1.00  0.00     0.167 HD
ATOM     37  C   UNL A   1      42.182  30.406  35.246  1.00  0.00     0.074 A 
ATOM     38  C   UNL A   1      42.525  30.856  36.583  1.00  0.00     0.031 C 
ATOM     39  C   UNL A   1      42.749  29.340  34.628  1.00  0.00     0.037 A 
BRANCH  26  40
ATOM     40  C   UNL A   1      40.679  28.142  28.904  1.00  0.00     0.064 A 
ATOM     41  C   UNL A   1      39.915  26.969  28.803  1.00  0.00     0.173 A 
ATOM     42  C   UNL A   1      41.456  28.515  27.798  1.00  0.00     0.173 A 
ATOM     43  F   UNL A   1      39.145  26.574  29.828  1.00  0.00    -0.203 F 
ATOM     44  C   UNL A   1      39.927  26.201  27.641  1.00  0.00     0.198 A 
ATOM     45  C   UNL A   1      41.445  27.759  26.627  1.00  0.00     0.198 A 
ATOM     46  F   UNL A   1      42.179  29.644  27.830  1.00  0.00    -0.203 F 
ATOM     47  F   UNL A   1      39.193  25.083  27.573  1.00  0.00    -0.200 F 
ATOM     48  C   UNL A   1      40.685  26.601  26.552  1.00  0.00     0.200 A 
ATOM     49  F   UNL A   1      42.150  28.166  25.562  1.00  0.00    -0.200 F 
ATOM     50  F   UNL A   1      40.670  25.879  25.423  1.00  0.00    -0.200 F 
ENDBRANCH  26  40
BRANCH  27  51
ATOM     51  C   UNL A   1      39.884  34.178  36.960  1.00  0.00     0.064 A 
ATOM     52  C   UNL A   1      40.665  35.343  37.053  1.00  0.00     0.173 A 
ATOM     53  C   UNL A   1      39.037  33.881  38.035  1.00  0.00     0.173 A 
ATOM     54  F   UNL A   1      41.492  35.678  36.052  1.00  0.00    -0.203 F 
ATOM     55  C   UNL A   1      40.630  36.149  38.188  1.00  0.00     0.198 A 
ATOM     56  C   UNL A   1      38.981  34.705  39.159  1.00  0.00     0.198 A 
ATOM     57  F   UNL A   1      38.254  32.792  37.989  1.00  0.00    -0.203 F 
ATOM     58  F   UNL A   1      41.423  37.227  38.267  1.00  0.00    -0.200 F 
ATOM     59  C   UNL A   1      39.786  35.831  39.240  1.00  0.00     0.200 A 
ATOM     60  F   UNL A   1      38.149  34.406  40.166  1.00  0.00    -0.200 F 
ATOM     61  F   UNL A   1      39.750  36.610  40.331  1.00  0.00    -0.200 F 
ENDBRANCH  27  51
BRANCH  39  62
ATOM     62  C   UNL A   1      43.819  28.605  35.374  1.00  0.00     0.064 A 
ATOM     63  C   UNL A   1      45.169  28.883  35.119  1.00  0.00     0.173 A 
ATOM     64  C   UNL A   1      43.508  27.547  36.237  1.00  0.00     0.173 A 
ATOM     65  F   UNL A   1      45.508  29.882  34.288  1.00  0.00    -0.203 F 
ATOM     66  C   UNL A   1      46.175  28.107  35.682  1.00  0.00     0.198 A 
ATOM     67  C   UNL A   1      44.518  26.788  36.820  1.00  0.00     0.198 A 
ATOM     68  F   UNL A   1      42.229  27.254  36.516  1.00  0.00    -0.203 F 
ATOM     69  F   UNL A   1      47.458  28.359  35.389  1.00  0.00    -0.200 F 
ATOM     70  C   UNL A   1      45.848  27.059  36.531  1.00  0.00     0.200 A 
ATOM     71  F   UNL A   1      44.205  25.787  37.654  1.00  0.00    -0.200 F 
ATOM     72  F   UNL A   1      46.818  26.307  37.069  1.00  0.00    -0.200 F 
ENDBRANCH  39  62
ENDBRANCH  13  14
ENDBRANCH   6   8
ENDBRANCH   5   6
ENDBRANCH   4   5
ENDBRANCH   3   4
ENDBRANCH   2   3
ENDBRANCH   1   2
BRANCH   1  73
ATOM     73  C   UNL A   1      33.183  29.160  26.188  1.00  0.00     0.261 C 
BRANCH  73  74
ATOM     74  O   UNL A   1      31.879  28.851  25.669  1.00  0.00    -0.460 OA
BRANCH  74  75
ATOM     75  C   UNL A   1      31.410  27.587  25.806  1.00  0.00     0.343 C 
ATOM     76  O   UNL A   1      30.920  27.073  26.800  1.00  0.00    -0.246 OA
BRANCH  75  77
ATOM     77  C   UNL A   1      31.391  26.952  24.472  1.00  0.00     0.119 A 
ATOM     78  C   UNL A   1      31.736  25.599  24.361  1.00  0.00     0.139 A 
ATOM     79  C   UNL A   1      31.096  27.695  23.309  1.00  0.00     0.066 A 
ATOM     80  F   UNL A   1      31.954  24.841  25.447  1.00  0.00    -0.206 F 
ATOM     81  C   UNL A   1      31.842  24.983  23.122  1.00  0.00     0.040 A 
ATOM     82  C   UNL A   1      31.184  27.051  22.068  1.00  0.00     0.028 A 
ATOM     83  C   UNL A   1      31.577  25.713  21.972  1.00  0.00     0.005 A 
BRANCH  79  84
ATOM     84  N   UNL A   1      30.589  29.044  23.366  1.00  0.00    -0.275 N 
ATOM     85  H   UNL A   1      31.127  29.744  23.801  1.00  0.00     0.180 HD
BRANCH  84  86
ATOM     86  S   UNL A   1      29.077  29.448  22.696  1.00  0.00     0.333 S 
ATOM     87  O   UNL A   1      29.367  29.650  21.285  1.00  0.00    -0.197 OA
ATOM     88  O   UNL A   1      28.146  28.398  23.074  1.00  0.00    -0.197 OA
BRANCH  86  89
ATOM     89  C   UNL A   1      28.573  31.075  23.466  1.00  0.00     0.516 C 
ATOM     90  F   UNL A   1      27.347  30.985  24.061  1.00  0.00    -0.155 F 
ATOM     91  F   UNL A   1      29.442  31.479  24.435  1.00  0.00    -0.155 F 
ATOM     92  F   UNL A   1      28.489  32.081  22.554  1.00  0.00    -0.155 F 
ENDBRANCH  86  89
ENDBRANCH  84  86
ENDBRANCH  79  84
ENDBRANCH  75  77
ENDBRANCH  74  75
ENDBRANCH  73  74
ENDBRANCH   1  73
TORSDOF 17
ENDMDL
MODEL 3
REMARK VINA RESULT:     -10.8      0.987      2.013
REMARK SMILES O=C(OCCOCCOC(=O)c1c(F)cccc1NS(=O)(=O)C(F)(F)F)c1ccc(-c2c3nc(c(-c4c(F)c(F)c(F)c(F)c4F)c4ccc([nH]4)c(-c4c(F)c(F)c(F)c(F)c4F)c4nc(c(-c5c(F)c(F)c(F)c(F)c5F)c5ccc2[nH]5)C=C4)C=C3)cc1
REMARK SMILES IDX 7 1 6 2 5 3 4 4 3 5 2 6 1 7 27 8 28 9 89 10 29 11 88 12
REMARK SMILES IDX 30 13 31 14 32 15 82 16 33 17 87 18 81 19 83 20 34 21 86 22
REMARK SMILES IDX 80 23 79 24 35 26 67 27 47 28 66 29 48 30 51 31 65 32 84 33
REMARK SMILES IDX 49 34 50 35 64 37 85 38 52 39 36 40 37 41 45 42 38 43 39 44
REMARK SMILES IDX 43 45 46 46 40 47 41 48 44 49 42 50 68 51 69 52 77 53 70 54
REMARK SMILES IDX 71 55 75 56 78 57 72 58 73 59 76 60 74 61 53 62 54 63 62 64
REMARK SMILES IDX 55 65 56 66 60 67 63 68 57 69 58 70 61 71 59 72 8 73 9 74
REMARK SMILES IDX 10 75 11 76 12 77 13 78 18 79 14 80 15 81 17 82 16 83 19 84
REMARK SMILES IDX 20 86 21 87 22 88 23 89 24 90 25 91 26 92
REMARK H PARENT 83 25 51 36 19 85
REMARK Flexibility Score: inf
ROOT
ATOM      1  C   UNL A   1      33.285  30.074  26.517  1.00  0.00     0.202 C 
ENDROOT
BRANCH   1   2
ATOM      2  O   UNL A   1      32.837  30.907  27.580  1.00  0.00    -0.374 OA
BRANCH   2   3
ATOM      3  C   UNL A   1      31.817  31.845  27.254  1.00  0.00     0.202 C 
BRANCH   3   4
ATOM      4  C   UNL A   1      32.357  33.223  26.865  1.00  0.00     0.261 C 
BRANCH   4   5
ATOM      5  O   UNL A   1      32.381  34.086  28.014  1.00  0.00    -0.460 OA
BRANCH   5   6
ATOM      6  C   UNL A   1      33.468  34.641  28.599  1.00  0.00     0.338 C 
ATOM      7  O   UNL A   1      33.559  35.867  28.640  1.00  0.00    -0.246 OA
BRANCH   6   8
ATOM      8  C   UNL A   1      34.559  33.846  29.242  1.00  0.00     0.060 A 
ATOM      9  C   UNL A   1      34.366  32.693  30.005  1.00  0.00     0.016 A 
ATOM     10  C   UNL A   1      35.879  34.241  28.974  1.00  0.00     0.016 A 
ATOM     11  C   UNL A   1      35.425  31.962  30.510  1.00  0.00     0.010 A 
ATOM     12  C   UNL A   1      36.960  33.502  29.461  1.00  0.00     0.010 A 
ATOM     13  C   UNL A   1      36.725  32.359  30.233  1.00  0.00    -0.014 A 
BRANCH  13  14
ATOM     14  C   UNL A   1      37.812  31.604  30.869  1.00  0.00     0.031 A 
ATOM     15  C   UNL A   1      38.050  31.815  32.325  1.00  0.00     0.074 A 
ATOM     16  C   UNL A   1      38.455  30.656  30.167  1.00  0.00     0.049 A 
ATOM     17  N   UNL A   1      39.005  31.351  33.081  1.00  0.00    -0.248 NA
ATOM     18  C   UNL A   1      37.068  32.655  33.033  1.00  0.00     0.031 C 
ATOM     19  C   UNL A   1      38.150  30.283  28.784  1.00  0.00     0.029 A 
ATOM     20  N   UNL A   1      39.472  29.817  30.525  1.00  0.00    -0.354 N 
ATOM     21  C   UNL A   1      38.765  31.878  34.341  1.00  0.00     0.074 A 
ATOM     22  C   UNL A   1      37.569  32.682  34.257  1.00  0.00     0.031 C 
ATOM     23  C   UNL A   1      38.954  29.272  28.417  1.00  0.00     0.029 A 
ATOM     24  C   UNL A   1      39.880  28.990  29.508  1.00  0.00     0.049 A 
ATOM     25  H   UNL A   1      39.872  29.805  31.424  1.00  0.00     0.167 HD
ATOM     26  C   UNL A   1      39.507  31.705  35.457  1.00  0.00     0.037 A 
ATOM     27  C   UNL A   1      40.920  28.138  29.463  1.00  0.00     0.037 A 
ATOM     28  C   UNL A   1      40.687  30.887  35.488  1.00  0.00     0.049 A 
ATOM     29  C   UNL A   1      41.790  28.035  30.685  1.00  0.00     0.074 A 
ATOM     30  C   UNL A   1      41.582  30.692  36.521  1.00  0.00     0.029 A 
ATOM     31  N   UNL A   1      41.128  30.118  34.417  1.00  0.00    -0.354 N 
ATOM     32  N   UNL A   1      41.644  28.626  31.849  1.00  0.00    -0.248 NA
ATOM     33  C   UNL A   1      42.978  27.182  30.590  1.00  0.00     0.031 C 
ATOM     34  C   UNL A   1      42.588  29.836  36.061  1.00  0.00     0.029 A 
ATOM     35  C   UNL A   1      42.291  29.454  34.758  1.00  0.00     0.049 A 
ATOM     36  H   UNL A   1      40.678  30.054  33.544  1.00  0.00     0.167 HD
ATOM     37  C   UNL A   1      42.711  28.211  32.629  1.00  0.00     0.074 A 
ATOM     38  C   UNL A   1      43.493  27.305  31.807  1.00  0.00     0.031 C 
ATOM     39  C   UNL A   1      43.024  28.550  33.904  1.00  0.00     0.037 A 
BRANCH  26  40
ATOM     40  C   UNL A   1      39.106  32.483  36.674  1.00  0.00     0.064 A 
ATOM     41  C   UNL A   1      38.156  31.955  37.561  1.00  0.00     0.173 A 
ATOM     42  C   UNL A   1      39.677  33.724  36.988  1.00  0.00     0.173 A 
ATOM     43  F   UNL A   1      37.586  30.765  37.313  1.00  0.00    -0.203 F 
ATOM     44  C   UNL A   1      37.793  32.640  38.718  1.00  0.00     0.198 A 
ATOM     45  C   UNL A   1      39.333  34.395  38.160  1.00  0.00     0.198 A 
ATOM     46  F   UNL A   1      40.614  34.259  36.190  1.00  0.00    -0.203 F 
ATOM     47  F   UNL A   1      36.880  32.117  39.546  1.00  0.00    -0.200 F 
ATOM     48  C   UNL A   1      38.388  33.855  39.021  1.00  0.00     0.200 A 
ATOM     49  F   UNL A   1      39.935  35.552  38.471  1.00  0.00    -0.200 F 
ATOM     50  F   UNL A   1      38.063  34.498  40.151  1.00  0.00    -0.200 F 
ENDBRANCH  26  40
BRANCH  27  51
ATOM     51  C   UNL A   1      41.198  27.376  28.217  1.00  0.00     0.064 A 
ATOM     52  C   UNL A   1      42.023  27.906  27.210  1.00  0.00     0.173 A 
ATOM     53  C   UNL A   1      40.602  26.132  27.977  1.00  0.00     0.173 A 
ATOM     54  F   UNL A   1      42.622  29.093  27.387  1.00  0.00    -0.203 F 
ATOM     55  C   UNL A   1      42.209  27.239  26.001  1.00  0.00     0.198 A 
ATOM     56  C   UNL A   1      40.812  25.451  26.777  1.00  0.00     0.198 A 
ATOM     57  F   UNL A   1      39.822  25.572  28.913  1.00  0.00    -0.203 F 
ATOM     58  F   UNL A   1      42.964  27.792  25.042  1.00  0.00    -0.200 F 
ATOM     59  C   UNL A   1      41.605  26.011  25.787  1.00  0.00     0.200 A 
ATOM     60  F   UNL A   1      40.243  24.254  26.581  1.00  0.00    -0.200 F 
ATOM     61  F   UNL A   1      41.788  25.366  24.625  1.00  0.00    -0.200 F 
ENDBRANCH  27  51
BRANCH  39  62
ATOM     62  C   UNL A   1      44.242  27.918  34.502  1.00  0.00     0.064 A 
ATOM     63  C   UNL A   1      44.131  26.714  35.212  1.00  0.00     0.173 A 
ATOM     64  C   UNL A   1      45.483  28.566  34.481  1.00  0.00     0.173 A 
ATOM     65  F   UNL A   1      42.956  26.067  35.266  1.00  0.00    -0.203 F 
ATOM     66  C   UNL A   1      45.218  26.194  35.905  1.00  0.00     0.198 A 
ATOM     67  C   UNL A   1      46.575  28.030  35.155  1.00  0.00     0.198 A 
ATOM     68  F   UNL A   1      45.634  29.716  33.804  1.00  0.00    -0.203 F 
ATOM     69  F   UNL A   1      45.079  25.067  36.617  1.00  0.00    -0.200 F 
ATOM     70  C   UNL A   1      46.438  26.853  35.877  1.00  0.00     0.200 A 
ATOM     71  F   UNL A   1      47.759  28.656  35.113  1.00  0.00    -0.200 F 
ATOM     72  F   UNL A   1      47.484  26.354  36.551  1.00  0.00    -0.200 F 
ENDBRANCH  39  62
ENDBRANCH  13  14
ENDBRANCH   6   8
ENDBRANCH   5   6
ENDBRANCH   4   5
ENDBRANCH   3   4
ENDBRANCH   2   3
ENDBRANCH   1   2
BRANCH   1  73
ATOM     73  C   UNL A   1      32.781  28.660  26.787  1.00  0.00     0.261 C 
BRANCH  73  74
ATOM     74  O   UNL A   1      31.702  28.380  25.880  1.00  0.00    -0.460 OA
BRANCH  74  75
ATOM     75  C   UNL A   1      31.296  27.096  25.731  1.00  0.00     0.343 C 
ATOM     76  O   UNL A   1      30.630  26.426  26.505  1.00  0.00    -0.246 OA
BRANCH  75  77
ATOM     77  C   UNL A   1      31.618  26.665  24.355  1.00  0.00     0.119 A 
ATOM     78  C   UNL A   1      32.730  25.839  24.147  1.00  0.00     0.139 A 
ATOM     79  C   UNL A   1      30.869  27.120  23.249  1.00  0.00     0.066 A 
ATOM     80  F   UNL A   1      33.425  25.328  25.175  1.00  0.00    -0.206 F 
ATOM     81  C   UNL A   1      33.141  25.495  22.867  1.00  0.00     0.040 A 
ATOM     82  C   UNL A   1      31.285  26.743  21.965  1.00  0.00     0.028 A 
ATOM     83  C   UNL A   1      32.424  25.958  21.773  1.00  0.00     0.005 A 
BRANCH  79  84
ATOM     84  N   UNL A   1      29.632  27.844  23.403  1.00  0.00    -0.275 N 
ATOM     85  H   UNL A   1      28.845  27.383  23.774  1.00  0.00     0.180 HD
BRANCH  84  86
ATOM     86  S   UNL A   1      29.506  29.482  22.955  1.00  0.00     0.333 S 
ATOM     87  O   UNL A   1      30.154  30.190  24.049  1.00  0.00    -0.197 OA
ATOM     88  O   UNL A   1      30.062  29.605  21.618  1.00  0.00    -0.197 OA
BRANCH  86  89
ATOM     89  C   UNL A   1      27.682  29.890  22.944  1.00  0.00     0.516 C 
ATOM     90  F   UNL A   1      27.375  30.823  23.893  1.00  0.00    -0.155 F 
ATOM     91  F   UNL A   1      27.275  30.406  21.751  1.00  0.00    -0.155 F 
ATOM     92  F   UNL A   1      26.902  28.805  23.202  1.00  0.00    -0.155 F 
ENDBRANCH  86  89
ENDBRANCH  84  86
ENDBRANCH  79  84
ENDBRANCH  75  77
ENDBRANCH  74  75
ENDBRANCH  73  74
ENDBRANCH   1  73
TORSDOF 17
ENDMDL
