MODEL 1
REMARK VINA RESULT:     -12.1      0.000      0.000
REMARK SMILES COc1ccc([C@H]2CC(c3ccc(S(C)(=O)=O)cc3)=NN2c2ccc(C(=O)OCCOCCOC(=O)c3ccc(-c4c5nc(c(-c6c(F)c(F)c(F)c(F)c6F)c6ccc([nH]6)c(-c6c(F)c(F)c(F)c(F)c6F)c6nc(c(-c7c(F)c(F)c(F)c(F)c7F)c7ccc4[nH]7)C=C6)C=C5)cc3)cc2)cc1OC
REMARK SMILES IDX 30 1 29 2 28 3 26 4 27 5 25 6 22 7 23 8 101 9 24 10 100 11
REMARK SMILES IDX 21 12 7 13 8 14 9 15 20 16 6 17 3 18 4 19 103 20 5 21 102 22
REMARK SMILES IDX 2 23 1 24 104 25 105 26 10 27 11 28 19 29 12 30 18 31 13 32
REMARK SMILES IDX 14 33 15 34 16 35 17 36 31 37 32 38 33 39 34 40 35 41 36 42
REMARK SMILES IDX 37 43 38 44 99 45 39 46 98 47 40 48 41 49 42 50 92 51 43 52
REMARK SMILES IDX 97 53 91 54 93 55 44 56 96 57 90 58 89 59 45 61 77 62 57 63
REMARK SMILES IDX 76 64 58 65 61 66 75 67 94 68 59 69 60 70 74 72 95 73 62 74
REMARK SMILES IDX 46 75 47 76 55 77 48 78 49 79 53 80 56 81 50 82 51 83 54 84
REMARK SMILES IDX 52 85 78 86 79 87 87 88 80 89 81 90 85 91 88 92 82 93 83 94
REMARK SMILES IDX 86 95 84 96 63 97 64 98 72 99 65 100 66 101 70 102 73 103
REMARK SMILES IDX 67 104 68 105 71 106 69 107
REMARK H PARENT 93 60 61 71
REMARK Flexibility Score: inf
ROOT
ATOM      1  C   UNL A   1      42.210  23.284  25.368  1.00  0.00     0.202 C 
ENDROOT
BRANCH   1   2
ATOM      2  C   UNL A   1      41.376  23.159  26.646  1.00  0.00     0.261 C 
BRANCH   2   3
ATOM      3  O   UNL A   1      39.987  23.437  26.395  1.00  0.00    -0.460 OA
BRANCH   3   4
ATOM      4  C   UNL A   1      39.227  22.341  26.151  1.00  0.00     0.338 C 
ATOM      5  O   UNL A   1      39.499  21.186  26.436  1.00  0.00    -0.246 OA
BRANCH   4   6
ATOM      6  C   UNL A   1      37.912  22.740  25.603  1.00  0.00     0.060 A 
ATOM      7  C   UNL A   1      35.513  23.526  24.357  1.00  0.00     0.060 A 
ATOM      8  C   UNL A   1      36.282  22.476  23.835  1.00  0.00     0.029 A 
ATOM      9  C   UNL A   1      35.933  24.124  25.556  1.00  0.00     0.029 A 
ATOM     10  C   UNL A   1      37.485  22.105  24.433  1.00  0.00     0.018 A 
ATOM     11  C   UNL A   1      37.115  23.724  26.193  1.00  0.00     0.018 A 
BRANCH   7  12
ATOM     12  N   UNL A   1      34.409  24.005  23.658  1.00  0.00    -0.257 N 
ATOM     13  C   UNL A   1      33.556  23.127  22.846  1.00  0.00     0.144 C 
ATOM     14  C   UNL A   1      32.345  24.015  22.544  1.00  0.00     0.091 C 
ATOM     15  C   UNL A   1      32.691  25.227  23.362  1.00  0.00     0.071 C 
ATOM     16  N   UNL A   1      33.828  25.194  23.984  1.00  0.00    -0.176 NA
BRANCH  13  17
ATOM     17  C   UNL A   1      33.160  21.840  23.562  1.00  0.00    -0.019 A 
ATOM     18  C   UNL A   1      32.434  19.449  24.874  1.00  0.00     0.160 A 
ATOM     19  C   UNL A   1      32.237  19.594  23.493  1.00  0.00     0.051 A 
ATOM     20  C   UNL A   1      33.022  20.483  25.609  1.00  0.00     0.161 A 
ATOM     21  C   UNL A   1      32.588  20.781  22.846  1.00  0.00     0.010 A 
ATOM     22  C   UNL A   1      33.378  21.665  24.941  1.00  0.00     0.056 A 
BRANCH  18  23
ATOM     23  O   UNL A   1      32.131  18.244  25.450  1.00  0.00    -0.493 OA
ATOM     24  C   UNL A   1      32.865  17.172  24.856  1.00  0.00     0.278 C 
ENDBRANCH  18  23
BRANCH  20  25
ATOM     25  O   UNL A   1      33.326  20.517  26.942  1.00  0.00    -0.493 OA
ATOM     26  C   UNL A   1      33.958  21.676  27.464  1.00  0.00     0.278 C 
ENDBRANCH  20  25
ENDBRANCH  13  17
BRANCH  15  27
ATOM     27  C   UNL A   1      31.800  26.393  23.370  1.00  0.00    -0.002 A 
ATOM     28  C   UNL A   1      32.299  27.619  22.917  1.00  0.00     0.011 A 
ATOM     29  C   UNL A   1      30.467  26.265  23.767  1.00  0.00     0.011 A 
ATOM     30  C   UNL A   1      31.450  28.722  22.828  1.00  0.00     0.021 A 
ATOM     31  C   UNL A   1      29.621  27.375  23.704  1.00  0.00     0.021 A 
ATOM     32  C   UNL A   1      30.115  28.596  23.230  1.00  0.00     0.067 A 
BRANCH  32  33
ATOM     33  S   UNL A   1      29.027  29.994  23.069  1.00  0.00     0.175 S 
ATOM     34  C   UNL A   1      29.292  30.573  21.415  1.00  0.00     0.163 C 
ATOM     35  O   UNL A   1      27.674  29.480  23.163  1.00  0.00    -0.224 OA
ATOM     36  O   UNL A   1      29.499  31.024  23.974  1.00  0.00    -0.224 OA
ENDBRANCH  32  33
ENDBRANCH  15  27
ENDBRANCH   7  12
ENDBRANCH   4   6
ENDBRANCH   3   4
ENDBRANCH   2   3
ENDBRANCH   1   2
BRANCH   1  37
ATOM     37  O   UNL A   1      43.445  22.569  25.358  1.00  0.00    -0.374 OA
BRANCH  37  38
ATOM     38  C   UNL A   1      44.280  22.747  24.211  1.00  0.00     0.202 C 
BRANCH  38  39
ATOM     39  C   UNL A   1      45.739  23.111  24.509  1.00  0.00     0.261 C 
BRANCH  39  40
ATOM     40  O   UNL A   1      45.843  23.966  25.663  1.00  0.00    -0.460 OA
BRANCH  40  41
ATOM     41  C   UNL A   1      45.830  25.294  25.396  1.00  0.00     0.338 C 
ATOM     42  O   UNL A   1      46.372  25.871  24.471  1.00  0.00    -0.246 OA
BRANCH  41  43
ATOM     43  C   UNL A   1      44.897  25.978  26.314  1.00  0.00     0.060 A 
ATOM     44  C   UNL A   1      44.820  27.375  26.232  1.00  0.00     0.016 A 
ATOM     45  C   UNL A   1      44.164  25.284  27.279  1.00  0.00     0.016 A 
ATOM     46  C   UNL A   1      44.049  28.087  27.148  1.00  0.00     0.010 A 
ATOM     47  C   UNL A   1      43.398  26.001  28.204  1.00  0.00     0.010 A 
ATOM     48  C   UNL A   1      43.365  27.408  28.165  1.00  0.00    -0.014 A 
BRANCH  48  49
ATOM     49  C   UNL A   1      42.746  28.176  29.273  1.00  0.00     0.031 A 
ATOM     50  C   UNL A   1      43.471  28.269  30.587  1.00  0.00     0.074 A 
ATOM     51  C   UNL A   1      41.576  28.816  29.101  1.00  0.00     0.049 A 
ATOM     52  N   UNL A   1      43.105  28.849  31.702  1.00  0.00    -0.248 NA
ATOM     53  C   UNL A   1      44.792  27.621  30.653  1.00  0.00     0.031 C 
ATOM     54  C   UNL A   1      40.804  28.847  27.861  1.00  0.00     0.029 A 
ATOM     55  N   UNL A   1      40.832  29.563  29.981  1.00  0.00    -0.354 N 
ATOM     56  C   UNL A   1      44.149  28.643  32.595  1.00  0.00     0.074 A 
ATOM     57  C   UNL A   1      45.148  27.853  31.907  1.00  0.00     0.031 C 
ATOM     58  C   UNL A   1      39.688  29.570  28.060  1.00  0.00     0.029 A 
ATOM     59  C   UNL A   1      39.654  30.025  29.450  1.00  0.00     0.049 A 
ATOM     60  H   UNL A   1      41.117  29.750  30.904  1.00  0.00     0.167 HD
ATOM     61  C   UNL A   1      44.269  29.085  33.869  1.00  0.00     0.037 A 
ATOM     62  C   UNL A   1      38.653  30.717  30.029  1.00  0.00     0.037 A 
ATOM     63  C   UNL A   1      43.273  29.862  34.558  1.00  0.00     0.049 A 
ATOM     64  C   UNL A   1      38.772  31.112  31.479  1.00  0.00     0.074 A 
ATOM     65  C   UNL A   1      43.294  30.337  35.857  1.00  0.00     0.029 A 
ATOM     66  N   UNL A   1      42.075  30.279  33.997  1.00  0.00    -0.354 N 
ATOM     67  N   UNL A   1      39.762  30.917  32.316  1.00  0.00    -0.248 NA
ATOM     68  C   UNL A   1      37.629  31.828  32.067  1.00  0.00     0.031 C 
ATOM     69  C   UNL A   1      42.091  31.012  36.096  1.00  0.00     0.029 A 
ATOM     70  C   UNL A   1      41.342  30.995  34.930  1.00  0.00     0.049 A 
ATOM     71  H   UNL A   1      41.788  30.094  33.074  1.00  0.00     0.167 HD
ATOM     72  C   UNL A   1      39.380  31.515  33.510  1.00  0.00     0.074 A 
ATOM     73  C   UNL A   1      38.069  32.089  33.288  1.00  0.00     0.031 C 
ATOM     74  C   UNL A   1      40.051  31.582  34.685  1.00  0.00     0.037 A 
BRANCH  61  75
ATOM     75  C   UNL A   1      45.523  28.730  34.610  1.00  0.00     0.064 A 
ATOM     76  C   UNL A   1      46.647  29.569  34.589  1.00  0.00     0.173 A 
ATOM     77  C   UNL A   1      45.587  27.564  35.389  1.00  0.00     0.173 A 
ATOM     78  F   UNL A   1      46.640  30.688  33.847  1.00  0.00    -0.203 F 
ATOM     79  C   UNL A   1      47.795  29.247  35.308  1.00  0.00     0.198 A 
ATOM     80  C   UNL A   1      46.728  27.258  36.126  1.00  0.00     0.198 A 
ATOM     81  F   UNL A   1      44.538  26.730  35.444  1.00  0.00    -0.203 F 
ATOM     82  F   UNL A   1      48.870  30.045  35.245  1.00  0.00    -0.200 F 
ATOM     83  C   UNL A   1      47.832  28.096  36.082  1.00  0.00     0.200 A 
ATOM     84  F   UNL A   1      46.758  26.151  36.882  1.00  0.00    -0.200 F 
ATOM     85  F   UNL A   1      48.933  27.794  36.782  1.00  0.00    -0.200 F 
ENDBRANCH  61  75
BRANCH  62  86
ATOM     86  C   UNL A   1      37.437  31.075  29.253  1.00  0.00     0.064 A 
ATOM     87  C   UNL A   1      37.214  32.390  28.822  1.00  0.00     0.173 A 
ATOM     88  C   UNL A   1      36.446  30.121  28.974  1.00  0.00     0.173 A 
ATOM     89  F   UNL A   1      38.118  33.343  29.089  1.00  0.00    -0.203 F 
ATOM     90  C   UNL A   1      36.036  32.744  28.168  1.00  0.00     0.198 A 
ATOM     91  C   UNL A   1      35.281  30.470  28.295  1.00  0.00     0.198 A 
ATOM     92  F   UNL A   1      36.606  28.849  29.369  1.00  0.00    -0.203 F 
ATOM     93  F   UNL A   1      35.822  34.020  27.822  1.00  0.00    -0.200 F 
ATOM     94  C   UNL A   1      35.072  31.783  27.901  1.00  0.00     0.200 A 
ATOM     95  F   UNL A   1      34.356  29.536  28.032  1.00  0.00    -0.200 F 
ATOM     96  F   UNL A   1      33.935  32.126  27.280  1.00  0.00    -0.200 F 
ENDBRANCH  62  86
BRANCH  74  97
ATOM     97  C   UNL A   1      39.410  32.349  35.805  1.00  0.00     0.064 A 
ATOM     98  C   UNL A   1      39.665  33.714  36.004  1.00  0.00     0.173 A 
ATOM     99  C   UNL A   1      38.499  31.716  36.665  1.00  0.00     0.173 A 
ATOM    100  F   UNL A   1      40.539  34.360  35.217  1.00  0.00    -0.203 F 
ATOM    101  C   UNL A   1      39.047  34.412  37.039  1.00  0.00     0.198 A 
ATOM    102  C   UNL A   1      37.863  32.425  37.680  1.00  0.00     0.198 A 
ATOM    103  F   UNL A   1      38.217  30.414  36.512  1.00  0.00    -0.203 F 
ATOM    104  F   UNL A   1      39.339  35.705  37.239  1.00  0.00    -0.200 F 
ATOM    105  C   UNL A   1      38.142  33.769  37.871  1.00  0.00     0.200 A 
ATOM    106  F   UNL A   1      36.980  31.805  38.475  1.00  0.00    -0.200 F 
ATOM    107  F   UNL A   1      37.545  34.444  38.863  1.00  0.00    -0.200 F 
ENDBRANCH  74  97
ENDBRANCH  48  49
ENDBRANCH  41  43
ENDBRANCH  40  41
ENDBRANCH  39  40
ENDBRANCH  38  39
ENDBRANCH  37  38
ENDBRANCH   1  37
TORSDOF 20
ENDMDL
MODEL 2
REMARK VINA RESULT:     -11.7      1.178      6.986
REMARK SMILES COc1ccc([C@H]2CC(c3ccc(S(C)(=O)=O)cc3)=NN2c2ccc(C(=O)OCCOCCOC(=O)c3ccc(-c4c5nc(c(-c6c(F)c(F)c(F)c(F)c6F)c6ccc([nH]6)c(-c6c(F)c(F)c(F)c(F)c6F)c6nc(c(-c7c(F)c(F)c(F)c(F)c7F)c7ccc4[nH]7)C=C6)C=C5)cc3)cc2)cc1OC
REMARK SMILES IDX 30 1 29 2 28 3 26 4 27 5 25 6 22 7 23 8 101 9 24 10 100 11
REMARK SMILES IDX 21 12 7 13 8 14 9 15 20 16 6 17 3 18 4 19 103 20 5 21 102 22
REMARK SMILES IDX 2 23 1 24 104 25 105 26 10 27 11 28 19 29 12 30 18 31 13 32
REMARK SMILES IDX 14 33 15 34 16 35 17 36 31 37 32 38 33 39 34 40 35 41 36 42
REMARK SMILES IDX 37 43 38 44 99 45 39 46 98 47 40 48 41 49 42 50 92 51 43 52
REMARK SMILES IDX 97 53 91 54 93 55 44 56 96 57 90 58 89 59 45 61 77 62 57 63
REMARK SMILES IDX 76 64 58 65 61 66 75 67 94 68 59 69 60 70 74 72 95 73 62 74
REMARK SMILES IDX 46 75 47 76 55 77 48 78 49 79 53 80 56 81 50 82 51 83 54 84
REMARK SMILES IDX 52 85 78 86 79 87 87 88 80 89 81 90 85 91 88 92 82 93 83 94
REMARK SMILES IDX 86 95 84 96 63 97 64 98 72 99 65 100 66 101 70 102 73 103
REMARK SMILES IDX 67 104 68 105 71 106 69 107
REMARK H PARENT 93 60 61 71
REMARK Flexibility Score: inf
ROOT
ATOM      1  C   UNL A   1      41.503  21.533  27.382  1.00  0.00     0.202 C 
ENDROOT
BRANCH   1   2
ATOM      2  C   UNL A   1      40.529  21.258  26.234  1.00  0.00     0.261 C 
BRANCH   2   3
ATOM      3  O   UNL A   1      39.203  21.717  26.550  1.00  0.00    -0.460 OA
BRANCH   3   4
ATOM      4  C   UNL A   1      38.988  23.033  26.303  1.00  0.00     0.338 C 
ATOM      5  O   UNL A   1      39.795  23.939  26.422  1.00  0.00    -0.246 OA
BRANCH   4   6
ATOM      6  C   UNL A   1      37.646  23.232  25.711  1.00  0.00     0.060 A 
ATOM      7  C   UNL A   1      35.199  23.677  24.393  1.00  0.00     0.060 A 
ATOM      8  C   UNL A   1      36.182  22.857  23.823  1.00  0.00     0.029 A 
ATOM      9  C   UNL A   1      35.438  24.209  25.670  1.00  0.00     0.029 A 
ATOM     10  C   UNL A   1      37.406  22.659  24.458  1.00  0.00     0.018 A 
ATOM     11  C   UNL A   1      36.645  23.975  26.341  1.00  0.00     0.018 A 
BRANCH   7  12
ATOM     12  N   UNL A   1      34.055  24.011  23.674  1.00  0.00    -0.257 N 
ATOM     13  C   UNL A   1      33.283  23.009  22.925  1.00  0.00     0.144 C 
ATOM     14  C   UNL A   1      31.997  23.765  22.577  1.00  0.00     0.091 C 
ATOM     15  C   UNL A   1      32.233  25.051  23.316  1.00  0.00     0.071 C 
ATOM     16  N   UNL A   1      33.369  25.160  23.930  1.00  0.00    -0.176 NA
BRANCH  13  17
ATOM     17  C   UNL A   1      33.006  21.740  23.723  1.00  0.00    -0.019 A 
ATOM     18  C   UNL A   1      32.484  19.400  25.210  1.00  0.00     0.160 A 
ATOM     19  C   UNL A   1      32.749  20.613  25.860  1.00  0.00     0.051 A 
ATOM     20  C   UNL A   1      32.447  19.346  23.813  1.00  0.00     0.161 A 
ATOM     21  C   UNL A   1      33.017  21.770  25.123  1.00  0.00     0.010 A 
ATOM     22  C   UNL A   1      32.708  20.520  23.088  1.00  0.00     0.056 A 
BRANCH  18  23
ATOM     23  O   UNL A   1      32.167  18.309  25.976  1.00  0.00    -0.493 OA
ATOM     24  C   UNL A   1      33.071  17.225  25.757  1.00  0.00     0.278 C 
ENDBRANCH  18  23
BRANCH  20  25
ATOM     25  O   UNL A   1      32.174  18.276  23.006  1.00  0.00    -0.493 OA
ATOM     26  C   UNL A   1      33.257  17.610  22.375  1.00  0.00     0.278 C 
ENDBRANCH  20  25
ENDBRANCH  13  17
BRANCH  15  27
ATOM     27  C   UNL A   1      31.240  26.131  23.257  1.00  0.00    -0.002 A 
ATOM     28  C   UNL A   1      31.648  27.390  22.805  1.00  0.00     0.011 A 
ATOM     29  C   UNL A   1      29.906  25.887  23.590  1.00  0.00     0.011 A 
ATOM     30  C   UNL A   1      30.708  28.410  22.654  1.00  0.00     0.021 A 
ATOM     31  C   UNL A   1      28.966  26.914  23.465  1.00  0.00     0.021 A 
ATOM     32  C   UNL A   1      29.371  28.168  22.992  1.00  0.00     0.067 A 
BRANCH  32  33
ATOM     33  S   UNL A   1      28.170  29.457  22.751  1.00  0.00     0.175 S 
ATOM     34  C   UNL A   1      28.886  30.880  23.528  1.00  0.00     0.163 C 
ATOM     35  O   UNL A   1      28.102  29.700  21.323  1.00  0.00    -0.224 OA
ATOM     36  O   UNL A   1      26.984  29.098  23.505  1.00  0.00    -0.224 OA
ENDBRANCH  32  33
ENDBRANCH  15  27
ENDBRANCH   7  12
ENDBRANCH   4   6
ENDBRANCH   3   4
ENDBRANCH   2   3
ENDBRANCH   1   2
BRANCH   1  37
ATOM     37  O   UNL A   1      42.798  21.998  27.002  1.00  0.00    -0.374 OA
BRANCH  37  38
ATOM     38  C   UNL A   1      43.224  21.692  25.671  1.00  0.00     0.202 C 
BRANCH  38  39
ATOM     39  C   UNL A   1      43.946  22.826  24.935  1.00  0.00     0.261 C 
BRANCH  39  40
ATOM     40  O   UNL A   1      44.213  23.938  25.811  1.00  0.00    -0.460 OA
BRANCH  40  41
ATOM     41  C   UNL A   1      43.423  25.021  25.618  1.00  0.00     0.338 C 
ATOM     42  O   UNL A   1      42.791  25.312  24.619  1.00  0.00    -0.246 OA
BRANCH  41  43
ATOM     43  C   UNL A   1      43.278  25.764  26.887  1.00  0.00     0.060 A 
ATOM     44  C   UNL A   1      42.444  25.210  27.867  1.00  0.00     0.016 A 
ATOM     45  C   UNL A   1      43.886  27.004  27.094  1.00  0.00     0.016 A 
ATOM     46  C   UNL A   1      42.173  25.917  29.036  1.00  0.00     0.010 A 
ATOM     47  C   UNL A   1      43.605  27.718  28.264  1.00  0.00     0.010 A 
ATOM     48  C   UNL A   1      42.719  27.193  29.224  1.00  0.00    -0.014 A 
BRANCH  48  49
ATOM     49  C   UNL A   1      42.243  28.037  30.347  1.00  0.00     0.031 A 
ATOM     50  C   UNL A   1      41.008  28.873  30.154  1.00  0.00     0.074 A 
ATOM     51  C   UNL A   1      42.876  28.030  31.534  1.00  0.00     0.049 A 
ATOM     52  N   UNL A   1      40.433  29.713  30.978  1.00  0.00    -0.248 NA
ATOM     53  C   UNL A   1      40.325  28.742  28.857  1.00  0.00     0.031 C 
ATOM     54  C   UNL A   1      44.049  27.224  31.862  1.00  0.00     0.029 A 
ATOM     55  N   UNL A   1      42.615  28.731  32.685  1.00  0.00    -0.354 N 
ATOM     56  C   UNL A   1      39.322  30.202  30.304  1.00  0.00     0.074 A 
ATOM     57  C   UNL A   1      39.321  29.596  28.990  1.00  0.00     0.031 C 
ATOM     58  C   UNL A   1      44.414  27.481  33.129  1.00  0.00     0.029 A 
ATOM     59  C   UNL A   1      43.520  28.493  33.690  1.00  0.00     0.049 A 
ATOM     60  H   UNL A   1      41.852  29.346  32.781  1.00  0.00     0.167 HD
ATOM     61  C   UNL A   1      38.380  31.069  30.746  1.00  0.00     0.037 A 
ATOM     62  C   UNL A   1      43.623  29.048  34.914  1.00  0.00     0.037 A 
ATOM     63  C   UNL A   1      38.385  31.681  32.048  1.00  0.00     0.049 A 
ATOM     64  C   UNL A   1      42.615  30.083  35.343  1.00  0.00     0.074 A 
ATOM     65  C   UNL A   1      37.487  32.589  32.580  1.00  0.00     0.029 A 
ATOM     66  N   UNL A   1      39.339  31.442  33.025  1.00  0.00    -0.354 N 
ATOM     67  N   UNL A   1      41.566  30.539  34.702  1.00  0.00    -0.248 NA
ATOM     68  C   UNL A   1      42.806  30.683  36.672  1.00  0.00     0.031 C 
ATOM     69  C   UNL A   1      37.917  32.928  33.867  1.00  0.00     0.029 A 
ATOM     70  C   UNL A   1      39.059  32.197  34.152  1.00  0.00     0.049 A 
ATOM     71  H   UNL A   1      40.103  30.828  32.932  1.00  0.00     0.167 HD
ATOM     72  C   UNL A   1      40.954  31.444  35.559  1.00  0.00     0.074 A 
ATOM     73  C   UNL A   1      41.744  31.469  36.772  1.00  0.00     0.031 C 
ATOM     74  C   UNL A   1      39.841  32.189  35.361  1.00  0.00     0.037 A 
BRANCH  61  75
ATOM     75  C   UNL A   1      37.264  31.417  29.807  1.00  0.00     0.064 A 
ATOM     76  C   UNL A   1      36.265  30.488  29.482  1.00  0.00     0.173 A 
ATOM     77  C   UNL A   1      37.164  32.707  29.264  1.00  0.00     0.173 A 
ATOM     78  F   UNL A   1      36.326  29.237  29.964  1.00  0.00    -0.203 F 
ATOM     79  C   UNL A   1      35.215  30.831  28.636  1.00  0.00     0.198 A 
ATOM     80  C   UNL A   1      36.098  33.055  28.438  1.00  0.00     0.198 A 
ATOM     81  F   UNL A   1      38.093  33.634  29.545  1.00  0.00    -0.203 F 
ATOM     82  F   UNL A   1      34.290  29.917  28.311  1.00  0.00    -0.200 F 
ATOM     83  C   UNL A   1      35.127  32.117  28.121  1.00  0.00     0.200 A 
ATOM     84  F   UNL A   1      36.009  34.300  27.950  1.00  0.00    -0.200 F 
ATOM     85  F   UNL A   1      34.109  32.449  27.316  1.00  0.00    -0.200 F 
ENDBRANCH  61  75
BRANCH  62  86
ATOM     86  C   UNL A   1      44.729  28.656  35.827  1.00  0.00     0.064 A 
ATOM     87  C   UNL A   1      45.955  29.335  35.812  1.00  0.00     0.173 A 
ATOM     88  C   UNL A   1      44.600  27.560  36.694  1.00  0.00     0.173 A 
ATOM     89  F   UNL A   1      46.136  30.370  34.980  1.00  0.00    -0.203 F 
ATOM     90  C   UNL A   1      47.019  28.915  36.607  1.00  0.00     0.198 A 
ATOM     91  C   UNL A   1      45.657  27.159  37.509  1.00  0.00     0.198 A 
ATOM     92  F   UNL A   1      43.450  26.872  36.744  1.00  0.00    -0.203 F 
ATOM     93  F   UNL A   1      48.200  29.544  36.527  1.00  0.00    -0.200 F 
ATOM     94  C   UNL A   1      46.869  27.830  37.458  1.00  0.00     0.200 A 
ATOM     95  F   UNL A   1      45.503  26.115  38.336  1.00  0.00    -0.200 F 
ATOM     96  F   UNL A   1      47.896  27.422  38.216  1.00  0.00    -0.200 F 
ENDBRANCH  62  86
BRANCH  74  97
ATOM     97  C   UNL A   1      39.374  33.052  36.498  1.00  0.00     0.064 A 
ATOM     98  C   UNL A   1      38.427  32.598  37.427  1.00  0.00     0.173 A 
ATOM     99  C   UNL A   1      39.914  34.335  36.681  1.00  0.00     0.173 A 
ATOM    100  F   UNL A   1      37.871  31.386  37.287  1.00  0.00    -0.203 F 
ATOM    101  C   UNL A   1      38.019  33.407  38.485  1.00  0.00     0.198 A 
ATOM    102  C   UNL A   1      39.525  35.129  37.755  1.00  0.00     0.198 A 
ATOM    103  F   UNL A   1      40.829  34.812  35.823  1.00  0.00    -0.203 F 
ATOM    104  F   UNL A   1      37.079  32.971  39.335  1.00  0.00    -0.200 F 
ATOM    105  C   UNL A   1      38.573  34.668  38.651  1.00  0.00     0.200 A 
ATOM    106  F   UNL A   1      40.070  36.342  37.922  1.00  0.00    -0.200 F 
ATOM    107  F   UNL A   1      38.183  35.443  39.673  1.00  0.00    -0.200 F 
ENDBRANCH  74  97
ENDBRANCH  48  49
ENDBRANCH  41  43
ENDBRANCH  40  41
ENDBRANCH  39  40
ENDBRANCH  38  39
ENDBRANCH  37  38
ENDBRANCH   1  37
TORSDOF 20
ENDMDL
MODEL 3
REMARK VINA RESULT:     -11.5      1.894      7.174
REMARK SMILES COc1ccc([C@H]2CC(c3ccc(S(C)(=O)=O)cc3)=NN2c2ccc(C(=O)OCCOCCOC(=O)c3ccc(-c4c5nc(c(-c6c(F)c(F)c(F)c(F)c6F)c6ccc([nH]6)c(-c6c(F)c(F)c(F)c(F)c6F)c6nc(c(-c7c(F)c(F)c(F)c(F)c7F)c7ccc4[nH]7)C=C6)C=C5)cc3)cc2)cc1OC
REMARK SMILES IDX 30 1 29 2 28 3 26 4 27 5 25 6 22 7 23 8 101 9 24 10 100 11
REMARK SMILES IDX 21 12 7 13 8 14 9 15 20 16 6 17 3 18 4 19 103 20 5 21 102 22
REMARK SMILES IDX 2 23 1 24 104 25 105 26 10 27 11 28 19 29 12 30 18 31 13 32
REMARK SMILES IDX 14 33 15 34 16 35 17 36 31 37 32 38 33 39 34 40 35 41 36 42
REMARK SMILES IDX 37 43 38 44 99 45 39 46 98 47 40 48 41 49 42 50 92 51 43 52
REMARK SMILES IDX 97 53 91 54 93 55 44 56 96 57 90 58 89 59 45 61 77 62 57 63
REMARK SMILES IDX 76 64 58 65 61 66 75 67 94 68 59 69 60 70 74 72 95 73 62 74
REMARK SMILES IDX 46 75 47 76 55 77 48 78 49 79 53 80 56 81 50 82 51 83 54 84
REMARK SMILES IDX 52 85 78 86 79 87 87 88 80 89 81 90 85 91 88 92 82 93 83 94
REMARK SMILES IDX 86 95 84 96 63 97 64 98 72 99 65 100 66 101 70 102 73 103
REMARK SMILES IDX 67 104 68 105 71 106 69 107
REMARK H PARENT 93 60 61 71
REMARK Flexibility Score: inf
ROOT
ATOM      1  C   UNL A   1      41.363  20.869  27.217  1.00  0.00     0.202 C 
ENDROOT
BRANCH   1   2
ATOM      2  C   UNL A   1      40.393  21.101  26.055  1.00  0.00     0.261 C 
BRANCH   2   3
ATOM      3  O   UNL A   1      39.129  21.605  26.519  1.00  0.00    -0.460 OA
BRANCH   3   4
ATOM      4  C   UNL A   1      38.945  22.935  26.322  1.00  0.00     0.338 C 
ATOM      5  O   UNL A   1      39.769  23.818  26.488  1.00  0.00    -0.246 OA
BRANCH   4   6
ATOM      6  C   UNL A   1      37.616  23.185  25.721  1.00  0.00     0.060 A 
ATOM      7  C   UNL A   1      35.196  23.700  24.379  1.00  0.00     0.060 A 
ATOM      8  C   UNL A   1      36.098  22.746  23.889  1.00  0.00     0.029 A 
ATOM      9  C   UNL A   1      35.496  24.336  25.594  1.00  0.00     0.029 A 
ATOM     10  C   UNL A   1      37.311  22.511  24.535  1.00  0.00     0.018 A 
ATOM     11  C   UNL A   1      36.690  24.070  26.278  1.00  0.00     0.018 A 
BRANCH   7  12
ATOM     12  N   UNL A   1      34.073  24.054  23.637  1.00  0.00    -0.257 N 
ATOM     13  C   UNL A   1      33.311  23.071  22.855  1.00  0.00     0.144 C 
ATOM     14  C   UNL A   1      32.041  23.844  22.485  1.00  0.00     0.091 C 
ATOM     15  C   UNL A   1      32.271  25.118  23.247  1.00  0.00     0.071 C 
ATOM     16  N   UNL A   1      33.392  25.207  23.890  1.00  0.00    -0.176 NA
BRANCH  13  17
ATOM     17  C   UNL A   1      33.002  21.794  23.628  1.00  0.00    -0.019 A 
ATOM     18  C   UNL A   1      32.437  19.421  25.045  1.00  0.00     0.160 A 
ATOM     19  C   UNL A   1      32.231  19.490  23.661  1.00  0.00     0.051 A 
ATOM     20  C   UNL A   1      32.954  20.523  25.733  1.00  0.00     0.161 A 
ATOM     21  C   UNL A   1      32.502  20.669  22.960  1.00  0.00     0.010 A 
ATOM     22  C   UNL A   1      33.231  21.696  25.013  1.00  0.00     0.056 A 
BRANCH  18  23
ATOM     23  O   UNL A   1      32.215  18.224  25.675  1.00  0.00    -0.493 OA
ATOM     24  C   UNL A   1      32.678  17.120  24.896  1.00  0.00     0.278 C 
ENDBRANCH  18  23
BRANCH  20  25
ATOM     25  O   UNL A   1      33.254  20.636  27.063  1.00  0.00    -0.493 OA
ATOM     26  C   UNL A   1      33.802  21.858  27.532  1.00  0.00     0.278 C 
ENDBRANCH  20  25
ENDBRANCH  13  17
BRANCH  15  27
ATOM     27  C   UNL A   1      31.290  26.208  23.179  1.00  0.00    -0.002 A 
ATOM     28  C   UNL A   1      31.612  27.351  22.439  1.00  0.00     0.011 A 
ATOM     29  C   UNL A   1      30.042  26.080  23.791  1.00  0.00     0.011 A 
ATOM     30  C   UNL A   1      30.666  28.364  22.282  1.00  0.00     0.021 A 
ATOM     31  C   UNL A   1      29.101  27.103  23.657  1.00  0.00     0.021 A 
ATOM     32  C   UNL A   1      29.415  28.238  22.899  1.00  0.00     0.067 A 
BRANCH  32  33
ATOM     33  S   UNL A   1      28.197  29.510  22.655  1.00  0.00     0.175 S 
ATOM     34  C   UNL A   1      28.804  30.890  23.588  1.00  0.00     0.163 C 
ATOM     35  O   UNL A   1      28.234  29.856  21.248  1.00  0.00    -0.224 OA
ATOM     36  O   UNL A   1      26.967  29.066  23.283  1.00  0.00    -0.224 OA
ENDBRANCH  32  33
ENDBRANCH  15  27
ENDBRANCH   7  12
ENDBRANCH   4   6
ENDBRANCH   3   4
ENDBRANCH   2   3
ENDBRANCH   1   2
BRANCH   1  37
ATOM     37  O   UNL A   1      42.282  21.929  27.481  1.00  0.00    -0.374 OA
BRANCH  37  38
ATOM     38  C   UNL A   1      43.349  22.100  26.544  1.00  0.00     0.202 C 
BRANCH  38  39
ATOM     39  C   UNL A   1      43.238  23.334  25.640  1.00  0.00     0.261 C 
BRANCH  39  40
ATOM     40  O   UNL A   1      43.307  24.554  26.403  1.00  0.00    -0.460 OA
BRANCH  40  41
ATOM     41  C   UNL A   1      42.645  25.605  25.862  1.00  0.00     0.338 C 
ATOM     42  O   UNL A   1      42.263  25.731  24.713  1.00  0.00    -0.246 OA
BRANCH  41  43
ATOM     43  C   UNL A   1      42.276  26.562  26.926  1.00  0.00     0.060 A 
ATOM     44  C   UNL A   1      42.658  27.898  26.750  1.00  0.00     0.016 A 
ATOM     45  C   UNL A   1      41.635  26.156  28.098  1.00  0.00     0.016 A 
ATOM     46  C   UNL A   1      42.445  28.826  27.769  1.00  0.00     0.010 A 
ATOM     47  C   UNL A   1      41.430  27.086  29.124  1.00  0.00     0.010 A 
ATOM     48  C   UNL A   1      41.867  28.416  28.977  1.00  0.00    -0.014 A 
BRANCH  48  49
ATOM     49  C   UNL A   1      41.860  29.341  30.137  1.00  0.00     0.031 A 
ATOM     50  C   UNL A   1      40.677  30.247  30.338  1.00  0.00     0.074 A 
ATOM     51  C   UNL A   1      42.873  29.346  31.023  1.00  0.00     0.049 A 
ATOM     52  N   UNL A   1      40.473  31.160  31.253  1.00  0.00    -0.248 NA
ATOM     53  C   UNL A   1      39.572  30.102  29.376  1.00  0.00     0.031 C 
ATOM     54  C   UNL A   1      44.047  28.480  30.969  1.00  0.00     0.029 A 
ATOM     55  N   UNL A   1      43.072  30.115  32.143  1.00  0.00    -0.354 N 
ATOM     56  C   UNL A   1      39.218  31.690  30.983  1.00  0.00     0.074 A 
ATOM     57  C   UNL A   1      38.721  31.026  29.798  1.00  0.00     0.031 C 
ATOM     58  C   UNL A   1      44.851  28.770  32.006  1.00  0.00     0.029 A 
ATOM     59  C   UNL A   1      44.262  29.864  32.777  1.00  0.00     0.049 A 
ATOM     60  H   UNL A   1      42.422  30.783  32.461  1.00  0.00     0.167 HD
ATOM     61  C   UNL A   1      38.536  32.638  31.670  1.00  0.00     0.037 A 
ATOM     62  C   UNL A   1      44.820  30.465  33.847  1.00  0.00     0.037 A 
ATOM     63  C   UNL A   1      39.031  33.306  32.844  1.00  0.00     0.049 A 
ATOM     64  C   UNL A   1      44.079  31.584  34.534  1.00  0.00     0.074 A 
ATOM     65  C   UNL A   1      38.424  34.295  33.596  1.00  0.00     0.029 A 
ATOM     66  N   UNL A   1      40.259  33.049  33.435  1.00  0.00    -0.354 N 
ATOM     67  N   UNL A   1      42.893  32.078  34.275  1.00  0.00    -0.248 NA
ATOM     68  C   UNL A   1      44.758  32.230  35.668  1.00  0.00     0.031 C 
ATOM     69  C   UNL A   1      39.299  34.664  34.624  1.00  0.00     0.029 A 
ATOM     70  C   UNL A   1      40.433  33.872  34.536  1.00  0.00     0.049 A 
ATOM     71  H   UNL A   1      40.910  32.382  33.120  1.00  0.00     0.167 HD
ATOM     72  C   UNL A   1      42.668  33.061  35.231  1.00  0.00     0.074 A 
ATOM     73  C   UNL A   1      43.839  33.088  36.083  1.00  0.00     0.031 C 
ATOM     74  C   UNL A   1      41.592  33.868  35.389  1.00  0.00     0.037 A 
BRANCH  61  75
ATOM     75  C   UNL A   1      37.176  33.016  31.164  1.00  0.00     0.064 A 
ATOM     76  C   UNL A   1      36.012  32.671  31.868  1.00  0.00     0.173 A 
ATOM     77  C   UNL A   1      37.035  33.772  29.991  1.00  0.00     0.173 A 
ATOM     78  F   UNL A   1      36.094  31.935  32.988  1.00  0.00    -0.203 F 
ATOM     79  C   UNL A   1      34.756  33.056  31.407  1.00  0.00     0.198 A 
ATOM     80  C   UNL A   1      35.779  34.177  29.547  1.00  0.00     0.198 A 
ATOM     81  F   UNL A   1      38.117  34.129  29.283  1.00  0.00    -0.203 F 
ATOM     82  F   UNL A   1      33.655  32.686  32.076  1.00  0.00    -0.200 F 
ATOM     83  C   UNL A   1      34.641  33.815  30.252  1.00  0.00     0.200 A 
ATOM     84  F   UNL A   1      35.671  34.920  28.436  1.00  0.00    -0.200 F 
ATOM     85  F   UNL A   1      33.432  34.195  29.816  1.00  0.00    -0.200 F 
ENDBRANCH  61  75
BRANCH  62  86
ATOM     86  C   UNL A   1      46.159  30.043  34.336  1.00  0.00     0.064 A 
ATOM     87  C   UNL A   1      46.290  29.055  35.322  1.00  0.00     0.173 A 
ATOM     88  C   UNL A   1      47.330  30.656  33.866  1.00  0.00     0.173 A 
ATOM     89  F   UNL A   1      45.198  28.460  35.823  1.00  0.00    -0.203 F 
ATOM     90  C   UNL A   1      47.538  28.718  35.841  1.00  0.00     0.198 A 
ATOM     91  C   UNL A   1      48.580  30.297  34.366  1.00  0.00     0.198 A 
ATOM     92  F   UNL A   1      47.261  31.610  32.927  1.00  0.00    -0.203 F 
ATOM     93  F   UNL A   1      47.629  27.815  36.827  1.00  0.00    -0.200 F 
ATOM     94  C   UNL A   1      48.683  29.337  35.360  1.00  0.00     0.200 A 
ATOM     95  F   UNL A   1      49.684  30.892  33.892  1.00  0.00    -0.200 F 
ATOM     96  F   UNL A   1      49.883  29.018  35.866  1.00  0.00    -0.200 F 
ENDBRANCH  62  86
BRANCH  74  97
ATOM     97  C   UNL A   1      41.601  34.811  36.558  1.00  0.00     0.064 A 
ATOM     98  C   UNL A   1      40.889  34.534  37.733  1.00  0.00     0.173 A 
ATOM     99  C   UNL A   1      42.366  35.988  36.512  1.00  0.00     0.173 A 
ATOM    100  F   UNL A   1      40.132  33.430  37.821  1.00  0.00    -0.203 F 
ATOM    101  C   UNL A   1      40.923  35.414  38.813  1.00  0.00     0.198 A 
ATOM    102  C   UNL A   1      42.420  36.849  37.603  1.00  0.00     0.198 A 
ATOM    103  F   UNL A   1      43.070  36.294  35.412  1.00  0.00    -0.203 F 
ATOM    104  F   UNL A   1      40.200  35.152  39.910  1.00  0.00    -0.200 F 
ATOM    105  C   UNL A   1      41.693  36.566  38.749  1.00  0.00     0.200 A 
ATOM    106  F   UNL A   1      43.173  37.956  37.545  1.00  0.00    -0.200 F 
ATOM    107  F   UNL A   1      41.729  37.408  39.792  1.00  0.00    -0.200 F 
ENDBRANCH  74  97
ENDBRANCH  48  49
ENDBRANCH  41  43
ENDBRANCH  40  41
ENDBRANCH  39  40
ENDBRANCH  38  39
ENDBRANCH  37  38
ENDBRANCH   1  37
TORSDOF 20
ENDMDL
