MODEL 1
REMARK VINA RESULT:     -11.4      0.000      0.000
REMARK SMILES CC[C@H](NC(=O)N1CCO[C@@H](CC(=O)OCCOCCOC(=O)c2ccc(-c3c4nc(c(-c5c(F)c(F)c(F)c(F)c5F)c5ccc([nH]5)c(-c5c(F)c(F)c(F)c(F)c5F)c5nc(c(-c6c(F)c(F)c(F)c(F)c6F)c6ccc3[nH]6)C=C5)C=C4)cc2)C1)c1cccs1
REMARK SMILES IDX 17 1 16 2 15 3 13 4 14 5 12 6 11 7 7 8 8 9 87 10 9 11 10 12
REMARK SMILES IDX 5 13 4 14 6 16 3 17 2 18 1 19 88 20 89 21 92 22 90 23 91 24
REMARK SMILES IDX 18 25 19 26 20 27 21 28 22 29 23 30 24 31 25 32 86 33 26 34
REMARK SMILES IDX 85 35 27 36 28 37 29 38 79 39 30 40 84 41 78 42 80 43 31 44
REMARK SMILES IDX 83 45 77 46 76 47 32 49 64 50 44 51 63 52 45 53 48 54 62 55
REMARK SMILES IDX 81 56 46 57 47 58 61 60 82 61 49 62 33 63 34 64 42 65 35 66
REMARK SMILES IDX 36 67 40 68 43 69 37 70 38 71 41 72 39 73 65 74 66 75 74 76
REMARK SMILES IDX 67 77 68 78 72 79 75 80 69 81 70 82 73 83 71 84 50 85 51 86
REMARK SMILES IDX 59 87 52 88 53 89 57 90 60 91 54 92 55 93 58 94 56 95
REMARK H PARENT 4 15 80 48 48 59
REMARK Flexibility Score: inf
ROOT
ATOM      1  C   UNL A   1      40.977  20.305  26.339  1.00  0.00     0.202 C 
ENDROOT
BRANCH   1   2
ATOM      2  C   UNL A   1      40.171  21.601  26.422  1.00  0.00     0.261 C 
BRANCH   2   3
ATOM      3  O   UNL A   1      38.761  21.316  26.483  1.00  0.00    -0.463 OA
BRANCH   3   4
ATOM      4  C   UNL A   1      38.005  21.865  25.500  1.00  0.00     0.308 C 
ATOM      5  O   UNL A   1      37.665  21.296  24.472  1.00  0.00    -0.252 OA
BRANCH   4   6
ATOM      6  C   UNL A   1      37.674  23.298  25.791  1.00  0.00     0.156 C 
BRANCH   6   7
ATOM      7  C   UNL A   1      36.200  23.713  25.831  1.00  0.00     0.149 C 
ATOM      8  N   UNL A   1      34.111  23.966  24.413  1.00  0.00    -0.320 N 
ATOM      9  C   UNL A   1      33.656  22.725  25.010  1.00  0.00     0.150 C 
ATOM     10  C   UNL A   1      35.583  24.079  24.445  1.00  0.00     0.154 C 
ATOM     11  C   UNL A   1      34.141  22.649  26.443  1.00  0.00     0.182 C 
ATOM     12  O   UNL A   1      35.566  22.559  26.438  1.00  0.00    -0.374 OA
BRANCH   8  13
ATOM     13  C   UNL A   1      33.403  24.581  23.417  1.00  0.00     0.318 C 
ATOM     14  N   UNL A   1      32.217  25.199  23.672  1.00  0.00    -0.330 N 
ATOM     15  H   UNL A   1      31.431  24.824  23.212  1.00  0.00     0.166 HD
ATOM     16  O   UNL A   1      33.766  24.529  22.242  1.00  0.00    -0.249 OA
BRANCH  14  17
ATOM     17  C   UNL A   1      31.955  26.359  24.549  1.00  0.00     0.124 C 
BRANCH  17  18
ATOM     18  C   UNL A   1      33.186  27.297  24.787  1.00  0.00     0.027 C 
ATOM     19  C   UNL A   1      33.405  27.843  26.190  1.00  0.00     0.006 C 
ENDBRANCH  17  18
BRANCH  17  20
ATOM     20  C   UNL A   1      30.790  27.194  24.052  1.00  0.00     0.027 A 
ATOM     21  C   UNL A   1      29.473  26.802  23.885  1.00  0.00     0.017 A 
ATOM     22  S   UNL A   1      30.979  28.869  23.662  1.00  0.00    -0.147 S 
ATOM     23  C   UNL A   1      28.674  27.818  23.280  1.00  0.00     0.012 A 
ATOM     24  C   UNL A   1      29.385  28.975  23.059  1.00  0.00     0.065 A 
ENDBRANCH  17  20
ENDBRANCH  14  17
ENDBRANCH   8  13
ENDBRANCH   6   7
ENDBRANCH   4   6
ENDBRANCH   3   4
ENDBRANCH   2   3
ENDBRANCH   1   2
BRANCH   1  25
ATOM     25  O   UNL A   1      42.239  20.406  25.680  1.00  0.00    -0.374 OA
BRANCH  25  26
ATOM     26  C   UNL A   1      43.110  21.447  26.117  1.00  0.00     0.202 C 
BRANCH  26  27
ATOM     27  C   UNL A   1      43.897  22.168  25.016  1.00  0.00     0.261 C 
BRANCH  27  28
ATOM     28  O   UNL A   1      43.280  23.416  24.654  1.00  0.00    -0.460 OA
BRANCH  28  29
ATOM     29  C   UNL A   1      43.981  24.519  25.019  1.00  0.00     0.338 C 
ATOM     30  O   UNL A   1      45.088  24.846  24.632  1.00  0.00    -0.246 OA
BRANCH  29  31
ATOM     31  C   UNL A   1      43.144  25.408  25.849  1.00  0.00     0.060 A 
ATOM     32  C   UNL A   1      43.617  26.703  26.093  1.00  0.00     0.016 A 
ATOM     33  C   UNL A   1      41.960  24.970  26.439  1.00  0.00     0.016 A 
ATOM     34  C   UNL A   1      42.948  27.536  26.988  1.00  0.00     0.010 A 
ATOM     35  C   UNL A   1      41.277  25.812  27.322  1.00  0.00     0.010 A 
ATOM     36  C   UNL A   1      41.802  27.075  27.650  1.00  0.00    -0.014 A 
BRANCH  36  37
ATOM     37  C   UNL A   1      41.301  27.811  28.840  1.00  0.00     0.031 A 
ATOM     38  C   UNL A   1      42.050  27.658  30.139  1.00  0.00     0.074 A 
ATOM     39  C   UNL A   1      40.246  28.642  28.765  1.00  0.00     0.049 A 
ATOM     40  N   UNL A   1      41.809  28.191  31.311  1.00  0.00    -0.248 NA
ATOM     41  C   UNL A   1      43.229  26.777  30.117  1.00  0.00     0.031 C 
ATOM     42  C   UNL A   1      39.455  28.900  27.564  1.00  0.00     0.029 A 
ATOM     43  N   UNL A   1      39.661  29.427  29.729  1.00  0.00    -0.354 N 
ATOM     44  C   UNL A   1      42.791  27.693  32.160  1.00  0.00     0.074 A 
ATOM     45  C   UNL A   1      43.606  26.787  31.385  1.00  0.00     0.031 C 
ATOM     46  C   UNL A   1      38.491  29.791  27.861  1.00  0.00     0.029 A 
ATOM     47  C   UNL A   1      38.578  30.141  29.277  1.00  0.00     0.049 A 
ATOM     48  H   UNL A   1      39.988  29.472  30.657  1.00  0.00     0.167 HD
ATOM     49  C   UNL A   1      43.007  27.980  33.466  1.00  0.00     0.037 A 
ATOM     50  C   UNL A   1      37.750  30.973  29.940  1.00  0.00     0.037 A 
ATOM     51  C   UNL A   1      42.217  28.907  34.230  1.00  0.00     0.049 A 
ATOM     52  C   UNL A   1      37.989  31.243  31.406  1.00  0.00     0.074 A 
ATOM     53  C   UNL A   1      42.375  29.290  35.551  1.00  0.00     0.029 A 
ATOM     54  N   UNL A   1      41.120  29.598  33.740  1.00  0.00    -0.354 N 
ATOM     55  N   UNL A   1      38.939  30.795  32.191  1.00  0.00    -0.248 NA
ATOM     56  C   UNL A   1      37.041  32.147  32.075  1.00  0.00     0.031 C 
ATOM     57  C   UNL A   1      41.341  30.173  35.875  1.00  0.00     0.029 A 
ATOM     58  C   UNL A   1      40.579  30.391  34.739  1.00  0.00     0.049 A 
ATOM     59  H   UNL A   1      40.777  29.535  32.819  1.00  0.00     0.167 HD
ATOM     60  C   UNL A   1      38.731  31.395  33.428  1.00  0.00     0.074 A 
ATOM     61  C   UNL A   1      37.569  32.246  33.286  1.00  0.00     0.031 C 
ATOM     62  C   UNL A   1      39.440  31.257  34.575  1.00  0.00     0.037 A 
BRANCH  49  63
ATOM     63  C   UNL A   1      44.133  27.268  34.156  1.00  0.00     0.064 A 
ATOM     64  C   UNL A   1      45.425  27.812  34.223  1.00  0.00     0.173 A 
ATOM     65  C   UNL A   1      43.906  26.039  34.793  1.00  0.00     0.173 A 
ATOM     66  F   UNL A   1      45.700  28.976  33.617  1.00  0.00    -0.203 F 
ATOM     67  C   UNL A   1      46.453  27.138  34.879  1.00  0.00     0.198 A 
ATOM     68  C   UNL A   1      44.927  25.384  35.476  1.00  0.00     0.198 A 
ATOM     69  F   UNL A   1      42.688  25.475  34.762  1.00  0.00    -0.203 F 
ATOM     70  F   UNL A   1      47.691  27.652  34.886  1.00  0.00    -0.200 F 
ATOM     71  C   UNL A   1      46.201  25.930  35.511  1.00  0.00     0.200 A 
ATOM     72  F   UNL A   1      44.679  24.223  36.098  1.00  0.00    -0.200 F 
ATOM     73  F   UNL A   1      47.189  25.288  36.150  1.00  0.00    -0.200 F 
ENDBRANCH  49  63
BRANCH  50  74
ATOM     74  C   UNL A   1      36.614  31.625  29.233  1.00  0.00     0.064 A 
ATOM     75  C   UNL A   1      36.600  33.009  29.009  1.00  0.00     0.173 A 
ATOM     76  C   UNL A   1      35.498  30.887  28.814  1.00  0.00     0.173 A 
ATOM     77  F   UNL A   1      37.632  33.764  29.415  1.00  0.00    -0.203 F 
ATOM     78  C   UNL A   1      35.501  33.634  28.422  1.00  0.00     0.198 A 
ATOM     79  C   UNL A   1      34.412  31.509  28.199  1.00  0.00     0.198 A 
ATOM     80  F   UNL A   1      35.456  29.561  29.008  1.00  0.00    -0.203 F 
ATOM     81  F   UNL A   1      35.487  34.967  28.280  1.00  0.00    -0.200 F 
ATOM     82  C   UNL A   1      34.409  32.883  28.015  1.00  0.00     0.200 A 
ATOM     83  F   UNL A   1      33.364  30.778  27.797  1.00  0.00    -0.200 F 
ATOM     84  F   UNL A   1      33.350  33.485  27.458  1.00  0.00    -0.200 F 
ENDBRANCH  50  74
BRANCH  62  85
ATOM     85  C   UNL A   1      39.030  32.098  35.750  1.00  0.00     0.064 A 
ATOM     86  C   UNL A   1      39.424  33.437  35.882  1.00  0.00     0.173 A 
ATOM     87  C   UNL A   1      38.194  31.561  36.742  1.00  0.00     0.173 A 
ATOM     88  F   UNL A   1      40.231  33.997  34.967  1.00  0.00    -0.203 F 
ATOM     89  C   UNL A   1      39.025  34.197  36.978  1.00  0.00     0.198 A 
ATOM     90  C   UNL A   1      37.767  32.334  37.819  1.00  0.00     0.198 A 
ATOM     91  F   UNL A   1      37.777  30.288  36.659  1.00  0.00    -0.203 F 
ATOM     92  F   UNL A   1      39.460  35.458  37.111  1.00  0.00    -0.200 F 
ATOM     93  C   UNL A   1      38.192  33.647  37.942  1.00  0.00     0.200 A 
ATOM     94  F   UNL A   1      36.948  31.805  38.737  1.00  0.00    -0.200 F 
ATOM     95  F   UNL A   1      37.804  34.382  38.993  1.00  0.00    -0.200 F 
ENDBRANCH  62  85
ENDBRANCH  36  37
ENDBRANCH  29  31
ENDBRANCH  28  29
ENDBRANCH  27  28
ENDBRANCH  26  27
ENDBRANCH  25  26
ENDBRANCH   1  25
TORSDOF 19
ENDMDL
MODEL 2
REMARK VINA RESULT:     -10.6      5.109      7.633
REMARK SMILES CC[C@H](NC(=O)N1CCO[C@@H](CC(=O)OCCOCCOC(=O)c2ccc(-c3c4nc(c(-c5c(F)c(F)c(F)c(F)c5F)c5ccc([nH]5)c(-c5c(F)c(F)c(F)c(F)c5F)c5nc(c(-c6c(F)c(F)c(F)c(F)c6F)c6ccc3[nH]6)C=C5)C=C4)cc2)C1)c1cccs1
REMARK SMILES IDX 17 1 16 2 15 3 13 4 14 5 12 6 11 7 7 8 8 9 87 10 9 11 10 12
REMARK SMILES IDX 5 13 4 14 6 16 3 17 2 18 1 19 88 20 89 21 92 22 90 23 91 24
REMARK SMILES IDX 18 25 19 26 20 27 21 28 22 29 23 30 24 31 25 32 86 33 26 34
REMARK SMILES IDX 85 35 27 36 28 37 29 38 79 39 30 40 84 41 78 42 80 43 31 44
REMARK SMILES IDX 83 45 77 46 76 47 32 49 64 50 44 51 63 52 45 53 48 54 62 55
REMARK SMILES IDX 81 56 46 57 47 58 61 60 82 61 49 62 33 63 34 64 42 65 35 66
REMARK SMILES IDX 36 67 40 68 43 69 37 70 38 71 41 72 39 73 65 74 66 75 74 76
REMARK SMILES IDX 67 77 68 78 72 79 75 80 69 81 70 82 73 83 71 84 50 85 51 86
REMARK SMILES IDX 59 87 52 88 53 89 57 90 60 91 54 92 55 93 58 94 56 95
REMARK H PARENT 4 15 80 48 48 59
REMARK Flexibility Score: inf
ROOT
ATOM      1  C   UNL A   1      39.583  22.315  26.473  1.00  0.00     0.202 C 
ENDROOT
BRANCH   1   2
ATOM      2  C   UNL A   1      38.211  22.259  25.803  1.00  0.00     0.261 C 
BRANCH   2   3
ATOM      3  O   UNL A   1      38.027  20.997  25.134  1.00  0.00    -0.463 OA
BRANCH   3   4
ATOM      4  C   UNL A   1      36.742  20.590  24.986  1.00  0.00     0.308 C 
ATOM      5  O   UNL A   1      36.382  19.430  24.846  1.00  0.00    -0.252 OA
BRANCH   4   6
ATOM      6  C   UNL A   1      35.794  21.752  24.953  1.00  0.00     0.156 C 
BRANCH   6   7
ATOM      7  C   UNL A   1      34.336  21.515  25.361  1.00  0.00     0.149 C 
ATOM      8  N   UNL A   1      32.175  22.687  25.988  1.00  0.00    -0.320 N 
ATOM      9  C   UNL A   1      31.722  22.394  24.641  1.00  0.00     0.150 C 
ATOM     10  C   UNL A   1      33.648  22.722  26.072  1.00  0.00     0.154 C 
ATOM     11  C   UNL A   1      32.289  21.060  24.201  1.00  0.00     0.182 C 
ATOM     12  O   UNL A   1      33.708  21.178  24.098  1.00  0.00    -0.374 OA
BRANCH   8  13
ATOM     13  C   UNL A   1      31.427  23.449  26.843  1.00  0.00     0.318 C 
ATOM     14  N   UNL A   1      31.642  24.788  26.967  1.00  0.00    -0.330 N 
ATOM     15  H   UNL A   1      31.926  25.096  27.859  1.00  0.00     0.166 HD
ATOM     16  O   UNL A   1      30.590  22.945  27.591  1.00  0.00    -0.249 OA
BRANCH  14  17
ATOM     17  C   UNL A   1      31.505  25.841  25.939  1.00  0.00     0.124 C 
BRANCH  17  18
ATOM     18  C   UNL A   1      30.037  26.114  25.466  1.00  0.00     0.027 C 
ATOM     19  C   UNL A   1      29.821  26.547  24.024  1.00  0.00     0.006 C 
ENDBRANCH  17  18
BRANCH  17  20
ATOM     20  C   UNL A   1      32.130  27.150  26.380  1.00  0.00     0.027 A 
ATOM     21  C   UNL A   1      31.520  28.205  27.037  1.00  0.00     0.017 A 
ATOM     22  S   UNL A   1      33.813  27.475  26.145  1.00  0.00    -0.147 S 
ATOM     23  C   UNL A   1      32.385  29.330  27.185  1.00  0.00     0.012 A 
ATOM     24  C   UNL A   1      33.646  29.082  26.695  1.00  0.00     0.065 A 
ENDBRANCH  17  20
ENDBRANCH  14  17
ENDBRANCH   8  13
ENDBRANCH   6   7
ENDBRANCH   4   6
ENDBRANCH   3   4
ENDBRANCH   2   3
ENDBRANCH   1   2
BRANCH   1  25
ATOM     25  O   UNL A   1      40.508  21.306  26.069  1.00  0.00    -0.374 OA
BRANCH  25  26
ATOM     26  C   UNL A   1      40.956  20.404  27.079  1.00  0.00     0.202 C 
BRANCH  26  27
ATOM     27  C   UNL A   1      41.921  19.305  26.615  1.00  0.00     0.261 C 
BRANCH  27  28
ATOM     28  O   UNL A   1      42.329  19.500  25.250  1.00  0.00    -0.460 OA
BRANCH  28  29
ATOM     29  C   UNL A   1      43.671  19.563  25.066  1.00  0.00     0.338 C 
ATOM     30  O   UNL A   1      44.408  18.656  24.722  1.00  0.00    -0.246 OA
BRANCH  29  31
ATOM     31  C   UNL A   1      44.140  20.959  25.171  1.00  0.00     0.060 A 
ATOM     32  C   UNL A   1      45.185  21.227  26.065  1.00  0.00     0.016 A 
ATOM     33  C   UNL A   1      43.530  21.998  24.472  1.00  0.00     0.016 A 
ATOM     34  C   UNL A   1      45.570  22.542  26.318  1.00  0.00     0.010 A 
ATOM     35  C   UNL A   1      43.929  23.317  24.710  1.00  0.00     0.010 A 
ATOM     36  C   UNL A   1      44.906  23.600  25.681  1.00  0.00    -0.014 A 
BRANCH  36  37
ATOM     37  C   UNL A   1      45.070  24.983  26.201  1.00  0.00     0.031 A 
ATOM     38  C   UNL A   1      46.426  25.633  26.080  1.00  0.00     0.074 A 
ATOM     39  C   UNL A   1      44.037  25.673  26.714  1.00  0.00     0.049 A 
ATOM     40  N   UNL A   1      46.820  26.822  26.460  1.00  0.00    -0.248 NA
ATOM     41  C   UNL A   1      47.486  24.827  25.450  1.00  0.00     0.031 C 
ATOM     42  C   UNL A   1      42.672  25.171  26.859  1.00  0.00     0.029 A 
ATOM     43  N   UNL A   1      43.979  26.955  27.206  1.00  0.00    -0.354 N 
ATOM     44  C   UNL A   1      48.169  26.894  26.134  1.00  0.00     0.074 A 
ATOM     45  C   UNL A   1      48.539  25.620  25.564  1.00  0.00     0.031 C 
ATOM     46  C   UNL A   1      41.907  26.139  27.397  1.00  0.00     0.029 A 
ATOM     47  C   UNL A   1      42.734  27.315  27.662  1.00  0.00     0.049 A 
ATOM     48  H   UNL A   1      44.757  27.557  27.230  1.00  0.00     0.167 HD
ATOM     49  C   UNL A   1      49.021  27.936  26.279  1.00  0.00     0.037 A 
ATOM     50  C   UNL A   1      42.320  28.461  28.236  1.00  0.00     0.037 A 
ATOM     51  C   UNL A   1      48.648  29.217  26.816  1.00  0.00     0.049 A 
ATOM     52  C   UNL A   1      43.302  29.593  28.424  1.00  0.00     0.074 A 
ATOM     53  C   UNL A   1      49.430  30.347  26.974  1.00  0.00     0.029 A 
ATOM     54  N   UNL A   1      47.381  29.536  27.280  1.00  0.00    -0.354 N 
ATOM     55  N   UNL A   1      44.565  29.664  28.082  1.00  0.00    -0.248 NA
ATOM     56  C   UNL A   1      42.791  30.811  29.071  1.00  0.00     0.031 C 
ATOM     57  C   UNL A   1      48.650  31.334  27.584  1.00  0.00     0.029 A 
ATOM     58  C   UNL A   1      47.366  30.841  27.745  1.00  0.00     0.049 A 
ATOM     59  H   UNL A   1      46.608  28.927  27.280  1.00  0.00     0.167 HD
ATOM     60  C   UNL A   1      44.986  30.943  28.429  1.00  0.00     0.074 A 
ATOM     61  C   UNL A   1      43.840  31.617  29.000  1.00  0.00     0.031 C 
ATOM     62  C   UNL A   1      46.209  31.510  28.283  1.00  0.00     0.037 A 
BRANCH  49  63
ATOM     63  C   UNL A   1      50.449  27.729  25.868  1.00  0.00     0.064 A 
ATOM     64  C   UNL A   1      50.860  27.836  24.529  1.00  0.00     0.173 A 
ATOM     65  C   UNL A   1      51.430  27.453  26.833  1.00  0.00     0.173 A 
ATOM     66  F   UNL A   1      49.961  28.080  23.565  1.00  0.00    -0.203 F 
ATOM     67  C   UNL A   1      52.193  27.649  24.172  1.00  0.00     0.198 A 
ATOM     68  C   UNL A   1      52.766  27.300  26.476  1.00  0.00     0.198 A 
ATOM     69  F   UNL A   1      51.092  27.342  28.127  1.00  0.00    -0.203 F 
ATOM     70  F   UNL A   1      52.553  27.706  22.882  1.00  0.00    -0.200 F 
ATOM     71  C   UNL A   1      53.146  27.390  25.146  1.00  0.00     0.200 A 
ATOM     72  F   UNL A   1      53.688  27.064  27.421  1.00  0.00    -0.200 F 
ATOM     73  F   UNL A   1      54.429  27.222  24.801  1.00  0.00    -0.200 F 
ENDBRANCH  49  63
BRANCH  50  74
ATOM     74  C   UNL A   1      40.906  28.615  28.676  1.00  0.00     0.064 A 
ATOM     75  C   UNL A   1      40.513  28.278  29.979  1.00  0.00     0.173 A 
ATOM     76  C   UNL A   1      39.911  29.048  27.788  1.00  0.00     0.173 A 
ATOM     77  F   UNL A   1      41.422  27.832  30.859  1.00  0.00    -0.203 F 
ATOM     78  C   UNL A   1      39.176  28.341  30.369  1.00  0.00     0.198 A 
ATOM     79  C   UNL A   1      38.578  29.140  28.188  1.00  0.00     0.198 A 
ATOM     80  F   UNL A   1      40.230  29.377  26.528  1.00  0.00    -0.203 F 
ATOM     81  F   UNL A   1      38.820  27.951  31.601  1.00  0.00    -0.200 F 
ATOM     82  C   UNL A   1      38.210  28.775  29.474  1.00  0.00     0.200 A 
ATOM     83  F   UNL A   1      37.650  29.570  27.323  1.00  0.00    -0.200 F 
ATOM     84  F   UNL A   1      36.924  28.828  29.846  1.00  0.00    -0.200 F 
ENDBRANCH  50  74
BRANCH  62  85
ATOM     85  C   UNL A   1      46.359  32.951  28.677  1.00  0.00     0.064 A 
ATOM     86  C   UNL A   1      46.127  33.998  27.774  1.00  0.00     0.173 A 
ATOM     87  C   UNL A   1      46.702  33.289  29.997  1.00  0.00     0.173 A 
ATOM     88  F   UNL A   1      45.806  33.732  26.498  1.00  0.00    -0.203 F 
ATOM     89  C   UNL A   1      46.266  35.328  28.166  1.00  0.00     0.198 A 
ATOM     90  C   UNL A   1      46.805  34.618  30.395  1.00  0.00     0.198 A 
ATOM     91  F   UNL A   1      46.923  32.326  30.905  1.00  0.00    -0.203 F 
ATOM     92  F   UNL A   1      46.094  36.310  27.271  1.00  0.00    -0.200 F 
ATOM     93  C   UNL A   1      46.599  35.636  29.477  1.00  0.00     0.200 A 
ATOM     94  F   UNL A   1      47.108  34.913  31.667  1.00  0.00    -0.200 F 
ATOM     95  F   UNL A   1      46.726  36.916  29.855  1.00  0.00    -0.200 F 
ENDBRANCH  62  85
ENDBRANCH  36  37
ENDBRANCH  29  31
ENDBRANCH  28  29
ENDBRANCH  27  28
ENDBRANCH  26  27
ENDBRANCH  25  26
ENDBRANCH   1  25
TORSDOF 19
ENDMDL
MODEL 3
REMARK VINA RESULT:     -10.6      3.392      8.807
REMARK SMILES CC[C@H](NC(=O)N1CCO[C@@H](CC(=O)OCCOCCOC(=O)c2ccc(-c3c4nc(c(-c5c(F)c(F)c(F)c(F)c5F)c5ccc([nH]5)c(-c5c(F)c(F)c(F)c(F)c5F)c5nc(c(-c6c(F)c(F)c(F)c(F)c6F)c6ccc3[nH]6)C=C5)C=C4)cc2)C1)c1cccs1
REMARK SMILES IDX 17 1 16 2 15 3 13 4 14 5 12 6 11 7 7 8 8 9 87 10 9 11 10 12
REMARK SMILES IDX 5 13 4 14 6 16 3 17 2 18 1 19 88 20 89 21 92 22 90 23 91 24
REMARK SMILES IDX 18 25 19 26 20 27 21 28 22 29 23 30 24 31 25 32 86 33 26 34
REMARK SMILES IDX 85 35 27 36 28 37 29 38 79 39 30 40 84 41 78 42 80 43 31 44
REMARK SMILES IDX 83 45 77 46 76 47 32 49 64 50 44 51 63 52 45 53 48 54 62 55
REMARK SMILES IDX 81 56 46 57 47 58 61 60 82 61 49 62 33 63 34 64 42 65 35 66
REMARK SMILES IDX 36 67 40 68 43 69 37 70 38 71 41 72 39 73 65 74 66 75 74 76
REMARK SMILES IDX 67 77 68 78 72 79 75 80 69 81 70 82 73 83 71 84 50 85 51 86
REMARK SMILES IDX 59 87 52 88 53 89 57 90 60 91 54 92 55 93 58 94 56 95
REMARK H PARENT 4 15 80 48 48 59
REMARK Flexibility Score: inf
ROOT
ATOM      1  C   UNL A   1      31.807  30.494  26.179  1.00  0.00     0.202 C 
ENDROOT
BRANCH   1   2
ATOM      2  C   UNL A   1      31.573  29.499  25.044  1.00  0.00     0.261 C 
BRANCH   2   3
ATOM      3  O   UNL A   1      32.808  29.209  24.363  1.00  0.00    -0.463 OA
BRANCH   3   4
ATOM      4  C   UNL A   1      32.948  27.939  23.908  1.00  0.00     0.308 C 
ATOM      5  O   UNL A   1      32.635  27.552  22.791  1.00  0.00    -0.252 OA
BRANCH   4   6
ATOM      6  C   UNL A   1      33.487  27.028  24.970  1.00  0.00     0.156 C 
BRANCH   6   7
ATOM      7  C   UNL A   1      33.003  25.574  24.998  1.00  0.00     0.149 C 
ATOM      8  N   UNL A   1      32.999  23.449  26.384  1.00  0.00    -0.320 N 
ATOM      9  C   UNL A   1      31.634  23.785  26.744  1.00  0.00     0.150 C 
ATOM     10  C   UNL A   1      33.769  24.645  25.990  1.00  0.00     0.154 C 
ATOM     11  C   UNL A   1      30.958  24.463  25.570  1.00  0.00     0.182 C 
ATOM     12  O   UNL A   1      31.600  25.716  25.334  1.00  0.00    -0.374 OA
BRANCH   8  13
ATOM     13  C   UNL A   1      33.642  22.380  26.944  1.00  0.00     0.318 C 
ATOM     14  N   UNL A   1      33.713  21.182  26.300  1.00  0.00    -0.330 N 
ATOM     15  H   UNL A   1      33.277  20.425  26.755  1.00  0.00     0.166 HD
ATOM     16  O   UNL A   1      34.108  22.432  28.082  1.00  0.00    -0.249 OA
BRANCH  14  17
ATOM     17  C   UNL A   1      34.359  20.869  25.008  1.00  0.00     0.124 C 
BRANCH  17  18
ATOM     18  C   UNL A   1      35.910  20.665  25.080  1.00  0.00     0.027 C 
ATOM     19  C   UNL A   1      36.785  21.900  25.233  1.00  0.00     0.006 C 
ENDBRANCH  17  18
BRANCH  17  20
ATOM     20  C   UNL A   1      33.734  19.660  24.340  1.00  0.00     0.027 A 
ATOM     21  C   UNL A   1      34.073  18.328  24.504  1.00  0.00     0.017 A 
ATOM     22  S   UNL A   1      32.392  19.815  23.259  1.00  0.00    -0.147 S 
ATOM     23  C   UNL A   1      33.354  17.468  23.621  1.00  0.00     0.012 A 
ATOM     24  C   UNL A   1      32.445  18.158  22.853  1.00  0.00     0.065 A 
ENDBRANCH  17  20
ENDBRANCH  14  17
ENDBRANCH   8  13
ENDBRANCH   6   7
ENDBRANCH   4   6
ENDBRANCH   3   4
ENDBRANCH   2   3
ENDBRANCH   1   2
BRANCH   1  25
ATOM     25  O   UNL A   1      33.068  30.390  26.840  1.00  0.00    -0.374 OA
BRANCH  25  26
ATOM     26  C   UNL A   1      33.511  31.537  27.563  1.00  0.00     0.202 C 
BRANCH  26  27
ATOM     27  C   UNL A   1      32.529  32.714  27.616  1.00  0.00     0.261 C 
BRANCH  27  28
ATOM     28  O   UNL A   1      33.204  33.975  27.461  1.00  0.00    -0.460 OA
BRANCH  28  29
ATOM     29  C   UNL A   1      33.246  34.736  28.583  1.00  0.00     0.338 C 
ATOM     30  O   UNL A   1      32.402  35.525  28.966  1.00  0.00    -0.246 OA
BRANCH  29  31
ATOM     31  C   UNL A   1      34.407  34.361  29.415  1.00  0.00     0.060 A 
ATOM     32  C   UNL A   1      35.683  34.534  28.864  1.00  0.00     0.016 A 
ATOM     33  C   UNL A   1      34.257  33.786  30.675  1.00  0.00     0.016 A 
ATOM     34  C   UNL A   1      36.807  34.061  29.540  1.00  0.00     0.010 A 
ATOM     35  C   UNL A   1      35.386  33.329  31.363  1.00  0.00     0.010 A 
ATOM     36  C   UNL A   1      36.660  33.407  30.771  1.00  0.00    -0.014 A 
BRANCH  36  37
ATOM     37  C   UNL A   1      37.790  32.609  31.312  1.00  0.00     0.031 A 
ATOM     38  C   UNL A   1      38.284  32.926  32.702  1.00  0.00     0.074 A 
ATOM     39  C   UNL A   1      38.330  31.589  30.623  1.00  0.00     0.049 A 
ATOM     40  N   UNL A   1      39.254  32.377  33.389  1.00  0.00    -0.248 NA
ATOM     41  C   UNL A   1      37.596  34.018  33.410  1.00  0.00     0.031 C 
ATOM     42  C   UNL A   1      37.924  31.162  29.286  1.00  0.00     0.029 A 
ATOM     43  N   UNL A   1      39.342  30.722  30.961  1.00  0.00    -0.354 N 
ATOM     44  C   UNL A   1      39.300  33.069  34.593  1.00  0.00     0.074 A 
ATOM     45  C   UNL A   1      38.293  34.103  34.531  1.00  0.00     0.031 C 
ATOM     46  C   UNL A   1      38.675  30.106  28.919  1.00  0.00     0.029 A 
ATOM     47  C   UNL A   1      39.633  29.804  29.981  1.00  0.00     0.049 A 
ATOM     48  H   UNL A   1      39.814  30.757  31.824  1.00  0.00     0.167 HD
ATOM     49  C   UNL A   1      40.099  32.853  35.666  1.00  0.00     0.037 A 
ATOM     50  C   UNL A   1      40.574  28.841  29.948  1.00  0.00     0.037 A 
ATOM     51  C   UNL A   1      41.079  31.804  35.743  1.00  0.00     0.049 A 
ATOM     52  C   UNL A   1      41.478  28.647  31.141  1.00  0.00     0.074 A 
ATOM     53  C   UNL A   1      41.915  31.482  36.798  1.00  0.00     0.029 A 
ATOM     54  N   UNL A   1      41.353  30.905  34.724  1.00  0.00    -0.354 N 
ATOM     55  N   UNL A   1      41.492  29.284  32.287  1.00  0.00    -0.248 NA
ATOM     56  C   UNL A   1      42.495  27.589  31.036  1.00  0.00     0.031 C 
ATOM     57  C   UNL A   1      42.733  30.421  36.398  1.00  0.00     0.029 A 
ATOM     58  C   UNL A   1      42.361  30.041  35.119  1.00  0.00     0.049 A 
ATOM     59  H   UNL A   1      40.900  30.885  33.851  1.00  0.00     0.167 HD
ATOM     60  C   UNL A   1      42.481  28.676  33.053  1.00  0.00     0.074 A 
ATOM     61  C   UNL A   1      43.039  27.614  32.244  1.00  0.00     0.031 C 
ATOM     62  C   UNL A   1      42.887  28.968  34.313  1.00  0.00     0.037 A 
BRANCH  49  63
ATOM     63  C   UNL A   1      39.957  33.780  36.837  1.00  0.00     0.064 A 
ATOM     64  C   UNL A   1      40.662  34.992  36.915  1.00  0.00     0.173 A 
ATOM     65  C   UNL A   1      39.074  33.468  37.881  1.00  0.00     0.173 A 
ATOM     66  F   UNL A   1      41.532  35.329  35.952  1.00  0.00    -0.203 F 
ATOM     67  C   UNL A   1      40.506  35.842  38.007  1.00  0.00     0.198 A 
ATOM     68  C   UNL A   1      38.896  34.336  38.955  1.00  0.00     0.198 A 
ATOM     69  F   UNL A   1      38.373  32.324  37.856  1.00  0.00    -0.203 F 
ATOM     70  F   UNL A   1      41.229  36.968  38.085  1.00  0.00    -0.200 F 
ATOM     71  C   UNL A   1      39.618  35.518  39.021  1.00  0.00     0.200 A 
ATOM     72  F   UNL A   1      38.027  34.027  39.928  1.00  0.00    -0.200 F 
ATOM     73  F   UNL A   1      39.463  36.342  40.066  1.00  0.00    -0.200 F 
ENDBRANCH  49  63
BRANCH  50  74
ATOM     74  C   UNL A   1      40.717  27.969  28.749  1.00  0.00     0.064 A 
ATOM     75  C   UNL A   1      41.524  28.352  27.669  1.00  0.00     0.173 A 
ATOM     76  C   UNL A   1      40.009  26.764  28.637  1.00  0.00     0.173 A 
ATOM     77  F   UNL A   1      42.201  29.510  27.714  1.00  0.00    -0.203 F 
ATOM     78  C   UNL A   1      41.594  27.580  26.510  1.00  0.00     0.198 A 
ATOM     79  C   UNL A   1      40.104  25.976  27.490  1.00  0.00     0.198 A 
ATOM     80  F   UNL A   1      39.218  26.353  29.638  1.00  0.00    -0.203 F 
ATOM     81  F   UNL A   1      42.323  28.002  25.468  1.00  0.00    -0.200 F 
ATOM     82  C   UNL A   1      40.887  26.390  26.424  1.00  0.00     0.200 A 
ATOM     83  F   UNL A   1      39.427  24.823  27.415  1.00  0.00    -0.200 F 
ATOM     84  F   UNL A   1      40.948  25.651  25.308  1.00  0.00    -0.200 F 
ENDBRANCH  50  74
BRANCH  62  85
ATOM     85  C   UNL A   1      43.934  28.085  34.928  1.00  0.00     0.064 A 
ATOM     86  C   UNL A   1      43.604  26.921  35.637  1.00  0.00     0.173 A 
ATOM     87  C   UNL A   1      45.295  28.390  34.768  1.00  0.00     0.173 A 
ATOM     88  F   UNL A   1      42.318  26.587  35.828  1.00  0.00    -0.203 F 
ATOM     89  C   UNL A   1      44.595  26.115  36.193  1.00  0.00     0.198 A 
ATOM     90  C   UNL A   1      46.284  27.563  35.294  1.00  0.00     0.198 A 
ATOM     91  F   UNL A   1      45.667  29.485  34.088  1.00  0.00    -0.203 F 
ATOM     92  F   UNL A   1      44.254  25.038  36.914  1.00  0.00    -0.200 F 
ATOM     93  C   UNL A   1      45.933  26.433  36.015  1.00  0.00     0.200 A 
ATOM     94  F   UNL A   1      47.576  27.864  35.104  1.00  0.00    -0.200 F 
ATOM     95  F   UNL A   1      46.886  25.653  36.544  1.00  0.00    -0.200 F 
ENDBRANCH  62  85
ENDBRANCH  36  37
ENDBRANCH  29  31
ENDBRANCH  28  29
ENDBRANCH  27  28
ENDBRANCH  26  27
ENDBRANCH  25  26
ENDBRANCH   1  25
TORSDOF 19
ENDMDL
