MODEL 1
REMARK VINA RESULT:     -11.9      0.000      0.000
REMARK SMILES CC(C)[NH2+][C@]1(C(=O)OCCOCCOC(=O)c2ccc(-c3c4nc(c(-c5c(F)c(F)c(F)c(F)c5F)c5ccc([nH]5)c(-c5c(F)c(F)c(F)c(F)c5F)c5nc(c(-c6c(F)c(F)c(F)c(F)c6F)c6ccc3[nH]6)C=C5)C=C4)cc2)CCC[C@@H](Sc2nnnn2C)C1
REMARK SMILES IDX 11 1 10 2 9 3 8 4 6 5 7 6 5 7 80 8 91 9 81 10 83 11 82 12
REMARK SMILES IDX 4 13 2 16 1 17 3 18 84 19 85 20 86 21 89 22 87 23 88 24
REMARK SMILES IDX 90 25 12 26 13 27 14 28 15 29 16 30 17 31 18 32 79 33 19 34
REMARK SMILES IDX 78 35 20 36 21 37 22 38 72 39 23 40 77 41 71 42 73 43 24 44
REMARK SMILES IDX 76 45 70 46 69 47 25 49 57 50 37 51 56 52 38 53 41 54 55 55
REMARK SMILES IDX 74 56 39 57 40 58 54 60 75 61 42 62 26 63 27 64 35 65 28 66
REMARK SMILES IDX 29 67 33 68 36 69 30 70 31 71 34 72 32 73 58 74 59 75 67 76
REMARK SMILES IDX 60 77 61 78 65 79 68 80 62 81 63 82 66 83 64 84 43 85 44 86
REMARK SMILES IDX 52 87 45 88 46 89 50 90 53 91 47 92 48 93 51 94 49 95
REMARK H PARENT 4 14 4 15 73 48 41 59
REMARK Flexibility Score: inf
ROOT
ATOM      1  O   UNL A   1      32.865  29.514  24.745  1.00  0.00    -0.374 OA
ENDROOT
BRANCH   1   2
ATOM      2  C   UNL A   1      33.655  28.453  25.255  1.00  0.00     0.202 C 
BRANCH   2   3
ATOM      3  C   UNL A   1      32.967  27.294  25.981  1.00  0.00     0.261 C 
BRANCH   3   4
ATOM      4  O   UNL A   1      33.743  26.082  26.118  1.00  0.00    -0.459 OA
BRANCH   4   5
ATOM      5  C   UNL A   1      33.064  24.913  25.930  1.00  0.00     0.368 C 
ATOM      6  O   UNL A   1      32.142  24.550  26.657  1.00  0.00    -0.245 OA
BRANCH   5   7
ATOM      7  C   UNL A   1      33.665  24.002  24.812  1.00  0.00     0.195 C 
ATOM      8  C   UNL A   1      35.205  24.047  24.702  1.00  0.00     0.081 C 
ATOM      9  C   UNL A   1      33.283  22.612  25.368  1.00  0.00     0.096 C 
ATOM     10  C   UNL A   1      35.799  22.848  23.943  1.00  0.00     0.008 C 
ATOM     11  C   UNL A   1      33.806  21.433  24.572  1.00  0.00     0.061 C 
ATOM     12  C   UNL A   1      35.330  21.488  24.492  1.00  0.00     0.015 C 
BRANCH   7  13
ATOM     13  N   UNL A   1      33.004  24.085  23.471  1.00  0.00    -0.330 N 
ATOM     14  H   UNL A   1      33.721  24.363  22.801  1.00  0.00     0.347 HD
ATOM     15  H   UNL A   1      32.594  23.160  23.341  1.00  0.00     0.347 HD
BRANCH  13  16
ATOM     16  C   UNL A   1      31.876  24.996  23.296  1.00  0.00     0.176 C 
ATOM     17  C   UNL A   1      31.963  25.747  21.965  1.00  0.00     0.075 C 
ATOM     18  C   UNL A   1      30.576  24.179  23.279  1.00  0.00     0.075 C 
ENDBRANCH  13  16
ENDBRANCH   7  13
BRANCH  11  19
ATOM     19  S   UNL A   1      33.078  19.902  25.266  1.00  0.00    -0.081 SA
BRANCH  19  20
ATOM     20  C   UNL A   1      33.066  18.786  23.950  1.00  0.00     0.209 A 
ATOM     21  N   UNL A   1      32.232  18.848  22.938  1.00  0.00    -0.102 NA
ATOM     22  N   UNL A   1      33.823  17.650  23.815  1.00  0.00    -0.224 N 
ATOM     23  N   UNL A   1      32.493  17.750  22.159  1.00  0.00    -0.023 NA
ATOM     24  N   UNL A   1      33.475  17.024  22.674  1.00  0.00    -0.045 NA
ATOM     25  C   UNL A   1      34.899  17.099  24.591  1.00  0.00     0.179 C 
ENDBRANCH  19  20
ENDBRANCH  11  19
ENDBRANCH   5   7
ENDBRANCH   4   5
ENDBRANCH   3   4
ENDBRANCH   2   3
ENDBRANCH   1   2
BRANCH   1  26
ATOM     26  C   UNL A   1      31.711  29.974  25.431  1.00  0.00     0.202 C 
BRANCH  26  27
ATOM     27  C   UNL A   1      31.834  31.041  26.515  1.00  0.00     0.261 C 
BRANCH  27  28
ATOM     28  O   UNL A   1      32.959  30.965  27.359  1.00  0.00    -0.460 OA
BRANCH  28  29
ATOM     29  C   UNL A   1      33.552  32.138  27.607  1.00  0.00     0.338 C 
ATOM     30  O   UNL A   1      33.075  33.256  27.601  1.00  0.00    -0.246 OA
BRANCH  29  31
ATOM     31  C   UNL A   1      34.880  31.751  28.059  1.00  0.00     0.060 A 
ATOM     32  C   UNL A   1      35.117  30.390  28.236  1.00  0.00     0.016 A 
ATOM     33  C   UNL A   1      35.887  32.714  28.197  1.00  0.00     0.016 A 
ATOM     34  C   UNL A   1      36.369  29.990  28.654  1.00  0.00     0.010 A 
ATOM     35  C   UNL A   1      37.150  32.308  28.599  1.00  0.00     0.010 A 
ATOM     36  C   UNL A   1      37.368  30.951  28.879  1.00  0.00    -0.014 A 
BRANCH  36  37
ATOM     37  C   UNL A   1      38.587  30.512  29.573  1.00  0.00     0.031 A 
ATOM     38  C   UNL A   1      38.781  30.945  30.995  1.00  0.00     0.074 A 
ATOM     39  C   UNL A   1      39.397  29.634  28.963  1.00  0.00     0.049 A 
ATOM     40  N   UNL A   1      39.686  30.568  31.856  1.00  0.00    -0.248 NA
ATOM     41  C   UNL A   1      37.820  31.929  31.526  1.00  0.00     0.031 C 
ATOM     42  C   UNL A   1      39.240  29.160  27.587  1.00  0.00     0.029 A 
ATOM     43  N   UNL A   1      40.486  28.955  29.432  1.00  0.00    -0.354 N 
ATOM     44  C   UNL A   1      39.391  31.249  33.029  1.00  0.00     0.074 A 
ATOM     45  C   UNL A   1      38.261  32.107  32.761  1.00  0.00     0.031 C 
ATOM     46  C   UNL A   1      40.183  28.239  27.332  1.00  0.00     0.029 A 
ATOM     47  C   UNL A   1      41.022  28.086  28.516  1.00  0.00     0.049 A 
ATOM     48  H   UNL A   1      40.850  29.078  30.339  1.00  0.00     0.167 HD
ATOM     49  C   UNL A   1      40.001  31.137  34.231  1.00  0.00     0.037 A 
ATOM     50  C   UNL A   1      42.079  27.264  28.638  1.00  0.00     0.037 A 
ATOM     51  C   UNL A   1      41.130  30.276  34.460  1.00  0.00     0.049 A 
ATOM     52  C   UNL A   1      42.774  27.216  29.974  1.00  0.00     0.074 A 
ATOM     53  C   UNL A   1      41.859  30.093  35.618  1.00  0.00     0.029 A 
ATOM     54  N   UNL A   1      41.691  29.450  33.494  1.00  0.00    -0.354 N 
ATOM     55  N   UNL A   1      42.482  27.848  31.088  1.00  0.00    -0.248 NA
ATOM     56  C   UNL A   1      43.936  26.328  30.075  1.00  0.00     0.031 C 
ATOM     57  C   UNL A   1      42.893  29.193  35.340  1.00  0.00     0.029 A 
ATOM     58  C   UNL A   1      42.769  28.765  34.026  1.00  0.00     0.049 A 
ATOM     59  H   UNL A   1      41.369  29.363  32.568  1.00  0.00     0.167 HD
ATOM     60  C   UNL A   1      43.407  27.419  32.027  1.00  0.00     0.074 A 
ATOM     61  C   UNL A   1      44.242  26.438  31.359  1.00  0.00     0.031 C 
ATOM     62  C   UNL A   1      43.571  27.799  33.320  1.00  0.00     0.037 A 
BRANCH  49  63
ATOM     63  C   UNL A   1      39.472  31.963  35.367  1.00  0.00     0.064 A 
ATOM     64  C   UNL A   1      38.560  31.441  36.297  1.00  0.00     0.173 A 
ATOM     65  C   UNL A   1      39.910  33.283  35.552  1.00  0.00     0.173 A 
ATOM     66  F   UNL A   1      38.089  30.193  36.152  1.00  0.00    -0.203 F 
ATOM     67  C   UNL A   1      38.101  32.209  37.363  1.00  0.00     0.198 A 
ATOM     68  C   UNL A   1      39.472  34.039  36.636  1.00  0.00     0.198 A 
ATOM     69  F   UNL A   1      40.774  33.836  34.688  1.00  0.00    -0.203 F 
ATOM     70  F   UNL A   1      37.202  31.700  38.218  1.00  0.00    -0.200 F 
ATOM     71  C   UNL A   1      38.566  33.504  37.539  1.00  0.00     0.200 A 
ATOM     72  F   UNL A   1      39.929  35.287  36.809  1.00  0.00    -0.200 F 
ATOM     73  F   UNL A   1      38.137  34.237  38.575  1.00  0.00    -0.200 F 
ENDBRANCH  49  63
BRANCH  50  74
ATOM     74  C   UNL A   1      42.546  26.448  27.485  1.00  0.00     0.064 A 
ATOM     75  C   UNL A   1      42.025  25.173  27.229  1.00  0.00     0.173 A 
ATOM     76  C   UNL A   1      43.565  26.913  26.639  1.00  0.00     0.173 A 
ATOM     77  F   UNL A   1      41.054  24.676  28.011  1.00  0.00    -0.203 F 
ATOM     78  C   UNL A   1      42.536  24.377  26.206  1.00  0.00     0.198 A 
ATOM     79  C   UNL A   1      44.048  26.132  25.592  1.00  0.00     0.198 A 
ATOM     80  F   UNL A   1      44.096  28.130  26.830  1.00  0.00    -0.203 F 
ATOM     81  F   UNL A   1      42.071  23.132  26.033  1.00  0.00    -0.200 F 
ATOM     82  C   UNL A   1      43.547  24.858  25.387  1.00  0.00     0.200 A 
ATOM     83  F   UNL A   1      45.008  26.613  24.790  1.00  0.00    -0.200 F 
ATOM     84  F   UNL A   1      44.045  24.088  24.409  1.00  0.00    -0.200 F 
ENDBRANCH  50  74
BRANCH  62  85
ATOM     85  C   UNL A   1      44.675  27.120  34.079  1.00  0.00     0.064 A 
ATOM     86  C   UNL A   1      45.972  27.655  34.125  1.00  0.00     0.173 A 
ATOM     87  C   UNL A   1      44.433  25.917  34.756  1.00  0.00     0.173 A 
ATOM     88  F   UNL A   1      46.255  28.799  33.484  1.00  0.00    -0.203 F 
ATOM     89  C   UNL A   1      47.000  26.974  34.768  1.00  0.00     0.198 A 
ATOM     90  C   UNL A   1      45.454  25.263  35.437  1.00  0.00     0.198 A 
ATOM     91  F   UNL A   1      43.207  25.373  34.755  1.00  0.00    -0.203 F 
ATOM     92  F   UNL A   1      48.250  27.455  34.722  1.00  0.00    -0.200 F 
ATOM     93  C   UNL A   1      46.739  25.781  35.427  1.00  0.00     0.200 A 
ATOM     94  F   UNL A   1      45.197  24.122  36.090  1.00  0.00    -0.200 F 
ATOM     95  F   UNL A   1      47.734  25.123  36.039  1.00  0.00    -0.200 F 
ENDBRANCH  62  85
ENDBRANCH  36  37
ENDBRANCH  29  31
ENDBRANCH  28  29
ENDBRANCH  27  28
ENDBRANCH  26  27
ENDBRANCH   1  26
TORSDOF 18
ENDMDL
MODEL 2
REMARK VINA RESULT:     -11.4      1.846      2.201
REMARK SMILES CC(C)[NH2+][C@]1(C(=O)OCCOCCOC(=O)c2ccc(-c3c4nc(c(-c5c(F)c(F)c(F)c(F)c5F)c5ccc([nH]5)c(-c5c(F)c(F)c(F)c(F)c5F)c5nc(c(-c6c(F)c(F)c(F)c(F)c6F)c6ccc3[nH]6)C=C5)C=C4)cc2)CCC[C@@H](Sc2nnnn2C)C1
REMARK SMILES IDX 11 1 10 2 9 3 8 4 6 5 7 6 5 7 80 8 91 9 81 10 83 11 82 12
REMARK SMILES IDX 4 13 2 16 1 17 3 18 84 19 85 20 86 21 89 22 87 23 88 24
REMARK SMILES IDX 90 25 12 26 13 27 14 28 15 29 16 30 17 31 18 32 79 33 19 34
REMARK SMILES IDX 78 35 20 36 21 37 22 38 72 39 23 40 77 41 71 42 73 43 24 44
REMARK SMILES IDX 76 45 70 46 69 47 25 49 57 50 37 51 56 52 38 53 41 54 55 55
REMARK SMILES IDX 74 56 39 57 40 58 54 60 75 61 42 62 26 63 27 64 35 65 28 66
REMARK SMILES IDX 29 67 33 68 36 69 30 70 31 71 34 72 32 73 58 74 59 75 67 76
REMARK SMILES IDX 60 77 61 78 65 79 68 80 62 81 63 82 66 83 64 84 43 85 44 86
REMARK SMILES IDX 52 87 45 88 46 89 50 90 53 91 47 92 48 93 51 94 49 95
REMARK H PARENT 4 14 4 15 73 48 41 59
REMARK Flexibility Score: inf
ROOT
ATOM      1  O   UNL A   1      31.508  28.775  26.835  1.00  0.00    -0.374 OA
ENDROOT
BRANCH   1   2
ATOM      2  C   UNL A   1      32.724  28.229  27.318  1.00  0.00     0.202 C 
BRANCH   2   3
ATOM      3  C   UNL A   1      33.781  27.763  26.314  1.00  0.00     0.261 C 
BRANCH   3   4
ATOM      4  O   UNL A   1      33.331  26.829  25.307  1.00  0.00    -0.459 OA
BRANCH   4   5
ATOM      5  C   UNL A   1      33.219  27.324  24.040  1.00  0.00     0.368 C 
ATOM      6  O   UNL A   1      33.499  28.484  23.747  1.00  0.00    -0.245 OA
BRANCH   5   7
ATOM      7  C   UNL A   1      32.554  26.336  23.028  1.00  0.00     0.195 C 
ATOM      8  C   UNL A   1      33.220  26.294  21.635  1.00  0.00     0.081 C 
ATOM      9  C   UNL A   1      32.861  24.993  23.727  1.00  0.00     0.096 C 
ATOM     10  C   UNL A   1      32.866  25.035  20.826  1.00  0.00     0.008 C 
ATOM     11  C   UNL A   1      32.440  23.755  22.960  1.00  0.00     0.061 C 
ATOM     12  C   UNL A   1      33.125  23.726  21.595  1.00  0.00     0.015 C 
BRANCH   7  13
ATOM     13  N   UNL A   1      31.061  26.398  22.934  1.00  0.00    -0.330 N 
ATOM     14  H   UNL A   1      30.834  26.773  22.014  1.00  0.00     0.347 HD
ATOM     15  H   UNL A   1      30.762  25.440  23.122  1.00  0.00     0.347 HD
BRANCH  13  16
ATOM     16  C   UNL A   1      30.325  27.193  23.914  1.00  0.00     0.176 C 
ATOM     17  C   UNL A   1      29.504  28.295  23.240  1.00  0.00     0.075 C 
ATOM     18  C   UNL A   1      29.342  26.278  24.658  1.00  0.00     0.075 C 
ENDBRANCH  13  16
ENDBRANCH   7  13
BRANCH  11  19
ATOM     19  S   UNL A   1      32.698  22.295  24.037  1.00  0.00    -0.081 SA
BRANCH  19  20
ATOM     20  C   UNL A   1      31.978  22.730  25.544  1.00  0.00     0.209 A 
ATOM     21  N   UNL A   1      30.694  22.946  25.711  1.00  0.00    -0.102 NA
ATOM     22  N   UNL A   1      32.619  23.007  26.723  1.00  0.00    -0.224 N 
ATOM     23  N   UNL A   1      30.540  23.340  27.016  1.00  0.00    -0.023 NA
ATOM     24  N   UNL A   1      31.706  23.361  27.647  1.00  0.00    -0.045 NA
ATOM     25  C   UNL A   1      33.995  22.916  27.130  1.00  0.00     0.179 C 
ENDBRANCH  19  20
ENDBRANCH  11  19
ENDBRANCH   5   7
ENDBRANCH   4   5
ENDBRANCH   3   4
ENDBRANCH   2   3
ENDBRANCH   1   2
BRANCH   1  26
ATOM     26  C   UNL A   1      31.472  30.023  26.160  1.00  0.00     0.202 C 
BRANCH  26  27
ATOM     27  C   UNL A   1      31.962  31.289  26.857  1.00  0.00     0.261 C 
BRANCH  27  28
ATOM     28  O   UNL A   1      33.349  31.532  26.837  1.00  0.00    -0.460 OA
BRANCH  28  29
ATOM     29  C   UNL A   1      33.754  32.526  27.636  1.00  0.00     0.338 C 
ATOM     30  O   UNL A   1      33.144  33.508  28.011  1.00  0.00    -0.246 OA
BRANCH  29  31
ATOM     31  C   UNL A   1      35.057  32.071  28.098  1.00  0.00     0.060 A 
ATOM     32  C   UNL A   1      35.215  30.703  28.300  1.00  0.00     0.016 A 
ATOM     33  C   UNL A   1      36.119  32.978  28.219  1.00  0.00     0.016 A 
ATOM     34  C   UNL A   1      36.442  30.239  28.728  1.00  0.00     0.010 A 
ATOM     35  C   UNL A   1      37.356  32.507  28.631  1.00  0.00     0.010 A 
ATOM     36  C   UNL A   1      37.495  31.145  28.937  1.00  0.00    -0.014 A 
BRANCH  36  37
ATOM     37  C   UNL A   1      38.685  30.650  29.641  1.00  0.00     0.031 A 
ATOM     38  C   UNL A   1      38.876  31.056  31.071  1.00  0.00     0.074 A 
ATOM     39  C   UNL A   1      39.469  29.748  29.030  1.00  0.00     0.049 A 
ATOM     40  N   UNL A   1      39.754  30.632  31.940  1.00  0.00    -0.248 NA
ATOM     41  C   UNL A   1      37.947  32.069  31.603  1.00  0.00     0.031 C 
ATOM     42  C   UNL A   1      39.313  29.299  27.646  1.00  0.00     0.029 A 
ATOM     43  N   UNL A   1      40.525  29.022  29.504  1.00  0.00    -0.354 N 
ATOM     44  C   UNL A   1      39.469  31.308  33.118  1.00  0.00     0.074 A 
ATOM     45  C   UNL A   1      38.377  32.214  32.846  1.00  0.00     0.031 C 
ATOM     46  C   UNL A   1      40.224  28.346  27.391  1.00  0.00     0.029 A 
ATOM     47  C   UNL A   1      41.039  28.145  28.583  1.00  0.00     0.049 A 
ATOM     48  H   UNL A   1      40.880  29.118  30.417  1.00  0.00     0.167 HD
ATOM     49  C   UNL A   1      40.057  31.156  34.326  1.00  0.00     0.037 A 
ATOM     50  C   UNL A   1      42.062  27.281  28.709  1.00  0.00     0.037 A 
ATOM     51  C   UNL A   1      41.148  30.249  34.558  1.00  0.00     0.049 A 
ATOM     52  C   UNL A   1      42.735  27.187  30.053  1.00  0.00     0.074 A 
ATOM     53  C   UNL A   1      41.853  30.022  35.724  1.00  0.00     0.029 A 
ATOM     54  N   UNL A   1      41.690  29.414  33.589  1.00  0.00    -0.354 N 
ATOM     55  N   UNL A   1      42.452  27.815  31.171  1.00  0.00    -0.248 NA
ATOM     56  C   UNL A   1      43.860  26.253  30.158  1.00  0.00     0.031 C 
ATOM     57  C   UNL A   1      42.856  29.086  35.447  1.00  0.00     0.029 A 
ATOM     58  C   UNL A   1      42.734  28.681  34.126  1.00  0.00     0.049 A 
ATOM     59  H   UNL A   1      41.378  29.353  32.657  1.00  0.00     0.167 HD
ATOM     60  C   UNL A   1      43.347  27.337  32.117  1.00  0.00     0.074 A 
ATOM     61  C   UNL A   1      44.152  26.334  31.447  1.00  0.00     0.031 C 
ATOM     62  C   UNL A   1      43.507  27.694  33.417  1.00  0.00     0.037 A 
BRANCH  49  63
ATOM     63  C   UNL A   1      39.544  31.988  35.466  1.00  0.00     0.064 A 
ATOM     64  C   UNL A   1      38.590  31.493  36.368  1.00  0.00     0.173 A 
ATOM     65  C   UNL A   1      40.042  33.281  35.684  1.00  0.00     0.173 A 
ATOM     66  F   UNL A   1      38.062  30.273  36.191  1.00  0.00    -0.203 F 
ATOM     67  C   UNL A   1      38.146  32.264  37.439  1.00  0.00     0.198 A 
ATOM     68  C   UNL A   1      39.618  34.039  36.773  1.00  0.00     0.198 A 
ATOM     69  F   UNL A   1      40.949  33.807  34.848  1.00  0.00    -0.203 F 
ATOM     70  F   UNL A   1      37.206  31.785  38.265  1.00  0.00    -0.200 F 
ATOM     71  C   UNL A   1      38.669  33.533  37.647  1.00  0.00     0.200 A 
ATOM     72  F   UNL A   1      40.130  35.260  36.977  1.00  0.00    -0.200 F 
ATOM     73  F   UNL A   1      38.254  34.267  38.688  1.00  0.00    -0.200 F 
ENDBRANCH  49  63
BRANCH  50  74
ATOM     74  C   UNL A   1      42.512  26.462  27.551  1.00  0.00     0.064 A 
ATOM     75  C   UNL A   1      42.003  25.178  27.316  1.00  0.00     0.173 A 
ATOM     76  C   UNL A   1      43.505  26.935  26.678  1.00  0.00     0.173 A 
ATOM     77  F   UNL A   1      41.058  24.674  28.124  1.00  0.00    -0.203 F 
ATOM     78  C   UNL A   1      42.501  24.381  26.287  1.00  0.00     0.198 A 
ATOM     79  C   UNL A   1      43.974  26.152  25.625  1.00  0.00     0.198 A 
ATOM     80  F   UNL A   1      44.023  28.160  26.847  1.00  0.00    -0.203 F 
ATOM     81  F   UNL A   1      42.049  23.129  26.134  1.00  0.00    -0.200 F 
ATOM     82  C   UNL A   1      43.486  24.870  25.441  1.00  0.00     0.200 A 
ATOM     83  F   UNL A   1      44.908  26.640  24.798  1.00  0.00    -0.200 F 
ATOM     84  F   UNL A   1      43.971  24.099  24.457  1.00  0.00    -0.200 F 
ENDBRANCH  50  74
BRANCH  62  85
ATOM     85  C   UNL A   1      44.573  26.963  34.181  1.00  0.00     0.064 A 
ATOM     86  C   UNL A   1      45.887  27.449  34.258  1.00  0.00     0.173 A 
ATOM     87  C   UNL A   1      44.277  25.757  34.833  1.00  0.00     0.173 A 
ATOM     88  F   UNL A   1      46.222  28.593  33.643  1.00  0.00    -0.203 F 
ATOM     89  C   UNL A   1      46.880  26.720  34.906  1.00  0.00     0.198 A 
ATOM     90  C   UNL A   1      45.262  25.054  35.518  1.00  0.00     0.198 A 
ATOM     91  F   UNL A   1      43.032  25.258  34.802  1.00  0.00    -0.203 F 
ATOM     92  F   UNL A   1      48.146  27.156  34.889  1.00  0.00    -0.200 F 
ATOM     93  C   UNL A   1      46.565  25.526  35.538  1.00  0.00     0.200 A 
ATOM     94  F   UNL A   1      44.953  23.912  36.146  1.00  0.00    -0.200 F 
ATOM     95  F   UNL A   1      47.525  24.822  36.155  1.00  0.00    -0.200 F 
ENDBRANCH  62  85
ENDBRANCH  36  37
ENDBRANCH  29  31
ENDBRANCH  28  29
ENDBRANCH  27  28
ENDBRANCH  26  27
ENDBRANCH   1  26
TORSDOF 18
ENDMDL
MODEL 3
REMARK VINA RESULT:     -11.4      1.034      1.987
REMARK SMILES CC(C)[NH2+][C@]1(C(=O)OCCOCCOC(=O)c2ccc(-c3c4nc(c(-c5c(F)c(F)c(F)c(F)c5F)c5ccc([nH]5)c(-c5c(F)c(F)c(F)c(F)c5F)c5nc(c(-c6c(F)c(F)c(F)c(F)c6F)c6ccc3[nH]6)C=C5)C=C4)cc2)CCC[C@@H](Sc2nnnn2C)C1
REMARK SMILES IDX 11 1 10 2 9 3 8 4 6 5 7 6 5 7 80 8 91 9 81 10 83 11 82 12
REMARK SMILES IDX 4 13 2 16 1 17 3 18 84 19 85 20 86 21 89 22 87 23 88 24
REMARK SMILES IDX 90 25 12 26 13 27 14 28 15 29 16 30 17 31 18 32 79 33 19 34
REMARK SMILES IDX 78 35 20 36 21 37 22 38 72 39 23 40 77 41 71 42 73 43 24 44
REMARK SMILES IDX 76 45 70 46 69 47 25 49 57 50 37 51 56 52 38 53 41 54 55 55
REMARK SMILES IDX 74 56 39 57 40 58 54 60 75 61 42 62 26 63 27 64 35 65 28 66
REMARK SMILES IDX 29 67 33 68 36 69 30 70 31 71 34 72 32 73 58 74 59 75 67 76
REMARK SMILES IDX 60 77 61 78 65 79 68 80 62 81 63 82 66 83 64 84 43 85 44 86
REMARK SMILES IDX 52 87 45 88 46 89 50 90 53 91 47 92 48 93 51 94 49 95
REMARK H PARENT 4 14 4 15 73 48 41 59
REMARK Flexibility Score: inf
ROOT
ATOM      1  O   UNL A   1      31.692  28.387  25.572  1.00  0.00    -0.374 OA
ENDROOT
BRANCH   1   2
ATOM      2  C   UNL A   1      32.011  27.418  24.588  1.00  0.00     0.202 C 
BRANCH   2   3
ATOM      3  C   UNL A   1      33.451  27.323  24.077  1.00  0.00     0.261 C 
BRANCH   3   4
ATOM      4  O   UNL A   1      34.271  26.295  24.678  1.00  0.00    -0.459 OA
BRANCH   4   5
ATOM      5  C   UNL A   1      34.194  25.058  24.108  1.00  0.00     0.368 C 
ATOM      6  O   UNL A   1      34.133  24.883  22.893  1.00  0.00    -0.245 OA
BRANCH   5   7
ATOM      7  C   UNL A   1      34.028  23.893  25.137  1.00  0.00     0.195 C 
ATOM      8  C   UNL A   1      33.025  24.178  26.276  1.00  0.00     0.081 C 
ATOM      9  C   UNL A   1      33.397  22.820  24.223  1.00  0.00     0.096 C 
ATOM     10  C   UNL A   1      32.538  22.906  26.993  1.00  0.00     0.008 C 
ATOM     11  C   UNL A   1      32.989  21.537  24.921  1.00  0.00     0.061 C 
ATOM     12  C   UNL A   1      31.984  21.840  26.031  1.00  0.00     0.015 C 
BRANCH   7  13
ATOM     13  N   UNL A   1      35.296  23.280  25.645  1.00  0.00    -0.330 N 
ATOM     14  H   UNL A   1      35.369  23.521  26.633  1.00  0.00     0.347 HD
ATOM     15  H   UNL A   1      35.196  22.289  25.425  1.00  0.00     0.347 HD
BRANCH  13  16
ATOM     16  C   UNL A   1      36.561  23.654  25.017  1.00  0.00     0.176 C 
ATOM     17  C   UNL A   1      37.678  23.806  26.053  1.00  0.00     0.075 C 
ATOM     18  C   UNL A   1      36.982  22.540  24.049  1.00  0.00     0.075 C 
ENDBRANCH  13  16
ENDBRANCH   7  13
BRANCH  11  19
ATOM     19  S   UNL A   1      32.462  20.331  23.646  1.00  0.00    -0.081 SA
BRANCH  19  20
ATOM     20  C   UNL A   1      32.829  18.787  24.325  1.00  0.00     0.209 A 
ATOM     21  N   UNL A   1      31.926  17.891  24.649  1.00  0.00    -0.102 NA
ATOM     22  N   UNL A   1      34.058  18.321  24.714  1.00  0.00    -0.224 N 
ATOM     23  N   UNL A   1      32.609  16.850  25.223  1.00  0.00    -0.023 NA
ATOM     24  N   UNL A   1      33.912  17.093  25.249  1.00  0.00    -0.045 NA
ATOM     25  C   UNL A   1      35.388  18.851  24.584  1.00  0.00     0.179 C 
ENDBRANCH  19  20
ENDBRANCH  11  19
ENDBRANCH   5   7
ENDBRANCH   4   5
ENDBRANCH   3   4
ENDBRANCH   2   3
ENDBRANCH   1   2
BRANCH   1  26
ATOM     26  C   UNL A   1      31.681  29.773  25.272  1.00  0.00     0.202 C 
BRANCH  26  27
ATOM     27  C   UNL A   1      31.796  30.805  26.391  1.00  0.00     0.261 C 
BRANCH  27  28
ATOM     28  O   UNL A   1      32.928  30.719  27.224  1.00  0.00    -0.460 OA
BRANCH  28  29
ATOM     29  C   UNL A   1      33.477  31.896  27.546  1.00  0.00     0.338 C 
ATOM     30  O   UNL A   1      32.964  32.997  27.584  1.00  0.00    -0.246 OA
BRANCH  29  31
ATOM     31  C   UNL A   1      34.805  31.528  28.011  1.00  0.00     0.060 A 
ATOM     32  C   UNL A   1      35.020  30.187  28.317  1.00  0.00     0.016 A 
ATOM     33  C   UNL A   1      35.833  32.479  28.036  1.00  0.00     0.016 A 
ATOM     34  C   UNL A   1      36.273  29.804  28.751  1.00  0.00     0.010 A 
ATOM     35  C   UNL A   1      37.096  32.089  28.454  1.00  0.00     0.010 A 
ATOM     36  C   UNL A   1      37.294  30.762  28.863  1.00  0.00    -0.014 A 
BRANCH  36  37
ATOM     37  C   UNL A   1      38.517  30.369  29.576  1.00  0.00     0.031 A 
ATOM     38  C   UNL A   1      38.697  30.853  30.983  1.00  0.00     0.074 A 
ATOM     39  C   UNL A   1      39.345  29.485  28.999  1.00  0.00     0.049 A 
ATOM     40  N   UNL A   1      39.605  30.522  31.860  1.00  0.00    -0.248 NA
ATOM     41  C   UNL A   1      37.717  31.837  31.477  1.00  0.00     0.031 C 
ATOM     42  C   UNL A   1      39.202  28.962  27.639  1.00  0.00     0.029 A 
ATOM     43  N   UNL A   1      40.444  28.842  29.494  1.00  0.00    -0.354 N 
ATOM     44  C   UNL A   1      39.293  31.236  33.008  1.00  0.00     0.074 A 
ATOM     45  C   UNL A   1      38.150  32.065  32.707  1.00  0.00     0.031 C 
ATOM     46  C   UNL A   1      40.163  28.050  27.419  1.00  0.00     0.029 A 
ATOM     47  C   UNL A   1      40.999  27.952  28.610  1.00  0.00     0.049 A 
ATOM     48  H   UNL A   1      40.802  29.002  30.398  1.00  0.00     0.167 HD
ATOM     49  C   UNL A   1      39.900  31.176  34.215  1.00  0.00     0.037 A 
ATOM     50  C   UNL A   1      42.070  27.154  28.764  1.00  0.00     0.037 A 
ATOM     51  C   UNL A   1      41.043  30.343  34.477  1.00  0.00     0.049 A 
ATOM     52  C   UNL A   1      42.761  27.163  30.103  1.00  0.00     0.074 A 
ATOM     53  C   UNL A   1      41.771  30.213  35.644  1.00  0.00     0.029 A 
ATOM     54  N   UNL A   1      41.623  29.495  33.542  1.00  0.00    -0.354 N 
ATOM     55  N   UNL A   1      42.452  27.827  31.194  1.00  0.00    -0.248 NA
ATOM     56  C   UNL A   1      43.937  26.300  30.239  1.00  0.00     0.031 C 
ATOM     57  C   UNL A   1      42.822  29.322  35.400  1.00  0.00     0.029 A 
ATOM     58  C   UNL A   1      42.711  28.848  34.101  1.00  0.00     0.049 A 
ATOM     59  H   UNL A   1      41.306  29.372  32.618  1.00  0.00     0.167 HD
ATOM     60  C   UNL A   1      43.381  27.447  32.150  1.00  0.00     0.074 A 
ATOM     61  C   UNL A   1      44.236  26.459  31.520  1.00  0.00     0.031 C 
ATOM     62  C   UNL A   1      43.533  27.874  33.430  1.00  0.00     0.037 A 
BRANCH  49  63
ATOM     63  C   UNL A   1      39.352  32.031  35.320  1.00  0.00     0.064 A 
ATOM     64  C   UNL A   1      38.476  31.513  36.287  1.00  0.00     0.173 A 
ATOM     65  C   UNL A   1      39.736  33.374  35.439  1.00  0.00     0.173 A 
ATOM     66  F   UNL A   1      38.055  30.242  36.206  1.00  0.00    -0.203 F 
ATOM     67  C   UNL A   1      37.999  32.310  37.324  1.00  0.00     0.198 A 
ATOM     68  C   UNL A   1      39.281  34.161  36.494  1.00  0.00     0.198 A 
ATOM     69  F   UNL A   1      40.564  33.923  34.537  1.00  0.00    -0.203 F 
ATOM     70  F   UNL A   1      37.134  31.804  38.214  1.00  0.00    -0.200 F 
ATOM     71  C   UNL A   1      38.411  33.630  37.434  1.00  0.00     0.200 A 
ATOM     72  F   UNL A   1      39.686  35.433  36.603  1.00  0.00    -0.200 F 
ATOM     73  F   UNL A   1      37.965  34.391  38.442  1.00  0.00    -0.200 F 
ENDBRANCH  49  63
BRANCH  50  74
ATOM     74  C   UNL A   1      42.556  26.308  27.641  1.00  0.00     0.064 A 
ATOM     75  C   UNL A   1      43.556  26.753  26.765  1.00  0.00     0.173 A 
ATOM     76  C   UNL A   1      41.991  25.047  27.392  1.00  0.00     0.173 A 
ATOM     77  F   UNL A   1      44.125  27.953  26.952  1.00  0.00    -0.203 F 
ATOM     78  C   UNL A   1      43.936  25.995  25.659  1.00  0.00     0.198 A 
ATOM     79  C   UNL A   1      42.401  24.273  26.309  1.00  0.00     0.198 A 
ATOM     80  F   UNL A   1      41.038  24.565  28.202  1.00  0.00    -0.203 F 
ATOM     81  F   UNL A   1      44.839  26.480  24.797  1.00  0.00    -0.200 F 
ATOM     82  C   UNL A   1      43.358  24.754  25.433  1.00  0.00     0.200 A 
ATOM     83  F   UNL A   1      41.855  23.065  26.110  1.00  0.00    -0.200 F 
ATOM     84  F   UNL A   1      43.718  24.029  24.364  1.00  0.00    -0.200 F 
ENDBRANCH  50  74
BRANCH  62  85
ATOM     85  C   UNL A   1      44.646  27.241  34.215  1.00  0.00     0.064 A 
ATOM     86  C   UNL A   1      45.942  27.777  34.217  1.00  0.00     0.173 A 
ATOM     87  C   UNL A   1      44.412  26.080  34.965  1.00  0.00     0.173 A 
ATOM     88  F   UNL A   1      46.218  28.882  33.506  1.00  0.00    -0.203 F 
ATOM     89  C   UNL A   1      46.978  27.136  34.887  1.00  0.00     0.198 A 
ATOM     90  C   UNL A   1      45.441  25.466  35.673  1.00  0.00     0.198 A 
ATOM     91  F   UNL A   1      43.186  25.536  35.009  1.00  0.00    -0.203 F 
ATOM     92  F   UNL A   1      48.227  27.613  34.800  1.00  0.00    -0.200 F 
ATOM     93  C   UNL A   1      46.726  25.984  35.617  1.00  0.00     0.200 A 
ATOM     94  F   UNL A   1      45.191  24.365  36.394  1.00  0.00    -0.200 F 
ATOM     95  F   UNL A   1      47.727  25.363  36.257  1.00  0.00    -0.200 F 
ENDBRANCH  62  85
ENDBRANCH  36  37
ENDBRANCH  29  31
ENDBRANCH  28  29
ENDBRANCH  27  28
ENDBRANCH  26  27
ENDBRANCH   1  26
TORSDOF 18
ENDMDL
