MODEL 1
REMARK VINA RESULT:     -11.5      0.000      0.000
REMARK SMILES N#Cc1nccn1-c1ccc(F)cc1C(=O)OCCOCCOC(=O)c1ccc(-c2c3nc(c(-c4c(F)c(F)c(F)c(F)c4F)c4ccc([nH]4)c(-c4c(F)c(F)c(F)c(F)c4F)c4nc(c(-c5c(F)c(F)c(F)c(F)c5F)c5ccc2[nH]5)C=C4)C=C3)cc1
REMARK SMILES IDX 20 1 19 2 18 3 17 4 15 5 16 6 14 7 8 8 9 9 10 10 13 11 11 12
REMARK SMILES IDX 12 13 7 14 3 15 4 16 5 17 6 18 2 19 1 20 21 21 22 22 23 23
REMARK SMILES IDX 24 24 25 25 26 26 27 27 88 28 28 29 87 30 29 31 30 32 31 33
REMARK SMILES IDX 81 34 32 35 86 36 80 37 82 38 33 39 85 40 79 41 78 42 34 44
REMARK SMILES IDX 66 45 46 46 65 47 47 48 50 49 64 50 83 51 48 52 49 53 63 55
REMARK SMILES IDX 84 56 51 57 35 58 36 59 44 60 37 61 38 62 42 63 45 64 39 65
REMARK SMILES IDX 40 66 43 67 41 68 67 69 68 70 76 71 69 72 70 73 74 74 77 75
REMARK SMILES IDX 71 76 72 77 75 78 73 79 52 80 53 81 61 82 54 83 55 84 59 85
REMARK SMILES IDX 62 86 56 87 57 88 60 89 58 90
REMARK H PARENT 82 43 50 54
REMARK Flexibility Score: inf
ROOT
ATOM      1  O   UNL A   1      39.366  21.163  25.718  1.00  0.00    -0.374 OA
ENDROOT
BRANCH   1   2
ATOM      2  C   UNL A   1      38.488  22.213  26.119  1.00  0.00     0.202 C 
BRANCH   2   3
ATOM      3  C   UNL A   1      37.135  22.329  25.422  1.00  0.00     0.261 C 
BRANCH   3   4
ATOM      4  O   UNL A   1      36.321  21.162  25.622  1.00  0.00    -0.460 OA
BRANCH   4   5
ATOM      5  C   UNL A   1      35.085  21.402  26.118  1.00  0.00     0.340 C 
ATOM      6  O   UNL A   1      34.812  21.813  27.232  1.00  0.00    -0.246 OA
BRANCH   5   7
ATOM      7  C   UNL A   1      34.056  21.262  25.060  1.00  0.00     0.087 A 
ATOM      8  C   UNL A   1      33.328  22.305  24.455  1.00  0.00     0.062 A 
ATOM      9  C   UNL A   1      32.396  21.997  23.444  1.00  0.00     0.030 A 
ATOM     10  C   UNL A   1      32.149  20.671  23.085  1.00  0.00     0.041 A 
ATOM     11  C   UNL A   1      33.769  19.929  24.708  1.00  0.00     0.057 A 
ATOM     12  C   UNL A   1      32.818  19.649  23.739  1.00  0.00     0.124 A 
ATOM     13  F   UNL A   1      32.543  18.376  23.433  1.00  0.00    -0.207 F 
BRANCH   8  14
ATOM     14  N   UNL A   1      33.480  23.666  24.838  1.00  0.00    -0.291 N 
ATOM     15  C   UNL A   1      32.804  24.333  25.852  1.00  0.00     0.217 A 
ATOM     16  N   UNL A   1      33.254  25.565  26.001  1.00  0.00    -0.227 NA
ATOM     17  C   UNL A   1      34.217  25.727  25.046  1.00  0.00     0.132 A 
ATOM     18  C   UNL A   1      34.350  24.585  24.294  1.00  0.00     0.114 A 
BRANCH  15  19
ATOM     19  C   UNL A   1      31.837  23.751  26.735  1.00  0.00     0.139 C 
ATOM     20  N   UNL A   1      31.057  23.249  27.423  1.00  0.00    -0.189 NA
ENDBRANCH  15  19
ENDBRANCH   8  14
ENDBRANCH   5   7
ENDBRANCH   4   5
ENDBRANCH   3   4
ENDBRANCH   2   3
ENDBRANCH   1   2
BRANCH   1  21
ATOM     21  C   UNL A   1      40.425  20.745  26.571  1.00  0.00     0.202 C 
BRANCH  21  22
ATOM     22  C   UNL A   1      41.861  20.988  26.131  1.00  0.00     0.261 C 
BRANCH  22  23
ATOM     23  O   UNL A   1      42.019  22.183  25.382  1.00  0.00    -0.460 OA
BRANCH  23  24
ATOM     24  C   UNL A   1      42.883  23.058  25.952  1.00  0.00     0.338 C 
ATOM     25  O   UNL A   1      44.094  23.096  25.818  1.00  0.00    -0.246 OA
BRANCH  24  26
ATOM     26  C   UNL A   1      42.160  23.847  26.951  1.00  0.00     0.060 A 
ATOM     27  C   UNL A   1      41.094  24.614  26.485  1.00  0.00     0.016 A 
ATOM     28  C   UNL A   1      42.803  24.125  28.160  1.00  0.00     0.016 A 
ATOM     29  C   UNL A   1      40.890  25.842  27.073  1.00  0.00     0.010 A 
ATOM     30  C   UNL A   1      42.590  25.340  28.752  1.00  0.00     0.010 A 
ATOM     31  C   UNL A   1      41.733  26.235  28.123  1.00  0.00    -0.014 A 
BRANCH  31  32
ATOM     32  C   UNL A   1      41.560  27.537  28.732  1.00  0.00     0.031 A 
ATOM     33  C   UNL A   1      42.676  28.414  28.318  1.00  0.00     0.074 A 
ATOM     34  C   UNL A   1      40.489  27.892  29.474  1.00  0.00     0.049 A 
ATOM     35  N   UNL A   1      43.703  28.714  29.037  1.00  0.00    -0.248 NA
ATOM     36  C   UNL A   1      42.837  28.733  26.886  1.00  0.00     0.031 C 
ATOM     37  C   UNL A   1      39.267  27.136  29.760  1.00  0.00     0.029 A 
ATOM     38  N   UNL A   1      40.253  29.083  30.105  1.00  0.00    -0.354 N 
ATOM     39  C   UNL A   1      44.506  29.487  28.213  1.00  0.00     0.074 A 
ATOM     40  C   UNL A   1      44.073  29.234  26.867  1.00  0.00     0.031 C 
ATOM     41  C   UNL A   1      38.332  27.962  30.294  1.00  0.00     0.029 A 
ATOM     42  C   UNL A   1      38.924  29.268  30.519  1.00  0.00     0.049 A 
ATOM     43  H   UNL A   1      40.956  29.755  30.257  1.00  0.00     0.167 HD
ATOM     44  C   UNL A   1      45.209  30.525  28.738  1.00  0.00     0.037 A 
ATOM     45  C   UNL A   1      38.393  30.443  30.968  1.00  0.00     0.037 A 
ATOM     46  C   UNL A   1      45.298  30.401  30.172  1.00  0.00     0.049 A 
ATOM     47  C   UNL A   1      39.542  31.276  31.421  1.00  0.00     0.074 A 
ATOM     48  C   UNL A   1      45.853  29.470  31.027  1.00  0.00     0.029 A 
ATOM     49  N   UNL A   1      44.360  31.088  30.903  1.00  0.00    -0.354 N 
ATOM     50  N   UNL A   1      40.278  30.968  32.453  1.00  0.00    -0.248 NA
ATOM     51  C   UNL A   1      40.173  32.117  30.414  1.00  0.00     0.031 C 
ATOM     52  C   UNL A   1      44.921  29.345  32.098  1.00  0.00     0.029 A 
ATOM     53  C   UNL A   1      43.903  30.280  31.910  1.00  0.00     0.049 A 
ATOM     54  H   UNL A   1      44.064  32.011  30.731  1.00  0.00     0.167 HD
ATOM     55  C   UNL A   1      41.578  31.168  32.011  1.00  0.00     0.074 A 
ATOM     56  C   UNL A   1      41.447  31.905  30.752  1.00  0.00     0.031 C 
ATOM     57  C   UNL A   1      42.610  30.443  32.532  1.00  0.00     0.037 A 
BRANCH  44  58
ATOM     58  C   UNL A   1      45.411  31.834  28.024  1.00  0.00     0.064 A 
ATOM     59  C   UNL A   1      46.614  32.215  27.388  1.00  0.00     0.173 A 
ATOM     60  C   UNL A   1      44.287  32.622  27.719  1.00  0.00     0.173 A 
ATOM     61  F   UNL A   1      47.730  31.482  27.460  1.00  0.00    -0.203 F 
ATOM     62  C   UNL A   1      46.696  33.316  26.540  1.00  0.00     0.198 A 
ATOM     63  C   UNL A   1      44.359  33.689  26.821  1.00  0.00     0.198 A 
ATOM     64  F   UNL A   1      43.083  32.314  28.223  1.00  0.00    -0.203 F 
ATOM     65  F   UNL A   1      47.867  33.613  25.961  1.00  0.00    -0.200 F 
ATOM     66  C   UNL A   1      45.564  34.039  26.238  1.00  0.00     0.200 A 
ATOM     67  F   UNL A   1      43.243  34.343  26.476  1.00  0.00    -0.200 F 
ATOM     68  F   UNL A   1      45.627  35.038  25.348  1.00  0.00    -0.200 F 
ENDBRANCH  44  58
BRANCH  45  69
ATOM     69  C   UNL A   1      37.076  31.075  30.658  1.00  0.00     0.064 A 
ATOM     70  C   UNL A   1      36.827  31.665  29.407  1.00  0.00     0.173 A 
ATOM     71  C   UNL A   1      36.172  31.412  31.688  1.00  0.00     0.173 A 
ATOM     72  F   UNL A   1      37.650  31.452  28.373  1.00  0.00    -0.203 F 
ATOM     73  C   UNL A   1      35.782  32.576  29.210  1.00  0.00     0.198 A 
ATOM     74  C   UNL A   1      35.124  32.323  31.490  1.00  0.00     0.198 A 
ATOM     75  F   UNL A   1      36.347  30.927  32.927  1.00  0.00    -0.203 F 
ATOM     76  F   UNL A   1      35.639  33.172  28.019  1.00  0.00    -0.200 F 
ATOM     77  C   UNL A   1      34.944  32.920  30.255  1.00  0.00     0.200 A 
ATOM     78  F   UNL A   1      34.335  32.674  32.516  1.00  0.00    -0.200 F 
ATOM     79  F   UNL A   1      33.996  33.852  30.082  1.00  0.00    -0.200 F 
ENDBRANCH  45  69
BRANCH  57  80
ATOM     80  C   UNL A   1      42.348  29.612  33.759  1.00  0.00     0.064 A 
ATOM     81  C   UNL A   1      42.813  30.111  34.982  1.00  0.00     0.173 A 
ATOM     82  C   UNL A   1      41.838  28.301  33.746  1.00  0.00     0.173 A 
ATOM     83  F   UNL A   1      43.351  31.339  35.042  1.00  0.00    -0.203 F 
ATOM     84  C   UNL A   1      42.796  29.335  36.135  1.00  0.00     0.198 A 
ATOM     85  C   UNL A   1      41.786  27.537  34.914  1.00  0.00     0.198 A 
ATOM     86  F   UNL A   1      41.450  27.722  32.602  1.00  0.00    -0.203 F 
ATOM     87  F   UNL A   1      43.321  29.819  37.269  1.00  0.00    -0.200 F 
ATOM     88  C   UNL A   1      42.278  28.051  36.104  1.00  0.00     0.200 A 
ATOM     89  F   UNL A   1      41.303  26.286  34.881  1.00  0.00    -0.200 F 
ATOM     90  F   UNL A   1      42.280  27.299  37.214  1.00  0.00    -0.200 F 
ENDBRANCH  57  80
ENDBRANCH  31  32
ENDBRANCH  24  26
ENDBRANCH  23  24
ENDBRANCH  22  23
ENDBRANCH  21  22
ENDBRANCH   1  21
TORSDOF 16
ENDMDL
MODEL 2
REMARK VINA RESULT:     -11.3      3.811      6.090
REMARK SMILES N#Cc1nccn1-c1ccc(F)cc1C(=O)OCCOCCOC(=O)c1ccc(-c2c3nc(c(-c4c(F)c(F)c(F)c(F)c4F)c4ccc([nH]4)c(-c4c(F)c(F)c(F)c(F)c4F)c4nc(c(-c5c(F)c(F)c(F)c(F)c5F)c5ccc2[nH]5)C=C4)C=C3)cc1
REMARK SMILES IDX 20 1 19 2 18 3 17 4 15 5 16 6 14 7 8 8 9 9 10 10 13 11 11 12
REMARK SMILES IDX 12 13 7 14 3 15 4 16 5 17 6 18 2 19 1 20 21 21 22 22 23 23
REMARK SMILES IDX 24 24 25 25 26 26 27 27 88 28 28 29 87 30 29 31 30 32 31 33
REMARK SMILES IDX 81 34 32 35 86 36 80 37 82 38 33 39 85 40 79 41 78 42 34 44
REMARK SMILES IDX 66 45 46 46 65 47 47 48 50 49 64 50 83 51 48 52 49 53 63 55
REMARK SMILES IDX 84 56 51 57 35 58 36 59 44 60 37 61 38 62 42 63 45 64 39 65
REMARK SMILES IDX 40 66 43 67 41 68 67 69 68 70 76 71 69 72 70 73 74 74 77 75
REMARK SMILES IDX 71 76 72 77 75 78 73 79 52 80 53 81 61 82 54 83 55 84 59 85
REMARK SMILES IDX 62 86 56 87 57 88 60 89 58 90
REMARK H PARENT 82 43 50 54
REMARK Flexibility Score: inf
ROOT
ATOM      1  O   UNL A   1      43.576  21.016  25.734  1.00  0.00    -0.374 OA
ENDROOT
BRANCH   1   2
ATOM      2  C   UNL A   1      44.619  20.411  24.971  1.00  0.00     0.202 C 
BRANCH   2   3
ATOM      3  C   UNL A   1      45.854  21.247  24.645  1.00  0.00     0.261 C 
BRANCH   3   4
ATOM      4  O   UNL A   1      46.200  22.142  25.715  1.00  0.00    -0.460 OA
BRANCH   4   5
ATOM      5  C   UNL A   1      45.880  23.439  25.505  1.00  0.00     0.340 C 
ATOM      6  O   UNL A   1      45.686  23.979  24.430  1.00  0.00    -0.246 OA
BRANCH   5   7
ATOM      7  C   UNL A   1      45.617  24.133  26.789  1.00  0.00     0.087 A 
ATOM      8  C   UNL A   1      45.726  25.516  27.031  1.00  0.00     0.062 A 
ATOM      9  C   UNL A   1      45.416  26.017  28.312  1.00  0.00     0.030 A 
ATOM     10  C   UNL A   1      45.063  25.149  29.347  1.00  0.00     0.041 A 
ATOM     11  C   UNL A   1      45.292  23.272  27.853  1.00  0.00     0.057 A 
ATOM     12  C   UNL A   1      45.032  23.784  29.115  1.00  0.00     0.124 A 
ATOM     13  F   UNL A   1      44.747  22.948  30.121  1.00  0.00    -0.207 F 
BRANCH   8  14
ATOM     14  N   UNL A   1      46.157  26.436  26.037  1.00  0.00    -0.291 N 
ATOM     15  C   UNL A   1      45.365  27.107  25.114  1.00  0.00     0.217 A 
ATOM     16  N   UNL A   1      46.076  27.958  24.397  1.00  0.00    -0.227 NA
ATOM     17  C   UNL A   1      47.364  27.821  24.829  1.00  0.00     0.132 A 
ATOM     18  C   UNL A   1      47.447  26.865  25.811  1.00  0.00     0.114 A 
BRANCH  15  19
ATOM     19  C   UNL A   1      43.938  27.017  25.015  1.00  0.00     0.139 C 
ATOM     20  N   UNL A   1      42.786  26.937  24.975  1.00  0.00    -0.189 NA
ENDBRANCH  15  19
ENDBRANCH   8  14
ENDBRANCH   5   7
ENDBRANCH   4   5
ENDBRANCH   3   4
ENDBRANCH   2   3
ENDBRANCH   1   2
BRANCH   1  21
ATOM     21  C   UNL A   1      42.465  20.244  26.172  1.00  0.00     0.202 C 
BRANCH  21  22
ATOM     22  C   UNL A   1      41.175  20.960  26.545  1.00  0.00     0.261 C 
BRANCH  22  23
ATOM     23  O   UNL A   1      41.147  22.313  26.117  1.00  0.00    -0.460 OA
BRANCH  23  24
ATOM     24  C   UNL A   1      40.228  23.060  26.776  1.00  0.00     0.338 C 
ATOM     25  O   UNL A   1      39.080  22.752  27.048  1.00  0.00    -0.246 OA
BRANCH  24  26
ATOM     26  C   UNL A   1      40.754  24.417  26.936  1.00  0.00     0.060 A 
ATOM     27  C   UNL A   1      41.797  24.576  27.847  1.00  0.00     0.016 A 
ATOM     28  C   UNL A   1      39.949  25.486  26.534  1.00  0.00     0.016 A 
ATOM     29  C   UNL A   1      41.821  25.735  28.590  1.00  0.00     0.010 A 
ATOM     30  C   UNL A   1      39.983  26.644  27.263  1.00  0.00     0.010 A 
ATOM     31  C   UNL A   1      40.827  26.700  28.366  1.00  0.00    -0.014 A 
BRANCH  31  32
ATOM     32  C   UNL A   1      40.812  27.910  29.160  1.00  0.00     0.031 A 
ATOM     33  C   UNL A   1      41.882  28.811  28.682  1.00  0.00     0.074 A 
ATOM     34  C   UNL A   1      39.894  28.183  30.112  1.00  0.00     0.049 A 
ATOM     35  N   UNL A   1      43.025  28.989  29.252  1.00  0.00    -0.248 NA
ATOM     36  C   UNL A   1      41.820  29.319  27.298  1.00  0.00     0.031 C 
ATOM     37  C   UNL A   1      38.703  27.421  30.498  1.00  0.00     0.029 A 
ATOM     38  N   UNL A   1      39.816  29.282  30.924  1.00  0.00    -0.354 N 
ATOM     39  C   UNL A   1      43.715  29.851  28.412  1.00  0.00     0.074 A 
ATOM     40  C   UNL A   1      43.057  29.792  27.137  1.00  0.00     0.031 C 
ATOM     41  C   UNL A   1      37.905  28.186  31.285  1.00  0.00     0.029 A 
ATOM     42  C   UNL A   1      38.582  29.436  31.576  1.00  0.00     0.049 A 
ATOM     43  H   UNL A   1      40.563  29.912  31.041  1.00  0.00     0.167 HD
ATOM     44  C   UNL A   1      44.539  30.792  28.942  1.00  0.00     0.037 A 
ATOM     45  C   UNL A   1      38.184  30.550  32.257  1.00  0.00     0.037 A 
ATOM     46  C   UNL A   1      44.856  30.472  30.312  1.00  0.00     0.049 A 
ATOM     47  C   UNL A   1      39.426  31.289  32.616  1.00  0.00     0.074 A 
ATOM     48  C   UNL A   1      45.503  29.422  30.933  1.00  0.00     0.029 A 
ATOM     49  N   UNL A   1      44.081  31.072  31.274  1.00  0.00    -0.354 N 
ATOM     50  N   UNL A   1      40.308  30.828  33.460  1.00  0.00    -0.248 NA
ATOM     51  C   UNL A   1      39.919  32.246  31.635  1.00  0.00     0.031 C 
ATOM     52  C   UNL A   1      44.754  29.172  32.120  1.00  0.00     0.029 A 
ATOM     53  C   UNL A   1      43.761  30.145  32.229  1.00  0.00     0.049 A 
ATOM     54  H   UNL A   1      43.802  32.017  31.276  1.00  0.00     0.167 HD
ATOM     55  C   UNL A   1      41.525  31.060  32.835  1.00  0.00     0.074 A 
ATOM     56  C   UNL A   1      41.222  31.964  31.723  1.00  0.00     0.031 C 
ATOM     57  C   UNL A   1      42.595  30.249  33.076  1.00  0.00     0.037 A 
BRANCH  44  58
ATOM     58  C   UNL A   1      44.678  32.181  28.382  1.00  0.00     0.064 A 
ATOM     59  C   UNL A   1      43.744  33.221  28.592  1.00  0.00     0.173 A 
ATOM     60  C   UNL A   1      45.918  32.577  27.849  1.00  0.00     0.173 A 
ATOM     61  F   UNL A   1      42.583  33.028  29.225  1.00  0.00    -0.203 F 
ATOM     62  C   UNL A   1      44.015  34.547  28.266  1.00  0.00     0.198 A 
ATOM     63  C   UNL A   1      46.208  33.917  27.579  1.00  0.00     0.198 A 
ATOM     64  F   UNL A   1      46.896  31.680  27.663  1.00  0.00    -0.203 F 
ATOM     65  F   UNL A   1      43.087  35.484  28.503  1.00  0.00    -0.200 F 
ATOM     66  C   UNL A   1      45.254  34.899  27.781  1.00  0.00     0.200 A 
ATOM     67  F   UNL A   1      47.438  34.261  27.177  1.00  0.00    -0.200 F 
ATOM     68  F   UNL A   1      45.543  36.187  27.558  1.00  0.00    -0.200 F 
ENDBRANCH  44  58
BRANCH  45  69
ATOM     69  C   UNL A   1      36.862  31.246  32.259  1.00  0.00     0.064 A 
ATOM     70  C   UNL A   1      36.175  31.509  31.061  1.00  0.00     0.173 A 
ATOM     71  C   UNL A   1      36.420  31.963  33.392  1.00  0.00     0.173 A 
ATOM     72  F   UNL A   1      36.544  30.920  29.916  1.00  0.00    -0.203 F 
ATOM     73  C   UNL A   1      35.155  32.464  30.984  1.00  0.00     0.198 A 
ATOM     74  C   UNL A   1      35.398  32.919  33.314  1.00  0.00     0.198 A 
ATOM     75  F   UNL A   1      37.037  31.807  34.573  1.00  0.00    -0.203 F 
ATOM     76  F   UNL A   1      34.589  32.735  29.800  1.00  0.00    -0.200 F 
ATOM     77  C   UNL A   1      34.780  33.183  32.105  1.00  0.00     0.200 A 
ATOM     78  F   UNL A   1      35.060  33.633  34.398  1.00  0.00    -0.200 F 
ATOM     79  F   UNL A   1      33.859  34.153  32.008  1.00  0.00    -0.200 F 
ENDBRANCH  45  69
BRANCH  57  80
ATOM     80  C   UNL A   1      42.503  29.265  34.210  1.00  0.00     0.064 A 
ATOM     81  C   UNL A   1      43.239  29.549  35.367  1.00  0.00     0.173 A 
ATOM     82  C   UNL A   1      41.885  28.003  34.130  1.00  0.00     0.173 A 
ATOM     83  F   UNL A   1      43.886  30.719  35.477  1.00  0.00    -0.203 F 
ATOM     84  C   UNL A   1      43.375  28.614  36.388  1.00  0.00     0.198 A 
ATOM     85  C   UNL A   1      41.991  27.081  35.172  1.00  0.00     0.198 A 
ATOM     86  F   UNL A   1      41.233  27.623  33.022  1.00  0.00    -0.203 F 
ATOM     87  F   UNL A   1      44.151  28.893  37.444  1.00  0.00    -0.200 F 
ATOM     88  C   UNL A   1      42.748  27.383  36.294  1.00  0.00     0.200 A 
ATOM     89  F   UNL A   1      41.401  25.880  35.074  1.00  0.00    -0.200 F 
ATOM     90  F   UNL A   1      42.897  26.477  37.271  1.00  0.00    -0.200 F 
ENDBRANCH  57  80
ENDBRANCH  31  32
ENDBRANCH  24  26
ENDBRANCH  23  24
ENDBRANCH  22  23
ENDBRANCH  21  22
ENDBRANCH   1  21
TORSDOF 16
ENDMDL
MODEL 3
REMARK VINA RESULT:     -11.2      2.023      3.452
REMARK SMILES N#Cc1nccn1-c1ccc(F)cc1C(=O)OCCOCCOC(=O)c1ccc(-c2c3nc(c(-c4c(F)c(F)c(F)c(F)c4F)c4ccc([nH]4)c(-c4c(F)c(F)c(F)c(F)c4F)c4nc(c(-c5c(F)c(F)c(F)c(F)c5F)c5ccc2[nH]5)C=C4)C=C3)cc1
REMARK SMILES IDX 20 1 19 2 18 3 17 4 15 5 16 6 14 7 8 8 9 9 10 10 13 11 11 12
REMARK SMILES IDX 12 13 7 14 3 15 4 16 5 17 6 18 2 19 1 20 21 21 22 22 23 23
REMARK SMILES IDX 24 24 25 25 26 26 27 27 88 28 28 29 87 30 29 31 30 32 31 33
REMARK SMILES IDX 81 34 32 35 86 36 80 37 82 38 33 39 85 40 79 41 78 42 34 44
REMARK SMILES IDX 66 45 46 46 65 47 47 48 50 49 64 50 83 51 48 52 49 53 63 55
REMARK SMILES IDX 84 56 51 57 35 58 36 59 44 60 37 61 38 62 42 63 45 64 39 65
REMARK SMILES IDX 40 66 43 67 41 68 67 69 68 70 76 71 69 72 70 73 74 74 77 75
REMARK SMILES IDX 71 76 72 77 75 78 73 79 52 80 53 81 61 82 54 83 55 84 59 85
REMARK SMILES IDX 62 86 56 87 57 88 60 89 58 90
REMARK H PARENT 82 43 50 54
REMARK Flexibility Score: inf
ROOT
ATOM      1  O   UNL A   1      36.357  22.848  26.021  1.00  0.00    -0.374 OA
ENDROOT
BRANCH   1   2
ATOM      2  C   UNL A   1      35.011  23.120  25.633  1.00  0.00     0.202 C 
BRANCH   2   3
ATOM      3  C   UNL A   1      34.746  24.334  24.747  1.00  0.00     0.261 C 
BRANCH   3   4
ATOM      4  O   UNL A   1      34.171  25.426  25.482  1.00  0.00    -0.460 OA
BRANCH   4   5
ATOM      5  C   UNL A   1      33.719  26.453  24.726  1.00  0.00     0.340 C 
ATOM      6  O   UNL A   1      33.545  26.450  23.520  1.00  0.00    -0.246 OA
BRANCH   5   7
ATOM      7  C   UNL A   1      33.284  27.585  25.578  1.00  0.00     0.087 A 
ATOM      8  C   UNL A   1      32.021  28.210  25.560  1.00  0.00     0.062 A 
ATOM      9  C   UNL A   1      31.763  29.265  26.458  1.00  0.00     0.030 A 
ATOM     10  C   UNL A   1      32.764  29.729  27.315  1.00  0.00     0.041 A 
ATOM     11  C   UNL A   1      34.288  28.088  26.425  1.00  0.00     0.057 A 
ATOM     12  C   UNL A   1      34.023  29.155  27.271  1.00  0.00     0.124 A 
ATOM     13  F   UNL A   1      34.997  29.635  28.053  1.00  0.00    -0.207 F 
BRANCH   8  14
ATOM     14  N   UNL A   1      30.993  27.832  24.654  1.00  0.00    -0.291 N 
ATOM     15  C   UNL A   1      30.196  26.696  24.717  1.00  0.00     0.217 A 
ATOM     16  N   UNL A   1      29.276  26.701  23.769  1.00  0.00    -0.227 NA
ATOM     17  C   UNL A   1      29.492  27.840  23.048  1.00  0.00     0.132 A 
ATOM     18  C   UNL A   1      30.565  28.535  23.549  1.00  0.00     0.114 A 
BRANCH  15  19
ATOM     19  C   UNL A   1      30.243  25.697  25.742  1.00  0.00     0.139 C 
ATOM     20  N   UNL A   1      30.250  24.873  26.553  1.00  0.00    -0.189 NA
ENDBRANCH  15  19
ENDBRANCH   8  14
ENDBRANCH   5   7
ENDBRANCH   4   5
ENDBRANCH   3   4
ENDBRANCH   2   3
ENDBRANCH   1   2
BRANCH   1  21
ATOM     21  C   UNL A   1      37.054  21.737  25.469  1.00  0.00     0.202 C 
BRANCH  21  22
ATOM     22  C   UNL A   1      38.515  21.530  25.841  1.00  0.00     0.261 C 
BRANCH  22  23
ATOM     23  O   UNL A   1      39.253  22.741  25.896  1.00  0.00    -0.460 OA
BRANCH  23  24
ATOM     24  C   UNL A   1      40.200  22.744  26.866  1.00  0.00     0.338 C 
ATOM     25  O   UNL A   1      40.422  21.870  27.686  1.00  0.00    -0.246 OA
BRANCH  24  26
ATOM     26  C   UNL A   1      40.800  24.078  26.931  1.00  0.00     0.060 A 
ATOM     27  C   UNL A   1      41.747  24.284  27.933  1.00  0.00     0.016 A 
ATOM     28  C   UNL A   1      40.121  25.135  26.320  1.00  0.00     0.016 A 
ATOM     29  C   UNL A   1      41.772  25.522  28.537  1.00  0.00     0.010 A 
ATOM     30  C   UNL A   1      40.157  26.368  26.914  1.00  0.00     0.010 A 
ATOM     31  C   UNL A   1      40.878  26.508  28.093  1.00  0.00    -0.014 A 
BRANCH  31  32
ATOM     32  C   UNL A   1      40.863  27.803  28.738  1.00  0.00     0.031 A 
ATOM     33  C   UNL A   1      41.994  28.607  28.228  1.00  0.00     0.074 A 
ATOM     34  C   UNL A   1      39.901  28.216  29.590  1.00  0.00     0.049 A 
ATOM     35  N   UNL A   1      43.108  28.815  28.846  1.00  0.00    -0.248 NA
ATOM     36  C   UNL A   1      42.036  28.948  26.793  1.00  0.00     0.031 C 
ATOM     37  C   UNL A   1      38.660  27.544  29.985  1.00  0.00     0.029 A 
ATOM     38  N   UNL A   1      39.817  29.406  30.262  1.00  0.00    -0.354 N 
ATOM     39  C   UNL A   1      43.880  29.548  27.958  1.00  0.00     0.074 A 
ATOM     40  C   UNL A   1      43.298  29.360  26.659  1.00  0.00     0.031 C 
ATOM     41  C   UNL A   1      37.846  28.422  30.624  1.00  0.00     0.029 A 
ATOM     42  C   UNL A   1      38.553  29.676  30.810  1.00  0.00     0.049 A 
ATOM     43  H   UNL A   1      40.580  30.022  30.353  1.00  0.00     0.167 HD
ATOM     44  C   UNL A   1      44.706  30.519  28.427  1.00  0.00     0.037 A 
ATOM     45  C   UNL A   1      38.158  30.874  31.330  1.00  0.00     0.037 A 
ATOM     46  C   UNL A   1      44.927  30.354  29.843  1.00  0.00     0.049 A 
ATOM     47  C   UNL A   1      39.404  31.611  31.680  1.00  0.00     0.074 A 
ATOM     48  C   UNL A   1      45.494  29.365  30.622  1.00  0.00     0.029 A 
ATOM     49  N   UNL A   1      44.120  31.089  30.676  1.00  0.00    -0.354 N 
ATOM     50  N   UNL A   1      40.215  31.226  32.627  1.00  0.00    -0.248 NA
ATOM     51  C   UNL A   1      39.993  32.429  30.629  1.00  0.00     0.031 C 
ATOM     52  C   UNL A   1      44.666  29.282  31.779  1.00  0.00     0.029 A 
ATOM     53  C   UNL A   1      43.707  30.292  31.710  1.00  0.00     0.049 A 
ATOM     54  H   UNL A   1      43.878  32.035  30.550  1.00  0.00     0.167 HD
ATOM     55  C   UNL A   1      41.475  31.343  32.060  1.00  0.00     0.074 A 
ATOM     56  C   UNL A   1      41.276  32.117  30.833  1.00  0.00     0.031 C 
ATOM     57  C   UNL A   1      42.497  30.533  32.462  1.00  0.00     0.037 A 
BRANCH  44  58
ATOM     58  C   UNL A   1      44.934  31.827  27.719  1.00  0.00     0.064 A 
ATOM     59  C   UNL A   1      44.121  32.972  27.882  1.00  0.00     0.173 A 
ATOM     60  C   UNL A   1      46.162  32.042  27.068  1.00  0.00     0.173 A 
ATOM     61  F   UNL A   1      42.997  32.959  28.607  1.00  0.00    -0.203 F 
ATOM     62  C   UNL A   1      44.490  34.225  27.404  1.00  0.00     0.198 A 
ATOM     63  C   UNL A   1      46.556  33.313  26.643  1.00  0.00     0.198 A 
ATOM     64  F   UNL A   1      47.034  31.036  26.911  1.00  0.00    -0.203 F 
ATOM     65  F   UNL A   1      43.676  35.271  27.605  1.00  0.00    -0.200 F 
ATOM     66  C   UNL A   1      45.717  34.402  26.805  1.00  0.00     0.200 A 
ATOM     67  F   UNL A   1      47.778  33.491  26.127  1.00  0.00    -0.200 F 
ATOM     68  F   UNL A   1      46.109  35.626  26.433  1.00  0.00    -0.200 F 
ENDBRANCH  44  58
BRANCH  45  69
ATOM     69  C   UNL A   1      36.867  31.607  31.165  1.00  0.00     0.064 A 
ATOM     70  C   UNL A   1      36.520  32.208  29.942  1.00  0.00     0.173 A 
ATOM     71  C   UNL A   1      36.119  32.022  32.288  1.00  0.00     0.173 A 
ATOM     72  F   UNL A   1      37.198  31.923  28.823  1.00  0.00    -0.203 F 
ATOM     73  C   UNL A   1      35.534  33.197  29.854  1.00  0.00     0.198 A 
ATOM     74  C   UNL A   1      35.130  33.012  32.199  1.00  0.00     0.198 A 
ATOM     75  F   UNL A   1      36.399  31.533  33.506  1.00  0.00    -0.203 F 
ATOM     76  F   UNL A   1      35.300  33.795  28.678  1.00  0.00    -0.200 F 
ATOM     77  C   UNL A   1      34.854  33.613  30.984  1.00  0.00     0.200 A 
ATOM     78  F   UNL A   1      34.495  33.432  33.303  1.00  0.00    -0.200 F 
ATOM     79  F   UNL A   1      33.968  34.617  30.907  1.00  0.00    -0.200 F 
ENDBRANCH  45  69
BRANCH  57  80
ATOM     80  C   UNL A   1      42.298  29.693  33.694  1.00  0.00     0.064 A 
ATOM     81  C   UNL A   1      42.838  30.175  34.893  1.00  0.00     0.173 A 
ATOM     82  C   UNL A   1      41.772  28.388  33.700  1.00  0.00     0.173 A 
ATOM     83  F   UNL A   1      43.393  31.396  34.932  1.00  0.00    -0.203 F 
ATOM     84  C   UNL A   1      42.879  29.388  36.039  1.00  0.00     0.198 A 
ATOM     85  C   UNL A   1      41.780  27.614  34.862  1.00  0.00     0.198 A 
ATOM     86  F   UNL A   1      41.312  27.824  32.575  1.00  0.00    -0.203 F 
ATOM     87  F   UNL A   1      43.474  29.856  37.144  1.00  0.00    -0.200 F 
ATOM     88  C   UNL A   1      42.345  28.111  36.026  1.00  0.00     0.200 A 
ATOM     89  F   UNL A   1      41.281  26.368  34.847  1.00  0.00    -0.200 F 
ATOM     90  F   UNL A   1      42.403  27.348  37.127  1.00  0.00    -0.200 F 
ENDBRANCH  57  80
ENDBRANCH  31  32
ENDBRANCH  24  26
ENDBRANCH  23  24
ENDBRANCH  22  23
ENDBRANCH  21  22
ENDBRANCH   1  21
TORSDOF 16
ENDMDL
