MODEL 1
REMARK VINA RESULT:     -11.4      0.000      0.000
REMARK SMILES C[C@@H](C(=O)OCCOCCOC(=O)c1ccc(-c2c3nc(c(-c4c(F)c(F)c(F)c(F)c4F)c4ccc([nH]4)c(-c4c(F)c(F)c(F)c(F)c4F)c4nc(c(-c5c(F)c(F)c(F)c(F)c5F)c5ccc2[nH]5)C=C4)C=C3)cc1)c1ccc(C[C@H]2CCCC2=O)cc1Cl
REMARK SMILES IDX 7 1 6 2 5 3 3 4 4 5 2 6 1 7 77 8 78 9 89 10 79 11 88 12
REMARK SMILES IDX 90 13 80 14 81 15 82 16 83 17 86 18 84 19 85 20 87 21 8 22
REMARK SMILES IDX 9 23 10 24 11 25 12 26 13 27 14 28 15 29 76 30 16 31 75 32
REMARK SMILES IDX 17 33 18 34 19 35 69 36 20 37 74 38 68 39 70 40 21 41 73 42
REMARK SMILES IDX 67 43 66 44 22 46 54 47 34 48 53 49 35 50 38 51 52 52 71 53
REMARK SMILES IDX 36 54 37 55 51 57 72 58 39 59 23 60 24 61 32 62 25 63 26 64
REMARK SMILES IDX 30 65 33 66 27 67 28 68 31 69 29 70 55 71 56 72 64 73 57 74
REMARK SMILES IDX 58 75 62 76 65 77 59 78 60 79 63 80 61 81 40 82 41 83 49 84
REMARK SMILES IDX 42 85 43 86 47 87 50 88 44 89 45 90 48 91 46 92
REMARK H PARENT 70 45 38 56
REMARK Flexibility Score: inf
ROOT
ATOM      1  C   UNL A   1      33.045  27.130  23.554  1.00  0.00     0.202 C 
ENDROOT
BRANCH   1   2
ATOM      2  C   UNL A   1      32.967  25.779  24.269  1.00  0.00     0.261 C 
BRANCH   2   3
ATOM      3  O   UNL A   1      31.605  25.476  24.630  1.00  0.00    -0.463 OA
BRANCH   3   4
ATOM      4  C   UNL A   1      31.437  24.883  25.844  1.00  0.00     0.313 C 
ATOM      5  O   UNL A   1      31.540  25.478  26.911  1.00  0.00    -0.252 OA
BRANCH   4   6
ATOM      6  C   UNL A   1      31.073  23.392  25.737  1.00  0.00     0.127 C 
ATOM      7  C   UNL A   1      30.125  22.877  26.830  1.00  0.00     0.025 C 
BRANCH   6   8
ATOM      8  C   UNL A   1      32.364  22.579  25.610  1.00  0.00    -0.015 A 
ATOM      9  C   UNL A   1      33.239  22.441  26.704  1.00  0.00     0.006 A 
ATOM     10  C   UNL A   1      32.794  22.074  24.368  1.00  0.00     0.045 A 
ATOM     11  C   UNL A   1      34.509  21.874  26.556  1.00  0.00     0.004 A 
ATOM     12  C   UNL A   1      34.069  21.513  24.222  1.00  0.00     0.024 A 
ATOM     13  Cl  UNL A   1      31.802  22.133  22.953  1.00  0.00    -0.084 Cl
ATOM     14  C   UNL A   1      34.951  21.436  25.305  1.00  0.00    -0.046 A 
BRANCH  14  15
ATOM     15  C   UNL A   1      36.351  20.902  25.119  1.00  0.00     0.047 C 
BRANCH  15  16
ATOM     16  C   UNL A   1      37.437  21.931  24.781  1.00  0.00     0.060 C 
ATOM     17  C   UNL A   1      36.994  23.397  24.692  1.00  0.00     0.012 C 
ATOM     18  C   UNL A   1      38.536  21.992  25.819  1.00  0.00     0.136 C 
ATOM     19  C   UNL A   1      37.398  24.043  26.013  1.00  0.00     0.009 C 
ATOM     20  C   UNL A   1      38.701  23.366  26.408  1.00  0.00     0.076 C 
ATOM     21  O   UNL A   1      39.237  21.034  26.126  1.00  0.00    -0.299 OA
ENDBRANCH  15  16
ENDBRANCH  14  15
ENDBRANCH   6   8
ENDBRANCH   4   6
ENDBRANCH   3   4
ENDBRANCH   2   3
ENDBRANCH   1   2
BRANCH   1  22
ATOM     22  O   UNL A   1      32.200  28.159  24.076  1.00  0.00    -0.374 OA
BRANCH  22  23
ATOM     23  C   UNL A   1      32.838  29.252  24.731  1.00  0.00     0.202 C 
BRANCH  23  24
ATOM     24  C   UNL A   1      31.963  30.069  25.689  1.00  0.00     0.261 C 
BRANCH  24  25
ATOM     25  O   UNL A   1      32.552  30.185  26.997  1.00  0.00    -0.460 OA
BRANCH  25  26
ATOM     26  C   UNL A   1      33.244  31.329  27.201  1.00  0.00     0.338 C 
ATOM     27  O   UNL A   1      32.819  32.477  27.132  1.00  0.00    -0.246 OA
BRANCH  26  28
ATOM     28  C   UNL A   1      34.595  31.030  27.706  1.00  0.00     0.060 A 
ATOM     29  C   UNL A   1      34.895  29.687  27.972  1.00  0.00     0.016 A 
ATOM     30  C   UNL A   1      35.524  32.034  27.987  1.00  0.00     0.016 A 
ATOM     31  C   UNL A   1      36.105  29.348  28.572  1.00  0.00     0.010 A 
ATOM     32  C   UNL A   1      36.736  31.693  28.599  1.00  0.00     0.010 A 
ATOM     33  C   UNL A   1      37.014  30.353  28.928  1.00  0.00    -0.014 A 
BRANCH  33  34
ATOM     34  C   UNL A   1      38.173  30.005  29.786  1.00  0.00     0.031 A 
ATOM     35  C   UNL A   1      39.215  29.061  29.253  1.00  0.00     0.074 A 
ATOM     36  C   UNL A   1      38.321  30.559  31.001  1.00  0.00     0.049 A 
ATOM     37  N   UNL A   1      40.310  28.625  29.821  1.00  0.00    -0.248 NA
ATOM     38  C   UNL A   1      38.994  28.542  27.894  1.00  0.00     0.031 C 
ATOM     39  C   UNL A   1      37.401  31.519  31.609  1.00  0.00     0.029 A 
ATOM     40  N   UNL A   1      39.307  30.395  31.941  1.00  0.00    -0.354 N 
ATOM     41  C   UNL A   1      40.905  27.780  28.894  1.00  0.00     0.074 A 
ATOM     42  C   UNL A   1      40.037  27.742  27.736  1.00  0.00     0.031 C 
ATOM     43  C   UNL A   1      37.865  31.855  32.825  1.00  0.00     0.029 A 
ATOM     44  C   UNL A   1      39.098  31.115  33.091  1.00  0.00     0.049 A 
ATOM     45  H   UNL A   1      40.091  29.815  31.805  1.00  0.00     0.167 HD
ATOM     46  C   UNL A   1      42.075  27.105  28.994  1.00  0.00     0.037 A 
ATOM     47  C   UNL A   1      39.814  31.158  34.231  1.00  0.00     0.037 A 
ATOM     48  C   UNL A   1      42.941  27.148  30.142  1.00  0.00     0.049 A 
ATOM     49  C   UNL A   1      41.077  30.344  34.342  1.00  0.00     0.074 A 
ATOM     50  C   UNL A   1      44.158  26.519  30.329  1.00  0.00     0.029 A 
ATOM     51  N   UNL A   1      42.673  27.856  31.304  1.00  0.00    -0.354 N 
ATOM     52  N   UNL A   1      41.648  29.572  33.450  1.00  0.00    -0.248 NA
ATOM     53  C   UNL A   1      41.796  30.409  35.624  1.00  0.00     0.031 C 
ATOM     54  C   UNL A   1      44.607  26.809  31.623  1.00  0.00     0.029 A 
ATOM     55  C   UNL A   1      43.691  27.658  32.223  1.00  0.00     0.049 A 
ATOM     56  H   UNL A   1      41.879  28.418  31.453  1.00  0.00     0.167 HD
ATOM     57  C   UNL A   1      42.803  29.084  34.047  1.00  0.00     0.074 A 
ATOM     58  C   UNL A   1      42.859  29.656  35.377  1.00  0.00     0.031 C 
ATOM     59  C   UNL A   1      43.735  28.241  33.539  1.00  0.00     0.037 A 
BRANCH  46  60
ATOM     60  C   UNL A   1      42.476  26.240  27.836  1.00  0.00     0.064 A 
ATOM     61  C   UNL A   1      41.985  24.936  27.685  1.00  0.00     0.173 A 
ATOM     62  C   UNL A   1      43.336  26.739  26.846  1.00  0.00     0.173 A 
ATOM     63  F   UNL A   1      41.172  24.409  28.612  1.00  0.00    -0.203 F 
ATOM     64  C   UNL A   1      42.359  24.153  26.595  1.00  0.00     0.198 A 
ATOM     65  C   UNL A   1      43.688  25.963  25.745  1.00  0.00     0.198 A 
ATOM     66  F   UNL A   1      43.831  27.982  26.942  1.00  0.00    -0.203 F 
ATOM     67  F   UNL A   1      41.912  22.894  26.492  1.00  0.00    -0.200 F 
ATOM     68  C   UNL A   1      43.205  24.669  25.624  1.00  0.00     0.200 A 
ATOM     69  F   UNL A   1      44.497  26.466  24.802  1.00  0.00    -0.200 F 
ATOM     70  F   UNL A   1      43.558  23.916  24.573  1.00  0.00    -0.200 F 
ENDBRANCH  46  60
BRANCH  47  71
ATOM     71  C   UNL A   1      39.353  31.997  35.367  1.00  0.00     0.064 A 
ATOM     72  C   UNL A   1      38.521  31.470  36.364  1.00  0.00     0.173 A 
ATOM     73  C   UNL A   1      39.719  33.347  35.467  1.00  0.00     0.173 A 
ATOM     74  F   UNL A   1      38.121  30.192  36.297  1.00  0.00    -0.203 F 
ATOM     75  C   UNL A   1      38.058  32.268  37.410  1.00  0.00     0.198 A 
ATOM     76  C   UNL A   1      39.278  34.136  36.528  1.00  0.00     0.198 A 
ATOM     77  F   UNL A   1      40.511  33.900  34.537  1.00  0.00    -0.203 F 
ATOM     78  F   UNL A   1      37.227  31.752  38.325  1.00  0.00    -0.200 F 
ATOM     79  C   UNL A   1      38.442  33.598  37.494  1.00  0.00     0.200 A 
ATOM     80  F   UNL A   1      39.659  35.418  36.610  1.00  0.00    -0.200 F 
ATOM     81  F   UNL A   1      37.998  34.363  38.501  1.00  0.00    -0.200 F 
ENDBRANCH  47  71
BRANCH  59  82
ATOM     82  C   UNL A   1      44.913  27.910  34.408  1.00  0.00     0.064 A 
ATOM     83  C   UNL A   1      44.912  26.792  35.254  1.00  0.00     0.173 A 
ATOM     84  C   UNL A   1      46.074  28.697  34.360  1.00  0.00     0.173 A 
ATOM     85  F   UNL A   1      43.820  26.017  35.346  1.00  0.00    -0.203 F 
ATOM     86  C   UNL A   1      46.022  26.486  36.037  1.00  0.00     0.198 A 
ATOM     87  C   UNL A   1      47.191  28.374  35.124  1.00  0.00     0.198 A 
ATOM     88  F   UNL A   1      46.128  29.774  33.561  1.00  0.00    -0.203 F 
ATOM     89  F   UNL A   1      45.984  25.438  36.871  1.00  0.00    -0.200 F 
ATOM     90  C   UNL A   1      47.163  27.272  35.967  1.00  0.00     0.200 A 
ATOM     91  F   UNL A   1      48.297  29.126  35.044  1.00  0.00    -0.200 F 
ATOM     92  F   UNL A   1      48.232  26.973  36.716  1.00  0.00    -0.200 F 
ENDBRANCH  59  82
ENDBRANCH  33  34
ENDBRANCH  26  28
ENDBRANCH  25  26
ENDBRANCH  24  25
ENDBRANCH  23  24
ENDBRANCH  22  23
ENDBRANCH   1  22
TORSDOF 17
ENDMDL
MODEL 2
REMARK VINA RESULT:     -11.3      0.397      7.273
REMARK SMILES C[C@@H](C(=O)OCCOCCOC(=O)c1ccc(-c2c3nc(c(-c4c(F)c(F)c(F)c(F)c4F)c4ccc([nH]4)c(-c4c(F)c(F)c(F)c(F)c4F)c4nc(c(-c5c(F)c(F)c(F)c(F)c5F)c5ccc2[nH]5)C=C4)C=C3)cc1)c1ccc(C[C@H]2CCCC2=O)cc1Cl
REMARK SMILES IDX 7 1 6 2 5 3 3 4 4 5 2 6 1 7 77 8 78 9 89 10 79 11 88 12
REMARK SMILES IDX 90 13 80 14 81 15 82 16 83 17 86 18 84 19 85 20 87 21 8 22
REMARK SMILES IDX 9 23 10 24 11 25 12 26 13 27 14 28 15 29 76 30 16 31 75 32
REMARK SMILES IDX 17 33 18 34 19 35 69 36 20 37 74 38 68 39 70 40 21 41 73 42
REMARK SMILES IDX 67 43 66 44 22 46 54 47 34 48 53 49 35 50 38 51 52 52 71 53
REMARK SMILES IDX 36 54 37 55 51 57 72 58 39 59 23 60 24 61 32 62 25 63 26 64
REMARK SMILES IDX 30 65 33 66 27 67 28 68 31 69 29 70 55 71 56 72 64 73 57 74
REMARK SMILES IDX 58 75 62 76 65 77 59 78 60 79 63 80 61 81 40 82 41 83 49 84
REMARK SMILES IDX 42 85 43 86 47 87 50 88 44 89 45 90 48 91 46 92
REMARK H PARENT 70 45 38 56
REMARK Flexibility Score: inf
ROOT
ATOM      1  C   UNL A   1      33.153  27.330  23.937  1.00  0.00     0.202 C 
ENDROOT
BRANCH   1   2
ATOM      2  C   UNL A   1      33.073  26.159  24.919  1.00  0.00     0.261 C 
BRANCH   2   3
ATOM      3  O   UNL A   1      31.831  25.446  24.755  1.00  0.00    -0.463 OA
BRANCH   3   4
ATOM      4  C   UNL A   1      31.274  24.965  25.899  1.00  0.00     0.313 C 
ATOM      5  O   UNL A   1      31.018  25.661  26.876  1.00  0.00    -0.252 OA
BRANCH   4   6
ATOM      6  C   UNL A   1      30.969  23.459  25.830  1.00  0.00     0.127 C 
ATOM      7  C   UNL A   1      29.961  22.954  26.872  1.00  0.00     0.025 C 
BRANCH   6   8
ATOM      8  C   UNL A   1      32.292  22.688  25.832  1.00  0.00    -0.015 A 
ATOM      9  C   UNL A   1      33.055  22.572  27.009  1.00  0.00     0.006 A 
ATOM     10  C   UNL A   1      32.863  22.207  24.638  1.00  0.00     0.045 A 
ATOM     11  C   UNL A   1      34.352  22.047  26.988  1.00  0.00     0.004 A 
ATOM     12  C   UNL A   1      34.164  21.689  24.620  1.00  0.00     0.024 A 
ATOM     13  Cl  UNL A   1      32.019  22.244  23.129  1.00  0.00    -0.084 Cl
ATOM     14  C   UNL A   1      34.933  21.632  25.788  1.00  0.00    -0.046 A 
BRANCH  14  15
ATOM     15  C   UNL A   1      36.362  21.146  25.743  1.00  0.00     0.047 C 
BRANCH  15  16
ATOM     16  C   UNL A   1      37.400  22.120  25.171  1.00  0.00     0.060 C 
ATOM     17  C   UNL A   1      37.112  23.616  25.349  1.00  0.00     0.012 C 
ATOM     18  C   UNL A   1      38.761  21.977  25.816  1.00  0.00     0.136 C 
ATOM     19  C   UNL A   1      37.964  24.075  26.528  1.00  0.00     0.009 C 
ATOM     20  C   UNL A   1      39.244  23.259  26.438  1.00  0.00     0.076 C 
ATOM     21  O   UNL A   1      39.414  20.940  25.808  1.00  0.00    -0.299 OA
ENDBRANCH  15  16
ENDBRANCH  14  15
ENDBRANCH   6   8
ENDBRANCH   4   6
ENDBRANCH   3   4
ENDBRANCH   2   3
ENDBRANCH   1   2
BRANCH   1  22
ATOM     22  O   UNL A   1      32.266  28.421  24.196  1.00  0.00    -0.374 OA
BRANCH  22  23
ATOM     23  C   UNL A   1      32.843  29.620  24.706  1.00  0.00     0.202 C 
BRANCH  23  24
ATOM     24  C   UNL A   1      32.030  30.360  25.773  1.00  0.00     0.261 C 
BRANCH  24  25
ATOM     25  O   UNL A   1      32.672  30.332  27.061  1.00  0.00    -0.460 OA
BRANCH  25  26
ATOM     26  C   UNL A   1      33.397  31.437  27.350  1.00  0.00     0.338 C 
ATOM     27  O   UNL A   1      32.996  32.594  27.412  1.00  0.00    -0.246 OA
BRANCH  26  28
ATOM     28  C   UNL A   1      34.759  31.064  27.768  1.00  0.00     0.060 A 
ATOM     29  C   UNL A   1      35.005  29.704  28.002  1.00  0.00     0.016 A 
ATOM     30  C   UNL A   1      35.753  32.016  28.002  1.00  0.00     0.016 A 
ATOM     31  C   UNL A   1      36.231  29.297  28.523  1.00  0.00     0.010 A 
ATOM     32  C   UNL A   1      36.981  31.606  28.535  1.00  0.00     0.010 A 
ATOM     33  C   UNL A   1      37.210  30.250  28.833  1.00  0.00    -0.014 A 
BRANCH  33  34
ATOM     34  C   UNL A   1      38.399  29.833  29.615  1.00  0.00     0.031 A 
ATOM     35  C   UNL A   1      38.577  30.370  31.008  1.00  0.00     0.074 A 
ATOM     36  C   UNL A   1      39.280  28.952  29.112  1.00  0.00     0.049 A 
ATOM     37  N   UNL A   1      39.531  30.137  31.873  1.00  0.00    -0.248 NA
ATOM     38  C   UNL A   1      37.537  31.291  31.493  1.00  0.00     0.031 C 
ATOM     39  C   UNL A   1      39.193  28.330  27.793  1.00  0.00     0.029 A 
ATOM     40  N   UNL A   1      40.423  28.425  29.659  1.00  0.00    -0.354 N 
ATOM     41  C   UNL A   1      39.209  30.883  32.999  1.00  0.00     0.074 A 
ATOM     42  C   UNL A   1      37.987  31.598  32.700  1.00  0.00     0.031 C 
ATOM     43  C   UNL A   1      40.244  27.507  27.629  1.00  0.00     0.029 A 
ATOM     44  C   UNL A   1      41.089  27.566  28.820  1.00  0.00     0.049 A 
ATOM     45  H   UNL A   1      40.737  28.642  30.566  1.00  0.00     0.167 HD
ATOM     46  C   UNL A   1      39.867  30.958  34.180  1.00  0.00     0.037 A 
ATOM     47  C   UNL A   1      42.255  26.914  28.992  1.00  0.00     0.037 A 
ATOM     48  C   UNL A   1      41.079  30.242  34.481  1.00  0.00     0.049 A 
ATOM     49  C   UNL A   1      43.003  27.068  30.291  1.00  0.00     0.074 A 
ATOM     50  C   UNL A   1      41.807  30.232  35.657  1.00  0.00     0.029 A 
ATOM     51  N   UNL A   1      41.745  29.413  33.590  1.00  0.00    -0.354 N 
ATOM     52  N   UNL A   1      42.676  27.751  31.362  1.00  0.00    -0.248 NA
ATOM     53  C   UNL A   1      44.286  26.356  30.405  1.00  0.00     0.031 C 
ATOM     54  C   UNL A   1      42.941  29.434  35.463  1.00  0.00     0.029 A 
ATOM     55  C   UNL A   1      42.892  28.908  34.182  1.00  0.00     0.049 A 
ATOM     56  H   UNL A   1      41.447  29.213  32.673  1.00  0.00     0.167 HD
ATOM     57  C   UNL A   1      43.692  27.529  32.283  1.00  0.00     0.074 A 
ATOM     58  C   UNL A   1      44.643  26.639  31.650  1.00  0.00     0.031 C 
ATOM     59  C   UNL A   1      43.823  28.018  33.541  1.00  0.00     0.037 A 
BRANCH  46  60
ATOM     60  C   UNL A   1      39.301  31.865  35.232  1.00  0.00     0.064 A 
ATOM     61  C   UNL A   1      38.488  31.378  36.265  1.00  0.00     0.173 A 
ATOM     62  C   UNL A   1      39.608  33.234  35.225  1.00  0.00     0.173 A 
ATOM     63  F   UNL A   1      38.154  30.080  36.308  1.00  0.00    -0.203 F 
ATOM     64  C   UNL A   1      37.982  32.234  37.241  1.00  0.00     0.198 A 
ATOM     65  C   UNL A   1      39.122  34.083  36.216  1.00  0.00     0.198 A 
ATOM     66  F   UNL A   1      40.385  33.749  34.260  1.00  0.00    -0.203 F 
ATOM     67  F   UNL A   1      37.172  31.756  38.195  1.00  0.00    -0.200 F 
ATOM     68  C   UNL A   1      38.305  33.584  37.219  1.00  0.00     0.200 A 
ATOM     69  F   UNL A   1      39.442  35.384  36.199  1.00  0.00    -0.200 F 
ATOM     70  F   UNL A   1      37.823  34.404  38.163  1.00  0.00    -0.200 F 
ENDBRANCH  46  60
BRANCH  47  71
ATOM     71  C   UNL A   1      42.797  26.059  27.904  1.00  0.00     0.064 A 
ATOM     72  C   UNL A   1      43.682  26.579  26.950  1.00  0.00     0.173 A 
ATOM     73  C   UNL A   1      42.425  24.713  27.786  1.00  0.00     0.173 A 
ATOM     74  F   UNL A   1      44.046  27.869  27.005  1.00  0.00    -0.203 F 
ATOM     75  C   UNL A   1      44.161  25.786  25.908  1.00  0.00     0.198 A 
ATOM     76  C   UNL A   1      42.926  23.914  26.759  1.00  0.00     0.198 A 
ATOM     77  F   UNL A   1      41.578  24.169  28.672  1.00  0.00    -0.203 F 
ATOM     78  F   UNL A   1      44.971  26.319  24.982  1.00  0.00    -0.200 F 
ATOM     79  C   UNL A   1      43.787  24.454  25.817  1.00  0.00     0.200 A 
ATOM     80  F   UNL A   1      42.568  22.626  26.681  1.00  0.00    -0.200 F 
ATOM     81  F   UNL A   1      44.250  23.693  24.816  1.00  0.00    -0.200 F 
ENDBRANCH  47  71
BRANCH  59  82
ATOM     82  C   UNL A   1      45.021  27.575  34.331  1.00  0.00     0.064 A 
ATOM     83  C   UNL A   1      44.998  26.409  35.109  1.00  0.00     0.173 A 
ATOM     84  C   UNL A   1      46.219  28.304  34.273  1.00  0.00     0.173 A 
ATOM     85  F   UNL A   1      43.872  25.686  35.209  1.00  0.00    -0.203 F 
ATOM     86  C   UNL A   1      46.125  26.001  35.818  1.00  0.00     0.198 A 
ATOM     87  C   UNL A   1      47.350  27.879  34.961  1.00  0.00     0.198 A 
ATOM     88  F   UNL A   1      46.293  29.423  33.537  1.00  0.00    -0.203 F 
ATOM     89  F   UNL A   1      46.068  24.907  36.590  1.00  0.00    -0.200 F 
ATOM     90  C   UNL A   1      47.301  26.730  35.739  1.00  0.00     0.200 A 
ATOM     91  F   UNL A   1      48.490  28.578  34.872  1.00  0.00    -0.200 F 
ATOM     92  F   UNL A   1      48.386  26.332  36.416  1.00  0.00    -0.200 F 
ENDBRANCH  59  82
ENDBRANCH  33  34
ENDBRANCH  26  28
ENDBRANCH  25  26
ENDBRANCH  24  25
ENDBRANCH  23  24
ENDBRANCH  22  23
ENDBRANCH   1  22
TORSDOF 17
ENDMDL
MODEL 3
REMARK VINA RESULT:     -11.2      4.386      7.322
REMARK SMILES C[C@@H](C(=O)OCCOCCOC(=O)c1ccc(-c2c3nc(c(-c4c(F)c(F)c(F)c(F)c4F)c4ccc([nH]4)c(-c4c(F)c(F)c(F)c(F)c4F)c4nc(c(-c5c(F)c(F)c(F)c(F)c5F)c5ccc2[nH]5)C=C4)C=C3)cc1)c1ccc(C[C@H]2CCCC2=O)cc1Cl
REMARK SMILES IDX 7 1 6 2 5 3 3 4 4 5 2 6 1 7 77 8 78 9 89 10 79 11 88 12
REMARK SMILES IDX 90 13 80 14 81 15 82 16 83 17 86 18 84 19 85 20 87 21 8 22
REMARK SMILES IDX 9 23 10 24 11 25 12 26 13 27 14 28 15 29 76 30 16 31 75 32
REMARK SMILES IDX 17 33 18 34 19 35 69 36 20 37 74 38 68 39 70 40 21 41 73 42
REMARK SMILES IDX 67 43 66 44 22 46 54 47 34 48 53 49 35 50 38 51 52 52 71 53
REMARK SMILES IDX 36 54 37 55 51 57 72 58 39 59 23 60 24 61 32 62 25 63 26 64
REMARK SMILES IDX 30 65 33 66 27 67 28 68 31 69 29 70 55 71 56 72 64 73 57 74
REMARK SMILES IDX 58 75 62 76 65 77 59 78 60 79 63 80 61 81 40 82 41 83 49 84
REMARK SMILES IDX 42 85 43 86 47 87 50 88 44 89 45 90 48 91 46 92
REMARK H PARENT 70 45 38 56
REMARK Flexibility Score: inf
ROOT
ATOM      1  C   UNL A   1      36.404  21.779  24.325  1.00  0.00     0.202 C 
ENDROOT
BRANCH   1   2
ATOM      2  C   UNL A   1      36.323  23.233  23.852  1.00  0.00     0.261 C 
BRANCH   2   3
ATOM      3  O   UNL A   1      35.116  23.451  23.094  1.00  0.00    -0.463 OA
BRANCH   3   4
ATOM      4  C   UNL A   1      34.180  24.236  23.694  1.00  0.00     0.313 C 
ATOM      5  O   UNL A   1      34.443  25.281  24.279  1.00  0.00    -0.252 OA
BRANCH   4   6
ATOM      6  C   UNL A   1      32.750  23.691  23.535  1.00  0.00     0.127 C 
ATOM      7  C   UNL A   1      31.682  24.423  24.361  1.00  0.00     0.025 C 
BRANCH   6   8
ATOM      8  C   UNL A   1      32.772  22.177  23.764  1.00  0.00    -0.015 A 
ATOM      9  C   UNL A   1      32.429  21.288  22.728  1.00  0.00     0.006 A 
ATOM     10  C   UNL A   1      32.984  21.631  25.044  1.00  0.00     0.045 A 
ATOM     11  C   UNL A   1      32.252  19.921  22.970  1.00  0.00     0.004 A 
ATOM     12  C   UNL A   1      32.800  20.264  25.283  1.00  0.00     0.024 A 
ATOM     13  Cl  UNL A   1      33.457  22.601  26.396  1.00  0.00    -0.084 Cl
ATOM     14  C   UNL A   1      32.402  19.400  24.257  1.00  0.00    -0.046 A 
BRANCH  14  15
ATOM     15  C   UNL A   1      32.129  17.943  24.543  1.00  0.00     0.047 C 
BRANCH  15  16
ATOM     16  C   UNL A   1      33.147  16.935  23.995  1.00  0.00     0.060 C 
ATOM     17  C   UNL A   1      34.571  17.453  23.758  1.00  0.00     0.012 C 
ATOM     18  C   UNL A   1      33.382  15.767  24.928  1.00  0.00     0.136 C 
ATOM     19  C   UNL A   1      35.396  16.986  24.952  1.00  0.00     0.009 C 
ATOM     20  C   UNL A   1      34.826  15.626  25.326  1.00  0.00     0.076 C 
ATOM     21  O   UNL A   1      32.500  15.001  25.297  1.00  0.00    -0.299 OA
ENDBRANCH  15  16
ENDBRANCH  14  15
ENDBRANCH   6   8
ENDBRANCH   4   6
ENDBRANCH   3   4
ENDBRANCH   2   3
ENDBRANCH   1   2
BRANCH   1  22
ATOM     22  O   UNL A   1      37.713  21.300  24.639  1.00  0.00    -0.374 OA
BRANCH  22  23
ATOM     23  C   UNL A   1      37.840  19.914  24.950  1.00  0.00     0.202 C 
BRANCH  23  24
ATOM     24  C   UNL A   1      39.158  19.487  25.605  1.00  0.00     0.261 C 
BRANCH  24  25
ATOM     25  O   UNL A   1      40.055  20.598  25.792  1.00  0.00    -0.460 OA
BRANCH  25  26
ATOM     26  C   UNL A   1      40.732  20.580  26.963  1.00  0.00     0.338 C 
ATOM     27  O   UNL A   1      41.236  19.609  27.516  1.00  0.00    -0.246 OA
BRANCH  26  28
ATOM     28  C   UNL A   1      40.955  21.953  27.448  1.00  0.00     0.060 A 
ATOM     29  C   UNL A   1      40.283  22.984  26.779  1.00  0.00     0.016 A 
ATOM     30  C   UNL A   1      41.854  22.242  28.477  1.00  0.00     0.016 A 
ATOM     31  C   UNL A   1      40.548  24.313  27.100  1.00  0.00     0.010 A 
ATOM     32  C   UNL A   1      42.126  23.578  28.792  1.00  0.00     0.010 A 
ATOM     33  C   UNL A   1      41.503  24.619  28.079  1.00  0.00    -0.014 A 
BRANCH  33  34
ATOM     34  C   UNL A   1      41.955  26.023  28.231  1.00  0.00     0.031 A 
ATOM     35  C   UNL A   1      43.283  26.425  27.652  1.00  0.00     0.074 A 
ATOM     36  C   UNL A   1      41.174  26.938  28.830  1.00  0.00     0.049 A 
ATOM     37  N   UNL A   1      43.874  27.593  27.658  1.00  0.00    -0.248 NA
ATOM     38  C   UNL A   1      44.048  25.368  26.970  1.00  0.00     0.031 C 
ATOM     39  C   UNL A   1      39.851  26.679  29.392  1.00  0.00     0.029 A 
ATOM     40  N   UNL A   1      41.384  28.274  29.062  1.00  0.00    -0.354 N 
ATOM     41  C   UNL A   1      45.076  27.411  26.987  1.00  0.00     0.074 A 
ATOM     42  C   UNL A   1      45.146  26.015  26.612  1.00  0.00     0.031 C 
ATOM     43  C   UNL A   1      39.367  27.822  29.910  1.00  0.00     0.029 A 
ATOM     44  C   UNL A   1      40.357  28.883  29.739  1.00  0.00     0.049 A 
ATOM     45  H   UNL A   1      42.195  28.751  28.771  1.00  0.00     0.167 HD
ATOM     46  C   UNL A   1      46.031  28.327  26.701  1.00  0.00     0.037 A 
ATOM     47  C   UNL A   1      40.240  30.150  30.181  1.00  0.00     0.037 A 
ATOM     48  C   UNL A   1      45.959  29.717  27.069  1.00  0.00     0.049 A 
ATOM     49  C   UNL A   1      41.349  31.134  29.910  1.00  0.00     0.074 A 
ATOM     50  C   UNL A   1      46.864  30.728  26.804  1.00  0.00     0.029 A 
ATOM     51  N   UNL A   1      44.922  30.287  27.792  1.00  0.00    -0.354 N 
ATOM     52  N   UNL A   1      42.468  30.961  29.249  1.00  0.00    -0.248 NA
ATOM     53  C   UNL A   1      41.175  32.492  30.446  1.00  0.00     0.031 C 
ATOM     54  C   UNL A   1      46.398  31.903  27.406  1.00  0.00     0.029 A 
ATOM     55  C   UNL A   1      45.178  31.632  28.004  1.00  0.00     0.049 A 
ATOM     56  H   UNL A   1      44.121  29.808  28.106  1.00  0.00     0.167 HD
ATOM     57  C   UNL A   1      43.116  32.189  29.265  1.00  0.00     0.074 A 
ATOM     58  C   UNL A   1      42.261  33.104  29.992  1.00  0.00     0.031 C 
ATOM     59  C   UNL A   1      44.312  32.529  28.723  1.00  0.00     0.037 A 
BRANCH  46  60
ATOM     60  C   UNL A   1      47.252  27.850  25.972  1.00  0.00     0.064 A 
ATOM     61  C   UNL A   1      48.410  27.454  26.655  1.00  0.00     0.173 A 
ATOM     62  C   UNL A   1      47.248  27.755  24.572  1.00  0.00     0.173 A 
ATOM     63  F   UNL A   1      48.470  27.540  27.992  1.00  0.00    -0.203 F 
ATOM     64  C   UNL A   1      49.530  27.001  25.961  1.00  0.00     0.198 A 
ATOM     65  C   UNL A   1      48.359  27.278  23.883  1.00  0.00     0.198 A 
ATOM     66  F   UNL A   1      46.162  28.118  23.872  1.00  0.00    -0.203 F 
ATOM     67  F   UNL A   1      50.642  26.668  26.630  1.00  0.00    -0.200 F 
ATOM     68  C   UNL A   1      49.501  26.907  24.577  1.00  0.00     0.200 A 
ATOM     69  F   UNL A   1      48.326  27.179  22.547  1.00  0.00    -0.200 F 
ATOM     70  F   UNL A   1      50.577  26.465  23.912  1.00  0.00    -0.200 F 
ENDBRANCH  46  60
BRANCH  47  71
ATOM     71  C   UNL A   1      39.030  30.565  30.937  1.00  0.00     0.064 A 
ATOM     72  C   UNL A   1      37.912  31.093  30.277  1.00  0.00     0.173 A 
ATOM     73  C   UNL A   1      38.975  30.458  32.334  1.00  0.00     0.173 A 
ATOM     74  F   UNL A   1      37.927  31.240  28.944  1.00  0.00    -0.203 F 
ATOM     75  C   UNL A   1      36.791  31.517  30.990  1.00  0.00     0.198 A 
ATOM     76  C   UNL A   1      37.843  30.857  33.043  1.00  0.00     0.198 A 
ATOM     77  F   UNL A   1      40.020  29.962  33.012  1.00  0.00    -0.203 F 
ATOM     78  F   UNL A   1      35.753  32.061  30.340  1.00  0.00    -0.200 F 
ATOM     79  C   UNL A   1      36.756  31.393  32.370  1.00  0.00     0.200 A 
ATOM     80  F   UNL A   1      37.811  30.727  34.375  1.00  0.00    -0.200 F 
ATOM     81  F   UNL A   1      35.677  31.799  33.054  1.00  0.00    -0.200 F 
ENDBRANCH  47  71
BRANCH  59  82
ATOM     82  C   UNL A   1      44.752  33.958  28.866  1.00  0.00     0.064 A 
ATOM     83  C   UNL A   1      45.578  34.370  29.920  1.00  0.00     0.173 A 
ATOM     84  C   UNL A   1      44.378  34.915  27.910  1.00  0.00     0.173 A 
ATOM     85  F   UNL A   1      45.951  33.496  30.868  1.00  0.00    -0.203 F 
ATOM     86  C   UNL A   1      45.996  35.695  30.025  1.00  0.00     0.198 A 
ATOM     87  C   UNL A   1      44.819  36.231  28.002  1.00  0.00     0.198 A 
ATOM     88  F   UNL A   1      43.594  34.568  26.877  1.00  0.00    -0.203 F 
ATOM     89  F   UNL A   1      46.750  36.077  31.064  1.00  0.00    -0.200 F 
ATOM     90  C   UNL A   1      45.623  36.622  29.063  1.00  0.00     0.200 A 
ATOM     91  F   UNL A   1      44.469  37.122  27.065  1.00  0.00    -0.200 F 
ATOM     92  F   UNL A   1      46.032  37.894  29.162  1.00  0.00    -0.200 F 
ENDBRANCH  59  82
ENDBRANCH  33  34
ENDBRANCH  26  28
ENDBRANCH  25  26
ENDBRANCH  24  25
ENDBRANCH  23  24
ENDBRANCH  22  23
ENDBRANCH   1  22
TORSDOF 17
ENDMDL
