MODEL 1
REMARK VINA RESULT:     -12.1      0.000      0.000
REMARK SMILES CC[C@@]1(C(=O)OCCOCCOC(=O)c2ccc(-c3c4nc(c(-c5c(F)c(F)c(F)c(F)c5F)c5ccc([nH]5)c(-c5c(F)c(F)c(F)c(F)c5F)c5nc(c(-c6c(F)c(F)c(F)c(F)c6F)c6ccc3[nH]6)C=C5)C=C4)cc2)CCCN(c2ncnc3c2CCCC3)C1
REMARK SMILES IDX 10 1 9 2 8 3 7 4 6 5 4 6 5 7 3 8 78 9 92 10 79 11 81 12
REMARK SMILES IDX 80 13 2 14 1 15 82 16 83 17 87 18 84 19 86 20 88 21 85 22
REMARK SMILES IDX 91 23 89 24 90 25 11 26 12 27 13 28 14 29 15 30 16 31 77 32
REMARK SMILES IDX 17 33 76 34 18 35 19 36 20 37 70 38 21 39 75 40 69 41 71 42
REMARK SMILES IDX 22 43 74 44 68 45 67 46 23 48 55 49 35 50 54 51 36 52 39 53
REMARK SMILES IDX 53 54 72 55 37 56 38 57 52 59 73 60 40 61 24 62 25 63 33 64
REMARK SMILES IDX 26 65 27 66 31 67 34 68 28 69 29 70 32 71 30 72 56 73 57 74
REMARK SMILES IDX 65 75 58 76 59 77 63 78 66 79 60 80 61 81 64 82 62 83 41 84
REMARK SMILES IDX 42 85 50 86 43 87 44 88 48 89 51 90 45 91 46 92 49 93 47 94
REMARK H PARENT 71 47 39 58
REMARK Flexibility Score: inf
ROOT
ATOM      1  C   UNL A   1      31.650  29.949  25.441  1.00  0.00     0.202 C 
ENDROOT
BRANCH   1   2
ATOM      2  O   UNL A   1      32.898  29.578  24.848  1.00  0.00    -0.374 OA
BRANCH   2   3
ATOM      3  C   UNL A   1      32.740  28.837  23.632  1.00  0.00     0.202 C 
BRANCH   3   4
ATOM      4  C   UNL A   1      33.624  27.589  23.502  1.00  0.00     0.261 C 
BRANCH   4   5
ATOM      5  O   UNL A   1      32.851  26.371  23.436  1.00  0.00    -0.463 OA
BRANCH   5   6
ATOM      6  C   UNL A   1      32.372  25.917  24.628  1.00  0.00     0.313 C 
ATOM      7  O   UNL A   1      32.958  26.077  25.696  1.00  0.00    -0.252 OA
BRANCH   6   8
ATOM      8  C   UNL A   1      31.040  25.144  24.537  1.00  0.00     0.085 C 
ATOM      9  C   UNL A   1      30.208  25.097  25.852  1.00  0.00     0.022 C 
ATOM     10  C   UNL A   1      31.400  23.727  23.990  1.00  0.00     0.136 C 
ATOM     11  C   UNL A   1      30.431  23.907  26.784  1.00  0.00     0.023 C 
ATOM     12  N   UNL A   1      31.785  22.819  25.080  1.00  0.00    -0.355 N 
ATOM     13  C   UNL A   1      30.711  22.599  26.056  1.00  0.00     0.118 C 
BRANCH   8  14
ATOM     14  C   UNL A   1      30.242  25.975  23.477  1.00  0.00     0.017 C 
ATOM     15  C   UNL A   1      28.882  26.526  23.895  1.00  0.00     0.005 C 
ENDBRANCH   8  14
BRANCH  12  16
ATOM     16  C   UNL A   1      32.611  21.715  24.835  1.00  0.00     0.135 A 
ATOM     17  N   UNL A   1      32.007  20.508  24.844  1.00  0.00    -0.219 NA
ATOM     18  C   UNL A   1      34.013  21.799  24.782  1.00  0.00     0.016 A 
ATOM     19  C   UNL A   1      32.773  19.412  24.822  1.00  0.00     0.224 A 
ATOM     20  C   UNL A   1      34.714  20.584  24.796  1.00  0.00     0.049 A 
ATOM     21  C   UNL A   1      34.787  23.090  24.752  1.00  0.00     0.041 C 
ATOM     22  N   UNL A   1      34.103  19.385  24.812  1.00  0.00    -0.241 NA
ATOM     23  C   UNL A   1      36.213  20.524  24.970  1.00  0.00     0.057 C 
ATOM     24  C   UNL A   1      36.232  22.992  25.242  1.00  0.00     0.005 C 
ATOM     25  C   UNL A   1      36.930  21.811  24.592  1.00  0.00     0.007 C 
ENDBRANCH  12  16
ENDBRANCH   6   8
ENDBRANCH   5   6
ENDBRANCH   4   5
ENDBRANCH   3   4
ENDBRANCH   2   3
ENDBRANCH   1   2
BRANCH   1  26
ATOM     26  C   UNL A   1      31.753  31.209  26.305  1.00  0.00     0.261 C 
BRANCH  26  27
ATOM     27  O   UNL A   1      32.671  30.971  27.369  1.00  0.00    -0.460 OA
BRANCH  27  28
ATOM     28  C   UNL A   1      33.462  32.050  27.570  1.00  0.00     0.338 C 
ATOM     29  O   UNL A   1      33.120  33.211  27.537  1.00  0.00    -0.246 OA
BRANCH  28  30
ATOM     30  C   UNL A   1      34.794  31.560  27.991  1.00  0.00     0.060 A 
ATOM     31  C   UNL A   1      34.950  30.178  28.117  1.00  0.00     0.016 A 
ATOM     32  C   UNL A   1      35.874  32.428  28.228  1.00  0.00     0.016 A 
ATOM     33  C   UNL A   1      36.140  29.672  28.615  1.00  0.00     0.010 A 
ATOM     34  C   UNL A   1      37.078  31.920  28.694  1.00  0.00     0.010 A 
ATOM     35  C   UNL A   1      37.170  30.553  28.971  1.00  0.00    -0.014 A 
BRANCH  35  36
ATOM     36  C   UNL A   1      38.207  30.065  29.896  1.00  0.00     0.031 A 
ATOM     37  C   UNL A   1      39.214  29.089  29.354  1.00  0.00     0.074 A 
ATOM     38  C   UNL A   1      38.284  30.554  31.142  1.00  0.00     0.049 A 
ATOM     39  N   UNL A   1      40.287  28.603  29.919  1.00  0.00    -0.248 NA
ATOM     40  C   UNL A   1      38.979  28.589  27.986  1.00  0.00     0.031 C 
ATOM     41  C   UNL A   1      37.345  31.505  31.733  1.00  0.00     0.029 A 
ATOM     42  N   UNL A   1      39.210  30.331  32.122  1.00  0.00    -0.354 N 
ATOM     43  C   UNL A   1      40.852  27.754  28.976  1.00  0.00     0.074 A 
ATOM     44  C   UNL A   1      39.982  27.741  27.825  1.00  0.00     0.031 C 
ATOM     45  C   UNL A   1      37.755  31.799  32.978  1.00  0.00     0.029 A 
ATOM     46  C   UNL A   1      38.978  31.053  33.263  1.00  0.00     0.049 A 
ATOM     47  H   UNL A   1      39.969  29.712  32.018  1.00  0.00     0.167 HD
ATOM     48  C   UNL A   1      42.014  27.067  29.057  1.00  0.00     0.037 A 
ATOM     49  C   UNL A   1      39.695  31.106  34.399  1.00  0.00     0.037 A 
ATOM     50  C   UNL A   1      42.867  27.100  30.213  1.00  0.00     0.049 A 
ATOM     51  C   UNL A   1      40.982  30.327  34.469  1.00  0.00     0.074 A 
ATOM     52  C   UNL A   1      44.067  26.451  30.424  1.00  0.00     0.029 A 
ATOM     53  N   UNL A   1      42.595  27.835  31.358  1.00  0.00    -0.354 N 
ATOM     54  N   UNL A   1      41.532  29.554  33.562  1.00  0.00    -0.248 NA
ATOM     55  C   UNL A   1      41.755  30.443  35.710  1.00  0.00     0.031 C 
ATOM     56  C   UNL A   1      44.505  26.765  31.716  1.00  0.00     0.029 A 
ATOM     57  C   UNL A   1      43.601  27.647  32.289  1.00  0.00     0.049 A 
ATOM     58  H   UNL A   1      41.804  28.406  31.490  1.00  0.00     0.167 HD
ATOM     59  C   UNL A   1      42.727  29.110  34.110  1.00  0.00     0.074 A 
ATOM     60  C   UNL A   1      42.828  29.718  35.422  1.00  0.00     0.031 C 
ATOM     61  C   UNL A   1      43.659  28.275  33.584  1.00  0.00     0.037 A 
BRANCH  48  62
ATOM     62  C   UNL A   1      42.400  26.222  27.880  1.00  0.00     0.064 A 
ATOM     63  C   UNL A   1      43.278  26.695  26.890  1.00  0.00     0.173 A 
ATOM     64  C   UNL A   1      41.881  24.930  27.730  1.00  0.00     0.173 A 
ATOM     65  F   UNL A   1      43.783  27.935  26.971  1.00  0.00    -0.203 F 
ATOM     66  C   UNL A   1      43.597  25.914  25.781  1.00  0.00     0.198 A 
ATOM     67  C   UNL A   1      42.223  24.140  26.635  1.00  0.00     0.198 A 
ATOM     68  F   UNL A   1      41.032  24.432  28.642  1.00  0.00    -0.203 F 
ATOM     69  F   UNL A   1      44.393  26.406  24.823  1.00  0.00    -0.200 F 
ATOM     70  C   UNL A   1      43.075  24.635  25.658  1.00  0.00     0.200 A 
ATOM     71  F   UNL A   1      41.722  22.903  26.519  1.00  0.00    -0.200 F 
ATOM     72  F   UNL A   1      43.383  23.884  24.592  1.00  0.00    -0.200 F 
ENDBRANCH  48  62
BRANCH  49  73
ATOM     73  C   UNL A   1      39.231  31.954  35.526  1.00  0.00     0.064 A 
ATOM     74  C   UNL A   1      38.408  31.434  36.535  1.00  0.00     0.173 A 
ATOM     75  C   UNL A   1      39.622  33.297  35.629  1.00  0.00     0.173 A 
ATOM     76  F   UNL A   1      37.999  30.159  36.474  1.00  0.00    -0.203 F 
ATOM     77  C   UNL A   1      37.979  32.231  37.595  1.00  0.00     0.198 A 
ATOM     78  C   UNL A   1      39.213  34.086  36.703  1.00  0.00     0.198 A 
ATOM     79  F   UNL A   1      40.417  33.839  34.695  1.00  0.00    -0.203 F 
ATOM     80  F   UNL A   1      37.164  31.720  38.527  1.00  0.00    -0.200 F 
ATOM     81  C   UNL A   1      38.386  33.555  37.681  1.00  0.00     0.200 A 
ATOM     82  F   UNL A   1      39.622  35.358  36.791  1.00  0.00    -0.200 F 
ATOM     83  F   UNL A   1      37.980  34.317  38.705  1.00  0.00    -0.200 F 
ENDBRANCH  49  73
BRANCH  61  84
ATOM     84  C   UNL A   1      44.867  27.999  34.426  1.00  0.00     0.064 A 
ATOM     85  C   UNL A   1      44.915  26.903  35.298  1.00  0.00     0.173 A 
ATOM     86  C   UNL A   1      45.998  28.824  34.334  1.00  0.00     0.173 A 
ATOM     87  F   UNL A   1      43.852  26.095  35.427  1.00  0.00    -0.203 F 
ATOM     88  C   UNL A   1      46.043  26.660  36.076  1.00  0.00     0.198 A 
ATOM     89  C   UNL A   1      47.134  28.561  35.091  1.00  0.00     0.198 A 
ATOM     90  F   UNL A   1      46.002  29.878  33.505  1.00  0.00    -0.203 F 
ATOM     91  F   UNL A   1      46.050  25.639  36.942  1.00  0.00    -0.200 F 
ATOM     92  C   UNL A   1      47.153  27.487  35.967  1.00  0.00     0.200 A 
ATOM     93  F   UNL A   1      48.211  29.351  34.976  1.00  0.00    -0.200 F 
ATOM     94  F   UNL A   1      48.239  27.251  36.717  1.00  0.00    -0.200 F 
ENDBRANCH  61  84
ENDBRANCH  35  36
ENDBRANCH  28  30
ENDBRANCH  27  28
ENDBRANCH  26  27
ENDBRANCH   1  26
TORSDOF 16
ENDMDL
MODEL 2
REMARK VINA RESULT:     -12.1      0.899      7.311
REMARK SMILES CC[C@@]1(C(=O)OCCOCCOC(=O)c2ccc(-c3c4nc(c(-c5c(F)c(F)c(F)c(F)c5F)c5ccc([nH]5)c(-c5c(F)c(F)c(F)c(F)c5F)c5nc(c(-c6c(F)c(F)c(F)c(F)c6F)c6ccc3[nH]6)C=C5)C=C4)cc2)CCCN(c2ncnc3c2CCCC3)C1
REMARK SMILES IDX 10 1 9 2 8 3 7 4 6 5 4 6 5 7 3 8 78 9 92 10 79 11 81 12
REMARK SMILES IDX 80 13 2 14 1 15 82 16 83 17 87 18 84 19 86 20 88 21 85 22
REMARK SMILES IDX 91 23 89 24 90 25 11 26 12 27 13 28 14 29 15 30 16 31 77 32
REMARK SMILES IDX 17 33 76 34 18 35 19 36 20 37 70 38 21 39 75 40 69 41 71 42
REMARK SMILES IDX 22 43 74 44 68 45 67 46 23 48 55 49 35 50 54 51 36 52 39 53
REMARK SMILES IDX 53 54 72 55 37 56 38 57 52 59 73 60 40 61 24 62 25 63 33 64
REMARK SMILES IDX 26 65 27 66 31 67 34 68 28 69 29 70 32 71 30 72 56 73 57 74
REMARK SMILES IDX 65 75 58 76 59 77 63 78 66 79 60 80 61 81 64 82 62 83 41 84
REMARK SMILES IDX 42 85 50 86 43 87 44 88 48 89 51 90 45 91 46 92 49 93 47 94
REMARK H PARENT 71 47 39 58
REMARK Flexibility Score: inf
ROOT
ATOM      1  C   UNL A   1      31.492  31.114  26.106  1.00  0.00     0.202 C 
ENDROOT
BRANCH   1   2
ATOM      2  O   UNL A   1      31.976  29.812  26.447  1.00  0.00    -0.374 OA
BRANCH   2   3
ATOM      3  C   UNL A   1      32.735  29.204  25.394  1.00  0.00     0.202 C 
BRANCH   3   4
ATOM      4  C   UNL A   1      33.710  28.105  25.837  1.00  0.00     0.261 C 
BRANCH   4   5
ATOM      5  O   UNL A   1      33.110  26.791  25.803  1.00  0.00    -0.463 OA
BRANCH   5   6
ATOM      6  C   UNL A   1      32.961  26.247  24.563  1.00  0.00     0.313 C 
ATOM      7  O   UNL A   1      33.827  26.305  23.692  1.00  0.00    -0.252 OA
BRANCH   6   8
ATOM      8  C   UNL A   1      31.595  25.577  24.311  1.00  0.00     0.085 C 
ATOM      9  C   UNL A   1      30.628  25.561  25.531  1.00  0.00     0.022 C 
ATOM     10  C   UNL A   1      31.909  24.151  23.761  1.00  0.00     0.136 C 
ATOM     11  C   UNL A   1      30.667  24.336  26.444  1.00  0.00     0.023 C 
ATOM     12  N   UNL A   1      32.112  23.191  24.856  1.00  0.00    -0.355 N 
ATOM     13  C   UNL A   1      30.929  23.028  25.708  1.00  0.00     0.118 C 
BRANCH   8  14
ATOM     14  C   UNL A   1      30.974  26.489  23.201  1.00  0.00     0.017 C 
ATOM     15  C   UNL A   1      29.861  27.445  23.618  1.00  0.00     0.005 C 
ENDBRANCH   8  14
BRANCH  12  16
ATOM     16  C   UNL A   1      32.880  22.035  24.664  1.00  0.00     0.135 A 
ATOM     17  N   UNL A   1      32.197  20.871  24.617  1.00  0.00    -0.219 NA
ATOM     18  C   UNL A   1      34.284  22.025  24.716  1.00  0.00     0.016 A 
ATOM     19  C   UNL A   1      32.888  19.727  24.642  1.00  0.00     0.224 A 
ATOM     20  C   UNL A   1      34.900  20.767  24.772  1.00  0.00     0.049 A 
ATOM     21  C   UNL A   1      35.142  23.262  24.755  1.00  0.00     0.041 C 
ATOM     22  N   UNL A   1      34.211  19.610  24.731  1.00  0.00    -0.241 NA
ATOM     23  C   UNL A   1      36.374  20.606  25.056  1.00  0.00     0.057 C 
ATOM     24  C   UNL A   1      36.537  23.066  25.350  1.00  0.00     0.005 C 
ATOM     25  C   UNL A   1      37.201  21.843  24.743  1.00  0.00     0.007 C 
ENDBRANCH  12  16
ENDBRANCH   6   8
ENDBRANCH   5   6
ENDBRANCH   4   5
ENDBRANCH   3   4
ENDBRANCH   2   3
ENDBRANCH   1   2
BRANCH   1  26
ATOM     26  C   UNL A   1      31.889  32.183  27.127  1.00  0.00     0.261 C 
BRANCH  26  27
ATOM     27  O   UNL A   1      33.053  31.751  27.825  1.00  0.00    -0.460 OA
BRANCH  27  28
ATOM     28  C   UNL A   1      33.884  32.793  28.062  1.00  0.00     0.338 C 
ATOM     29  O   UNL A   1      33.563  33.950  28.217  1.00  0.00    -0.246 OA
BRANCH  28  30
ATOM     30  C   UNL A   1      35.247  32.247  28.253  1.00  0.00     0.060 A 
ATOM     31  C   UNL A   1      35.376  30.857  28.281  1.00  0.00     0.016 A 
ATOM     32  C   UNL A   1      36.377  33.074  28.370  1.00  0.00     0.016 A 
ATOM     33  C   UNL A   1      36.609  30.295  28.569  1.00  0.00     0.010 A 
ATOM     34  C   UNL A   1      37.621  32.512  28.624  1.00  0.00     0.010 A 
ATOM     35  C   UNL A   1      37.709  31.129  28.812  1.00  0.00    -0.014 A 
BRANCH  35  36
ATOM     36  C   UNL A   1      38.855  30.565  29.544  1.00  0.00     0.031 A 
ATOM     37  C   UNL A   1      39.021  30.965  30.983  1.00  0.00     0.074 A 
ATOM     38  C   UNL A   1      39.652  29.661  28.956  1.00  0.00     0.049 A 
ATOM     39  N   UNL A   1      39.867  30.523  31.876  1.00  0.00    -0.248 NA
ATOM     40  C   UNL A   1      38.111  32.010  31.488  1.00  0.00     0.031 C 
ATOM     41  C   UNL A   1      39.547  29.223  27.566  1.00  0.00     0.029 A 
ATOM     42  N   UNL A   1      40.692  28.937  29.467  1.00  0.00    -0.354 N 
ATOM     43  C   UNL A   1      39.582  31.227  33.038  1.00  0.00     0.074 A 
ATOM     44  C   UNL A   1      38.530  32.165  32.733  1.00  0.00     0.031 C 
ATOM     45  C   UNL A   1      40.482  28.285  27.337  1.00  0.00     0.029 A 
ATOM     46  C   UNL A   1      41.245  28.068  28.563  1.00  0.00     0.049 A 
ATOM     47  H   UNL A   1      41.012  29.030  30.394  1.00  0.00     0.167 HD
ATOM     48  C   UNL A   1      40.137  31.081  34.263  1.00  0.00     0.037 A 
ATOM     49  C   UNL A   1      42.248  27.189  28.730  1.00  0.00     0.037 A 
ATOM     50  C   UNL A   1      41.182  30.135  34.545  1.00  0.00     0.049 A 
ATOM     51  C   UNL A   1      42.856  27.048  30.101  1.00  0.00     0.074 A 
ATOM     52  C   UNL A   1      41.830  29.888  35.739  1.00  0.00     0.029 A 
ATOM     53  N   UNL A   1      41.728  29.277  33.600  1.00  0.00    -0.354 N 
ATOM     54  N   UNL A   1      42.559  27.690  31.207  1.00  0.00    -0.248 NA
ATOM     55  C   UNL A   1      43.919  26.050  30.251  1.00  0.00     0.031 C 
ATOM     56  C   UNL A   1      42.796  28.902  35.508  1.00  0.00     0.029 A 
ATOM     57  C   UNL A   1      42.716  28.503  34.182  1.00  0.00     0.049 A 
ATOM     58  H   UNL A   1      41.453  29.225  32.656  1.00  0.00     0.167 HD
ATOM     59  C   UNL A   1      43.382  27.158  32.190  1.00  0.00     0.074 A 
ATOM     60  C   UNL A   1      44.174  26.127  31.550  1.00  0.00     0.031 C 
ATOM     61  C   UNL A   1      43.479  27.487  33.503  1.00  0.00     0.037 A 
BRANCH  48  62
ATOM     62  C   UNL A   1      39.635  31.972  35.360  1.00  0.00     0.064 A 
ATOM     63  C   UNL A   1      38.643  31.546  36.260  1.00  0.00     0.173 A 
ATOM     64  C   UNL A   1      40.139  33.271  35.509  1.00  0.00     0.173 A 
ATOM     65  F   UNL A   1      38.108  30.322  36.144  1.00  0.00    -0.203 F 
ATOM     66  C   UNL A   1      38.158  32.398  37.249  1.00  0.00     0.198 A 
ATOM     67  C   UNL A   1      39.672  34.112  36.517  1.00  0.00     0.198 A 
ATOM     68  F   UNL A   1      41.081  33.731  34.672  1.00  0.00    -0.203 F 
ATOM     69  F   UNL A   1      37.174  31.989  38.062  1.00  0.00    -0.200 F 
ATOM     70  C   UNL A   1      38.677  33.677  37.381  1.00  0.00     0.200 A 
ATOM     71  F   UNL A   1      40.176  35.345  36.646  1.00  0.00    -0.200 F 
ATOM     72  F   UNL A   1      38.210  34.496  38.333  1.00  0.00    -0.200 F 
ENDBRANCH  48  62
BRANCH  49  73
ATOM     73  C   UNL A   1      42.699  26.357  27.585  1.00  0.00     0.064 A 
ATOM     74  C   UNL A   1      42.112  25.114  27.315  1.00  0.00     0.173 A 
ATOM     75  C   UNL A   1      43.714  26.802  26.724  1.00  0.00     0.173 A 
ATOM     76  F   UNL A   1      41.147  24.640  28.116  1.00  0.00    -0.203 F 
ATOM     77  C   UNL A   1      42.535  24.339  26.236  1.00  0.00     0.198 A 
ATOM     78  C   UNL A   1      44.117  26.037  25.631  1.00  0.00     0.198 A 
ATOM     79  F   UNL A   1      44.301  27.989  26.935  1.00  0.00    -0.203 F 
ATOM     80  F   UNL A   1      41.981  23.138  26.019  1.00  0.00    -0.200 F 
ATOM     81  C   UNL A   1      43.533  24.803  25.392  1.00  0.00     0.200 A 
ATOM     82  F   UNL A   1      45.070  26.498  24.810  1.00  0.00    -0.200 F 
ATOM     83  F   UNL A   1      43.932  24.062  24.350  1.00  0.00    -0.200 F 
ENDBRANCH  49  73
BRANCH  61  84
ATOM     84  C   UNL A   1      44.461  26.706  34.322  1.00  0.00     0.064 A 
ATOM     85  C   UNL A   1      44.098  25.507  34.951  1.00  0.00     0.173 A 
ATOM     86  C   UNL A   1      45.786  27.149  34.451  1.00  0.00     0.173 A 
ATOM     87  F   UNL A   1      42.839  25.053  34.863  1.00  0.00    -0.203 F 
ATOM     88  C   UNL A   1      45.021  24.794  35.710  1.00  0.00     0.198 A 
ATOM     89  C   UNL A   1      46.712  26.418  35.187  1.00  0.00     0.198 A 
ATOM     90  F   UNL A   1      46.181  28.285  33.858  1.00  0.00    -0.203 F 
ATOM     91  F   UNL A   1      44.641  23.678  36.347  1.00  0.00    -0.200 F 
ATOM     92  C   UNL A   1      46.328  25.247  35.823  1.00  0.00     0.200 A 
ATOM     93  F   UNL A   1      47.978  26.849  35.285  1.00  0.00    -0.200 F 
ATOM     94  F   UNL A   1      47.214  24.558  36.554  1.00  0.00    -0.200 F 
ENDBRANCH  61  84
ENDBRANCH  35  36
ENDBRANCH  28  30
ENDBRANCH  27  28
ENDBRANCH  26  27
ENDBRANCH   1  26
TORSDOF 16
ENDMDL
MODEL 3
REMARK VINA RESULT:     -12.1      4.309      7.249
REMARK SMILES CC[C@@]1(C(=O)OCCOCCOC(=O)c2ccc(-c3c4nc(c(-c5c(F)c(F)c(F)c(F)c5F)c5ccc([nH]5)c(-c5c(F)c(F)c(F)c(F)c5F)c5nc(c(-c6c(F)c(F)c(F)c(F)c6F)c6ccc3[nH]6)C=C5)C=C4)cc2)CCCN(c2ncnc3c2CCCC3)C1
REMARK SMILES IDX 10 1 9 2 8 3 7 4 6 5 4 6 5 7 3 8 78 9 92 10 79 11 81 12
REMARK SMILES IDX 80 13 2 14 1 15 82 16 83 17 87 18 84 19 86 20 88 21 85 22
REMARK SMILES IDX 91 23 89 24 90 25 11 26 12 27 13 28 14 29 15 30 16 31 77 32
REMARK SMILES IDX 17 33 76 34 18 35 19 36 20 37 70 38 21 39 75 40 69 41 71 42
REMARK SMILES IDX 22 43 74 44 68 45 67 46 23 48 55 49 35 50 54 51 36 52 39 53
REMARK SMILES IDX 53 54 72 55 37 56 38 57 52 59 73 60 40 61 24 62 25 63 33 64
REMARK SMILES IDX 26 65 27 66 31 67 34 68 28 69 29 70 32 71 30 72 56 73 57 74
REMARK SMILES IDX 65 75 58 76 59 77 63 78 66 79 60 80 61 81 64 82 62 83 41 84
REMARK SMILES IDX 42 85 50 86 43 87 44 88 48 89 51 90 45 91 46 92 49 93 47 94
REMARK H PARENT 71 47 39 58
REMARK Flexibility Score: inf
ROOT
ATOM      1  C   UNL A   1      35.914  21.552  25.090  1.00  0.00     0.202 C 
ENDROOT
BRANCH   1   2
ATOM      2  O   UNL A   1      35.308  21.665  26.380  1.00  0.00    -0.374 OA
BRANCH   2   3
ATOM      3  C   UNL A   1      34.724  22.953  26.613  1.00  0.00     0.202 C 
BRANCH   3   4
ATOM      4  C   UNL A   1      33.563  23.327  25.682  1.00  0.00     0.261 C 
BRANCH   4   5
ATOM      5  O   UNL A   1      33.458  24.753  25.479  1.00  0.00    -0.463 OA
BRANCH   5   6
ATOM      6  C   UNL A   1      32.217  25.281  25.673  1.00  0.00     0.313 C 
ATOM      7  O   UNL A   1      31.577  25.138  26.713  1.00  0.00    -0.252 OA
BRANCH   6   8
ATOM      8  C   UNL A   1      31.646  26.051  24.464  1.00  0.00     0.085 C 
ATOM      9  C   UNL A   1      32.590  26.142  23.229  1.00  0.00     0.022 C 
ATOM     10  C   UNL A   1      31.214  27.449  25.007  1.00  0.00     0.136 C 
ATOM     11  C   UNL A   1      33.504  27.362  23.129  1.00  0.00     0.023 C 
ATOM     12  N   UNL A   1      32.341  28.392  25.002  1.00  0.00    -0.355 N 
ATOM     13  C   UNL A   1      32.877  28.645  23.659  1.00  0.00     0.118 C 
BRANCH   8  14
ATOM     14  C   UNL A   1      30.402  25.185  24.073  1.00  0.00     0.017 C 
ATOM     15  C   UNL A   1      30.665  23.820  23.445  1.00  0.00     0.005 C 
ENDBRANCH   8  14
BRANCH  12  16
ATOM     16  C   UNL A   1      32.364  29.488  25.875  1.00  0.00     0.135 A 
ATOM     17  N   UNL A   1      31.391  30.408  25.698  1.00  0.00    -0.219 NA
ATOM     18  C   UNL A   1      33.428  29.750  26.754  1.00  0.00     0.016 A 
ATOM     19  C   UNL A   1      31.482  31.566  26.360  1.00  0.00     0.224 A 
ATOM     20  C   UNL A   1      33.437  31.011  27.368  1.00  0.00     0.049 A 
ATOM     21  C   UNL A   1      34.554  28.791  27.037  1.00  0.00     0.041 C 
ATOM     22  N   UNL A   1      32.467  31.925  27.180  1.00  0.00    -0.241 NA
ATOM     23  C   UNL A   1      34.625  31.514  28.153  1.00  0.00     0.057 C 
ATOM     24  C   UNL A   1      35.842  29.435  27.550  1.00  0.00     0.005 C 
ATOM     25  C   UNL A   1      35.533  30.410  28.673  1.00  0.00     0.007 C 
ENDBRANCH  12  16
ENDBRANCH   6   8
ENDBRANCH   5   6
ENDBRANCH   4   5
ENDBRANCH   3   4
ENDBRANCH   2   3
ENDBRANCH   1   2
BRANCH   1  26
ATOM     26  C   UNL A   1      37.370  21.087  25.154  1.00  0.00     0.261 C 
BRANCH  26  27
ATOM     27  O   UNL A   1      38.210  22.214  25.389  1.00  0.00    -0.460 OA
BRANCH  27  28
ATOM     28  C   UNL A   1      39.307  21.856  26.096  1.00  0.00     0.338 C 
ATOM     29  O   UNL A   1      39.924  20.819  25.994  1.00  0.00    -0.246 OA
BRANCH  28  30
ATOM     30  C   UNL A   1      39.715  23.021  26.914  1.00  0.00     0.060 A 
ATOM     31  C   UNL A   1      38.976  24.195  26.758  1.00  0.00     0.016 A 
ATOM     32  C   UNL A   1      40.774  22.957  27.836  1.00  0.00     0.016 A 
ATOM     33  C   UNL A   1      39.383  25.346  27.414  1.00  0.00     0.010 A 
ATOM     34  C   UNL A   1      41.162  24.100  28.521  1.00  0.00     0.010 A 
ATOM     35  C   UNL A   1      40.519  25.308  28.234  1.00  0.00    -0.014 A 
BRANCH  35  36
ATOM     36  C   UNL A   1      41.190  26.582  28.543  1.00  0.00     0.031 A 
ATOM     37  C   UNL A   1      42.585  26.774  28.017  1.00  0.00     0.074 A 
ATOM     38  C   UNL A   1      40.530  27.552  29.191  1.00  0.00     0.049 A 
ATOM     39  N   UNL A   1      43.344  27.838  28.045  1.00  0.00    -0.248 NA
ATOM     40  C   UNL A   1      43.214  25.607  27.371  1.00  0.00     0.031 C 
ATOM     41  C   UNL A   1      39.175  27.436  29.727  1.00  0.00     0.029 A 
ATOM     42  N   UNL A   1      40.908  28.831  29.487  1.00  0.00    -0.354 N 
ATOM     43  C   UNL A   1      44.526  27.467  27.417  1.00  0.00     0.074 A 
ATOM     44  C   UNL A   1      44.415  26.072  27.068  1.00  0.00     0.031 C 
ATOM     45  C   UNL A   1      38.825  28.612  30.276  1.00  0.00     0.029 A 
ATOM     46  C   UNL A   1      39.935  29.551  30.130  1.00  0.00     0.049 A 
ATOM     47  H   UNL A   1      41.793  29.199  29.261  1.00  0.00     0.167 HD
ATOM     48  C   UNL A   1      45.600  28.239  27.134  1.00  0.00     0.037 A 
ATOM     49  C   UNL A   1      39.950  30.833  30.535  1.00  0.00     0.037 A 
ATOM     50  C   UNL A   1      45.685  29.628  27.488  1.00  0.00     0.049 A 
ATOM     51  C   UNL A   1      41.160  31.670  30.215  1.00  0.00     0.074 A 
ATOM     52  C   UNL A   1      46.715  30.520  27.261  1.00  0.00     0.029 A 
ATOM     53  N   UNL A   1      44.683  30.324  28.150  1.00  0.00    -0.354 N 
ATOM     54  N   UNL A   1      42.262  31.326  29.589  1.00  0.00    -0.248 NA
ATOM     55  C   UNL A   1      41.121  33.073  30.638  1.00  0.00     0.031 C 
ATOM     56  C   UNL A   1      46.350  31.750  27.819  1.00  0.00     0.029 A 
ATOM     57  C   UNL A   1      45.074  31.635  28.352  1.00  0.00     0.049 A 
ATOM     58  H   UNL A   1      43.822  29.942  28.434  1.00  0.00     0.167 HD
ATOM     59  C   UNL A   1      43.038  32.475  29.521  1.00  0.00     0.074 A 
ATOM     60  C   UNL A   1      42.269  33.528  30.153  1.00  0.00     0.031 C 
ATOM     61  C   UNL A   1      44.273  32.650  28.987  1.00  0.00     0.037 A 
BRANCH  48  62
ATOM     62  C   UNL A   1      46.754  27.584  26.433  1.00  0.00     0.064 A 
ATOM     63  C   UNL A   1      46.889  27.630  25.035  1.00  0.00     0.173 A 
ATOM     64  C   UNL A   1      47.730  26.893  27.162  1.00  0.00     0.173 A 
ATOM     65  F   UNL A   1      45.967  28.256  24.288  1.00  0.00    -0.203 F 
ATOM     66  C   UNL A   1      47.944  26.985  24.395  1.00  0.00     0.198 A 
ATOM     67  C   UNL A   1      48.800  26.272  26.521  1.00  0.00     0.198 A 
ATOM     68  F   UNL A   1      47.646  26.812  28.498  1.00  0.00    -0.203 F 
ATOM     69  F   UNL A   1      48.023  26.996  23.057  1.00  0.00    -0.200 F 
ATOM     70  C   UNL A   1      48.902  26.312  25.138  1.00  0.00     0.200 A 
ATOM     71  F   UNL A   1      49.727  25.626  27.240  1.00  0.00    -0.200 F 
ATOM     72  F   UNL A   1      49.917  25.692  24.521  1.00  0.00    -0.200 F 
ENDBRANCH  48  62
BRANCH  49  73
ATOM     73  C   UNL A   1      38.773  31.398  31.242  1.00  0.00     0.064 A 
ATOM     74  C   UNL A   1      38.576  31.183  32.612  1.00  0.00     0.173 A 
ATOM     75  C   UNL A   1      37.831  32.185  30.562  1.00  0.00     0.173 A 
ATOM     76  F   UNL A   1      39.442  30.428  33.304  1.00  0.00    -0.203 F 
ATOM     77  C   UNL A   1      37.472  31.719  33.274  1.00  0.00     0.198 A 
ATOM     78  C   UNL A   1      36.742  32.742  31.230  1.00  0.00     0.198 A 
ATOM     79  F   UNL A   1      37.979  32.428  29.252  1.00  0.00    -0.203 F 
ATOM     80  F   UNL A   1      37.289  31.470  34.577  1.00  0.00    -0.200 F 
ATOM     81  C   UNL A   1      36.559  32.503  32.583  1.00  0.00     0.200 A 
ATOM     82  F   UNL A   1      35.872  33.512  30.562  1.00  0.00    -0.200 F 
ATOM     83  F   UNL A   1      35.504  33.026  33.221  1.00  0.00    -0.200 F 
ENDBRANCH  49  73
BRANCH  61  84
ATOM     84  C   UNL A   1      44.845  34.034  29.052  1.00  0.00     0.064 A 
ATOM     85  C   UNL A   1      45.637  34.447  30.132  1.00  0.00     0.173 A 
ATOM     86  C   UNL A   1      44.621  34.942  28.007  1.00  0.00     0.173 A 
ATOM     87  F   UNL A   1      45.867  33.615  31.159  1.00  0.00    -0.203 F 
ATOM     88  C   UNL A   1      46.159  35.736  30.180  1.00  0.00     0.198 A 
ATOM     89  C   UNL A   1      45.169  36.219  28.045  1.00  0.00     0.198 A 
ATOM     90  F   UNL A   1      43.879  34.587  26.948  1.00  0.00    -0.203 F 
ATOM     91  F   UNL A   1      46.869  36.130  31.245  1.00  0.00    -0.200 F 
ATOM     92  C   UNL A   1      45.929  36.619  29.134  1.00  0.00     0.200 A 
ATOM     93  F   UNL A   1      44.958  37.067  27.028  1.00  0.00    -0.200 F 
ATOM     94  F   UNL A   1      46.433  37.859  29.182  1.00  0.00    -0.200 F 
ENDBRANCH  61  84
ENDBRANCH  35  36
ENDBRANCH  28  30
ENDBRANCH  27  28
ENDBRANCH  26  27
ENDBRANCH   1  26
TORSDOF 16
ENDMDL
