MODEL 1
REMARK VINA RESULT:     -11.8      0.000      0.000
REMARK SMILES COc1ccc(-n2c(C)nnc2SCC(=O)OCCOCCOC(=O)c2ccc(-c3c4nc(c(-c5c(F)c(F)c(F)c(F)c5F)c5ccc([nH]5)c(-c5c(F)c(F)c(F)c(F)c5F)c5nc(c(-c6c(F)c(F)c(F)c(F)c6F)c6ccc3[nH]6)C=C5)C=C4)cc2)cc1F
REMARK SMILES IDX 19 1 18 2 17 3 15 4 16 5 14 6 13 7 12 8 7 9 8 10 9 11 10 12
REMARK SMILES IDX 11 13 6 14 3 15 4 16 90 17 5 18 89 19 91 20 2 21 1 22 20 23
REMARK SMILES IDX 21 24 22 25 23 26 24 27 25 28 26 29 27 30 88 31 28 32 87 33
REMARK SMILES IDX 29 34 30 35 31 36 81 37 32 38 86 39 80 40 82 41 33 42 85 43
REMARK SMILES IDX 79 44 78 45 34 47 66 48 46 49 65 50 47 51 50 52 64 53 83 54
REMARK SMILES IDX 48 55 49 56 63 58 84 59 51 60 35 61 36 62 44 63 37 64 38 65
REMARK SMILES IDX 42 66 45 67 39 68 40 69 43 70 41 71 67 72 68 73 76 74 69 75
REMARK SMILES IDX 70 76 74 77 77 78 71 79 72 80 75 81 73 82 52 83 53 84 61 85
REMARK SMILES IDX 54 86 55 87 59 88 62 89 56 90 57 91 60 92 58 93
REMARK H PARENT 82 46 50 57
REMARK Flexibility Score: inf
ROOT
ATOM      1  C   UNL A   1      41.646  21.265  26.070  1.00  0.00     0.202 C 
ENDROOT
BRANCH   1   2
ATOM      2  C   UNL A   1      40.287  21.218  26.791  1.00  0.00     0.261 C 
BRANCH   2   3
ATOM      3  O   UNL A   1      39.360  22.209  26.303  1.00  0.00    -0.463 OA
BRANCH   3   4
ATOM      4  C   UNL A   1      38.246  21.716  25.675  1.00  0.00     0.316 C 
ATOM      5  O   UNL A   1      38.190  20.595  25.181  1.00  0.00    -0.251 OA
BRANCH   4   6
ATOM      6  C   UNL A   1      37.019  22.634  25.772  1.00  0.00     0.200 C 
BRANCH   6   7
ATOM      7  S   UNL A   1      35.486  21.729  25.969  1.00  0.00    -0.074 SA
BRANCH   7   8
ATOM      8  C   UNL A   1      34.197  22.615  26.724  1.00  0.00     0.196 A 
ATOM      9  N   UNL A   1      33.279  23.588  26.296  1.00  0.00    -0.274 N 
ATOM     10  C   UNL A   1      32.125  23.243  27.015  1.00  0.00     0.135 A 
ATOM     11  C   UNL A   1      30.717  23.464  26.581  1.00  0.00     0.090 C 
ATOM     12  N   UNL A   1      32.456  22.486  28.036  1.00  0.00    -0.134 NA
ATOM     13  N   UNL A   1      33.749  22.109  27.861  1.00  0.00    -0.123 NA
BRANCH   9  14
ATOM     14  C   UNL A   1      33.338  24.671  25.364  1.00  0.00     0.053 A 
ATOM     15  C   UNL A   1      33.162  26.795  23.476  1.00  0.00     0.154 A 
ATOM     16  C   UNL A   1      33.112  27.048  24.849  1.00  0.00     0.052 A 
ATOM     17  C   UNL A   1      33.365  25.487  23.072  1.00  0.00     0.167 A 
ATOM     18  C   UNL A   1      33.190  26.000  25.786  1.00  0.00     0.031 A 
ATOM     19  C   UNL A   1      33.477  24.463  24.007  1.00  0.00     0.070 A 
ATOM     20  F   UNL A   1      33.421  25.129  21.782  1.00  0.00    -0.203 F 
BRANCH  15  21
ATOM     21  O   UNL A   1      33.016  27.878  22.657  1.00  0.00    -0.494 OA
ATOM     22  C   UNL A   1      33.619  29.091  23.109  1.00  0.00     0.278 C 
ENDBRANCH  15  21
ENDBRANCH   9  14
ENDBRANCH   7   8
ENDBRANCH   6   7
ENDBRANCH   4   6
ENDBRANCH   3   4
ENDBRANCH   2   3
ENDBRANCH   1   2
BRANCH   1  23
ATOM     23  O   UNL A   1      42.657  20.348  26.504  1.00  0.00    -0.374 OA
BRANCH  23  24
ATOM     24  C   UNL A   1      42.879  19.181  25.727  1.00  0.00     0.202 C 
BRANCH  24  25
ATOM     25  C   UNL A   1      44.197  19.047  25.005  1.00  0.00     0.261 C 
BRANCH  25  26
ATOM     26  O   UNL A   1      44.460  20.229  24.277  1.00  0.00    -0.460 OA
BRANCH  26  27
ATOM     27  C   UNL A   1      45.663  20.770  24.544  1.00  0.00     0.338 C 
ATOM     28  O   UNL A   1      46.721  20.194  24.706  1.00  0.00    -0.246 OA
BRANCH  27  29
ATOM     29  C   UNL A   1      45.391  22.159  24.908  1.00  0.00     0.060 A 
ATOM     30  C   UNL A   1      45.886  22.538  26.150  1.00  0.00     0.016 A 
ATOM     31  C   UNL A   1      44.436  22.921  24.206  1.00  0.00     0.016 A 
ATOM     32  C   UNL A   1      45.283  23.597  26.771  1.00  0.00     0.010 A 
ATOM     33  C   UNL A   1      43.838  23.991  24.829  1.00  0.00     0.010 A 
ATOM     34  C   UNL A   1      44.235  24.281  26.124  1.00  0.00    -0.014 A 
BRANCH  34  35
ATOM     35  C   UNL A   1      43.768  25.470  26.795  1.00  0.00     0.031 A 
ATOM     36  C   UNL A   1      44.707  26.592  26.582  1.00  0.00     0.074 A 
ATOM     37  C   UNL A   1      42.665  25.557  27.551  1.00  0.00     0.049 A 
ATOM     38  N   UNL A   1      45.546  27.058  27.444  1.00  0.00    -0.248 NA
ATOM     39  C   UNL A   1      44.906  27.073  25.208  1.00  0.00     0.031 C 
ATOM     40  C   UNL A   1      41.531  24.646  27.676  1.00  0.00     0.029 A 
ATOM     41  N   UNL A   1      42.340  26.582  28.378  1.00  0.00    -0.354 N 
ATOM     42  C   UNL A   1      46.292  28.004  26.763  1.00  0.00     0.074 A 
ATOM     43  C   UNL A   1      45.963  27.869  25.366  1.00  0.00     0.031 C 
ATOM     44  C   UNL A   1      40.548  25.264  28.377  1.00  0.00     0.029 A 
ATOM     45  C   UNL A   1      41.047  26.538  28.868  1.00  0.00     0.049 A 
ATOM     46  H   UNL A   1      42.972  27.300  28.610  1.00  0.00     0.167 HD
ATOM     47  C   UNL A   1      46.955  28.975  27.440  1.00  0.00     0.037 A 
ATOM     48  C   UNL A   1      40.451  27.533  29.572  1.00  0.00     0.037 A 
ATOM     49  C   UNL A   1      47.198  28.591  28.807  1.00  0.00     0.049 A 
ATOM     50  C   UNL A   1      41.539  28.347  30.183  1.00  0.00     0.074 A 
ATOM     51  C   UNL A   1      47.932  27.585  29.407  1.00  0.00     0.029 A 
ATOM     52  N   UNL A   1      46.323  29.036  29.767  1.00  0.00    -0.354 N 
ATOM     53  N   UNL A   1      42.325  27.914  31.129  1.00  0.00    -0.248 NA
ATOM     54  C   UNL A   1      42.040  29.488  29.430  1.00  0.00     0.031 C 
ATOM     55  C   UNL A   1      47.146  27.165  30.522  1.00  0.00     0.029 A 
ATOM     56  C   UNL A   1      46.008  27.969  30.572  1.00  0.00     0.049 A 
ATOM     57  H   UNL A   1      45.982  29.955  29.861  1.00  0.00     0.167 HD
ATOM     58  C   UNL A   1      43.574  28.431  30.816  1.00  0.00     0.074 A 
ATOM     59  C   UNL A   1      43.320  29.461  29.813  1.00  0.00     0.031 C 
ATOM     60  C   UNL A   1      44.716  27.787  31.195  1.00  0.00     0.037 A 
BRANCH  47  61
ATOM     61  C   UNL A   1      47.019  30.391  26.946  1.00  0.00     0.064 A 
ATOM     62  C   UNL A   1      45.870  31.179  26.702  1.00  0.00     0.173 A 
ATOM     63  C   UNL A   1      48.238  31.087  26.990  1.00  0.00     0.173 A 
ATOM     64  F   UNL A   1      44.631  30.676  26.759  1.00  0.00    -0.203 F 
ATOM     65  C   UNL A   1      45.936  32.555  26.507  1.00  0.00     0.198 A 
ATOM     66  C   UNL A   1      48.293  32.477  26.852  1.00  0.00     0.198 A 
ATOM     67  F   UNL A   1      49.383  30.441  27.256  1.00  0.00    -0.203 F 
ATOM     68  F   UNL A   1      44.805  33.245  26.304  1.00  0.00    -0.200 F 
ATOM     69  C   UNL A   1      47.144  33.208  26.610  1.00  0.00     0.200 A 
ATOM     70  F   UNL A   1      49.460  33.114  27.017  1.00  0.00    -0.200 F 
ATOM     71  F   UNL A   1      47.188  34.544  26.531  1.00  0.00    -0.200 F 
ENDBRANCH  47  61
BRANCH  48  72
ATOM     72  C   UNL A   1      39.082  28.075  29.392  1.00  0.00     0.064 A 
ATOM     73  C   UNL A   1      38.673  28.675  28.185  1.00  0.00     0.173 A 
ATOM     74  C   UNL A   1      38.263  28.304  30.512  1.00  0.00     0.173 A 
ATOM     75  F   UNL A   1      39.411  28.563  27.073  1.00  0.00    -0.203 F 
ATOM     76  C   UNL A   1      37.547  29.496  28.117  1.00  0.00     0.198 A 
ATOM     77  C   UNL A   1      37.141  29.135  30.445  1.00  0.00     0.198 A 
ATOM     78  F   UNL A   1      38.598  27.797  31.708  1.00  0.00    -0.203 F 
ATOM     79  F   UNL A   1      37.240  30.107  26.964  1.00  0.00    -0.200 F 
ATOM     80  C   UNL A   1      36.794  29.743  29.250  1.00  0.00     0.200 A 
ATOM     81  F   UNL A   1      36.437  29.399  31.554  1.00  0.00    -0.200 F 
ATOM     82  F   UNL A   1      35.765  30.601  29.201  1.00  0.00    -0.200 F 
ENDBRANCH  48  72
BRANCH  60  83
ATOM     83  C   UNL A   1      44.582  26.653  32.175  1.00  0.00     0.064 A 
ATOM     84  C   UNL A   1      44.415  25.356  31.670  1.00  0.00     0.173 A 
ATOM     85  C   UNL A   1      44.488  26.818  33.570  1.00  0.00     0.173 A 
ATOM     86  F   UNL A   1      44.445  25.142  30.346  1.00  0.00    -0.203 F 
ATOM     87  C   UNL A   1      44.169  24.276  32.515  1.00  0.00     0.198 A 
ATOM     88  C   UNL A   1      44.280  25.729  34.415  1.00  0.00     0.198 A 
ATOM     89  F   UNL A   1      44.540  28.036  34.125  1.00  0.00    -0.203 F 
ATOM     90  F   UNL A   1      43.961  23.059  31.994  1.00  0.00    -0.200 F 
ATOM     91  C   UNL A   1      44.113  24.461  33.886  1.00  0.00     0.200 A 
ATOM     92  F   UNL A   1      44.209  25.910  35.743  1.00  0.00    -0.200 F 
ATOM     93  F   UNL A   1      43.870  23.418  34.695  1.00  0.00    -0.200 F 
ENDBRANCH  60  83
ENDBRANCH  34  35
ENDBRANCH  27  29
ENDBRANCH  26  27
ENDBRANCH  25  26
ENDBRANCH  24  25
ENDBRANCH  23  24
ENDBRANCH   1  23
TORSDOF 18
ENDMDL
MODEL 2
REMARK VINA RESULT:     -11.6      1.534      2.547
REMARK SMILES COc1ccc(-n2c(C)nnc2SCC(=O)OCCOCCOC(=O)c2ccc(-c3c4nc(c(-c5c(F)c(F)c(F)c(F)c5F)c5ccc([nH]5)c(-c5c(F)c(F)c(F)c(F)c5F)c5nc(c(-c6c(F)c(F)c(F)c(F)c6F)c6ccc3[nH]6)C=C5)C=C4)cc2)cc1F
REMARK SMILES IDX 19 1 18 2 17 3 15 4 16 5 14 6 13 7 12 8 7 9 8 10 9 11 10 12
REMARK SMILES IDX 11 13 6 14 3 15 4 16 90 17 5 18 89 19 91 20 2 21 1 22 20 23
REMARK SMILES IDX 21 24 22 25 23 26 24 27 25 28 26 29 27 30 88 31 28 32 87 33
REMARK SMILES IDX 29 34 30 35 31 36 81 37 32 38 86 39 80 40 82 41 33 42 85 43
REMARK SMILES IDX 79 44 78 45 34 47 66 48 46 49 65 50 47 51 50 52 64 53 83 54
REMARK SMILES IDX 48 55 49 56 63 58 84 59 51 60 35 61 36 62 44 63 37 64 38 65
REMARK SMILES IDX 42 66 45 67 39 68 40 69 43 70 41 71 67 72 68 73 76 74 69 75
REMARK SMILES IDX 70 76 74 77 77 78 71 79 72 80 75 81 73 82 52 83 53 84 61 85
REMARK SMILES IDX 54 86 55 87 59 88 62 89 56 90 57 91 60 92 58 93
REMARK H PARENT 82 46 50 57
REMARK Flexibility Score: inf
ROOT
ATOM      1  C   UNL A   1      41.214  21.561  25.919  1.00  0.00     0.202 C 
ENDROOT
BRANCH   1   2
ATOM      2  C   UNL A   1      39.823  21.663  26.568  1.00  0.00     0.261 C 
BRANCH   2   3
ATOM      3  O   UNL A   1      38.849  22.288  25.710  1.00  0.00    -0.463 OA
BRANCH   3   4
ATOM      4  C   UNL A   1      37.752  21.525  25.408  1.00  0.00     0.316 C 
ATOM      5  O   UNL A   1      37.818  20.446  24.829  1.00  0.00    -0.251 OA
BRANCH   4   6
ATOM      6  C   UNL A   1      36.437  22.066  25.988  1.00  0.00     0.200 C 
BRANCH   6   7
ATOM      7  S   UNL A   1      36.036  23.707  25.394  1.00  0.00    -0.074 SA
BRANCH   7   8
ATOM      8  C   UNL A   1      34.339  24.063  25.295  1.00  0.00     0.196 A 
ATOM      9  N   UNL A   1      33.168  23.293  25.213  1.00  0.00    -0.274 N 
ATOM     10  C   UNL A   1      32.264  24.045  25.979  1.00  0.00     0.135 A 
ATOM     11  C   UNL A   1      31.115  23.511  26.762  1.00  0.00     0.090 C 
ATOM     12  N   UNL A   1      32.708  25.275  26.094  1.00  0.00    -0.134 NA
ATOM     13  N   UNL A   1      33.993  25.288  25.655  1.00  0.00    -0.123 NA
BRANCH   9  14
ATOM     14  C   UNL A   1      32.837  22.047  24.593  1.00  0.00     0.053 A 
ATOM     15  C   UNL A   1      32.454  19.569  23.243  1.00  0.00     0.154 A 
ATOM     16  C   UNL A   1      32.874  19.604  24.575  1.00  0.00     0.052 A 
ATOM     17  C   UNL A   1      32.171  20.777  22.628  1.00  0.00     0.167 A 
ATOM     18  C   UNL A   1      33.073  20.827  25.244  1.00  0.00     0.031 A 
ATOM     19  C   UNL A   1      32.336  21.978  23.309  1.00  0.00     0.070 A 
ATOM     20  F   UNL A   1      31.770  20.862  21.353  1.00  0.00    -0.203 F 
BRANCH  15  21
ATOM     21  O   UNL A   1      32.353  18.332  22.675  1.00  0.00    -0.494 OA
ATOM     22  C   UNL A   1      32.928  17.254  23.415  1.00  0.00     0.278 C 
ENDBRANCH  15  21
ENDBRANCH   9  14
ENDBRANCH   7   8
ENDBRANCH   6   7
ENDBRANCH   4   6
ENDBRANCH   3   4
ENDBRANCH   2   3
ENDBRANCH   1   2
BRANCH   1  23
ATOM     23  O   UNL A   1      42.157  20.659  26.509  1.00  0.00    -0.374 OA
BRANCH  23  24
ATOM     24  C   UNL A   1      42.527  19.503  25.773  1.00  0.00     0.202 C 
BRANCH  24  25
ATOM     25  C   UNL A   1      43.970  19.357  25.356  1.00  0.00     0.261 C 
BRANCH  25  26
ATOM     26  O   UNL A   1      44.306  20.385  24.446  1.00  0.00    -0.460 OA
BRANCH  26  27
ATOM     27  C   UNL A   1      45.507  20.944  24.684  1.00  0.00     0.338 C 
ATOM     28  O   UNL A   1      46.574  20.382  24.838  1.00  0.00    -0.246 OA
BRANCH  27  29
ATOM     29  C   UNL A   1      45.225  22.335  25.032  1.00  0.00     0.060 A 
ATOM     30  C   UNL A   1      45.725  22.735  26.264  1.00  0.00     0.016 A 
ATOM     31  C   UNL A   1      44.258  23.079  24.325  1.00  0.00     0.016 A 
ATOM     32  C   UNL A   1      45.117  23.798  26.875  1.00  0.00     0.010 A 
ATOM     33  C   UNL A   1      43.655  24.152  24.938  1.00  0.00     0.010 A 
ATOM     34  C   UNL A   1      44.059  24.464  26.226  1.00  0.00    -0.014 A 
BRANCH  34  35
ATOM     35  C   UNL A   1      43.585  25.657  26.883  1.00  0.00     0.031 A 
ATOM     36  C   UNL A   1      44.514  26.784  26.650  1.00  0.00     0.074 A 
ATOM     37  C   UNL A   1      42.486  25.746  27.645  1.00  0.00     0.049 A 
ATOM     38  N   UNL A   1      45.354  27.268  27.501  1.00  0.00    -0.248 NA
ATOM     39  C   UNL A   1      44.701  27.248  25.268  1.00  0.00     0.031 C 
ATOM     40  C   UNL A   1      41.361  24.827  27.789  1.00  0.00     0.029 A 
ATOM     41  N   UNL A   1      42.157  26.779  28.460  1.00  0.00    -0.354 N 
ATOM     42  C   UNL A   1      46.088  28.212  26.802  1.00  0.00     0.074 A 
ATOM     43  C   UNL A   1      45.752  28.055  25.410  1.00  0.00     0.031 C 
ATOM     44  C   UNL A   1      40.377  25.446  28.487  1.00  0.00     0.029 A 
ATOM     45  C   UNL A   1      40.868  26.731  28.958  1.00  0.00     0.049 A 
ATOM     46  H   UNL A   1      42.784  27.505  28.679  1.00  0.00     0.167 HD
ATOM     47  C   UNL A   1      46.747  29.197  27.463  1.00  0.00     0.037 A 
ATOM     48  C   UNL A   1      40.268  27.730  29.652  1.00  0.00     0.037 A 
ATOM     49  C   UNL A   1      47.001  28.834  28.833  1.00  0.00     0.049 A 
ATOM     50  C   UNL A   1      41.352  28.561  30.246  1.00  0.00     0.074 A 
ATOM     51  C   UNL A   1      47.746  27.842  29.443  1.00  0.00     0.029 A 
ATOM     52  N   UNL A   1      46.128  29.284  29.793  1.00  0.00    -0.354 N 
ATOM     53  N   UNL A   1      42.147  28.148  31.193  1.00  0.00    -0.248 NA
ATOM     54  C   UNL A   1      41.839  29.696  29.475  1.00  0.00     0.031 C 
ATOM     55  C   UNL A   1      46.971  27.430  30.568  1.00  0.00     0.029 A 
ATOM     56  C   UNL A   1      45.826  28.225  30.614  1.00  0.00     0.049 A 
ATOM     57  H   UNL A   1      45.780  30.201  29.876  1.00  0.00     0.167 HD
ATOM     58  C   UNL A   1      43.390  28.670  30.866  1.00  0.00     0.074 A 
ATOM     59  C   UNL A   1      43.122  29.685  29.850  1.00  0.00     0.031 C 
ATOM     60  C   UNL A   1      44.539  28.041  31.246  1.00  0.00     0.037 A 
BRANCH  47  61
ATOM     61  C   UNL A   1      46.796  30.607  26.950  1.00  0.00     0.064 A 
ATOM     62  C   UNL A   1      45.639  31.386  26.711  1.00  0.00     0.173 A 
ATOM     63  C   UNL A   1      48.012  31.310  26.968  1.00  0.00     0.173 A 
ATOM     64  F   UNL A   1      44.404  30.876  26.791  1.00  0.00    -0.203 F 
ATOM     65  C   UNL A   1      45.695  32.759  26.497  1.00  0.00     0.198 A 
ATOM     66  C   UNL A   1      48.057  32.698  26.811  1.00  0.00     0.198 A 
ATOM     67  F   UNL A   1      49.164  30.674  27.227  1.00  0.00    -0.203 F 
ATOM     68  F   UNL A   1      44.558  33.440  26.300  1.00  0.00    -0.200 F 
ATOM     69  C   UNL A   1      46.901  33.420  26.575  1.00  0.00     0.200 A 
ATOM     70  F   UNL A   1      49.223  33.343  26.952  1.00  0.00    -0.200 F 
ATOM     71  F   UNL A   1      46.937  34.755  26.478  1.00  0.00    -0.200 F 
ENDBRANCH  47  61
BRANCH  48  72
ATOM     72  C   UNL A   1      38.893  28.258  29.473  1.00  0.00     0.064 A 
ATOM     73  C   UNL A   1      38.475  28.846  28.263  1.00  0.00     0.173 A 
ATOM     74  C   UNL A   1      38.076  28.489  30.594  1.00  0.00     0.173 A 
ATOM     75  F   UNL A   1      39.210  28.733  27.150  1.00  0.00    -0.203 F 
ATOM     76  C   UNL A   1      37.341  29.656  28.193  1.00  0.00     0.198 A 
ATOM     77  C   UNL A   1      36.946  29.308  30.524  1.00  0.00     0.198 A 
ATOM     78  F   UNL A   1      38.419  27.993  31.793  1.00  0.00    -0.203 F 
ATOM     79  F   UNL A   1      37.024  30.256  27.037  1.00  0.00    -0.200 F 
ATOM     80  C   UNL A   1      36.589  29.905  29.327  1.00  0.00     0.200 A 
ATOM     81  F   UNL A   1      36.243  29.575  31.634  1.00  0.00    -0.200 F 
ATOM     82  F   UNL A   1      35.553  30.753  29.275  1.00  0.00    -0.200 F 
ENDBRANCH  48  72
BRANCH  60  83
ATOM     83  C   UNL A   1      44.421  26.920  32.243  1.00  0.00     0.064 A 
ATOM     84  C   UNL A   1      44.572  27.222  33.603  1.00  0.00     0.173 A 
ATOM     85  C   UNL A   1      44.291  25.562  31.896  1.00  0.00     0.173 A 
ATOM     86  F   UNL A   1      44.750  28.493  33.993  1.00  0.00    -0.203 F 
ATOM     87  C   UNL A   1      44.590  26.220  34.570  1.00  0.00     0.198 A 
ATOM     88  C   UNL A   1      44.270  24.564  32.870  1.00  0.00     0.198 A 
ATOM     89  F   UNL A   1      44.237  25.180  30.613  1.00  0.00    -0.203 F 
ATOM     90  F   UNL A   1      44.791  26.540  35.856  1.00  0.00    -0.200 F 
ATOM     91  C   UNL A   1      44.428  24.894  34.205  1.00  0.00     0.200 A 
ATOM     92  F   UNL A   1      44.130  23.278  32.515  1.00  0.00    -0.200 F 
ATOM     93  F   UNL A   1      44.452  23.932  35.139  1.00  0.00    -0.200 F 
ENDBRANCH  60  83
ENDBRANCH  34  35
ENDBRANCH  27  29
ENDBRANCH  26  27
ENDBRANCH  25  26
ENDBRANCH  24  25
ENDBRANCH  23  24
ENDBRANCH   1  23
TORSDOF 18
ENDMDL
MODEL 3
REMARK VINA RESULT:     -11.6      1.433      2.100
REMARK SMILES COc1ccc(-n2c(C)nnc2SCC(=O)OCCOCCOC(=O)c2ccc(-c3c4nc(c(-c5c(F)c(F)c(F)c(F)c5F)c5ccc([nH]5)c(-c5c(F)c(F)c(F)c(F)c5F)c5nc(c(-c6c(F)c(F)c(F)c(F)c6F)c6ccc3[nH]6)C=C5)C=C4)cc2)cc1F
REMARK SMILES IDX 19 1 18 2 17 3 15 4 16 5 14 6 13 7 12 8 7 9 8 10 9 11 10 12
REMARK SMILES IDX 11 13 6 14 3 15 4 16 90 17 5 18 89 19 91 20 2 21 1 22 20 23
REMARK SMILES IDX 21 24 22 25 23 26 24 27 25 28 26 29 27 30 88 31 28 32 87 33
REMARK SMILES IDX 29 34 30 35 31 36 81 37 32 38 86 39 80 40 82 41 33 42 85 43
REMARK SMILES IDX 79 44 78 45 34 47 66 48 46 49 65 50 47 51 50 52 64 53 83 54
REMARK SMILES IDX 48 55 49 56 63 58 84 59 51 60 35 61 36 62 44 63 37 64 38 65
REMARK SMILES IDX 42 66 45 67 39 68 40 69 43 70 41 71 67 72 68 73 76 74 69 75
REMARK SMILES IDX 70 76 74 77 77 78 71 79 72 80 75 81 73 82 52 83 53 84 61 85
REMARK SMILES IDX 54 86 55 87 59 88 62 89 56 90 57 91 60 92 58 93
REMARK H PARENT 82 46 50 57
REMARK Flexibility Score: inf
ROOT
ATOM      1  C   UNL A   1      41.198  21.487  26.198  1.00  0.00     0.202 C 
ENDROOT
BRANCH   1   2
ATOM      2  C   UNL A   1      39.696  21.400  26.517  1.00  0.00     0.261 C 
BRANCH   2   3
ATOM      3  O   UNL A   1      38.870  21.973  25.483  1.00  0.00    -0.463 OA
BRANCH   3   4
ATOM      4  C   UNL A   1      37.730  21.274  25.184  1.00  0.00     0.316 C 
ATOM      5  O   UNL A   1      37.735  20.145  24.706  1.00  0.00    -0.251 OA
BRANCH   4   6
ATOM      6  C   UNL A   1      36.437  21.969  25.637  1.00  0.00     0.200 C 
BRANCH   6   7
ATOM      7  S   UNL A   1      36.282  23.636  25.000  1.00  0.00    -0.074 SA
BRANCH   7   8
ATOM      8  C   UNL A   1      34.843  23.943  24.078  1.00  0.00     0.196 A 
ATOM      9  N   UNL A   1      33.917  24.997  24.007  1.00  0.00    -0.274 N 
ATOM     10  C   UNL A   1      33.599  25.020  22.641  1.00  0.00     0.135 A 
ATOM     11  C   UNL A   1      33.191  26.216  21.852  1.00  0.00     0.090 C 
ATOM     12  N   UNL A   1      33.930  23.873  22.096  1.00  0.00    -0.134 NA
ATOM     13  N   UNL A   1      34.691  23.198  22.996  1.00  0.00    -0.123 NA
BRANCH   9  14
ATOM     14  C   UNL A   1      33.375  25.912  24.964  1.00  0.00     0.053 A 
ATOM     15  C   UNL A   1      32.299  27.937  26.651  1.00  0.00     0.154 A 
ATOM     16  C   UNL A   1      31.462  27.045  25.976  1.00  0.00     0.052 A 
ATOM     17  C   UNL A   1      33.665  27.759  26.520  1.00  0.00     0.167 A 
ATOM     18  C   UNL A   1      31.989  26.047  25.134  1.00  0.00     0.031 A 
ATOM     19  C   UNL A   1      34.177  26.748  25.713  1.00  0.00     0.070 A 
ATOM     20  F   UNL A   1      34.559  28.561  27.114  1.00  0.00    -0.203 F 
BRANCH  15  21
ATOM     21  O   UNL A   1      31.679  28.903  27.392  1.00  0.00    -0.494 OA
ATOM     22  C   UNL A   1      31.802  30.240  26.906  1.00  0.00     0.278 C 
ENDBRANCH  15  21
ENDBRANCH   9  14
ENDBRANCH   7   8
ENDBRANCH   6   7
ENDBRANCH   4   6
ENDBRANCH   3   4
ENDBRANCH   2   3
ENDBRANCH   1   2
BRANCH   1  23
ATOM     23  O   UNL A   1      42.051  20.473  26.743  1.00  0.00    -0.374 OA
BRANCH  23  24
ATOM     24  C   UNL A   1      42.407  19.380  25.910  1.00  0.00     0.202 C 
BRANCH  24  25
ATOM     25  C   UNL A   1      43.840  19.273  25.449  1.00  0.00     0.261 C 
BRANCH  25  26
ATOM     26  O   UNL A   1      44.105  20.280  24.494  1.00  0.00    -0.460 OA
BRANCH  26  27
ATOM     27  C   UNL A   1      45.322  20.841  24.626  1.00  0.00     0.338 C 
ATOM     28  O   UNL A   1      46.398  20.280  24.695  1.00  0.00    -0.246 OA
BRANCH  27  29
ATOM     29  C   UNL A   1      45.069  22.235  24.983  1.00  0.00     0.060 A 
ATOM     30  C   UNL A   1      45.595  22.622  26.208  1.00  0.00     0.016 A 
ATOM     31  C   UNL A   1      44.104  22.998  24.294  1.00  0.00     0.016 A 
ATOM     32  C   UNL A   1      45.014  23.692  26.832  1.00  0.00     0.010 A 
ATOM     33  C   UNL A   1      43.528  24.079  24.919  1.00  0.00     0.010 A 
ATOM     34  C   UNL A   1      43.957  24.379  26.202  1.00  0.00    -0.014 A 
BRANCH  34  35
ATOM     35  C   UNL A   1      43.515  25.577  26.871  1.00  0.00     0.031 A 
ATOM     36  C   UNL A   1      44.466  26.686  26.639  1.00  0.00     0.074 A 
ATOM     37  C   UNL A   1      42.423  25.685  27.641  1.00  0.00     0.049 A 
ATOM     38  N   UNL A   1      45.322  27.145  27.487  1.00  0.00    -0.248 NA
ATOM     39  C   UNL A   1      44.654  27.155  25.259  1.00  0.00     0.031 C 
ATOM     40  C   UNL A   1      41.279  24.790  27.787  1.00  0.00     0.029 A 
ATOM     41  N   UNL A   1      42.122  26.719  28.465  1.00  0.00    -0.354 N 
ATOM     42  C   UNL A   1      46.072  28.078  26.790  1.00  0.00     0.074 A 
ATOM     43  C   UNL A   1      45.723  27.938  25.399  1.00  0.00     0.031 C 
ATOM     44  C   UNL A   1      40.313  25.425  28.496  1.00  0.00     0.029 A 
ATOM     45  C   UNL A   1      40.836  26.696  28.973  1.00  0.00     0.049 A 
ATOM     46  H   UNL A   1      42.767  27.430  28.685  1.00  0.00     0.167 HD
ATOM     47  C   UNL A   1      46.756  29.044  27.452  1.00  0.00     0.037 A 
ATOM     48  C   UNL A   1      40.262  27.703  29.678  1.00  0.00     0.037 A 
ATOM     49  C   UNL A   1      47.012  28.665  28.818  1.00  0.00     0.049 A 
ATOM     50  C   UNL A   1      41.369  28.505  30.269  1.00  0.00     0.074 A 
ATOM     51  C   UNL A   1      47.740  27.653  29.416  1.00  0.00     0.029 A 
ATOM     52  N   UNL A   1      46.155  29.127  29.787  1.00  0.00    -0.354 N 
ATOM     53  N   UNL A   1      42.161  28.068  31.208  1.00  0.00    -0.248 NA
ATOM     54  C   UNL A   1      41.875  29.635  29.502  1.00  0.00     0.031 C 
ATOM     55  C   UNL A   1      46.964  27.250  30.544  1.00  0.00     0.029 A 
ATOM     56  C   UNL A   1      45.837  28.070  30.603  1.00  0.00     0.049 A 
ATOM     57  H   UNL A   1      45.828  30.052  29.880  1.00  0.00     0.167 HD
ATOM     58  C   UNL A   1      43.413  28.566  30.875  1.00  0.00     0.074 A 
ATOM     59  C   UNL A   1      43.159  29.593  29.869  1.00  0.00     0.031 C 
ATOM     60  C   UNL A   1      44.551  27.910  31.244  1.00  0.00     0.037 A 
BRANCH  47  61
ATOM     61  C   UNL A   1      46.833  30.456  26.949  1.00  0.00     0.064 A 
ATOM     62  C   UNL A   1      45.691  31.254  26.703  1.00  0.00     0.173 A 
ATOM     63  C   UNL A   1      48.059  31.140  26.984  1.00  0.00     0.173 A 
ATOM     64  F   UNL A   1      44.447  30.763  26.767  1.00  0.00    -0.203 F 
ATOM     65  C   UNL A   1      45.770  32.627  26.498  1.00  0.00     0.198 A 
ATOM     66  C   UNL A   1      48.128  32.528  26.836  1.00  0.00     0.198 A 
ATOM     67  F   UNL A   1      49.199  30.484  27.251  1.00  0.00    -0.203 F 
ATOM     68  F   UNL A   1      44.645  33.327  26.294  1.00  0.00    -0.200 F 
ATOM     69  C   UNL A   1      46.985  33.269  26.593  1.00  0.00     0.200 A 
ATOM     70  F   UNL A   1      49.301  33.154  26.993  1.00  0.00    -0.200 F 
ATOM     71  F   UNL A   1      47.042  34.604  26.504  1.00  0.00    -0.200 F 
ENDBRANCH  47  61
BRANCH  48  72
ATOM     72  C   UNL A   1      38.898  28.262  29.512  1.00  0.00     0.064 A 
ATOM     73  C   UNL A   1      38.492  28.888  28.317  1.00  0.00     0.173 A 
ATOM     74  C   UNL A   1      38.085  28.479  30.639  1.00  0.00     0.173 A 
ATOM     75  F   UNL A   1      39.225  28.789  27.201  1.00  0.00    -0.203 F 
ATOM     76  C   UNL A   1      37.374  29.722  28.268  1.00  0.00     0.198 A 
ATOM     77  C   UNL A   1      36.971  29.322  30.590  1.00  0.00     0.198 A 
ATOM     78  F   UNL A   1      38.418  27.947  31.824  1.00  0.00    -0.203 F 
ATOM     79  F   UNL A   1      37.070  30.357  27.127  1.00  0.00    -0.200 F 
ATOM     80  C   UNL A   1      36.627  29.956  29.407  1.00  0.00     0.200 A 
ATOM     81  F   UNL A   1      36.273  29.574  31.705  1.00  0.00    -0.200 F 
ATOM     82  F   UNL A   1      35.607  30.825  29.377  1.00  0.00    -0.200 F 
ENDBRANCH  48  72
BRANCH  60  83
ATOM     83  C   UNL A   1      44.415  26.784  32.233  1.00  0.00     0.064 A 
ATOM     84  C   UNL A   1      44.633  27.063  33.590  1.00  0.00     0.173 A 
ATOM     85  C   UNL A   1      44.204  25.438  31.878  1.00  0.00     0.173 A 
ATOM     86  F   UNL A   1      44.889  28.320  33.984  1.00  0.00    -0.203 F 
ATOM     87  C   UNL A   1      44.638  26.050  34.545  1.00  0.00     0.198 A 
ATOM     88  C   UNL A   1      44.171  24.432  32.843  1.00  0.00     0.198 A 
ATOM     89  F   UNL A   1      44.083  25.074  30.595  1.00  0.00    -0.203 F 
ATOM     90  F   UNL A   1      44.904  26.346  35.825  1.00  0.00    -0.200 F 
ATOM     91  C   UNL A   1      44.396  24.738  34.174  1.00  0.00     0.200 A 
ATOM     92  F   UNL A   1      43.954  23.158  32.482  1.00  0.00    -0.200 F 
ATOM     93  F   UNL A   1      44.408  23.766  35.098  1.00  0.00    -0.200 F 
ENDBRANCH  60  83
ENDBRANCH  34  35
ENDBRANCH  27  29
ENDBRANCH  26  27
ENDBRANCH  25  26
ENDBRANCH  24  25
ENDBRANCH  23  24
ENDBRANCH   1  23
TORSDOF 18
ENDMDL
