MODEL 1
REMARK VINA RESULT:     -12.2      0.000      0.000
REMARK SMILES COC(=O)c1c(NC(=O)[C@@H]2C[C@@H]2C(=O)OCCOCCOC(=O)c2ccc(-c3c4nc(c(-c5c(F)c(F)c(F)c(F)c5F)c5ccc([nH]5)c(-c5c(F)c(F)c(F)c(F)c5F)c5nc(c(-c6c(F)c(F)c(F)c(F)c6F)c6ccc3[nH]6)C=C5)C=C4)cc2)sc2c1CC[N@@H+](Cc1ccccc1)C2
REMARK SMILES IDX 17 1 16 2 15 3 13 4 14 5 12 6 10 7 11 8 8 9 7 10 9 12 6 13
REMARK SMILES IDX 5 14 89 15 87 16 88 17 90 18 100 19 91 20 92 21 3 23 4 24
REMARK SMILES IDX 2 25 1 26 93 27 94 28 95 29 99 30 96 31 98 32 97 33 18 34
REMARK SMILES IDX 19 35 20 36 21 37 22 38 23 39 24 40 25 41 86 42 26 43 85 44
REMARK SMILES IDX 27 45 28 46 29 47 79 48 30 49 84 50 78 51 80 52 31 53 83 54
REMARK SMILES IDX 77 55 76 56 32 58 64 59 44 60 63 61 45 62 48 63 62 64 81 65
REMARK SMILES IDX 46 66 47 67 61 69 82 70 49 71 33 72 34 73 42 74 35 75 36 76
REMARK SMILES IDX 40 77 43 78 37 79 38 80 41 81 39 82 65 83 66 84 74 85 67 86
REMARK SMILES IDX 68 87 72 88 75 89 69 90 70 91 73 92 71 93 50 94 51 95 59 96
REMARK SMILES IDX 52 97 53 98 57 99 60 100 54 101 55 102 58 103 56 104
REMARK H PARENT 7 11 92 22 80 57 48 68
REMARK Flexibility Score: inf
ROOT
ATOM      1  C   UNL A   1      40.661  20.712  26.142  1.00  0.00     0.202 C 
ENDROOT
BRANCH   1   2
ATOM      2  C   UNL A   1      39.155  20.893  25.927  1.00  0.00     0.261 C 
BRANCH   2   3
ATOM      3  O   UNL A   1      38.655  22.235  26.079  1.00  0.00    -0.463 OA
BRANCH   3   4
ATOM      4  C   UNL A   1      37.505  22.454  25.382  1.00  0.00     0.309 C 
ATOM      5  O   UNL A   1      37.319  22.169  24.207  1.00  0.00    -0.252 OA
BRANCH   4   6
ATOM      6  C   UNL A   1      36.461  23.205  26.122  1.00  0.00     0.112 C 
ATOM      7  C   UNL A   1      34.950  23.168  26.058  1.00  0.00     0.094 C 
ATOM      8  C   UNL A   1      35.698  24.167  25.226  1.00  0.00     0.030 C 
BRANCH   7   9
ATOM      9  C   UNL A   1      34.156  22.099  25.448  1.00  0.00     0.229 C 
ATOM     10  N   UNL A   1      33.032  22.366  24.720  1.00  0.00    -0.317 N 
ATOM     11  H   UNL A   1      32.642  21.556  24.319  1.00  0.00     0.170 HD
ATOM     12  O   UNL A   1      34.562  20.938  25.504  1.00  0.00    -0.274 OA
BRANCH  10  13
ATOM     13  C   UNL A   1      32.314  23.501  24.416  1.00  0.00     0.110 A 
ATOM     14  C   UNL A   1      31.419  24.392  24.982  1.00  0.00     0.098 A 
ATOM     15  C   UNL A   1      31.046  25.425  24.031  1.00  0.00    -0.006 A 
ATOM     16  S   UNL A   1      32.695  23.925  22.789  1.00  0.00    -0.116 S 
ATOM     17  C   UNL A   1      31.715  25.297  22.834  1.00  0.00     0.065 A 
ATOM     18  C   UNL A   1      30.186  26.631  24.296  1.00  0.00     0.099 C 
ATOM     19  C   UNL A   1      31.678  26.310  21.729  1.00  0.00     0.310 C 
ATOM     20  C   UNL A   1      30.223  27.667  23.139  1.00  0.00     0.267 C 
ATOM     21  N   UNL A   1      31.395  27.659  22.246  1.00  0.00    -0.326 N 
ATOM     22  H   UNL A   1      31.120  28.222  21.440  1.00  0.00     0.348 HD
BRANCH  14  23
ATOM     23  C   UNL A   1      30.903  24.401  26.344  1.00  0.00     0.341 C 
ATOM     24  O   UNL A   1      31.546  24.777  27.297  1.00  0.00    -0.246 OA
BRANCH  23  25
ATOM     25  O   UNL A   1      29.649  23.858  26.401  1.00  0.00    -0.465 OA
ATOM     26  C   UNL A   1      29.469  22.747  27.285  1.00  0.00     0.282 C 
ENDBRANCH  23  25
ENDBRANCH  14  23
BRANCH  21  27
ATOM     27  C   UNL A   1      32.574  28.405  22.721  1.00  0.00     0.299 C 
BRANCH  27  28
ATOM     28  C   UNL A   1      32.824  28.469  24.214  1.00  0.00     0.006 A 
ATOM     29  C   UNL A   1      33.612  27.498  24.850  1.00  0.00     0.009 A 
ATOM     30  C   UNL A   1      32.310  29.520  24.986  1.00  0.00     0.009 A 
ATOM     31  C   UNL A   1      33.946  27.625  26.200  1.00  0.00     0.001 A 
ATOM     32  C   UNL A   1      32.663  29.662  26.329  1.00  0.00     0.001 A 
ATOM     33  C   UNL A   1      33.490  28.719  26.933  1.00  0.00     0.000 A 
ENDBRANCH  27  28
ENDBRANCH  21  27
ENDBRANCH  10  13
ENDBRANCH   7   9
ENDBRANCH   4   6
ENDBRANCH   3   4
ENDBRANCH   2   3
ENDBRANCH   1   2
BRANCH   1  34
ATOM     34  O   UNL A   1      41.267  19.465  25.824  1.00  0.00    -0.374 OA
BRANCH  34  35
ATOM     35  C   UNL A   1      42.498  19.114  26.445  1.00  0.00     0.202 C 
BRANCH  35  36
ATOM     36  C   UNL A   1      43.658  18.698  25.555  1.00  0.00     0.261 C 
BRANCH  36  37
ATOM     37  O   UNL A   1      44.708  19.652  25.489  1.00  0.00    -0.460 OA
BRANCH  37  38
ATOM     38  C   UNL A   1      44.596  20.473  24.418  1.00  0.00     0.338 C 
ATOM     39  O   UNL A   1      44.721  20.177  23.243  1.00  0.00    -0.246 OA
BRANCH  38  40
ATOM     40  C   UNL A   1      44.565  21.855  24.903  1.00  0.00     0.060 A 
ATOM     41  C   UNL A   1      45.322  22.129  26.043  1.00  0.00     0.016 A 
ATOM     42  C   UNL A   1      43.623  22.764  24.403  1.00  0.00     0.016 A 
ATOM     43  C   UNL A   1      45.033  23.263  26.767  1.00  0.00     0.010 A 
ATOM     44  C   UNL A   1      43.312  23.880  25.145  1.00  0.00     0.010 A 
ATOM     45  C   UNL A   1      43.993  24.093  26.338  1.00  0.00    -0.014 A 
BRANCH  45  46
ATOM     46  C   UNL A   1      43.790  25.329  27.062  1.00  0.00     0.031 A 
ATOM     47  C   UNL A   1      44.856  26.314  26.784  1.00  0.00     0.074 A 
ATOM     48  C   UNL A   1      42.700  25.577  27.809  1.00  0.00     0.049 A 
ATOM     49  N   UNL A   1      45.716  26.797  27.615  1.00  0.00    -0.248 NA
ATOM     50  C   UNL A   1      45.103  26.682  25.378  1.00  0.00     0.031 C 
ATOM     51  C   UNL A   1      41.469  24.786  27.853  1.00  0.00     0.029 A 
ATOM     52  N   UNL A   1      42.419  26.652  28.600  1.00  0.00    -0.354 N 
ATOM     53  C   UNL A   1      46.486  27.688  26.872  1.00  0.00     0.074 A 
ATOM     54  C   UNL A   1      46.205  27.422  25.492  1.00  0.00     0.031 C 
ATOM     55  C   UNL A   1      40.503  25.513  28.455  1.00  0.00     0.029 A 
ATOM     56  C   UNL A   1      41.079  26.760  28.937  1.00  0.00     0.049 A 
ATOM     57  H   UNL A   1      43.104  27.291  28.903  1.00  0.00     0.167 HD
ATOM     58  C   UNL A   1      47.020  28.781  27.479  1.00  0.00     0.037 A 
ATOM     59  C   UNL A   1      40.476  27.834  29.503  1.00  0.00     0.037 A 
ATOM     60  C   UNL A   1      47.069  28.584  28.908  1.00  0.00     0.049 A 
ATOM     61  C   UNL A   1      41.520  28.666  30.150  1.00  0.00     0.074 A 
ATOM     62  C   UNL A   1      47.851  27.887  29.801  1.00  0.00     0.029 A 
ATOM     63  N   UNL A   1      45.913  28.924  29.556  1.00  0.00    -0.354 N 
ATOM     64  N   UNL A   1      42.185  28.306  31.212  1.00  0.00    -0.248 NA
ATOM     65  C   UNL A   1      42.070  29.814  29.434  1.00  0.00     0.031 C 
ATOM     66  C   UNL A   1      47.065  27.723  30.982  1.00  0.00     0.029 A 
ATOM     67  C   UNL A   1      45.828  28.334  30.786  1.00  0.00     0.049 A 
ATOM     68  H   UNL A   1      45.226  29.522  29.182  1.00  0.00     0.167 HD
ATOM     69  C   UNL A   1      43.428  28.884  31.051  1.00  0.00     0.074 A 
ATOM     70  C   UNL A   1      43.240  29.937  30.064  1.00  0.00     0.031 C 
ATOM     71  C   UNL A   1      44.555  28.240  31.465  1.00  0.00     0.037 A 
BRANCH  58  72
ATOM     72  C   UNL A   1      46.947  30.189  26.900  1.00  0.00     0.064 A 
ATOM     73  C   UNL A   1      48.108  30.991  26.980  1.00  0.00     0.173 A 
ATOM     74  C   UNL A   1      45.756  30.892  26.613  1.00  0.00     0.173 A 
ATOM     75  F   UNL A   1      49.308  30.439  27.212  1.00  0.00    -0.203 F 
ATOM     76  C   UNL A   1      48.052  32.385  26.926  1.00  0.00     0.198 A 
ATOM     77  C   UNL A   1      45.711  32.283  26.522  1.00  0.00     0.198 A 
ATOM     78  F   UNL A   1      44.566  30.296  26.498  1.00  0.00    -0.203 F 
ATOM     79  F   UNL A   1      49.160  33.104  27.152  1.00  0.00    -0.200 F 
ATOM     80  C   UNL A   1      46.849  33.032  26.720  1.00  0.00     0.200 A 
ATOM     81  F   UNL A   1      44.532  32.890  26.325  1.00  0.00    -0.200 F 
ATOM     82  F   UNL A   1      46.777  34.368  26.749  1.00  0.00    -0.200 F 
ENDBRANCH  58  72
BRANCH  59  83
ATOM     83  C   UNL A   1      39.080  28.303  29.343  1.00  0.00     0.064 A 
ATOM     84  C   UNL A   1      38.247  28.477  30.460  1.00  0.00     0.173 A 
ATOM     85  C   UNL A   1      38.617  28.840  28.127  1.00  0.00     0.173 A 
ATOM     86  F   UNL A   1      38.630  28.031  31.666  1.00  0.00    -0.203 F 
ATOM     87  C   UNL A   1      37.038  29.174  30.373  1.00  0.00     0.198 A 
ATOM     88  C   UNL A   1      37.403  29.523  28.037  1.00  0.00     0.198 A 
ATOM     89  F   UNL A   1      39.372  28.800  27.019  1.00  0.00    -0.203 F 
ATOM     90  F   UNL A   1      36.306  29.381  31.476  1.00  0.00    -0.200 F 
ATOM     91  C   UNL A   1      36.622  29.704  29.163  1.00  0.00     0.200 A 
ATOM     92  F   UNL A   1      37.027  30.057  26.867  1.00  0.00    -0.200 F 
ATOM     93  F   UNL A   1      35.495  30.425  29.091  1.00  0.00    -0.200 F 
ENDBRANCH  59  83
BRANCH  71  94
ATOM     94  C   UNL A   1      44.414  27.258  32.581  1.00  0.00     0.064 A 
ATOM     95  C   UNL A   1      44.283  25.871  32.410  1.00  0.00     0.173 A 
ATOM     96  C   UNL A   1      44.468  27.751  33.893  1.00  0.00     0.173 A 
ATOM     97  F   UNL A   1      44.306  25.321  31.188  1.00  0.00    -0.203 F 
ATOM     98  C   UNL A   1      44.162  25.025  33.511  1.00  0.00     0.198 A 
ATOM     99  C   UNL A   1      44.389  26.900  34.988  1.00  0.00     0.198 A 
ATOM    100  F   UNL A   1      44.631  29.066  34.111  1.00  0.00    -0.203 F 
ATOM    101  F   UNL A   1      44.006  23.705  33.328  1.00  0.00    -0.200 F 
ATOM    102  C   UNL A   1      44.222  25.539  34.798  1.00  0.00     0.200 A 
ATOM    103  F   UNL A   1      44.492  27.398  36.228  1.00  0.00    -0.200 F 
ATOM    104  F   UNL A   1      44.136  24.721  35.855  1.00  0.00    -0.200 F 
ENDBRANCH  71  94
ENDBRANCH  45  46
ENDBRANCH  38  40
ENDBRANCH  37  38
ENDBRANCH  36  37
ENDBRANCH  35  36
ENDBRANCH  34  35
ENDBRANCH   1  34
TORSDOF 20
ENDMDL
MODEL 2
REMARK VINA RESULT:     -12.1      1.492      2.449
REMARK SMILES COC(=O)c1c(NC(=O)[C@@H]2C[C@@H]2C(=O)OCCOCCOC(=O)c2ccc(-c3c4nc(c(-c5c(F)c(F)c(F)c(F)c5F)c5ccc([nH]5)c(-c5c(F)c(F)c(F)c(F)c5F)c5nc(c(-c6c(F)c(F)c(F)c(F)c6F)c6ccc3[nH]6)C=C5)C=C4)cc2)sc2c1CC[N@@H+](Cc1ccccc1)C2
REMARK SMILES IDX 17 1 16 2 15 3 13 4 14 5 12 6 10 7 11 8 8 9 7 10 9 12 6 13
REMARK SMILES IDX 5 14 89 15 87 16 88 17 90 18 100 19 91 20 92 21 3 23 4 24
REMARK SMILES IDX 2 25 1 26 93 27 94 28 95 29 99 30 96 31 98 32 97 33 18 34
REMARK SMILES IDX 19 35 20 36 21 37 22 38 23 39 24 40 25 41 86 42 26 43 85 44
REMARK SMILES IDX 27 45 28 46 29 47 79 48 30 49 84 50 78 51 80 52 31 53 83 54
REMARK SMILES IDX 77 55 76 56 32 58 64 59 44 60 63 61 45 62 48 63 62 64 81 65
REMARK SMILES IDX 46 66 47 67 61 69 82 70 49 71 33 72 34 73 42 74 35 75 36 76
REMARK SMILES IDX 40 77 43 78 37 79 38 80 41 81 39 82 65 83 66 84 74 85 67 86
REMARK SMILES IDX 68 87 72 88 75 89 69 90 70 91 73 92 71 93 50 94 51 95 59 96
REMARK SMILES IDX 52 97 53 98 57 99 60 100 54 101 55 102 58 103 56 104
REMARK H PARENT 7 11 92 22 80 57 48 68
REMARK Flexibility Score: inf
ROOT
ATOM      1  C   UNL A   1      40.432  19.986  26.237  1.00  0.00     0.202 C 
ENDROOT
BRANCH   1   2
ATOM      2  C   UNL A   1      39.276  20.903  25.822  1.00  0.00     0.261 C 
BRANCH   2   3
ATOM      3  O   UNL A   1      38.203  20.273  25.097  1.00  0.00    -0.463 OA
BRANCH   3   4
ATOM      4  C   UNL A   1      37.053  21.003  25.114  1.00  0.00     0.309 C 
ATOM      5  O   UNL A   1      35.938  20.583  24.835  1.00  0.00    -0.252 OA
BRANCH   4   6
ATOM      6  C   UNL A   1      37.236  22.448  25.391  1.00  0.00     0.112 C 
ATOM      7  C   UNL A   1      36.272  23.524  25.841  1.00  0.00     0.094 C 
ATOM      8  C   UNL A   1      36.523  23.326  24.376  1.00  0.00     0.030 C 
BRANCH   7   9
ATOM      9  C   UNL A   1      34.955  23.282  26.435  1.00  0.00     0.229 C 
ATOM     10  N   UNL A   1      33.853  23.992  26.050  1.00  0.00    -0.317 N 
ATOM     11  H   UNL A   1      33.030  23.675  26.487  1.00  0.00     0.170 HD
ATOM     12  O   UNL A   1      34.811  22.353  27.228  1.00  0.00    -0.274 OA
BRANCH  10  13
ATOM     13  C   UNL A   1      33.622  25.045  25.194  1.00  0.00     0.110 A 
ATOM     14  C   UNL A   1      33.312  25.309  23.870  1.00  0.00     0.098 A 
ATOM     15  C   UNL A   1      33.207  26.740  23.640  1.00  0.00    -0.006 A 
ATOM     16  S   UNL A   1      33.759  26.493  26.119  1.00  0.00    -0.116 S 
ATOM     17  C   UNL A   1      33.380  27.469  24.795  1.00  0.00     0.065 A 
ATOM     18  C   UNL A   1      32.782  27.422  22.367  1.00  0.00     0.099 C 
ATOM     19  C   UNL A   1      33.149  28.945  24.910  1.00  0.00     0.310 C 
ATOM     20  C   UNL A   1      32.512  28.940  22.555  1.00  0.00     0.267 C 
ATOM     21  N   UNL A   1      32.177  29.417  23.909  1.00  0.00    -0.326 N 
ATOM     22  H   UNL A   1      32.279  30.431  23.867  1.00  0.00     0.348 HD
BRANCH  14  23
ATOM     23  C   UNL A   1      33.064  24.353  22.801  1.00  0.00     0.341 C 
ATOM     24  O   UNL A   1      33.510  24.474  21.683  1.00  0.00    -0.246 OA
BRANCH  23  25
ATOM     25  O   UNL A   1      32.207  23.368  23.208  1.00  0.00    -0.465 OA
ATOM     26  C   UNL A   1      30.822  23.716  23.297  1.00  0.00     0.282 C 
ENDBRANCH  23  25
ENDBRANCH  14  23
BRANCH  21  27
ATOM     27  C   UNL A   1      30.764  29.292  24.306  1.00  0.00     0.299 C 
BRANCH  27  28
ATOM     28  C   UNL A   1      29.726  30.041  23.496  1.00  0.00     0.006 A 
ATOM     29  C   UNL A   1      29.118  29.442  22.383  1.00  0.00     0.009 A 
ATOM     30  C   UNL A   1      29.320  31.332  23.863  1.00  0.00     0.009 A 
ATOM     31  C   UNL A   1      28.074  30.083  21.711  1.00  0.00     0.001 A 
ATOM     32  C   UNL A   1      28.259  31.962  23.209  1.00  0.00     0.001 A 
ATOM     33  C   UNL A   1      27.629  31.332  22.139  1.00  0.00     0.000 A 
ENDBRANCH  27  28
ENDBRANCH  21  27
ENDBRANCH  10  13
ENDBRANCH   7   9
ENDBRANCH   4   6
ENDBRANCH   3   4
ENDBRANCH   2   3
ENDBRANCH   1   2
BRANCH   1  34
ATOM     34  O   UNL A   1      41.646  20.012  25.495  1.00  0.00    -0.374 OA
BRANCH  34  35
ATOM     35  C   UNL A   1      42.723  19.178  25.900  1.00  0.00     0.202 C 
BRANCH  35  36
ATOM     36  C   UNL A   1      43.977  19.156  25.039  1.00  0.00     0.261 C 
BRANCH  36  37
ATOM     37  O   UNL A   1      44.087  20.258  24.150  1.00  0.00    -0.460 OA
BRANCH  37  38
ATOM     38  C   UNL A   1      45.133  21.064  24.451  1.00  0.00     0.338 C 
ATOM     39  O   UNL A   1      46.315  20.849  24.244  1.00  0.00    -0.246 OA
BRANCH  38  40
ATOM     40  C   UNL A   1      44.648  22.136  25.323  1.00  0.00     0.060 A 
ATOM     41  C   UNL A   1      43.738  23.030  24.758  1.00  0.00     0.016 A 
ATOM     42  C   UNL A   1      45.270  22.390  26.552  1.00  0.00     0.016 A 
ATOM     43  C   UNL A   1      43.555  24.253  25.362  1.00  0.00     0.010 A 
ATOM     44  C   UNL A   1      45.112  23.624  27.138  1.00  0.00     0.010 A 
ATOM     45  C   UNL A   1      44.288  24.555  26.514  1.00  0.00    -0.014 A 
BRANCH  45  46
ATOM     46  C   UNL A   1      43.991  25.803  27.181  1.00  0.00     0.031 A 
ATOM     47  C   UNL A   1      44.987  26.848  26.869  1.00  0.00     0.074 A 
ATOM     48  C   UNL A   1      42.878  26.004  27.909  1.00  0.00     0.049 A 
ATOM     49  N   UNL A   1      45.802  27.426  27.684  1.00  0.00    -0.248 NA
ATOM     50  C   UNL A   1      45.223  27.172  25.451  1.00  0.00     0.031 C 
ATOM     51  C   UNL A   1      41.706  25.130  27.978  1.00  0.00     0.029 A 
ATOM     52  N   UNL A   1      42.514  27.089  28.650  1.00  0.00    -0.354 N 
ATOM     53  C   UNL A   1      46.515  28.337  26.910  1.00  0.00     0.074 A 
ATOM     54  C   UNL A   1      46.268  27.993  25.540  1.00  0.00     0.031 C 
ATOM     55  C   UNL A   1      40.684  25.812  28.541  1.00  0.00     0.029 A 
ATOM     56  C   UNL A   1      41.166  27.116  28.973  1.00  0.00     0.049 A 
ATOM     57  H   UNL A   1      43.148  27.787  28.931  1.00  0.00     0.167 HD
ATOM     58  C   UNL A   1      46.964  29.489  27.473  1.00  0.00     0.037 A 
ATOM     59  C   UNL A   1      40.483  28.167  29.487  1.00  0.00     0.037 A 
ATOM     60  C   UNL A   1      47.012  29.358  28.909  1.00  0.00     0.049 A 
ATOM     61  C   UNL A   1      41.458  29.098  30.105  1.00  0.00     0.074 A 
ATOM     62  C   UNL A   1      47.831  28.758  29.837  1.00  0.00     0.029 A 
ATOM     63  N   UNL A   1      45.828  29.643  29.533  1.00  0.00    -0.354 N 
ATOM     64  N   UNL A   1      42.136  28.832  31.187  1.00  0.00    -0.248 NA
ATOM     65  C   UNL A   1      41.933  30.251  29.343  1.00  0.00     0.031 C 
ATOM     66  C   UNL A   1      47.047  28.589  31.018  1.00  0.00     0.029 A 
ATOM     67  C   UNL A   1      45.772  29.101  30.787  1.00  0.00     0.049 A 
ATOM     68  H   UNL A   1      45.104  30.174  29.128  1.00  0.00     0.167 HD
ATOM     69  C   UNL A   1      43.336  29.490  31.010  1.00  0.00     0.074 A 
ATOM     70  C   UNL A   1      43.084  30.484  29.977  1.00  0.00     0.031 C 
ATOM     71  C   UNL A   1      44.502  28.946  31.460  1.00  0.00     0.037 A 
BRANCH  58  72
ATOM     72  C   UNL A   1      46.798  30.863  26.833  1.00  0.00     0.064 A 
ATOM     73  C   UNL A   1      47.917  31.726  26.833  1.00  0.00     0.173 A 
ATOM     74  C   UNL A   1      45.563  31.490  26.557  1.00  0.00     0.173 A 
ATOM     75  F   UNL A   1      49.152  31.247  27.047  1.00  0.00    -0.203 F 
ATOM     76  C   UNL A   1      47.787  33.111  26.717  1.00  0.00     0.198 A 
ATOM     77  C   UNL A   1      45.442  32.872  26.404  1.00  0.00     0.198 A 
ATOM     78  F   UNL A   1      44.402  30.830  26.513  1.00  0.00    -0.203 F 
ATOM     79  F   UNL A   1      48.862  33.896  26.870  1.00  0.00    -0.200 F 
ATOM     80  C   UNL A   1      46.545  33.686  26.526  1.00  0.00     0.200 A 
ATOM     81  F   UNL A   1      44.226  33.408  26.222  1.00  0.00    -0.200 F 
ATOM     82  F   UNL A   1      46.404  35.016  26.496  1.00  0.00    -0.200 F 
ENDBRANCH  58  72
BRANCH  59  83
ATOM     83  C   UNL A   1      39.059  28.529  29.297  1.00  0.00     0.064 A 
ATOM     84  C   UNL A   1      38.194  28.651  30.396  1.00  0.00     0.173 A 
ATOM     85  C   UNL A   1      38.579  29.017  28.066  1.00  0.00     0.173 A 
ATOM     86  F   UNL A   1      38.587  28.248  31.613  1.00  0.00    -0.203 F 
ATOM     87  C   UNL A   1      36.938  29.255  30.279  1.00  0.00     0.198 A 
ATOM     88  C   UNL A   1      37.320  29.606  27.946  1.00  0.00     0.198 A 
ATOM     89  F   UNL A   1      39.356  29.022  26.972  1.00  0.00    -0.203 F 
ATOM     90  F   UNL A   1      36.172  29.418  31.366  1.00  0.00    -0.200 F 
ATOM     91  C   UNL A   1      36.507  29.740  29.056  1.00  0.00     0.200 A 
ATOM     92  F   UNL A   1      36.927  30.098  26.763  1.00  0.00    -0.200 F 
ATOM     93  F   UNL A   1      35.330  30.373  28.955  1.00  0.00    -0.200 F 
ENDBRANCH  59  83
BRANCH  71  94
ATOM     94  C   UNL A   1      44.419  28.005  32.617  1.00  0.00     0.064 A 
ATOM     95  C   UNL A   1      44.368  28.400  33.963  1.00  0.00     0.173 A 
ATOM     96  C   UNL A   1      44.332  26.633  32.336  1.00  0.00     0.173 A 
ATOM     97  F   UNL A   1      44.363  29.697  34.302  1.00  0.00    -0.203 F 
ATOM     98  C   UNL A   1      44.285  27.453  34.981  1.00  0.00     0.198 A 
ATOM     99  C   UNL A   1      44.208  25.695  33.353  1.00  0.00     0.198 A 
ATOM    100  F   UNL A   1      44.338  26.207  31.063  1.00  0.00    -0.203 F 
ATOM    101  F   UNL A   1      44.269  27.847  36.264  1.00  0.00    -0.200 F 
ATOM    102  C   UNL A   1      44.198  26.103  34.676  1.00  0.00     0.200 A 
ATOM    103  F   UNL A   1      44.080  24.396  33.048  1.00  0.00    -0.200 F 
ATOM    104  F   UNL A   1      44.087  25.196  35.655  1.00  0.00    -0.200 F 
ENDBRANCH  71  94
ENDBRANCH  45  46
ENDBRANCH  38  40
ENDBRANCH  37  38
ENDBRANCH  36  37
ENDBRANCH  35  36
ENDBRANCH  34  35
ENDBRANCH   1  34
TORSDOF 20
ENDMDL
MODEL 3
REMARK VINA RESULT:     -11.9      4.301      9.837
REMARK SMILES COC(=O)c1c(NC(=O)[C@@H]2C[C@@H]2C(=O)OCCOCCOC(=O)c2ccc(-c3c4nc(c(-c5c(F)c(F)c(F)c(F)c5F)c5ccc([nH]5)c(-c5c(F)c(F)c(F)c(F)c5F)c5nc(c(-c6c(F)c(F)c(F)c(F)c6F)c6ccc3[nH]6)C=C5)C=C4)cc2)sc2c1CC[N@@H+](Cc1ccccc1)C2
REMARK SMILES IDX 17 1 16 2 15 3 13 4 14 5 12 6 10 7 11 8 8 9 7 10 9 12 6 13
REMARK SMILES IDX 5 14 89 15 87 16 88 17 90 18 100 19 91 20 92 21 3 23 4 24
REMARK SMILES IDX 2 25 1 26 93 27 94 28 95 29 99 30 96 31 98 32 97 33 18 34
REMARK SMILES IDX 19 35 20 36 21 37 22 38 23 39 24 40 25 41 86 42 26 43 85 44
REMARK SMILES IDX 27 45 28 46 29 47 79 48 30 49 84 50 78 51 80 52 31 53 83 54
REMARK SMILES IDX 77 55 76 56 32 58 64 59 44 60 63 61 45 62 48 63 62 64 81 65
REMARK SMILES IDX 46 66 47 67 61 69 82 70 49 71 33 72 34 73 42 74 35 75 36 76
REMARK SMILES IDX 40 77 43 78 37 79 38 80 41 81 39 82 65 83 66 84 74 85 67 86
REMARK SMILES IDX 68 87 72 88 75 89 69 90 70 91 73 92 71 93 50 94 51 95 59 96
REMARK SMILES IDX 52 97 53 98 57 99 60 100 54 101 55 102 58 103 56 104
REMARK H PARENT 7 11 92 22 80 57 48 68
REMARK Flexibility Score: inf
ROOT
ATOM      1  C   UNL A   1      32.875  33.460  27.654  1.00  0.00     0.202 C 
ENDROOT
BRANCH   1   2
ATOM      2  C   UNL A   1      33.082  32.043  27.108  1.00  0.00     0.261 C 
BRANCH   2   3
ATOM      3  O   UNL A   1      33.709  31.108  28.006  1.00  0.00    -0.463 OA
BRANCH   3   4
ATOM      4  C   UNL A   1      34.157  29.987  27.375  1.00  0.00     0.309 C 
ATOM      5  O   UNL A   1      35.163  29.357  27.671  1.00  0.00    -0.252 OA
BRANCH   4   6
ATOM      6  C   UNL A   1      33.389  29.603  26.166  1.00  0.00     0.112 C 
ATOM      7  C   UNL A   1      32.284  28.593  25.945  1.00  0.00     0.094 C 
ATOM      8  C   UNL A   1      33.709  28.192  25.702  1.00  0.00     0.030 C 
BRANCH   7   9
ATOM      9  C   UNL A   1      31.481  27.976  27.003  1.00  0.00     0.229 C 
ATOM     10  N   UNL A   1      31.098  26.666  26.941  1.00  0.00    -0.317 N 
ATOM     11  H   UNL A   1      30.621  26.375  27.751  1.00  0.00     0.170 HD
ATOM     12  O   UNL A   1      31.227  28.617  28.022  1.00  0.00    -0.274 OA
BRANCH  10  13
ATOM     13  C   UNL A   1      31.221  25.657  26.013  1.00  0.00     0.110 A 
ATOM     14  C   UNL A   1      30.814  25.315  24.734  1.00  0.00     0.098 A 
ATOM     15  C   UNL A   1      31.351  24.021  24.350  1.00  0.00    -0.006 A 
ATOM     16  S   UNL A   1      32.235  24.447  26.705  1.00  0.00    -0.116 S 
ATOM     17  C   UNL A   1      32.172  23.488  25.318  1.00  0.00     0.065 A 
ATOM     18  C   UNL A   1      31.228  23.354  23.006  1.00  0.00     0.099 C 
ATOM     19  C   UNL A   1      33.011  22.259  25.138  1.00  0.00     0.310 C 
ATOM     20  C   UNL A   1      32.153  22.115  22.859  1.00  0.00     0.267 C 
ATOM     21  N   UNL A   1      33.346  22.040  23.721  1.00  0.00    -0.326 N 
ATOM     22  H   UNL A   1      33.668  21.075  23.649  1.00  0.00     0.348 HD
BRANCH  14  23
ATOM     23  C   UNL A   1      30.002  26.097  23.813  1.00  0.00     0.341 C 
ATOM     24  O   UNL A   1      28.805  26.227  23.926  1.00  0.00    -0.246 OA
BRANCH  23  25
ATOM     25  O   UNL A   1      30.756  26.584  22.781  1.00  0.00    -0.465 OA
ATOM     26  C   UNL A   1      30.786  28.006  22.620  1.00  0.00     0.282 C 
ENDBRANCH  23  25
ENDBRANCH  14  23
BRANCH  21  27
ATOM     27  C   UNL A   1      34.535  22.769  23.242  1.00  0.00     0.299 C 
BRANCH  27  28
ATOM     28  C   UNL A   1      35.768  22.781  24.123  1.00  0.00     0.006 A 
ATOM     29  C   UNL A   1      36.071  23.898  24.915  1.00  0.00     0.009 A 
ATOM     30  C   UNL A   1      36.610  21.662  24.198  1.00  0.00     0.009 A 
ATOM     31  C   UNL A   1      37.135  23.862  25.819  1.00  0.00     0.001 A 
ATOM     32  C   UNL A   1      37.657  21.615  25.119  1.00  0.00     0.001 A 
ATOM     33  C   UNL A   1      37.914  22.712  25.937  1.00  0.00     0.000 A 
ENDBRANCH  27  28
ENDBRANCH  21  27
ENDBRANCH  10  13
ENDBRANCH   7   9
ENDBRANCH   4   6
ENDBRANCH   3   4
ENDBRANCH   2   3
ENDBRANCH   1   2
BRANCH   1  34
ATOM     34  O   UNL A   1      33.546  33.856  28.843  1.00  0.00    -0.374 OA
BRANCH  34  35
ATOM     35  C   UNL A   1      33.728  35.241  29.107  1.00  0.00     0.202 C 
BRANCH  35  36
ATOM     36  C   UNL A   1      32.929  35.867  30.240  1.00  0.00     0.261 C 
BRANCH  36  37
ATOM     37  O   UNL A   1      32.658  34.980  31.316  1.00  0.00    -0.460 OA
BRANCH  37  38
ATOM     38  C   UNL A   1      33.291  35.340  32.457  1.00  0.00     0.338 C 
ATOM     39  O   UNL A   1      33.067  36.317  33.150  1.00  0.00    -0.246 OA
BRANCH  38  40
ATOM     40  C   UNL A   1      34.489  34.509  32.597  1.00  0.00     0.060 A 
ATOM     41  C   UNL A   1      35.704  35.187  32.705  1.00  0.00     0.016 A 
ATOM     42  C   UNL A   1      34.428  33.129  32.365  1.00  0.00     0.016 A 
ATOM     43  C   UNL A   1      36.866  34.499  32.440  1.00  0.00     0.010 A 
ATOM     44  C   UNL A   1      35.587  32.450  32.069  1.00  0.00     0.010 A 
ATOM     45  C   UNL A   1      36.787  33.153  32.070  1.00  0.00    -0.014 A 
BRANCH  45  46
ATOM     46  C   UNL A   1      38.032  32.436  31.906  1.00  0.00     0.031 A 
ATOM     47  C   UNL A   1      38.762  32.295  33.183  1.00  0.00     0.074 A 
ATOM     48  C   UNL A   1      38.414  31.876  30.745  1.00  0.00     0.049 A 
ATOM     49  N   UNL A   1      39.911  32.793  33.491  1.00  0.00    -0.248 NA
ATOM     50  C   UNL A   1      38.056  31.664  34.313  1.00  0.00     0.031 C 
ATOM     51  C   UNL A   1      37.593  31.694  29.547  1.00  0.00     0.029 A 
ATOM     52  N   UNL A   1      39.584  31.250  30.430  1.00  0.00    -0.354 N 
ATOM     53  C   UNL A   1      40.162  32.363  34.791  1.00  0.00     0.074 A 
ATOM     54  C   UNL A   1      38.922  31.862  35.306  1.00  0.00     0.031 C 
ATOM     55  C   UNL A   1      38.210  30.821  28.721  1.00  0.00     0.029 A 
ATOM     56  C   UNL A   1      39.512  30.482  29.278  1.00  0.00     0.049 A 
ATOM     57  H   UNL A   1      40.403  31.335  30.969  1.00  0.00     0.167 HD
ATOM     58  C   UNL A   1      41.444  32.153  35.192  1.00  0.00     0.037 A 
ATOM     59  C   UNL A   1      40.427  29.575  28.857  1.00  0.00     0.037 A 
ATOM     60  C   UNL A   1      42.360  32.853  34.325  1.00  0.00     0.049 A 
ATOM     61  C   UNL A   1      41.717  29.873  29.524  1.00  0.00     0.074 A 
ATOM     62  C   UNL A   1      42.783  34.151  34.147  1.00  0.00     0.029 A 
ATOM     63  N   UNL A   1      42.710  32.152  33.204  1.00  0.00    -0.354 N 
ATOM     64  N   UNL A   1      42.442  30.927  29.272  1.00  0.00    -0.248 NA
ATOM     65  C   UNL A   1      42.088  29.139  30.732  1.00  0.00     0.031 C 
ATOM     66  C   UNL A   1      43.303  34.227  32.819  1.00  0.00     0.029 A 
ATOM     67  C   UNL A   1      43.196  32.972  32.223  1.00  0.00     0.049 A 
ATOM     68  H   UNL A   1      42.624  31.175  33.113  1.00  0.00     0.167 HD
ATOM     69  C   UNL A   1      43.049  31.221  30.477  1.00  0.00     0.074 A 
ATOM     70  C   UNL A   1      42.953  30.003  31.266  1.00  0.00     0.031 C 
ATOM     71  C   UNL A   1      43.260  32.514  30.853  1.00  0.00     0.037 A 
BRANCH  58  72
ATOM     72  C   UNL A   1      41.900  30.908  35.945  1.00  0.00     0.064 A 
ATOM     73  C   UNL A   1      42.895  31.070  36.935  1.00  0.00     0.173 A 
ATOM     74  C   UNL A   1      41.691  29.577  35.522  1.00  0.00     0.173 A 
ATOM     75  F   UNL A   1      43.165  32.281  37.445  1.00  0.00    -0.203 F 
ATOM     76  C   UNL A   1      43.708  30.013  37.351  1.00  0.00     0.198 A 
ATOM     77  C   UNL A   1      42.481  28.517  35.968  1.00  0.00     0.198 A 
ATOM     78  F   UNL A   1      40.790  29.238  34.597  1.00  0.00    -0.203 F 
ATOM     79  F   UNL A   1      44.732  30.248  38.182  1.00  0.00    -0.200 F 
ATOM     80  C   UNL A   1      43.515  28.740  36.849  1.00  0.00     0.200 A 
ATOM     81  F   UNL A   1      42.278  27.291  35.466  1.00  0.00    -0.200 F 
ATOM     82  F   UNL A   1      44.341  27.741  37.181  1.00  0.00    -0.200 F 
ENDBRANCH  58  72
BRANCH  59  83
ATOM     83  C   UNL A   1      40.210  28.336  28.075  1.00  0.00     0.064 A 
ATOM     84  C   UNL A   1      40.877  28.127  26.857  1.00  0.00     0.173 A 
ATOM     85  C   UNL A   1      39.553  27.220  28.628  1.00  0.00     0.173 A 
ATOM     86  F   UNL A   1      41.562  29.126  26.281  1.00  0.00    -0.203 F 
ATOM     87  C   UNL A   1      40.912  26.871  26.245  1.00  0.00     0.198 A 
ATOM     88  C   UNL A   1      39.576  25.970  28.009  1.00  0.00     0.198 A 
ATOM     89  F   UNL A   1      38.955  27.291  29.826  1.00  0.00    -0.203 F 
ATOM     90  F   UNL A   1      41.619  26.695  25.120  1.00  0.00    -0.200 F 
ATOM     91  C   UNL A   1      40.269  25.791  26.826  1.00  0.00     0.200 A 
ATOM     92  F   UNL A   1      38.974  24.926  28.598  1.00  0.00    -0.200 F 
ATOM     93  F   UNL A   1      40.353  24.574  26.273  1.00  0.00    -0.200 F 
ENDBRANCH  59  83
BRANCH  71  94
ATOM     94  C   UNL A   1      43.399  33.531  29.768  1.00  0.00     0.064 A 
ATOM     95  C   UNL A   1      44.570  33.746  29.024  1.00  0.00     0.173 A 
ATOM     96  C   UNL A   1      42.266  34.287  29.434  1.00  0.00     0.173 A 
ATOM     97  F   UNL A   1      45.667  33.004  29.232  1.00  0.00    -0.203 F 
ATOM     98  C   UNL A   1      44.610  34.715  28.022  1.00  0.00     0.198 A 
ATOM     99  C   UNL A   1      42.298  35.222  28.407  1.00  0.00     0.198 A 
ATOM    100  F   UNL A   1      41.111  34.092  30.091  1.00  0.00    -0.203 F 
ATOM    101  F   UNL A   1      45.747  34.929  27.342  1.00  0.00    -0.200 F 
ATOM    102  C   UNL A   1      43.474  35.446  27.710  1.00  0.00     0.200 A 
ATOM    103  F   UNL A   1      41.185  35.894  28.083  1.00  0.00    -0.200 F 
ATOM    104  F   UNL A   1      43.506  36.355  26.727  1.00  0.00    -0.200 F 
ENDBRANCH  71  94
ENDBRANCH  45  46
ENDBRANCH  38  40
ENDBRANCH  37  38
ENDBRANCH  36  37
ENDBRANCH  35  36
ENDBRANCH  34  35
ENDBRANCH   1  34
TORSDOF 20
ENDMDL
