MODEL 1
REMARK VINA RESULT:     -13.0      0.000      0.000
REMARK SMILES O=C(OCCOCCOC(=O)c1ccc([C@@H]2CC(O)=Nc3c2ncn3-c2cccc(Cl)c2)cc1)c1ccc(-c2c3nc(c(-c4c(F)c(F)c(F)c(F)c4F)c4ccc([nH]4)c(-c4c(F)c(F)c(F)c(F)c4F)c4nc(c(-c5c(F)c(F)c(F)c(F)c5F)c5ccc2[nH]5)C=C4)C=C3)cc1
REMARK SMILES IDX 6 1 5 2 4 3 3 4 2 5 1 6 35 7 36 8 97 9 37 10 96 11 38 12
REMARK SMILES IDX 39 13 40 14 90 15 41 16 95 17 89 18 91 19 42 20 94 21 88 22
REMARK SMILES IDX 87 23 43 25 75 26 55 27 74 28 56 29 59 30 73 31 92 32 57 33
REMARK SMILES IDX 58 34 72 36 93 37 60 38 44 39 45 40 53 41 46 42 47 43 51 44
REMARK SMILES IDX 54 45 48 46 49 47 52 48 50 49 76 50 77 51 85 52 78 53 79 54
REMARK SMILES IDX 83 55 86 56 80 57 81 58 84 59 82 60 61 61 62 62 70 63 63 64
REMARK SMILES IDX 64 65 68 66 71 67 65 68 66 69 69 70 67 71 7 72 8 73 9 74
REMARK SMILES IDX 10 75 11 76 12 77 13 78 34 79 14 80 33 81 15 82 16 83 17 84
REMARK SMILES IDX 22 85 18 86 21 87 23 88 20 89 25 90 24 91 19 92 26 94 27 95
REMARK SMILES IDX 32 96 28 97 30 98 29 99 31 100
REMARK H PARENT 91 24 59 35 19 93
REMARK Flexibility Score: inf
ROOT
ATOM      1  O   UNL A   1      34.217  35.058  28.751  1.00  0.00    -0.374 OA
ENDROOT
BRANCH   1   2
ATOM      2  C   UNL A   1      33.330  36.132  29.034  1.00  0.00     0.202 C 
BRANCH   2   3
ATOM      3  C   UNL A   1      32.689  36.217  30.417  1.00  0.00     0.261 C 
BRANCH   3   4
ATOM      4  O   UNL A   1      33.613  36.033  31.502  1.00  0.00    -0.460 OA
BRANCH   4   5
ATOM      5  C   UNL A   1      33.604  34.994  32.364  1.00  0.00     0.338 C 
ATOM      6  O   UNL A   1      32.542  34.513  32.749  1.00  0.00    -0.246 OA
BRANCH   5   7
ATOM      7  C   UNL A   1      34.867  34.253  32.608  1.00  0.00     0.060 A 
ATOM      8  C   UNL A   1      36.098  34.835  32.902  1.00  0.00     0.016 A 
ATOM      9  C   UNL A   1      34.799  32.870  32.374  1.00  0.00     0.016 A 
ATOM     10  C   UNL A   1      37.259  34.137  32.650  1.00  0.00     0.010 A 
ATOM     11  C   UNL A   1      35.956  32.142  32.195  1.00  0.00     0.010 A 
ATOM     12  C   UNL A   1      37.171  32.813  32.225  1.00  0.00    -0.014 A 
BRANCH  12  13
ATOM     13  C   UNL A   1      38.412  32.101  31.998  1.00  0.00     0.031 A 
ATOM     14  C   UNL A   1      39.186  31.912  33.249  1.00  0.00     0.074 A 
ATOM     15  C   UNL A   1      38.736  31.603  30.789  1.00  0.00     0.049 A 
ATOM     16  N   UNL A   1      40.345  32.401  33.538  1.00  0.00    -0.248 NA
ATOM     17  C   UNL A   1      38.501  31.280  34.392  1.00  0.00     0.031 C 
ATOM     18  C   UNL A   1      37.909  31.573  29.580  1.00  0.00     0.029 A 
ATOM     19  N   UNL A   1      39.851  30.921  30.408  1.00  0.00    -0.354 N 
ATOM     20  C   UNL A   1      40.635  31.938  34.818  1.00  0.00     0.074 A 
ATOM     21  C   UNL A   1      39.399  31.447  35.363  1.00  0.00     0.031 C 
ATOM     22  C   UNL A   1      38.443  30.704  28.693  1.00  0.00     0.029 A 
ATOM     23  C   UNL A   1      39.710  30.222  29.211  1.00  0.00     0.049 A 
ATOM     24  H   UNL A   1      40.683  30.921  30.933  1.00  0.00     0.167 HD
ATOM     25  C   UNL A   1      41.925  31.706  35.177  1.00  0.00     0.037 A 
ATOM     26  C   UNL A   1      40.548  29.259  28.748  1.00  0.00     0.037 A 
ATOM     27  C   UNL A   1      42.826  32.477  34.352  1.00  0.00     0.049 A 
ATOM     28  C   UNL A   1      41.841  29.422  29.462  1.00  0.00     0.074 A 
ATOM     29  C   UNL A   1      42.999  33.824  34.097  1.00  0.00     0.029 A 
ATOM     30  N   UNL A   1      43.473  31.820  33.335  1.00  0.00    -0.354 N 
ATOM     31  N   UNL A   1      42.636  30.442  29.287  1.00  0.00    -0.248 NA
ATOM     32  C   UNL A   1      42.008  28.707  30.720  1.00  0.00     0.031 C 
ATOM     33  C   UNL A   1      43.321  33.902  32.709  1.00  0.00     0.029 A 
ATOM     34  C   UNL A   1      43.411  32.602  32.213  1.00  0.00     0.049 A 
ATOM     35  H   UNL A   1      43.908  30.939  33.401  1.00  0.00     0.167 HD
ATOM     36  C   UNL A   1      43.065  30.772  30.564  1.00  0.00     0.074 A 
ATOM     37  C   UNL A   1      42.704  29.625  31.397  1.00  0.00     0.031 C 
ATOM     38  C   UNL A   1      43.391  32.060  30.877  1.00  0.00     0.037 A 
BRANCH  25  39
ATOM     39  C   UNL A   1      42.366  30.447  35.898  1.00  0.00     0.064 A 
ATOM     40  C   UNL A   1      43.350  30.562  36.901  1.00  0.00     0.173 A 
ATOM     41  C   UNL A   1      42.133  29.131  35.434  1.00  0.00     0.173 A 
ATOM     42  F   UNL A   1      43.658  31.760  37.421  1.00  0.00    -0.203 F 
ATOM     43  C   UNL A   1      44.122  29.471  37.309  1.00  0.00     0.198 A 
ATOM     44  C   UNL A   1      42.873  28.038  35.878  1.00  0.00     0.198 A 
ATOM     45  F   UNL A   1      41.265  28.848  34.458  1.00  0.00    -0.203 F 
ATOM     46  F   UNL A   1      45.146  29.661  38.150  1.00  0.00    -0.200 F 
ATOM     47  C   UNL A   1      43.893  28.213  36.785  1.00  0.00     0.200 A 
ATOM     48  F   UNL A   1      42.642  26.830  35.345  1.00  0.00    -0.200 F 
ATOM     49  F   UNL A   1      44.680  27.182  37.115  1.00  0.00    -0.200 F 
ENDBRANCH  25  39
BRANCH  26  50
ATOM     50  C   UNL A   1      40.208  28.012  28.016  1.00  0.00     0.064 A 
ATOM     51  C   UNL A   1      40.825  27.700  26.792  1.00  0.00     0.173 A 
ATOM     52  C   UNL A   1      39.494  26.968  28.635  1.00  0.00     0.173 A 
ATOM     53  F   UNL A   1      41.567  28.619  26.158  1.00  0.00    -0.203 F 
ATOM     54  C   UNL A   1      40.755  26.416  26.238  1.00  0.00     0.198 A 
ATOM     55  C   UNL A   1      39.418  25.689  28.079  1.00  0.00     0.198 A 
ATOM     56  F   UNL A   1      38.936  27.134  29.843  1.00  0.00    -0.203 F 
ATOM     57  F   UNL A   1      41.413  26.140  25.102  1.00  0.00    -0.200 F 
ATOM     58  C   UNL A   1      40.060  25.409  26.887  1.00  0.00     0.200 A 
ATOM     59  F   UNL A   1      38.776  24.715  28.737  1.00  0.00    -0.200 F 
ATOM     60  F   UNL A   1      40.045  24.164  26.391  1.00  0.00    -0.200 F 
ENDBRANCH  26  50
BRANCH  38  61
ATOM     61  C   UNL A   1      43.549  33.035  29.745  1.00  0.00     0.064 A 
ATOM     62  C   UNL A   1      42.533  33.895  29.288  1.00  0.00     0.173 A 
ATOM     63  C   UNL A   1      44.824  33.193  29.189  1.00  0.00     0.173 A 
ATOM     64  F   UNL A   1      41.313  33.878  29.840  1.00  0.00    -0.203 F 
ATOM     65  C   UNL A   1      42.778  34.832  28.284  1.00  0.00     0.198 A 
ATOM     66  C   UNL A   1      45.077  34.154  28.216  1.00  0.00     0.198 A 
ATOM     67  F   UNL A   1      45.844  32.437  29.626  1.00  0.00    -0.203 F 
ATOM     68  F   UNL A   1      41.791  35.630  27.852  1.00  0.00    -0.200 F 
ATOM     69  C   UNL A   1      44.052  34.964  27.755  1.00  0.00     0.200 A 
ATOM     70  F   UNL A   1      46.321  34.314  27.746  1.00  0.00    -0.200 F 
ATOM     71  F   UNL A   1      44.299  35.891  26.819  1.00  0.00    -0.200 F 
ENDBRANCH  38  61
ENDBRANCH  12  13
ENDBRANCH   5   7
ENDBRANCH   4   5
ENDBRANCH   3   4
ENDBRANCH   2   3
ENDBRANCH   1   2
BRANCH   1  72
ATOM     72  C   UNL A   1      33.710  33.720  28.870  1.00  0.00     0.202 C 
BRANCH  72  73
ATOM     73  C   UNL A   1      34.430  32.532  28.205  1.00  0.00     0.261 C 
BRANCH  73  74
ATOM     74  O   UNL A   1      33.557  31.669  27.456  1.00  0.00    -0.460 OA
BRANCH  74  75
ATOM     75  C   UNL A   1      34.073  30.439  27.204  1.00  0.00     0.338 C 
ATOM     76  O   UNL A   1      35.157  30.016  27.551  1.00  0.00    -0.246 OA
BRANCH  75  77
ATOM     77  C   UNL A   1      33.026  29.554  26.654  1.00  0.00     0.060 A 
ATOM     78  C   UNL A   1      32.640  28.467  27.447  1.00  0.00     0.016 A 
ATOM     79  C   UNL A   1      32.501  29.718  25.374  1.00  0.00     0.016 A 
ATOM     80  C   UNL A   1      31.793  27.496  26.934  1.00  0.00     0.005 A 
ATOM     81  C   UNL A   1      31.684  28.715  24.841  1.00  0.00     0.005 A 
ATOM     82  C   UNL A   1      31.374  27.566  25.597  1.00  0.00    -0.038 A 
BRANCH  82  83
ATOM     83  C   UNL A   1      30.864  26.281  24.973  1.00  0.00     0.081 C 
ATOM     84  C   UNL A   1      29.878  25.596  25.950  1.00  0.00     0.111 C 
ATOM     85  C   UNL A   1      31.991  25.401  24.604  1.00  0.00     0.093 A 
ATOM     86  C   UNL A   1      30.245  24.181  26.350  1.00  0.00     0.188 C 
ATOM     87  C   UNL A   1      32.015  24.086  25.009  1.00  0.00     0.164 A 
ATOM     88  N   UNL A   1      33.044  25.697  23.784  1.00  0.00    -0.238 NA
ATOM     89  N   UNL A   1      31.204  23.450  25.886  1.00  0.00    -0.198 NA
ATOM     90  N   UNL A   1      33.115  23.534  24.389  1.00  0.00    -0.283 N 
ATOM     91  C   UNL A   1      33.728  24.570  23.713  1.00  0.00     0.206 A 
BRANCH  86  92
ATOM     92  O   UNL A   1      29.440  23.656  27.294  1.00  0.00    -0.496 OA
ATOM     93  H   UNL A   1      29.727  22.923  27.801  1.00  0.00     0.294 HD
ENDBRANCH  86  92
BRANCH  90  94
ATOM     94  C   UNL A   1      33.513  22.181  24.427  1.00  0.00     0.050 A 
ATOM     95  C   UNL A   1      34.669  21.806  25.117  1.00  0.00     0.027 A 
ATOM     96  C   UNL A   1      32.717  21.216  23.793  1.00  0.00     0.047 A 
ATOM     97  C   UNL A   1      34.993  20.451  25.218  1.00  0.00     0.004 A 
ATOM     98  C   UNL A   1      33.079  19.875  23.860  1.00  0.00     0.043 A 
ATOM     99  C   UNL A   1      34.203  19.487  24.585  1.00  0.00     0.020 A 
ATOM    100  Cl  UNL A   1      32.138  18.694  23.036  1.00  0.00    -0.084 Cl
ENDBRANCH  90  94
ENDBRANCH  82  83
ENDBRANCH  75  77
ENDBRANCH  74  75
ENDBRANCH  73  74
ENDBRANCH  72  73
ENDBRANCH   1  72
TORSDOF 17
ENDMDL
MODEL 2
REMARK VINA RESULT:     -12.9      4.512      9.971
REMARK SMILES O=C(OCCOCCOC(=O)c1ccc([C@@H]2CC(O)=Nc3c2ncn3-c2cccc(Cl)c2)cc1)c1ccc(-c2c3nc(c(-c4c(F)c(F)c(F)c(F)c4F)c4ccc([nH]4)c(-c4c(F)c(F)c(F)c(F)c4F)c4nc(c(-c5c(F)c(F)c(F)c(F)c5F)c5ccc2[nH]5)C=C4)C=C3)cc1
REMARK SMILES IDX 6 1 5 2 4 3 3 4 2 5 1 6 35 7 36 8 97 9 37 10 96 11 38 12
REMARK SMILES IDX 39 13 40 14 90 15 41 16 95 17 89 18 91 19 42 20 94 21 88 22
REMARK SMILES IDX 87 23 43 25 75 26 55 27 74 28 56 29 59 30 73 31 92 32 57 33
REMARK SMILES IDX 58 34 72 36 93 37 60 38 44 39 45 40 53 41 46 42 47 43 51 44
REMARK SMILES IDX 54 45 48 46 49 47 52 48 50 49 76 50 77 51 85 52 78 53 79 54
REMARK SMILES IDX 83 55 86 56 80 57 81 58 84 59 82 60 61 61 62 62 70 63 63 64
REMARK SMILES IDX 64 65 68 66 71 67 65 68 66 69 69 70 67 71 7 72 8 73 9 74
REMARK SMILES IDX 10 75 11 76 12 77 13 78 34 79 14 80 33 81 15 82 16 83 17 84
REMARK SMILES IDX 22 85 18 86 21 87 23 88 20 89 25 90 24 91 19 92 26 94 27 95
REMARK SMILES IDX 32 96 28 97 30 98 29 99 31 100
REMARK H PARENT 91 24 59 35 19 93
REMARK Flexibility Score: inf
ROOT
ATOM      1  O   UNL A   1      40.881  19.256  25.791  1.00  0.00    -0.374 OA
ENDROOT
BRANCH   1   2
ATOM      2  C   UNL A   1      42.189  19.700  26.125  1.00  0.00     0.202 C 
BRANCH   2   3
ATOM      3  C   UNL A   1      43.392  18.963  25.540  1.00  0.00     0.261 C 
BRANCH   3   4
ATOM      4  O   UNL A   1      44.570  19.774  25.413  1.00  0.00    -0.460 OA
BRANCH   4   5
ATOM      5  C   UNL A   1      44.729  20.781  24.528  1.00  0.00     0.338 C 
ATOM      6  O   UNL A   1      44.533  20.595  23.329  1.00  0.00    -0.246 OA
BRANCH   5   7
ATOM      7  C   UNL A   1      44.850  22.171  25.035  1.00  0.00     0.060 A 
ATOM      8  C   UNL A   1      45.713  22.586  26.047  1.00  0.00     0.016 A 
ATOM      9  C   UNL A   1      43.903  23.074  24.527  1.00  0.00     0.016 A 
ATOM     10  C   UNL A   1      45.432  23.736  26.753  1.00  0.00     0.010 A 
ATOM     11  C   UNL A   1      43.664  24.265  25.180  1.00  0.00     0.010 A 
ATOM     12  C   UNL A   1      44.358  24.527  26.353  1.00  0.00    -0.014 A 
BRANCH  12  13
ATOM     13  C   UNL A   1      44.110  25.743  27.100  1.00  0.00     0.031 A 
ATOM     14  C   UNL A   1      45.108  26.798  26.799  1.00  0.00     0.074 A 
ATOM     15  C   UNL A   1      43.029  25.885  27.891  1.00  0.00     0.049 A 
ATOM     16  N   UNL A   1      45.969  27.320  27.609  1.00  0.00    -0.248 NA
ATOM     17  C   UNL A   1      45.316  27.166  25.387  1.00  0.00     0.031 C 
ATOM     18  C   UNL A   1      41.904  24.958  28.049  1.00  0.00     0.029 A 
ATOM     19  N   UNL A   1      42.652  26.947  28.655  1.00  0.00    -0.354 N 
ATOM     20  C   UNL A   1      46.670  28.254  26.852  1.00  0.00     0.074 A 
ATOM     21  C   UNL A   1      46.379  27.966  25.475  1.00  0.00     0.031 C 
ATOM     22  C   UNL A   1      40.878  25.598  28.652  1.00  0.00     0.029 A 
ATOM     23  C   UNL A   1      41.314  26.926  29.041  1.00  0.00     0.049 A 
ATOM     24  H   UNL A   1      43.273  27.667  28.912  1.00  0.00     0.167 HD
ATOM     25  C   UNL A   1      47.160  29.374  27.448  1.00  0.00     0.037 A 
ATOM     26  C   UNL A   1      40.619  27.971  29.561  1.00  0.00     0.037 A 
ATOM     27  C   UNL A   1      47.331  29.160  28.866  1.00  0.00     0.049 A 
ATOM     28  C   UNL A   1      41.614  28.944  30.082  1.00  0.00     0.074 A 
ATOM     29  C   UNL A   1      48.059  28.272  29.634  1.00  0.00     0.029 A 
ATOM     30  N   UNL A   1      46.381  29.685  29.706  1.00  0.00    -0.354 N 
ATOM     31  N   UNL A   1      42.375  28.711  31.116  1.00  0.00    -0.248 NA
ATOM     32  C   UNL A   1      42.103  29.962  29.163  1.00  0.00     0.031 C 
ATOM     33  C   UNL A   1      47.218  27.961  30.743  1.00  0.00     0.029 A 
ATOM     34  C   UNL A   1      46.063  28.735  30.639  1.00  0.00     0.049 A 
ATOM     35  H   UNL A   1      45.995  30.589  29.647  1.00  0.00     0.167 HD
ATOM     36  C   UNL A   1      43.621  29.197  30.748  1.00  0.00     0.074 A 
ATOM     37  C   UNL A   1      43.375  30.020  29.565  1.00  0.00     0.031 C 
ATOM     38  C   UNL A   1      44.761  28.640  31.252  1.00  0.00     0.037 A 
BRANCH  25  39
ATOM     39  C   UNL A   1      47.001  30.759  26.851  1.00  0.00     0.064 A 
ATOM     40  C   UNL A   1      48.103  31.637  26.900  1.00  0.00     0.173 A 
ATOM     41  C   UNL A   1      45.760  31.370  26.557  1.00  0.00     0.173 A 
ATOM     42  F   UNL A   1      49.333  31.175  27.169  1.00  0.00    -0.203 F 
ATOM     43  C   UNL A   1      47.951  33.022  26.791  1.00  0.00     0.198 A 
ATOM     44  C   UNL A   1      45.620  32.747  26.401  1.00  0.00     0.198 A 
ATOM     45  F   UNL A   1      44.609  30.693  26.514  1.00  0.00    -0.203 F 
ATOM     46  F   UNL A   1      49.005  33.823  26.997  1.00  0.00    -0.200 F 
ATOM     47  C   UNL A   1      46.707  33.577  26.557  1.00  0.00     0.200 A 
ATOM     48  F   UNL A   1      44.401  33.263  26.189  1.00  0.00    -0.200 F 
ATOM     49  F   UNL A   1      46.545  34.905  26.528  1.00  0.00    -0.200 F 
ENDBRANCH  25  39
BRANCH  26  50
ATOM     50  C   UNL A   1      39.203  28.349  29.321  1.00  0.00     0.064 A 
ATOM     51  C   UNL A   1      38.298  28.478  30.389  1.00  0.00     0.173 A 
ATOM     52  C   UNL A   1      38.781  28.872  28.083  1.00  0.00     0.173 A 
ATOM     53  F   UNL A   1      38.636  28.053  31.615  1.00  0.00    -0.203 F 
ATOM     54  C   UNL A   1      37.061  29.114  30.233  1.00  0.00     0.198 A 
ATOM     55  C   UNL A   1      37.544  29.500  27.926  1.00  0.00     0.198 A 
ATOM     56  F   UNL A   1      39.599  28.874  27.020  1.00  0.00    -0.203 F 
ATOM     57  F   UNL A   1      36.253  29.277  31.291  1.00  0.00    -0.200 F 
ATOM     58  C   UNL A   1      36.689  29.634  29.004  1.00  0.00     0.200 A 
ATOM     59  F   UNL A   1      37.215  30.033  26.741  1.00  0.00    -0.200 F 
ATOM     60  F   UNL A   1      35.534  30.300  28.868  1.00  0.00    -0.200 F 
ENDBRANCH  26  50
BRANCH  38  61
ATOM     61  C   UNL A   1      44.624  27.699  32.415  1.00  0.00     0.064 A 
ATOM     62  C   UNL A   1      44.372  26.320  32.297  1.00  0.00     0.173 A 
ATOM     63  C   UNL A   1      44.890  28.198  33.696  1.00  0.00     0.173 A 
ATOM     64  F   UNL A   1      44.210  25.746  31.098  1.00  0.00    -0.203 F 
ATOM     65  C   UNL A   1      44.339  25.494  33.421  1.00  0.00     0.198 A 
ATOM     66  C   UNL A   1      44.895  27.367  34.811  1.00  0.00     0.198 A 
ATOM     67  F   UNL A   1      45.190  29.497  33.861  1.00  0.00    -0.203 F 
ATOM     68  F   UNL A   1      44.081  24.185  33.287  1.00  0.00    -0.200 F 
ATOM     69  C   UNL A   1      44.608  26.018  34.675  1.00  0.00     0.200 A 
ATOM     70  F   UNL A   1      45.207  27.868  36.013  1.00  0.00    -0.200 F 
ATOM     71  F   UNL A   1      44.616  25.219  35.751  1.00  0.00    -0.200 F 
ENDBRANCH  38  61
ENDBRANCH  12  13
ENDBRANCH   5   7
ENDBRANCH   4   5
ENDBRANCH   3   4
ENDBRANCH   2   3
ENDBRANCH   1   2
BRANCH   1  72
ATOM     72  C   UNL A   1      39.816  20.219  25.828  1.00  0.00     0.202 C 
BRANCH  72  73
ATOM     73  C   UNL A   1      38.477  19.955  25.114  1.00  0.00     0.261 C 
BRANCH  73  74
ATOM     74  O   UNL A   1      37.560  21.062  25.171  1.00  0.00    -0.460 OA
BRANCH  74  75
ATOM     75  C   UNL A   1      36.273  20.732  24.893  1.00  0.00     0.338 C 
ATOM     76  O   UNL A   1      35.799  19.616  24.844  1.00  0.00    -0.246 OA
BRANCH  75  77
ATOM     77  C   UNL A   1      35.427  21.944  24.903  1.00  0.00     0.060 A 
ATOM     78  C   UNL A   1      35.967  23.083  25.510  1.00  0.00     0.016 A 
ATOM     79  C   UNL A   1      34.120  21.949  24.421  1.00  0.00     0.016 A 
ATOM     80  C   UNL A   1      35.177  24.205  25.713  1.00  0.00     0.005 A 
ATOM     81  C   UNL A   1      33.310  23.063  24.668  1.00  0.00     0.005 A 
ATOM     82  C   UNL A   1      33.817  24.176  25.370  1.00  0.00    -0.038 A 
BRANCH  82  83
ATOM     83  C   UNL A   1      32.924  25.212  26.029  1.00  0.00     0.081 C 
ATOM     84  C   UNL A   1      31.734  24.497  26.712  1.00  0.00     0.111 C 
ATOM     85  C   UNL A   1      32.483  26.218  25.042  1.00  0.00     0.093 A 
ATOM     86  C   UNL A   1      30.361  24.943  26.248  1.00  0.00     0.188 C 
ATOM     87  C   UNL A   1      31.150  26.530  24.908  1.00  0.00     0.164 A 
ATOM     88  N   UNL A   1      33.270  27.008  24.251  1.00  0.00    -0.238 NA
ATOM     89  N   UNL A   1      30.072  25.916  25.450  1.00  0.00    -0.198 NA
ATOM     90  N   UNL A   1      31.110  27.580  24.015  1.00  0.00    -0.283 N 
ATOM     91  C   UNL A   1      32.414  27.782  23.610  1.00  0.00     0.206 A 
BRANCH  86  92
ATOM     92  O   UNL A   1      29.350  24.219  26.767  1.00  0.00    -0.496 OA
ATOM     93  H   UNL A   1      29.533  23.462  27.287  1.00  0.00     0.294 HD
ENDBRANCH  86  92
BRANCH  90  94
ATOM     94  C   UNL A   1      29.966  28.306  23.620  1.00  0.00     0.050 A 
ATOM     95  C   UNL A   1      28.765  27.642  23.360  1.00  0.00     0.027 A 
ATOM     96  C   UNL A   1      30.044  29.703  23.524  1.00  0.00     0.047 A 
ATOM     97  C   UNL A   1      27.624  28.390  23.059  1.00  0.00     0.004 A 
ATOM     98  C   UNL A   1      28.912  30.431  23.174  1.00  0.00     0.043 A 
ATOM     99  C   UNL A   1      27.699  29.782  22.961  1.00  0.00     0.020 A 
ATOM    100  Cl  UNL A   1      29.016  32.140  22.999  1.00  0.00    -0.084 Cl
ENDBRANCH  90  94
ENDBRANCH  82  83
ENDBRANCH  75  77
ENDBRANCH  74  75
ENDBRANCH  73  74
ENDBRANCH  72  73
ENDBRANCH   1  72
TORSDOF 17
ENDMDL
MODEL 3
REMARK VINA RESULT:     -12.7      3.214      4.952
REMARK SMILES O=C(OCCOCCOC(=O)c1ccc([C@@H]2CC(O)=Nc3c2ncn3-c2cccc(Cl)c2)cc1)c1ccc(-c2c3nc(c(-c4c(F)c(F)c(F)c(F)c4F)c4ccc([nH]4)c(-c4c(F)c(F)c(F)c(F)c4F)c4nc(c(-c5c(F)c(F)c(F)c(F)c5F)c5ccc2[nH]5)C=C4)C=C3)cc1
REMARK SMILES IDX 6 1 5 2 4 3 3 4 2 5 1 6 35 7 36 8 97 9 37 10 96 11 38 12
REMARK SMILES IDX 39 13 40 14 90 15 41 16 95 17 89 18 91 19 42 20 94 21 88 22
REMARK SMILES IDX 87 23 43 25 75 26 55 27 74 28 56 29 59 30 73 31 92 32 57 33
REMARK SMILES IDX 58 34 72 36 93 37 60 38 44 39 45 40 53 41 46 42 47 43 51 44
REMARK SMILES IDX 54 45 48 46 49 47 52 48 50 49 76 50 77 51 85 52 78 53 79 54
REMARK SMILES IDX 83 55 86 56 80 57 81 58 84 59 82 60 61 61 62 62 70 63 63 64
REMARK SMILES IDX 64 65 68 66 71 67 65 68 66 69 69 70 67 71 7 72 8 73 9 74
REMARK SMILES IDX 10 75 11 76 12 77 13 78 34 79 14 80 33 81 15 82 16 83 17 84
REMARK SMILES IDX 22 85 18 86 21 87 23 88 20 89 25 90 24 91 19 92 26 94 27 95
REMARK SMILES IDX 32 96 28 97 30 98 29 99 31 100
REMARK H PARENT 91 24 59 35 19 93
REMARK Flexibility Score: inf
ROOT
ATOM      1  O   UNL A   1      32.999  28.879  26.630  1.00  0.00    -0.374 OA
ENDROOT
BRANCH   1   2
ATOM      2  C   UNL A   1      32.427  30.156  26.876  1.00  0.00     0.202 C 
BRANCH   2   3
ATOM      3  C   UNL A   1      33.322  31.279  27.395  1.00  0.00     0.261 C 
BRANCH   3   4
ATOM      4  O   UNL A   1      34.519  30.821  28.044  1.00  0.00    -0.460 OA
BRANCH   4   5
ATOM      5  C   UNL A   1      35.722  31.429  27.977  1.00  0.00     0.338 C 
ATOM      6  O   UNL A   1      35.813  32.591  27.590  1.00  0.00    -0.246 OA
BRANCH   5   7
ATOM      7  C   UNL A   1      36.885  30.795  28.647  1.00  0.00     0.060 A 
ATOM      8  C   UNL A   1      37.878  31.475  29.349  1.00  0.00     0.016 A 
ATOM      9  C   UNL A   1      37.032  29.419  28.411  1.00  0.00     0.016 A 
ATOM     10  C   UNL A   1      39.114  30.891  29.519  1.00  0.00     0.010 A 
ATOM     11  C   UNL A   1      38.242  28.802  28.648  1.00  0.00     0.010 A 
ATOM     12  C   UNL A   1      39.303  29.577  29.096  1.00  0.00    -0.014 A 
BRANCH  12  13
ATOM     13  C   UNL A   1      40.606  28.984  29.316  1.00  0.00     0.031 A 
ATOM     14  C   UNL A   1      40.950  28.911  30.757  1.00  0.00     0.074 A 
ATOM     15  C   UNL A   1      41.342  28.485  28.304  1.00  0.00     0.049 A 
ATOM     16  N   UNL A   1      41.910  29.521  31.369  1.00  0.00    -0.248 NA
ATOM     17  C   UNL A   1      39.991  28.250  31.661  1.00  0.00     0.031 C 
ATOM     18  C   UNL A   1      40.952  28.337  26.900  1.00  0.00     0.029 A 
ATOM     19  N   UNL A   1      42.573  27.904  28.338  1.00  0.00    -0.354 N 
ATOM     20  C   UNL A   1      41.811  29.128  32.700  1.00  0.00     0.074 A 
ATOM     21  C   UNL A   1      40.512  28.533  32.854  1.00  0.00     0.031 C 
ATOM     22  C   UNL A   1      41.814  27.498  26.282  1.00  0.00     0.029 A 
ATOM     23  C   UNL A   1      42.883  27.159  27.203  1.00  0.00     0.049 A 
ATOM     24  H   UNL A   1      43.190  28.003  29.099  1.00  0.00     0.167 HD
ATOM     25  C   UNL A   1      42.933  29.036  33.462  1.00  0.00     0.037 A 
ATOM     26  C   UNL A   1      43.903  26.270  27.088  1.00  0.00     0.037 A 
ATOM     27  C   UNL A   1      43.983  29.866  32.920  1.00  0.00     0.049 A 
ATOM     28  C   UNL A   1      44.880  26.582  28.164  1.00  0.00     0.074 A 
ATOM     29  C   UNL A   1      44.115  31.215  32.652  1.00  0.00     0.029 A 
ATOM     30  N   UNL A   1      44.975  29.247  32.202  1.00  0.00    -0.354 N 
ATOM     31  N   UNL A   1      45.601  27.670  28.188  1.00  0.00    -0.248 NA
ATOM     32  C   UNL A   1      44.693  25.926  29.450  1.00  0.00     0.031 C 
ATOM     33  C   UNL A   1      44.857  31.283  31.436  1.00  0.00     0.029 A 
ATOM     34  C   UNL A   1      45.211  29.984  31.073  1.00  0.00     0.049 A 
ATOM     35  H   UNL A   1      45.438  28.415  32.455  1.00  0.00     0.167 HD
ATOM     36  C   UNL A   1      45.567  28.079  29.513  1.00  0.00     0.074 A 
ATOM     37  C   UNL A   1      45.056  26.928  30.256  1.00  0.00     0.031 C 
ATOM     38  C   UNL A   1      45.667  29.402  29.835  1.00  0.00     0.037 A 
BRANCH  25  39
ATOM     39  C   UNL A   1      43.223  27.849  34.361  1.00  0.00     0.064 A 
ATOM     40  C   UNL A   1      43.420  26.589  33.759  1.00  0.00     0.173 A 
ATOM     41  C   UNL A   1      42.980  27.817  35.754  1.00  0.00     0.173 A 
ATOM     42  F   UNL A   1      43.660  26.491  32.443  1.00  0.00    -0.203 F 
ATOM     43  C   UNL A   1      43.260  25.397  34.469  1.00  0.00     0.198 A 
ATOM     44  C   UNL A   1      42.869  26.627  36.468  1.00  0.00     0.198 A 
ATOM     45  F   UNL A   1      42.731  28.915  36.473  1.00  0.00    -0.203 F 
ATOM     46  F   UNL A   1      43.307  24.227  33.819  1.00  0.00    -0.200 F 
ATOM     47  C   UNL A   1      42.969  25.417  35.820  1.00  0.00     0.200 A 
ATOM     48  F   UNL A   1      42.572  26.671  37.775  1.00  0.00    -0.200 F 
ATOM     49  F   UNL A   1      42.739  24.279  36.487  1.00  0.00    -0.200 F 
ENDBRANCH  25  39
BRANCH  26  50
ATOM     50  C   UNL A   1      43.922  24.974  26.363  1.00  0.00     0.064 A 
ATOM     51  C   UNL A   1      44.760  24.780  25.250  1.00  0.00     0.173 A 
ATOM     52  C   UNL A   1      43.342  23.815  26.914  1.00  0.00     0.173 A 
ATOM     53  F   UNL A   1      45.393  25.821  24.693  1.00  0.00    -0.203 F 
ATOM     54  C   UNL A   1      45.021  23.502  24.741  1.00  0.00     0.198 A 
ATOM     55  C   UNL A   1      43.598  22.542  26.401  1.00  0.00     0.198 A 
ATOM     56  F   UNL A   1      42.593  23.879  28.025  1.00  0.00    -0.203 F 
ATOM     57  F   UNL A   1      45.879  23.352  23.720  1.00  0.00    -0.200 F 
ATOM     58  C   UNL A   1      44.449  22.384  25.322  1.00  0.00     0.200 A 
ATOM     59  F   UNL A   1      43.068  21.466  26.998  1.00  0.00    -0.200 F 
ATOM     60  F   UNL A   1      44.748  21.156  24.876  1.00  0.00    -0.200 F 
ENDBRANCH  26  50
BRANCH  38  61
ATOM     61  C   UNL A   1      46.097  30.354  28.754  1.00  0.00     0.064 A 
ATOM     62  C   UNL A   1      45.225  30.947  27.823  1.00  0.00     0.173 A 
ATOM     63  C   UNL A   1      47.431  30.779  28.749  1.00  0.00     0.173 A 
ATOM     64  F   UNL A   1      43.914  30.671  27.829  1.00  0.00    -0.203 F 
ATOM     65  C   UNL A   1      45.686  31.884  26.899  1.00  0.00     0.198 A 
ATOM     66  C   UNL A   1      47.880  31.743  27.853  1.00  0.00     0.198 A 
ATOM     67  F   UNL A   1      48.295  30.287  29.651  1.00  0.00    -0.203 F 
ATOM     68  F   UNL A   1      44.840  32.425  26.010  1.00  0.00    -0.200 F 
ATOM     69  C   UNL A   1      47.012  32.286  26.920  1.00  0.00     0.200 A 
ATOM     70  F   UNL A   1      49.150  32.166  27.912  1.00  0.00    -0.200 F 
ATOM     71  F   UNL A   1      47.448  33.216  26.060  1.00  0.00    -0.200 F 
ENDBRANCH  38  61
ENDBRANCH  12  13
ENDBRANCH   5   7
ENDBRANCH   4   5
ENDBRANCH   3   4
ENDBRANCH   2   3
ENDBRANCH   1   2
BRANCH   1  72
ATOM     72  C   UNL A   1      32.426  28.077  25.586  1.00  0.00     0.202 C 
BRANCH  72  73
ATOM     73  C   UNL A   1      31.347  28.645  24.645  1.00  0.00     0.261 C 
BRANCH  73  74
ATOM     74  O   UNL A   1      30.339  27.689  24.274  1.00  0.00    -0.460 OA
BRANCH  74  75
ATOM     75  C   UNL A   1      30.405  27.285  22.980  1.00  0.00     0.338 C 
ATOM     76  O   UNL A   1      30.230  27.967  21.991  1.00  0.00    -0.246 OA
BRANCH  75  77
ATOM     77  C   UNL A   1      30.984  25.927  22.902  1.00  0.00     0.060 A 
ATOM     78  C   UNL A   1      30.459  24.969  23.776  1.00  0.00     0.016 A 
ATOM     79  C   UNL A   1      32.060  25.618  22.074  1.00  0.00     0.016 A 
ATOM     80  C   UNL A   1      31.059  23.723  23.887  1.00  0.00     0.005 A 
ATOM     81  C   UNL A   1      32.694  24.378  22.220  1.00  0.00     0.005 A 
ATOM     82  C   UNL A   1      32.233  23.445  23.172  1.00  0.00    -0.038 A 
BRANCH  82  83
ATOM     83  C   UNL A   1      33.083  22.293  23.675  1.00  0.00     0.081 C 
ATOM     84  C   UNL A   1      32.526  21.805  25.034  1.00  0.00     0.111 C 
ATOM     85  C   UNL A   1      34.501  22.695  23.762  1.00  0.00     0.093 A 
ATOM     86  C   UNL A   1      33.513  21.836  26.184  1.00  0.00     0.188 C 
ATOM     87  C   UNL A   1      35.218  22.492  24.918  1.00  0.00     0.164 A 
ATOM     88  N   UNL A   1      35.289  23.190  22.760  1.00  0.00    -0.238 NA
ATOM     89  N   UNL A   1      34.775  22.105  26.138  1.00  0.00    -0.198 NA
ATOM     90  N   UNL A   1      36.513  22.849  24.612  1.00  0.00    -0.283 N 
ATOM     91  C   UNL A   1      36.480  23.318  23.314  1.00  0.00     0.206 A 
BRANCH  86  92
ATOM     92  O   UNL A   1      32.968  21.525  27.376  1.00  0.00    -0.496 OA
ATOM     93  H   UNL A   1      33.368  20.874  27.919  1.00  0.00     0.294 HD
ENDBRANCH  86  92
BRANCH  90  94
ATOM     94  C   UNL A   1      37.640  22.735  25.454  1.00  0.00     0.050 A 
ATOM     95  C   UNL A   1      38.372  21.546  25.493  1.00  0.00     0.027 A 
ATOM     96  C   UNL A   1      38.033  23.841  26.223  1.00  0.00     0.047 A 
ATOM     97  C   UNL A   1      39.536  21.487  26.264  1.00  0.00     0.004 A 
ATOM     98  C   UNL A   1      39.166  23.751  27.025  1.00  0.00     0.043 A 
ATOM     99  C   UNL A   1      39.929  22.586  27.033  1.00  0.00     0.020 A 
ATOM    100  Cl  UNL A   1      39.619  25.083  28.014  1.00  0.00    -0.084 Cl
ENDBRANCH  90  94
ENDBRANCH  82  83
ENDBRANCH  75  77
ENDBRANCH  74  75
ENDBRANCH  73  74
ENDBRANCH  72  73
ENDBRANCH   1  72
TORSDOF 17
ENDMDL
