MODEL 1
REMARK VINA RESULT:     -12.5      0.000      0.000
REMARK SMILES O=C(OCCOCCOC(=O)C1CCN(C(=O)CCN2C(=O)[C@H]3Cc4ccccc4CN3C2=O)CC1)c1ccc(-c2c3nc(c(-c4c(F)c(F)c(F)c(F)c4F)c4ccc([nH]4)c(-c4c(F)c(F)c(F)c(F)c4F)c4nc(c(-c5c(F)c(F)c(F)c(F)c5F)c5ccc2[nH]5)C=C4)C=C3)cc1
REMARK SMILES IDX 7 1 6 2 5 3 4 4 3 5 2 6 1 7 37 8 38 9 99 10 39 11 98 12
REMARK SMILES IDX 40 13 41 14 42 15 92 16 43 17 97 18 91 19 93 20 44 21 96 22
REMARK SMILES IDX 90 23 89 24 45 26 77 27 57 28 76 29 58 30 61 31 75 32 94 33
REMARK SMILES IDX 59 34 60 35 74 37 95 38 62 39 46 40 47 41 55 42 48 43 49 44
REMARK SMILES IDX 53 45 56 46 50 47 51 48 54 49 52 50 78 51 79 52 87 53 80 54
REMARK SMILES IDX 81 55 85 56 88 57 82 58 83 59 86 60 84 61 63 62 64 63 72 64
REMARK SMILES IDX 65 65 66 66 70 67 73 68 67 69 68 70 71 71 69 72 8 73 9 74
REMARK SMILES IDX 10 75 11 76 12 77 13 78 36 79 14 80 35 81 15 82 16 83 17 84
REMARK SMILES IDX 18 85 19 86 20 87 21 88 33 89 22 90 23 91 32 92 34 93 24 94
REMARK SMILES IDX 31 95 25 96 30 97 26 98 29 99 27 100 28 101
REMARK H PARENT 93 25 61 36
REMARK Flexibility Score: inf
ROOT
ATOM      1  C   UNL A   1      41.410  21.912  26.155  1.00  0.00     0.202 C 
ENDROOT
BRANCH   1   2
ATOM      2  O   UNL A   1      41.203  20.515  25.925  1.00  0.00    -0.374 OA
BRANCH   2   3
ATOM      3  C   UNL A   1      42.052  19.629  26.659  1.00  0.00     0.202 C 
BRANCH   3   4
ATOM      4  C   UNL A   1      42.896  18.618  25.864  1.00  0.00     0.261 C 
BRANCH   4   5
ATOM      5  O   UNL A   1      43.335  19.166  24.618  1.00  0.00    -0.460 OA
BRANCH   5   6
ATOM      6  C   UNL A   1      44.519  19.781  24.388  1.00  0.00     0.338 C 
ATOM      7  O   UNL A   1      45.406  19.163  23.802  1.00  0.00    -0.246 OA
BRANCH   6   8
ATOM      8  C   UNL A   1      44.805  21.185  24.810  1.00  0.00     0.060 A 
ATOM      9  C   UNL A   1      45.295  21.367  26.112  1.00  0.00     0.016 A 
ATOM     10  C   UNL A   1      44.544  22.324  24.046  1.00  0.00     0.016 A 
ATOM     11  C   UNL A   1      45.471  22.652  26.627  1.00  0.00     0.010 A 
ATOM     12  C   UNL A   1      44.745  23.596  24.525  1.00  0.00     0.010 A 
ATOM     13  C   UNL A   1      45.174  23.761  25.829  1.00  0.00    -0.014 A 
BRANCH  13  14
ATOM     14  C   UNL A   1      45.387  25.141  26.252  1.00  0.00     0.031 A 
ATOM     15  C   UNL A   1      46.765  25.723  26.229  1.00  0.00     0.074 A 
ATOM     16  C   UNL A   1      44.341  25.744  26.839  1.00  0.00     0.049 A 
ATOM     17  N   UNL A   1      47.144  26.929  26.549  1.00  0.00    -0.248 NA
ATOM     18  C   UNL A   1      47.874  24.829  25.843  1.00  0.00     0.031 C 
ATOM     19  C   UNL A   1      43.033  25.118  27.063  1.00  0.00     0.029 A 
ATOM     20  N   UNL A   1      44.211  26.991  27.367  1.00  0.00    -0.354 N 
ATOM     21  C   UNL A   1      48.519  26.949  26.367  1.00  0.00     0.074 A 
ATOM     22  C   UNL A   1      48.930  25.614  26.005  1.00  0.00     0.031 C 
ATOM     23  C   UNL A   1      42.214  26.009  27.635  1.00  0.00     0.029 A 
ATOM     24  C   UNL A   1      42.942  27.257  27.816  1.00  0.00     0.049 A 
ATOM     25  H   UNL A   1      44.952  27.637  27.421  1.00  0.00     0.167 HD
ATOM     26  C   UNL A   1      49.338  28.021  26.454  1.00  0.00     0.037 A 
ATOM     27  C   UNL A   1      42.431  28.409  28.276  1.00  0.00     0.037 A 
ATOM     28  C   UNL A   1      48.857  29.326  26.824  1.00  0.00     0.049 A 
ATOM     29  C   UNL A   1      43.343  29.601  28.284  1.00  0.00     0.074 A 
ATOM     30  C   UNL A   1      49.546  30.520  26.881  1.00  0.00     0.029 A 
ATOM     31  N   UNL A   1      47.547  29.594  27.207  1.00  0.00    -0.354 N 
ATOM     32  N   UNL A   1      44.616  29.667  27.963  1.00  0.00    -0.248 NA
ATOM     33  C   UNL A   1      42.753  30.880  28.684  1.00  0.00     0.031 C 
ATOM     34  C   UNL A   1      48.663  31.503  27.337  1.00  0.00     0.029 A 
ATOM     35  C   UNL A   1      47.409  30.935  27.512  1.00  0.00     0.049 A 
ATOM     36  H   UNL A   1      46.823  28.928  27.252  1.00  0.00     0.167 HD
ATOM     37  C   UNL A   1      44.977  30.994  28.102  1.00  0.00     0.074 A 
ATOM     38  C   UNL A   1      43.777  31.704  28.509  1.00  0.00     0.031 C 
ATOM     39  C   UNL A   1      46.187  31.582  27.918  1.00  0.00     0.037 A 
BRANCH  26  40
ATOM     40  C   UNL A   1      50.784  27.859  26.084  1.00  0.00     0.064 A 
ATOM     41  C   UNL A   1      51.755  27.582  27.061  1.00  0.00     0.173 A 
ATOM     42  C   UNL A   1      51.192  27.860  24.743  1.00  0.00     0.173 A 
ATOM     43  F   UNL A   1      51.423  27.580  28.362  1.00  0.00    -0.203 F 
ATOM     44  C   UNL A   1      53.073  27.305  26.709  1.00  0.00     0.198 A 
ATOM     45  C   UNL A   1      52.507  27.556  24.392  1.00  0.00     0.198 A 
ATOM     46  F   UNL A   1      50.311  28.125  23.767  1.00  0.00    -0.203 F 
ATOM     47  F   UNL A   1      53.981  27.055  27.662  1.00  0.00    -0.200 F 
ATOM     48  C   UNL A   1      53.445  27.275  25.374  1.00  0.00     0.200 A 
ATOM     49  F   UNL A   1      52.863  27.517  23.100  1.00  0.00    -0.200 F 
ATOM     50  F   UNL A   1      54.706  26.973  25.034  1.00  0.00    -0.200 F 
ENDBRANCH  26  40
BRANCH  27  51
ATOM     51  C   UNL A   1      40.988  28.484  28.607  1.00  0.00     0.064 A 
ATOM     52  C   UNL A   1      40.538  28.186  29.900  1.00  0.00     0.173 A 
ATOM     53  C   UNL A   1      40.043  28.945  27.678  1.00  0.00     0.173 A 
ATOM     54  F   UNL A   1      41.405  27.754  30.827  1.00  0.00    -0.203 F 
ATOM     55  C   UNL A   1      39.196  28.326  30.247  1.00  0.00     0.198 A 
ATOM     56  C   UNL A   1      38.706  29.113  28.034  1.00  0.00     0.198 A 
ATOM     57  F   UNL A   1      40.428  29.276  26.437  1.00  0.00    -0.203 F 
ATOM     58  F   UNL A   1      38.790  28.011  31.483  1.00  0.00    -0.200 F 
ATOM     59  C   UNL A   1      38.283  28.798  29.315  1.00  0.00     0.200 A 
ATOM     60  F   UNL A   1      37.834  29.599  27.141  1.00  0.00    -0.200 F 
ATOM     61  F   UNL A   1      36.996  28.954  29.656  1.00  0.00    -0.200 F 
ENDBRANCH  27  51
BRANCH  39  62
ATOM     62  C   UNL A   1      46.255  33.057  28.162  1.00  0.00     0.064 A 
ATOM     63  C   UNL A   1      46.605  33.569  29.419  1.00  0.00     0.173 A 
ATOM     64  C   UNL A   1      46.036  33.960  27.112  1.00  0.00     0.173 A 
ATOM     65  F   UNL A   1      46.814  32.740  30.452  1.00  0.00    -0.203 F 
ATOM     66  C   UNL A   1      46.705  34.940  29.623  1.00  0.00     0.198 A 
ATOM     67  C   UNL A   1      46.172  35.329  27.311  1.00  0.00     0.198 A 
ATOM     68  F   UNL A   1      45.713  33.512  25.888  1.00  0.00    -0.203 F 
ATOM     69  F   UNL A   1      46.991  35.413  30.843  1.00  0.00    -0.200 F 
ATOM     70  C   UNL A   1      46.499  35.817  28.567  1.00  0.00     0.200 A 
ATOM     71  F   UNL A   1      45.994  36.174  26.287  1.00  0.00    -0.200 F 
ATOM     72  F   UNL A   1      46.611  37.137  28.763  1.00  0.00    -0.200 F 
ENDBRANCH  39  62
ENDBRANCH  13  14
ENDBRANCH   6   8
ENDBRANCH   5   6
ENDBRANCH   4   5
ENDBRANCH   3   4
ENDBRANCH   2   3
ENDBRANCH   1   2
BRANCH   1  73
ATOM     73  C   UNL A   1      40.227  22.551  26.875  1.00  0.00     0.261 C 
BRANCH  73  74
ATOM     74  O   UNL A   1      39.024  21.851  26.498  1.00  0.00    -0.463 OA
BRANCH  74  75
ATOM     75  C   UNL A   1      38.135  22.601  25.805  1.00  0.00     0.309 C 
ATOM     76  O   UNL A   1      37.797  23.736  26.124  1.00  0.00    -0.252 OA
BRANCH  75  77
ATOM     77  C   UNL A   1      37.550  21.874  24.595  1.00  0.00     0.103 C 
ATOM     78  C   UNL A   1      36.992  22.668  23.404  1.00  0.00     0.037 C 
ATOM     79  C   UNL A   1      36.572  20.821  25.068  1.00  0.00     0.037 C 
ATOM     80  C   UNL A   1      35.477  22.943  23.325  1.00  0.00     0.120 C 
ATOM     81  C   UNL A   1      35.119  21.202  25.043  1.00  0.00     0.120 C 
ATOM     82  N   UNL A   1      34.599  21.972  23.971  1.00  0.00    -0.343 N 
ATOM     83  C   UNL A   1      33.224  21.983  23.717  1.00  0.00     0.224 C 
ATOM     84  O   UNL A   1      32.784  22.572  22.723  1.00  0.00    -0.275 OA
BRANCH  83  85
ATOM     85  C   UNL A   1      32.200  21.460  24.775  1.00  0.00     0.122 C 
BRANCH  85  86
ATOM     86  C   UNL A   1      30.865  22.146  25.162  1.00  0.00     0.140 C 
BRANCH  86  87
ATOM     87  N   UNL A   1      30.912  23.607  25.330  1.00  0.00    -0.262 N 
ATOM     88  C   UNL A   1      30.704  24.546  24.347  1.00  0.00     0.253 C 
ATOM     89  C   UNL A   1      31.271  24.234  26.502  1.00  0.00     0.327 C 
ATOM     90  O   UNL A   1      30.271  24.344  23.222  1.00  0.00    -0.272 OA
ATOM     91  C   UNL A   1      31.322  25.859  24.823  1.00  0.00     0.181 C 
ATOM     92  N   UNL A   1      31.489  25.564  26.221  1.00  0.00    -0.308 N 
ATOM     93  O   UNL A   1      31.482  23.699  27.584  1.00  0.00    -0.248 OA
ATOM     94  C   UNL A   1      30.566  27.152  24.618  1.00  0.00     0.071 C 
ATOM     95  C   UNL A   1      32.133  26.527  27.085  1.00  0.00     0.158 C 
ATOM     96  C   UNL A   1      31.257  28.253  25.408  1.00  0.00    -0.040 A 
ATOM     97  C   UNL A   1      32.007  27.943  26.567  1.00  0.00    -0.025 A 
ATOM     98  C   UNL A   1      31.144  29.588  25.000  1.00  0.00     0.004 A 
ATOM     99  C   UNL A   1      32.677  28.969  27.252  1.00  0.00     0.006 A 
ATOM    100  C   UNL A   1      31.796  30.600  25.708  1.00  0.00     0.000 A 
ATOM    101  C   UNL A   1      32.571  30.291  26.823  1.00  0.00     0.000 A 
ENDBRANCH  86  87
ENDBRANCH  85  86
ENDBRANCH  83  85
ENDBRANCH  75  77
ENDBRANCH  74  75
ENDBRANCH  73  74
ENDBRANCH   1  73
TORSDOF 17
ENDMDL
MODEL 2
REMARK VINA RESULT:     -11.7      5.344      9.443
REMARK SMILES O=C(OCCOCCOC(=O)C1CCN(C(=O)CCN2C(=O)[C@H]3Cc4ccccc4CN3C2=O)CC1)c1ccc(-c2c3nc(c(-c4c(F)c(F)c(F)c(F)c4F)c4ccc([nH]4)c(-c4c(F)c(F)c(F)c(F)c4F)c4nc(c(-c5c(F)c(F)c(F)c(F)c5F)c5ccc2[nH]5)C=C4)C=C3)cc1
REMARK SMILES IDX 7 1 6 2 5 3 4 4 3 5 2 6 1 7 37 8 38 9 99 10 39 11 98 12
REMARK SMILES IDX 40 13 41 14 42 15 92 16 43 17 97 18 91 19 93 20 44 21 96 22
REMARK SMILES IDX 90 23 89 24 45 26 77 27 57 28 76 29 58 30 61 31 75 32 94 33
REMARK SMILES IDX 59 34 60 35 74 37 95 38 62 39 46 40 47 41 55 42 48 43 49 44
REMARK SMILES IDX 53 45 56 46 50 47 51 48 54 49 52 50 78 51 79 52 87 53 80 54
REMARK SMILES IDX 81 55 85 56 88 57 82 58 83 59 86 60 84 61 63 62 64 63 72 64
REMARK SMILES IDX 65 65 66 66 70 67 73 68 67 69 68 70 71 71 69 72 8 73 9 74
REMARK SMILES IDX 10 75 11 76 12 77 13 78 36 79 14 80 35 81 15 82 16 83 17 84
REMARK SMILES IDX 18 85 19 86 20 87 21 88 33 89 22 90 23 91 32 92 34 93 24 94
REMARK SMILES IDX 31 95 25 96 30 97 26 98 29 99 27 100 28 101
REMARK H PARENT 93 25 61 36
REMARK Flexibility Score: inf
ROOT
ATOM      1  C   UNL A   1      40.337  19.597  25.788  1.00  0.00     0.202 C 
ENDROOT
BRANCH   1   2
ATOM      2  O   UNL A   1      40.884  19.825  27.091  1.00  0.00    -0.374 OA
BRANCH   2   3
ATOM      3  C   UNL A   1      41.692  20.995  27.231  1.00  0.00     0.202 C 
BRANCH   3   4
ATOM      4  C   UNL A   1      42.632  21.364  26.071  1.00  0.00     0.261 C 
BRANCH   4   5
ATOM      5  O   UNL A   1      42.161  22.511  25.358  1.00  0.00    -0.460 OA
BRANCH   5   6
ATOM      6  C   UNL A   1      42.656  23.768  25.448  1.00  0.00     0.338 C 
ATOM      7  O   UNL A   1      43.495  24.135  24.626  1.00  0.00    -0.246 OA
BRANCH   6   8
ATOM      8  C   UNL A   1      42.233  24.740  26.499  1.00  0.00     0.060 A 
ATOM      9  C   UNL A   1      42.783  26.028  26.430  1.00  0.00     0.016 A 
ATOM     10  C   UNL A   1      41.407  24.441  27.585  1.00  0.00     0.016 A 
ATOM     11  C   UNL A   1      42.537  26.957  27.441  1.00  0.00     0.010 A 
ATOM     12  C   UNL A   1      41.125  25.355  28.571  1.00  0.00     0.010 A 
ATOM     13  C   UNL A   1      41.720  26.602  28.519  1.00  0.00    -0.014 A 
BRANCH  13  14
ATOM     14  C   UNL A   1      41.350  27.522  29.589  1.00  0.00     0.031 A 
ATOM     15  C   UNL A   1      40.223  28.484  29.388  1.00  0.00     0.074 A 
ATOM     16  C   UNL A   1      42.196  27.583  30.629  1.00  0.00     0.049 A 
ATOM     17  N   UNL A   1      39.741  29.359  30.227  1.00  0.00    -0.248 NA
ATOM     18  C   UNL A   1      39.577  28.506  28.062  1.00  0.00     0.031 C 
ATOM     19  C   UNL A   1      43.428  26.795  30.753  1.00  0.00     0.029 A 
ATOM     20  N   UNL A   1      42.169  28.342  31.759  1.00  0.00    -0.354 N 
ATOM     21  C   UNL A   1      38.718  30.003  29.547  1.00  0.00     0.074 A 
ATOM     22  C   UNL A   1      38.706  29.497  28.196  1.00  0.00     0.031 C 
ATOM     23  C   UNL A   1      44.010  27.075  31.926  1.00  0.00     0.029 A 
ATOM     24  C   UNL A   1      43.193  28.057  32.625  1.00  0.00     0.049 A 
ATOM     25  H   UNL A   1      41.483  29.026  31.937  1.00  0.00     0.167 HD
ATOM     26  C   UNL A   1      37.846  30.905  30.050  1.00  0.00     0.037 A 
ATOM     27  C   UNL A   1      43.403  28.517  33.868  1.00  0.00     0.037 A 
ATOM     28  C   UNL A   1      37.920  31.368  31.411  1.00  0.00     0.049 A 
ATOM     29  C   UNL A   1      42.373  29.454  34.429  1.00  0.00     0.074 A 
ATOM     30  C   UNL A   1      37.066  32.217  32.086  1.00  0.00     0.029 A 
ATOM     31  N   UNL A   1      38.927  31.011  32.302  1.00  0.00    -0.354 N 
ATOM     32  N   UNL A   1      41.308  29.953  33.843  1.00  0.00    -0.248 NA
ATOM     33  C   UNL A   1      42.548  29.869  35.822  1.00  0.00     0.031 C 
ATOM     34  C   UNL A   1      37.578  32.405  33.373  1.00  0.00     0.029 A 
ATOM     35  C   UNL A   1      38.721  31.631  33.519  1.00  0.00     0.049 A 
ATOM     36  H   UNL A   1      39.674  30.404  32.096  1.00  0.00     0.167 HD
ATOM     37  C   UNL A   1      40.672  30.725  34.798  1.00  0.00     0.074 A 
ATOM     38  C   UNL A   1      41.461  30.603  36.012  1.00  0.00     0.031 C 
ATOM     39  C   UNL A   1      39.546  31.474  34.691  1.00  0.00     0.037 A 
BRANCH  26  40
ATOM     40  C   UNL A   1      36.719  31.385  29.181  1.00  0.00     0.064 A 
ATOM     41  C   UNL A   1      35.636  30.547  28.871  1.00  0.00     0.173 A 
ATOM     42  C   UNL A   1      36.653  32.719  28.753  1.00  0.00     0.173 A 
ATOM     43  F   UNL A   1      35.650  29.258  29.245  1.00  0.00    -0.203 F 
ATOM     44  C   UNL A   1      34.529  31.026  28.174  1.00  0.00     0.198 A 
ATOM     45  C   UNL A   1      35.533  33.203  28.078  1.00  0.00     0.198 A 
ATOM     46  F   UNL A   1      37.661  33.565  29.014  1.00  0.00    -0.203 F 
ATOM     47  F   UNL A   1      33.515  30.201  27.882  1.00  0.00    -0.200 F 
ATOM     48  C   UNL A   1      34.471  32.358  27.794  1.00  0.00     0.200 A 
ATOM     49  F   UNL A   1      35.473  34.493  27.721  1.00  0.00    -0.200 F 
ATOM     50  F   UNL A   1      33.390  32.827  27.154  1.00  0.00    -0.200 F 
ENDBRANCH  26  40
BRANCH  27  51
ATOM     51  C   UNL A   1      44.534  27.979  34.662  1.00  0.00     0.064 A 
ATOM     52  C   UNL A   1      45.759  28.657  34.707  1.00  0.00     0.173 A 
ATOM     53  C   UNL A   1      44.392  26.837  35.465  1.00  0.00     0.173 A 
ATOM     54  F   UNL A   1      45.940  29.761  33.966  1.00  0.00    -0.203 F 
ATOM     55  C   UNL A   1      46.805  28.206  35.509  1.00  0.00     0.198 A 
ATOM     56  C   UNL A   1      45.428  26.403  36.289  1.00  0.00     0.198 A 
ATOM     57  F   UNL A   1      43.228  26.171  35.485  1.00  0.00    -0.203 F 
ATOM     58  F   UNL A   1      47.973  28.861  35.513  1.00  0.00    -0.200 F 
ATOM     59  C   UNL A   1      46.635  27.083  36.306  1.00  0.00     0.200 A 
ATOM     60  F   UNL A   1      45.249  25.338  37.082  1.00  0.00    -0.200 F 
ATOM     61  F   UNL A   1      47.634  26.663  37.093  1.00  0.00    -0.200 F 
ENDBRANCH  27  51
BRANCH  39  62
ATOM     62  C   UNL A   1      39.116  32.211  35.921  1.00  0.00     0.064 A 
ATOM     63  C   UNL A   1      39.539  33.525  36.164  1.00  0.00     0.173 A 
ATOM     64  C   UNL A   1      38.221  31.621  36.825  1.00  0.00     0.173 A 
ATOM     65  F   UNL A   1      40.402  34.123  35.328  1.00  0.00    -0.203 F 
ATOM     66  C   UNL A   1      39.101  34.214  37.288  1.00  0.00     0.198 A 
ATOM     67  C   UNL A   1      37.758  32.326  37.928  1.00  0.00     0.198 A 
ATOM     68  F   UNL A   1      37.779  30.369  36.622  1.00  0.00    -0.203 F 
ATOM     69  F   UNL A   1      39.555  35.451  37.530  1.00  0.00    -0.200 F 
ATOM     70  C   UNL A   1      38.203  33.618  38.163  1.00  0.00     0.200 A 
ATOM     71  F   UNL A   1      36.874  31.759  38.761  1.00  0.00    -0.200 F 
ATOM     72  F   UNL A   1      37.771  34.291  39.237  1.00  0.00    -0.200 F 
ENDBRANCH  39  62
ENDBRANCH  13  14
ENDBRANCH   6   8
ENDBRANCH   5   6
ENDBRANCH   4   5
ENDBRANCH   3   4
ENDBRANCH   2   3
ENDBRANCH   1   2
BRANCH   1  73
ATOM     73  C   UNL A   1      38.842  19.896  25.738  1.00  0.00     0.261 C 
BRANCH  73  74
ATOM     74  O   UNL A   1      38.661  21.281  25.379  1.00  0.00    -0.463 OA
BRANCH  74  75
ATOM     75  C   UNL A   1      37.472  21.555  24.791  1.00  0.00     0.309 C 
ATOM     76  O   UNL A   1      37.355  22.107  23.702  1.00  0.00    -0.252 OA
BRANCH  75  77
ATOM     77  C   UNL A   1      36.272  21.145  25.643  1.00  0.00     0.103 C 
ATOM     78  C   UNL A   1      35.056  20.461  25.000  1.00  0.00     0.037 C 
ATOM     79  C   UNL A   1      35.857  22.308  26.517  1.00  0.00     0.037 C 
ATOM     80  C   UNL A   1      33.834  21.313  24.606  1.00  0.00     0.120 C 
ATOM     81  C   UNL A   1      34.713  23.143  26.015  1.00  0.00     0.120 C 
ATOM     82  N   UNL A   1      33.604  22.529  25.380  1.00  0.00    -0.343 N 
ATOM     83  C   UNL A   1      32.385  23.208  25.285  1.00  0.00     0.224 C 
ATOM     84  O   UNL A   1      31.393  22.634  24.823  1.00  0.00    -0.275 OA
BRANCH  83  85
ATOM     85  C   UNL A   1      32.292  24.747  25.541  1.00  0.00     0.122 C 
BRANCH  85  86
ATOM     86  C   UNL A   1      32.882  25.855  24.633  1.00  0.00     0.140 C 
BRANCH  86  87
ATOM     87  N   UNL A   1      31.938  26.883  24.167  1.00  0.00    -0.262 N 
ATOM     88  C   UNL A   1      31.511  27.069  22.872  1.00  0.00     0.253 C 
ATOM     89  C   UNL A   1      31.420  27.872  24.972  1.00  0.00     0.327 C 
ATOM     90  O   UNL A   1      31.693  26.315  21.927  1.00  0.00    -0.272 OA
ATOM     91  C   UNL A   1      30.965  28.491  22.765  1.00  0.00     0.181 C 
ATOM     92  N   UNL A   1      30.822  28.810  24.160  1.00  0.00    -0.308 N 
ATOM     93  O   UNL A   1      31.561  27.978  26.185  1.00  0.00    -0.248 OA
ATOM     94  C   UNL A   1      29.679  28.736  22.008  1.00  0.00     0.071 C 
ATOM     95  C   UNL A   1      30.392  30.133  24.553  1.00  0.00     0.158 C 
ATOM     96  C   UNL A   1      29.219  30.161  22.276  1.00  0.00    -0.040 A 
ATOM     97  C   UNL A   1      29.573  30.816  23.480  1.00  0.00    -0.025 A 
ATOM     98  C   UNL A   1      28.425  30.831  21.338  1.00  0.00     0.004 A 
ATOM     99  C   UNL A   1      29.179  32.147  23.684  1.00  0.00     0.006 A 
ATOM    100  C   UNL A   1      28.019  32.148  21.569  1.00  0.00     0.000 A 
ATOM    101  C   UNL A   1      28.406  32.809  22.733  1.00  0.00     0.000 A 
ENDBRANCH  86  87
ENDBRANCH  85  86
ENDBRANCH  83  85
ENDBRANCH  75  77
ENDBRANCH  74  75
ENDBRANCH  73  74
ENDBRANCH   1  73
TORSDOF 17
ENDMDL
MODEL 3
REMARK VINA RESULT:     -11.4      6.198      8.707
REMARK SMILES O=C(OCCOCCOC(=O)C1CCN(C(=O)CCN2C(=O)[C@H]3Cc4ccccc4CN3C2=O)CC1)c1ccc(-c2c3nc(c(-c4c(F)c(F)c(F)c(F)c4F)c4ccc([nH]4)c(-c4c(F)c(F)c(F)c(F)c4F)c4nc(c(-c5c(F)c(F)c(F)c(F)c5F)c5ccc2[nH]5)C=C4)C=C3)cc1
REMARK SMILES IDX 7 1 6 2 5 3 4 4 3 5 2 6 1 7 37 8 38 9 99 10 39 11 98 12
REMARK SMILES IDX 40 13 41 14 42 15 92 16 43 17 97 18 91 19 93 20 44 21 96 22
REMARK SMILES IDX 90 23 89 24 45 26 77 27 57 28 76 29 58 30 61 31 75 32 94 33
REMARK SMILES IDX 59 34 60 35 74 37 95 38 62 39 46 40 47 41 55 42 48 43 49 44
REMARK SMILES IDX 53 45 56 46 50 47 51 48 54 49 52 50 78 51 79 52 87 53 80 54
REMARK SMILES IDX 81 55 85 56 88 57 82 58 83 59 86 60 84 61 63 62 64 63 72 64
REMARK SMILES IDX 65 65 66 66 70 67 73 68 67 69 68 70 71 71 69 72 8 73 9 74
REMARK SMILES IDX 10 75 11 76 12 77 13 78 36 79 14 80 35 81 15 82 16 83 17 84
REMARK SMILES IDX 18 85 19 86 20 87 21 88 33 89 22 90 23 91 32 92 34 93 24 94
REMARK SMILES IDX 31 95 25 96 30 97 26 98 29 99 27 100 28 101
REMARK H PARENT 93 25 61 36
REMARK Flexibility Score: inf
ROOT
ATOM      1  C   UNL A   1      38.364  22.039  25.707  1.00  0.00     0.202 C 
ENDROOT
BRANCH   1   2
ATOM      2  O   UNL A   1      39.357  21.236  26.353  1.00  0.00    -0.374 OA
BRANCH   2   3
ATOM      3  C   UNL A   1      40.681  21.774  26.368  1.00  0.00     0.202 C 
BRANCH   3   4
ATOM      4  C   UNL A   1      41.049  22.747  27.501  1.00  0.00     0.261 C 
BRANCH   4   5
ATOM      5  O   UNL A   1      41.261  24.072  27.006  1.00  0.00    -0.460 OA
BRANCH   5   6
ATOM      6  C   UNL A   1      40.408  25.117  27.128  1.00  0.00     0.338 C 
ATOM      7  O   UNL A   1      39.591  25.324  26.232  1.00  0.00    -0.246 OA
BRANCH   6   8
ATOM      8  C   UNL A   1      40.406  26.037  28.304  1.00  0.00     0.060 A 
ATOM      9  C   UNL A   1      39.287  25.983  29.148  1.00  0.00     0.016 A 
ATOM     10  C   UNL A   1      41.383  26.997  28.576  1.00  0.00     0.016 A 
ATOM     11  C   UNL A   1      39.149  26.893  30.197  1.00  0.00     0.010 A 
ATOM     12  C   UNL A   1      41.280  27.877  29.625  1.00  0.00     0.010 A 
ATOM     13  C   UNL A   1      40.145  27.850  30.414  1.00  0.00    -0.014 A 
BRANCH  13  14
ATOM     14  C   UNL A   1      40.124  28.800  31.522  1.00  0.00     0.031 A 
ATOM     15  C   UNL A   1      41.034  28.600  32.691  1.00  0.00     0.074 A 
ATOM     16  C   UNL A   1      39.125  29.696  31.509  1.00  0.00     0.049 A 
ATOM     17  N   UNL A   1      41.169  29.344  33.754  1.00  0.00    -0.248 NA
ATOM     18  C   UNL A   1      41.871  27.384  32.701  1.00  0.00     0.031 C 
ATOM     19  C   UNL A   1      38.090  29.779  30.472  1.00  0.00     0.029 A 
ATOM     20  N   UNL A   1      38.800  30.683  32.387  1.00  0.00    -0.354 N 
ATOM     21  C   UNL A   1      42.127  28.713  34.533  1.00  0.00     0.074 A 
ATOM     22  C   UNL A   1      42.472  27.473  33.880  1.00  0.00     0.031 C 
ATOM     23  C   UNL A   1      37.275  30.805  30.749  1.00  0.00     0.029 A 
ATOM     24  C   UNL A   1      37.732  31.440  31.976  1.00  0.00     0.049 A 
ATOM     25  H   UNL A   1      39.282  30.839  33.231  1.00  0.00     0.167 HD
ATOM     26  C   UNL A   1      42.688  29.177  35.672  1.00  0.00     0.037 A 
ATOM     27  C   UNL A   1      37.225  32.555  32.524  1.00  0.00     0.037 A 
ATOM     28  C   UNL A   1      42.291  30.424  36.270  1.00  0.00     0.049 A 
ATOM     29  C   UNL A   1      37.920  33.091  33.741  1.00  0.00     0.074 A 
ATOM     30  C   UNL A   1      42.817  31.063  37.375  1.00  0.00     0.029 A 
ATOM     31  N   UNL A   1      41.252  31.220  35.797  1.00  0.00    -0.354 N 
ATOM     32  N   UNL A   1      38.934  32.580  34.403  1.00  0.00    -0.248 NA
ATOM     33  C   UNL A   1      37.432  34.365  34.273  1.00  0.00     0.031 C 
ATOM     34  C   UNL A   1      42.070  32.224  37.594  1.00  0.00     0.029 A 
ATOM     35  C   UNL A   1      41.113  32.339  36.595  1.00  0.00     0.049 A 
ATOM     36  H   UNL A   1      40.698  31.016  35.009  1.00  0.00     0.167 HD
ATOM     37  C   UNL A   1      39.221  33.476  35.417  1.00  0.00     0.074 A 
ATOM     38  C   UNL A   1      38.288  34.578  35.262  1.00  0.00     0.031 C 
ATOM     39  C   UNL A   1      40.160  33.401  36.393  1.00  0.00     0.037 A 
BRANCH  26  40
ATOM     40  C   UNL A   1      43.811  28.400  36.295  1.00  0.00     0.064 A 
ATOM     41  C   UNL A   1      45.147  28.805  36.136  1.00  0.00     0.173 A 
ATOM     42  C   UNL A   1      43.557  27.319  37.152  1.00  0.00     0.173 A 
ATOM     43  F   UNL A   1      45.452  29.825  35.319  1.00  0.00    -0.203 F 
ATOM     44  C   UNL A   1      46.181  28.164  36.815  1.00  0.00     0.198 A 
ATOM     45  C   UNL A   1      44.591  26.697  37.850  1.00  0.00     0.198 A 
ATOM     46  F   UNL A   1      42.302  26.883  37.337  1.00  0.00    -0.203 F 
ATOM     47  F   UNL A   1      47.447  28.564  36.636  1.00  0.00    -0.200 F 
ATOM     48  C   UNL A   1      45.900  27.122  37.685  1.00  0.00     0.200 A 
ATOM     49  F   UNL A   1      44.317  25.697  38.700  1.00  0.00    -0.200 F 
ATOM     50  F   UNL A   1      46.891  26.530  38.365  1.00  0.00    -0.200 F 
ENDBRANCH  26  40
BRANCH  27  51
ATOM     51  C   UNL A   1      36.122  33.268  31.835  1.00  0.00     0.064 A 
ATOM     52  C   UNL A   1      34.907  33.504  32.492  1.00  0.00     0.173 A 
ATOM     53  C   UNL A   1      36.285  33.810  30.551  1.00  0.00     0.173 A 
ATOM     54  F   UNL A   1      34.707  33.016  33.725  1.00  0.00    -0.203 F 
ATOM     55  C   UNL A   1      33.890  34.238  31.886  1.00  0.00     0.198 A 
ATOM     56  C   UNL A   1      35.279  34.570  29.958  1.00  0.00     0.198 A 
ATOM     57  F   UNL A   1      37.442  33.642  29.894  1.00  0.00    -0.203 F 
ATOM     58  F   UNL A   1      32.730  34.428  32.528  1.00  0.00    -0.200 F 
ATOM     59  C   UNL A   1      34.080  34.778  30.622  1.00  0.00     0.200 A 
ATOM     60  F   UNL A   1      35.479  35.116  28.751  1.00  0.00    -0.200 F 
ATOM     61  F   UNL A   1      33.110  35.503  30.049  1.00  0.00    -0.200 F 
ENDBRANCH  27  51
BRANCH  39  62
ATOM     62  C   UNL A   1      40.210  34.543  37.359  1.00  0.00     0.064 A 
ATOM     63  C   UNL A   1      39.332  34.612  38.448  1.00  0.00     0.173 A 
ATOM     64  C   UNL A   1      41.190  35.539  37.229  1.00  0.00     0.173 A 
ATOM     65  F   UNL A   1      38.374  33.685  38.604  1.00  0.00    -0.203 F 
ATOM     66  C   UNL A   1      39.414  35.656  39.361  1.00  0.00     0.198 A 
ATOM     67  C   UNL A   1      41.292  36.561  38.164  1.00  0.00     0.198 A 
ATOM     68  F   UNL A   1      42.061  35.503  36.208  1.00  0.00    -0.203 F 
ATOM     69  F   UNL A   1      38.534  35.731  40.368  1.00  0.00    -0.200 F 
ATOM     70  C   UNL A   1      40.400  36.623  39.224  1.00  0.00     0.200 A 
ATOM     71  F   UNL A   1      42.257  37.483  38.044  1.00  0.00    -0.200 F 
ATOM     72  F   UNL A   1      40.487  37.619  40.115  1.00  0.00    -0.200 F 
ENDBRANCH  39  62
ENDBRANCH  13  14
ENDBRANCH   6   8
ENDBRANCH   5   6
ENDBRANCH   4   5
ENDBRANCH   3   4
ENDBRANCH   2   3
ENDBRANCH   1   2
BRANCH   1  73
ATOM     73  C   UNL A   1      37.276  21.187  25.060  1.00  0.00     0.261 C 
BRANCH  73  74
ATOM     74  O   UNL A   1      36.106  21.216  25.904  1.00  0.00    -0.463 OA
BRANCH  74  75
ATOM     75  C   UNL A   1      35.219  22.191  25.596  1.00  0.00     0.309 C 
ATOM     76  O   UNL A   1      34.798  23.017  26.399  1.00  0.00    -0.252 OA
BRANCH  75  77
ATOM     77  C   UNL A   1      34.752  22.140  24.142  1.00  0.00     0.103 C 
ATOM     78  C   UNL A   1      35.079  23.290  23.177  1.00  0.00     0.037 C 
ATOM     79  C   UNL A   1      33.282  21.780  24.100  1.00  0.00     0.037 C 
ATOM     80  C   UNL A   1      34.030  24.394  22.938  1.00  0.00     0.120 C 
ATOM     81  C   UNL A   1      32.321  22.926  23.954  1.00  0.00     0.120 C 
ATOM     82  N   UNL A   1      32.629  24.015  23.100  1.00  0.00    -0.343 N 
ATOM     83  C   UNL A   1      31.611  24.855  22.639  1.00  0.00     0.224 C 
ATOM     84  O   UNL A   1      31.867  25.741  21.815  1.00  0.00    -0.275 OA
BRANCH  83  85
ATOM     85  C   UNL A   1      30.195  24.853  23.301  1.00  0.00     0.122 C 
BRANCH  85  86
ATOM     86  C   UNL A   1      29.712  25.820  24.411  1.00  0.00     0.140 C 
BRANCH  86  87
ATOM     87  N   UNL A   1      30.727  26.729  24.966  1.00  0.00    -0.262 N 
ATOM     88  C   UNL A   1      31.690  26.405  25.894  1.00  0.00     0.253 C 
ATOM     89  C   UNL A   1      30.785  28.077  24.690  1.00  0.00     0.327 C 
ATOM     90  O   UNL A   1      31.986  25.283  26.277  1.00  0.00    -0.272 OA
ATOM     91  C   UNL A   1      32.173  27.705  26.533  1.00  0.00     0.181 C 
ATOM     92  N   UNL A   1      31.652  28.656  25.589  1.00  0.00    -0.308 N 
ATOM     93  O   UNL A   1      30.102  28.688  23.877  1.00  0.00    -0.248 OA
ATOM     94  C   UNL A   1      33.653  27.911  26.766  1.00  0.00     0.071 C 
ATOM     95  C   UNL A   1      31.808  30.072  25.838  1.00  0.00     0.158 C 
ATOM     96  C   UNL A   1      33.888  29.363  27.152  1.00  0.00    -0.040 A 
ATOM     97  C   UNL A   1      33.001  30.376  26.717  1.00  0.00    -0.025 A 
ATOM     98  C   UNL A   1      34.998  29.712  27.932  1.00  0.00     0.004 A 
ATOM     99  C   UNL A   1      33.211  31.701  27.127  1.00  0.00     0.006 A 
ATOM    100  C   UNL A   1      35.206  31.041  28.309  1.00  0.00     0.000 A 
ATOM    101  C   UNL A   1      34.308  32.031  27.919  1.00  0.00     0.000 A 
ENDBRANCH  86  87
ENDBRANCH  85  86
ENDBRANCH  83  85
ENDBRANCH  75  77
ENDBRANCH  74  75
ENDBRANCH  73  74
ENDBRANCH   1  73
TORSDOF 17
ENDMDL
