MODEL 1
REMARK VINA RESULT:     -11.8      0.000      0.000
REMARK SMILES CCN1C(=O)/C(=C/c2ccccc2O[C@H](C)C(=O)OCCOCCOC(=O)c2ccc(-c3c4nc(c(-c5c(F)c(F)c(F)c(F)c5F)c5ccc([nH]5)c(-c5c(F)c(F)c(F)c(F)c5F)c5nc(c(-c6c(F)c(F)c(F)c(F)c6F)c6ccc3[nH]6)C=C5)C=C4)cc2)S/C1=[NH+]\c1ccc(C)cc1O
REMARK SMILES IDX 20 1 19 2 17 3 18 4 15 5 16 6 14 7 13 8 8 9 9 10 10 11 12 12
REMARK SMILES IDX 11 13 7 14 3 15 4 16 92 17 5 18 6 19 91 20 93 21 2 23 1 24
REMARK SMILES IDX 94 25 95 26 100 27 96 28 99 29 97 30 98 31 101 32 21 34
REMARK SMILES IDX 22 35 23 36 24 37 25 38 26 39 27 40 28 41 29 42 90 43 30 44
REMARK SMILES IDX 89 45 31 46 32 47 33 48 83 49 34 50 88 51 82 52 84 53 35 54
REMARK SMILES IDX 87 55 81 56 80 57 36 59 68 60 48 61 67 62 49 63 52 64 66 65
REMARK SMILES IDX 85 66 50 67 51 68 65 70 86 71 53 72 37 73 38 74 46 75 39 76
REMARK SMILES IDX 40 77 44 78 47 79 41 80 42 81 45 82 43 83 69 84 70 85 78 86
REMARK SMILES IDX 71 87 72 88 76 89 79 90 73 91 74 92 77 93 75 94 54 95 55 96
REMARK SMILES IDX 63 97 56 98 57 99 61 100 64 101 58 102 59 103 62 104 60 105
REMARK H PARENT 93 22 101 33 84 58 52 69
REMARK Flexibility Score: inf
ROOT
ATOM      1  C   UNL A   1      34.564  31.835  27.955  1.00  0.00     0.261 C 
ENDROOT
BRANCH   1   2
ATOM      2  O   UNL A   1      33.541  30.826  28.010  1.00  0.00    -0.461 OA
BRANCH   2   3
ATOM      3  C   UNL A   1      32.728  30.699  26.922  1.00  0.00     0.347 C 
ATOM      4  O   UNL A   1      31.765  31.414  26.673  1.00  0.00    -0.248 OA
BRANCH   3   5
ATOM      5  C   UNL A   1      33.217  29.584  26.001  1.00  0.00     0.279 C 
ATOM      6  C   UNL A   1      33.670  28.388  26.836  1.00  0.00     0.066 C 
BRANCH   5   7
ATOM      7  O   UNL A   1      32.139  29.290  25.105  1.00  0.00    -0.478 OA
BRANCH   7   8
ATOM      8  C   UNL A   1      32.509  28.552  24.014  1.00  0.00     0.127 A 
ATOM      9  C   UNL A   1      32.046  27.242  23.821  1.00  0.00     0.018 A 
ATOM     10  C   UNL A   1      32.586  26.488  22.768  1.00  0.00     0.012 A 
ATOM     11  C   UNL A   1      33.567  27.026  21.931  1.00  0.00     0.001 A 
ATOM     12  C   UNL A   1      33.511  29.077  23.191  1.00  0.00     0.047 A 
ATOM     13  C   UNL A   1      34.027  28.323  22.141  1.00  0.00     0.004 A 
BRANCH   9  14
ATOM     14  C   UNL A   1      31.063  26.593  24.700  1.00  0.00     0.036 C 
ATOM     15  N   UNL A   1      30.575  23.604  26.671  1.00  0.00    -0.186 N 
ATOM     16  C   UNL A   1      30.180  24.848  26.215  1.00  0.00     0.348 C 
ATOM     17  C   UNL A   1      31.768  23.120  26.190  1.00  0.00     0.324 C 
ATOM     18  O   UNL A   1      29.196  25.474  26.582  1.00  0.00    -0.240 OA
ATOM     19  C   UNL A   1      31.171  25.370  25.236  1.00  0.00     0.110 C 
ATOM     20  S   UNL A   1      32.425  24.221  25.003  1.00  0.00     0.007 SA
ATOM     21  N   UNL A   1      32.300  22.029  26.633  1.00  0.00    -0.231 N 
ATOM     22  H   UNL A   1      31.843  21.538  27.354  1.00  0.00     0.313 HD
BRANCH  15  23
ATOM     23  C   UNL A   1      29.779  22.909  27.676  1.00  0.00     0.244 C 
ATOM     24  C   UNL A   1      28.603  22.157  27.069  1.00  0.00     0.055 C 
ENDBRANCH  15  23
BRANCH  21  25
ATOM     25  C   UNL A   1      33.512  21.515  26.127  1.00  0.00     0.167 A 
ATOM     26  C   UNL A   1      33.458  20.444  25.231  1.00  0.00     0.056 A 
ATOM     27  C   UNL A   1      34.776  21.946  26.556  1.00  0.00     0.162 A 
ATOM     28  C   UNL A   1      34.632  19.851  24.747  1.00  0.00     0.008 A 
ATOM     29  C   UNL A   1      35.950  21.389  26.054  1.00  0.00     0.054 A 
ATOM     30  C   UNL A   1      35.887  20.331  25.142  1.00  0.00    -0.047 A 
ATOM     31  C   UNL A   1      37.139  19.669  24.649  1.00  0.00     0.044 C 
BRANCH  27  32
ATOM     32  O   UNL A   1      34.912  22.913  27.518  1.00  0.00    -0.504 OA
ATOM     33  H   UNL A   1      34.267  23.588  27.598  1.00  0.00     0.293 HD
ENDBRANCH  27  32
ENDBRANCH  21  25
ENDBRANCH   9  14
ENDBRANCH   7   8
ENDBRANCH   5   7
ENDBRANCH   3   5
ENDBRANCH   2   3
ENDBRANCH   1   2
BRANCH   1  34
ATOM     34  C   UNL A   1      34.255  32.959  28.947  1.00  0.00     0.202 C 
BRANCH  34  35
ATOM     35  O   UNL A   1      35.301  33.268  29.870  1.00  0.00    -0.374 OA
BRANCH  35  36
ATOM     36  C   UNL A   1      34.917  33.878  31.100  1.00  0.00     0.202 C 
BRANCH  36  37
ATOM     37  C   UNL A   1      34.574  32.912  32.240  1.00  0.00     0.261 C 
BRANCH  37  38
ATOM     38  O   UNL A   1      35.273  31.660  32.118  1.00  0.00    -0.460 OA
BRANCH  38  39
ATOM     39  C   UNL A   1      36.448  31.604  32.784  1.00  0.00     0.338 C 
ATOM     40  O   UNL A   1      36.664  31.945  33.942  1.00  0.00    -0.246 OA
BRANCH  39  41
ATOM     41  C   UNL A   1      37.468  30.918  31.975  1.00  0.00     0.060 A 
ATOM     42  C   UNL A   1      38.633  30.497  32.630  1.00  0.00     0.016 A 
ATOM     43  C   UNL A   1      37.339  30.768  30.592  1.00  0.00     0.016 A 
ATOM     44  C   UNL A   1      39.696  29.976  31.899  1.00  0.00     0.010 A 
ATOM     45  C   UNL A   1      38.412  30.252  29.857  1.00  0.00     0.010 A 
ATOM     46  C   UNL A   1      39.609  29.890  30.503  1.00  0.00    -0.014 A 
BRANCH  46  47
ATOM     47  C   UNL A   1      40.826  29.570  29.717  1.00  0.00     0.031 A 
ATOM     48  C   UNL A   1      40.968  28.196  29.122  1.00  0.00     0.074 A 
ATOM     49  C   UNL A   1      41.773  30.501  29.503  1.00  0.00     0.049 A 
ATOM     50  N   UNL A   1      41.953  27.691  28.423  1.00  0.00    -0.248 NA
ATOM     51  C   UNL A   1      39.849  27.268  29.345  1.00  0.00     0.031 C 
ATOM     52  C   UNL A   1      41.728  31.877  29.991  1.00  0.00     0.029 A 
ATOM     53  N   UNL A   1      42.960  30.422  28.820  1.00  0.00    -0.354 N 
ATOM     54  C   UNL A   1      41.576  26.387  28.130  1.00  0.00     0.074 A 
ATOM     55  C   UNL A   1      40.286  26.168  28.748  1.00  0.00     0.031 C 
ATOM     56  C   UNL A   1      42.847  32.512  29.602  1.00  0.00     0.029 A 
ATOM     57  C   UNL A   1      43.696  31.579  28.864  1.00  0.00     0.049 A 
ATOM     58  H   UNL A   1      43.256  29.612  28.343  1.00  0.00     0.167 HD
ATOM     59  C   UNL A   1      42.243  25.459  27.404  1.00  0.00     0.037 A 
ATOM     60  C   UNL A   1      44.926  31.845  28.381  1.00  0.00     0.037 A 
ATOM     61  C   UNL A   1      43.521  25.679  26.783  1.00  0.00     0.049 A 
ATOM     62  C   UNL A   1      45.675  30.775  27.630  1.00  0.00     0.074 A 
ATOM     63  C   UNL A   1      44.265  24.808  26.005  1.00  0.00     0.029 A 
ATOM     64  N   UNL A   1      44.250  26.856  26.875  1.00  0.00    -0.354 N 
ATOM     65  N   UNL A   1      45.301  29.553  27.336  1.00  0.00    -0.248 NA
ATOM     66  C   UNL A   1      47.017  31.124  27.142  1.00  0.00     0.031 C 
ATOM     67  C   UNL A   1      45.466  25.441  25.667  1.00  0.00     0.029 A 
ATOM     68  C   UNL A   1      45.447  26.724  26.190  1.00  0.00     0.049 A 
ATOM     69  H   UNL A   1      43.959  27.665  27.355  1.00  0.00     0.167 HD
ATOM     70  C   UNL A   1      46.345  28.998  26.608  1.00  0.00     0.074 A 
ATOM     71  C   UNL A   1      47.365  30.019  26.495  1.00  0.00     0.031 C 
ATOM     72  C   UNL A   1      46.449  27.754  26.080  1.00  0.00     0.037 A 
BRANCH  59  73
ATOM     73  C   UNL A   1      41.613  24.104  27.263  1.00  0.00     0.064 A 
ATOM     74  C   UNL A   1      40.471  23.900  26.473  1.00  0.00     0.173 A 
ATOM     75  C   UNL A   1      42.182  22.989  27.896  1.00  0.00     0.173 A 
ATOM     76  F   UNL A   1      39.881  24.937  25.859  1.00  0.00    -0.203 F 
ATOM     77  C   UNL A   1      39.910  22.632  26.341  1.00  0.00     0.198 A 
ATOM     78  C   UNL A   1      41.635  21.720  27.739  1.00  0.00     0.198 A 
ATOM     79  F   UNL A   1      43.276  23.130  28.659  1.00  0.00    -0.203 F 
ATOM     80  F   UNL A   1      38.796  22.467  25.615  1.00  0.00    -0.200 F 
ATOM     81  C   UNL A   1      40.496  21.543  26.967  1.00  0.00     0.200 A 
ATOM     82  F   UNL A   1      42.208  20.665  28.337  1.00  0.00    -0.200 F 
ATOM     83  F   UNL A   1      39.960  20.322  26.833  1.00  0.00    -0.200 F 
ENDBRANCH  59  73
BRANCH  60  84
ATOM     84  C   UNL A   1      45.535  33.182  28.608  1.00  0.00     0.064 A 
ATOM     85  C   UNL A   1      46.290  33.448  29.758  1.00  0.00     0.173 A 
ATOM     86  C   UNL A   1      45.359  34.223  27.686  1.00  0.00     0.173 A 
ATOM     87  F   UNL A   1      46.463  32.492  30.683  1.00  0.00    -0.203 F 
ATOM     88  C   UNL A   1      46.836  34.710  29.983  1.00  0.00     0.198 A 
ATOM     89  C   UNL A   1      45.928  35.477  27.898  1.00  0.00     0.198 A 
ATOM     90  F   UNL A   1      44.640  34.020  26.572  1.00  0.00    -0.203 F 
ATOM     91  F   UNL A   1      47.518  34.952  31.111  1.00  0.00    -0.200 F 
ATOM     92  C   UNL A   1      46.660  35.722  29.050  1.00  0.00     0.200 A 
ATOM     93  F   UNL A   1      45.762  36.447  26.990  1.00  0.00    -0.200 F 
ATOM     94  F   UNL A   1      47.186  36.935  29.265  1.00  0.00    -0.200 F 
ENDBRANCH  60  84
BRANCH  72  95
ATOM     95  C   UNL A   1      47.692  27.433  25.301  1.00  0.00     0.064 A 
ATOM     96  C   UNL A   1      48.804  26.832  25.905  1.00  0.00     0.173 A 
ATOM     97  C   UNL A   1      47.748  27.683  23.921  1.00  0.00     0.173 A 
ATOM     98  F   UNL A   1      48.805  26.585  27.223  1.00  0.00    -0.203 F 
ATOM     99  C   UNL A   1      49.936  26.509  25.159  1.00  0.00     0.198 A 
ATOM    100  C   UNL A   1      48.869  27.334  23.174  1.00  0.00     0.198 A 
ATOM    101  F   UNL A   1      46.706  28.251  23.293  1.00  0.00    -0.203 F 
ATOM    102  F   UNL A   1      51.004  25.970  25.765  1.00  0.00    -0.200 F 
ATOM    103  C   UNL A   1      49.964  26.753  23.794  1.00  0.00     0.200 A 
ATOM    104  F   UNL A   1      48.889  27.558  21.852  1.00  0.00    -0.200 F 
ATOM    105  F   UNL A   1      51.050  26.433  23.077  1.00  0.00    -0.200 F 
ENDBRANCH  72  95
ENDBRANCH  46  47
ENDBRANCH  39  41
ENDBRANCH  38  39
ENDBRANCH  37  38
ENDBRANCH  36  37
ENDBRANCH  35  36
ENDBRANCH  34  35
ENDBRANCH   1  34
TORSDOF 20
ENDMDL
MODEL 2
REMARK VINA RESULT:     -11.5      2.850      8.202
REMARK SMILES CCN1C(=O)/C(=C/c2ccccc2O[C@H](C)C(=O)OCCOCCOC(=O)c2ccc(-c3c4nc(c(-c5c(F)c(F)c(F)c(F)c5F)c5ccc([nH]5)c(-c5c(F)c(F)c(F)c(F)c5F)c5nc(c(-c6c(F)c(F)c(F)c(F)c6F)c6ccc3[nH]6)C=C5)C=C4)cc2)S/C1=[NH+]\c1ccc(C)cc1O
REMARK SMILES IDX 20 1 19 2 17 3 18 4 15 5 16 6 14 7 13 8 8 9 9 10 10 11 12 12
REMARK SMILES IDX 11 13 7 14 3 15 4 16 92 17 5 18 6 19 91 20 93 21 2 23 1 24
REMARK SMILES IDX 94 25 95 26 100 27 96 28 99 29 97 30 98 31 101 32 21 34
REMARK SMILES IDX 22 35 23 36 24 37 25 38 26 39 27 40 28 41 29 42 90 43 30 44
REMARK SMILES IDX 89 45 31 46 32 47 33 48 83 49 34 50 88 51 82 52 84 53 35 54
REMARK SMILES IDX 87 55 81 56 80 57 36 59 68 60 48 61 67 62 49 63 52 64 66 65
REMARK SMILES IDX 85 66 50 67 51 68 65 70 86 71 53 72 37 73 38 74 46 75 39 76
REMARK SMILES IDX 40 77 44 78 47 79 41 80 42 81 45 82 43 83 69 84 70 85 78 86
REMARK SMILES IDX 71 87 72 88 76 89 79 90 73 91 74 92 77 93 75 94 54 95 55 96
REMARK SMILES IDX 63 97 56 98 57 99 61 100 64 101 58 102 59 103 62 104 60 105
REMARK H PARENT 93 22 101 33 84 58 52 69
REMARK Flexibility Score: inf
ROOT
ATOM      1  C   UNL A   1      34.203  25.140  25.753  1.00  0.00     0.261 C 
ENDROOT
BRANCH   1   2
ATOM      2  O   UNL A   1      33.258  24.375  26.520  1.00  0.00    -0.461 OA
BRANCH   2   3
ATOM      3  C   UNL A   1      31.941  24.713  26.409  1.00  0.00     0.347 C 
ATOM      4  O   UNL A   1      31.436  25.735  26.858  1.00  0.00    -0.248 OA
BRANCH   3   5
ATOM      5  C   UNL A   1      31.178  23.682  25.582  1.00  0.00     0.279 C 
ATOM      6  C   UNL A   1      30.082  23.048  26.435  1.00  0.00     0.066 C 
BRANCH   5   7
ATOM      7  O   UNL A   1      30.687  24.367  24.423  1.00  0.00    -0.478 OA
BRANCH   7   8
ATOM      8  C   UNL A   1      31.587  24.434  23.395  1.00  0.00     0.127 A 
ATOM      9  C   UNL A   1      31.488  25.413  22.396  1.00  0.00     0.018 A 
ATOM     10  C   UNL A   1      32.347  25.329  21.288  1.00  0.00     0.012 A 
ATOM     11  C   UNL A   1      33.277  24.293  21.180  1.00  0.00     0.001 A 
ATOM     12  C   UNL A   1      32.502  23.383  23.270  1.00  0.00     0.047 A 
ATOM     13  C   UNL A   1      33.357  23.321  22.174  1.00  0.00     0.004 A 
BRANCH   9  14
ATOM     14  C   UNL A   1      30.493  26.493  22.415  1.00  0.00     0.036 C 
ATOM     15  N   UNL A   1      29.875  29.742  23.871  1.00  0.00    -0.186 N 
ATOM     16  C   UNL A   1      29.546  28.694  23.032  1.00  0.00     0.348 C 
ATOM     17  C   UNL A   1      31.021  29.600  24.616  1.00  0.00     0.324 C 
ATOM     18  O   UNL A   1      28.613  28.665  22.242  1.00  0.00    -0.240 OA
ATOM     19  C   UNL A   1      30.539  27.595  23.175  1.00  0.00     0.110 C 
ATOM     20  S   UNL A   1      31.711  28.017  24.356  1.00  0.00     0.007 SA
ATOM     21  N   UNL A   1      31.497  30.558  25.342  1.00  0.00    -0.231 N 
ATOM     22  H   UNL A   1      31.030  31.425  25.346  1.00  0.00     0.313 HD
BRANCH  15  23
ATOM     23  C   UNL A   1      29.066  30.955  23.876  1.00  0.00     0.244 C 
ATOM     24  C   UNL A   1      29.151  31.717  22.560  1.00  0.00     0.055 C 
ENDBRANCH  15  23
BRANCH  21  25
ATOM     25  C   UNL A   1      32.659  30.410  26.127  1.00  0.00     0.167 A 
ATOM     26  C   UNL A   1      33.358  29.203  26.062  1.00  0.00     0.056 A 
ATOM     27  C   UNL A   1      33.092  31.369  27.056  1.00  0.00     0.162 A 
ATOM     28  C   UNL A   1      34.481  28.977  26.869  1.00  0.00     0.008 A 
ATOM     29  C   UNL A   1      34.229  31.170  27.836  1.00  0.00     0.054 A 
ATOM     30  C   UNL A   1      34.935  29.966  27.750  1.00  0.00    -0.047 A 
ATOM     31  C   UNL A   1      36.115  29.705  28.637  1.00  0.00     0.044 C 
BRANCH  27  32
ATOM     32  O   UNL A   1      32.395  32.530  27.262  1.00  0.00    -0.504 OA
ATOM     33  H   UNL A   1      32.470  32.983  28.080  1.00  0.00     0.293 HD
ENDBRANCH  27  32
ENDBRANCH  21  25
ENDBRANCH   9  14
ENDBRANCH   7   8
ENDBRANCH   5   7
ENDBRANCH   3   5
ENDBRANCH   2   3
ENDBRANCH   1   2
BRANCH   1  34
ATOM     34  C   UNL A   1      35.381  24.259  25.330  1.00  0.00     0.202 C 
BRANCH  34  35
ATOM     35  O   UNL A   1      35.455  22.984  25.973  1.00  0.00    -0.374 OA
BRANCH  35  36
ATOM     36  C   UNL A   1      35.621  21.846  25.131  1.00  0.00     0.202 C 
BRANCH  36  37
ATOM     37  C   UNL A   1      36.888  21.019  25.376  1.00  0.00     0.261 C 
BRANCH  37  38
ATOM     38  O   UNL A   1      38.086  21.793  25.181  1.00  0.00    -0.460 OA
BRANCH  38  39
ATOM     39  C   UNL A   1      39.097  21.486  26.025  1.00  0.00     0.338 C 
ATOM     40  O   UNL A   1      39.649  20.399  26.162  1.00  0.00    -0.246 OA
BRANCH  39  41
ATOM     41  C   UNL A   1      39.592  22.698  26.697  1.00  0.00     0.060 A 
ATOM     42  C   UNL A   1      38.943  23.906  26.406  1.00  0.00     0.016 A 
ATOM     43  C   UNL A   1      40.721  22.681  27.520  1.00  0.00     0.016 A 
ATOM     44  C   UNL A   1      39.452  25.107  26.891  1.00  0.00     0.010 A 
ATOM     45  C   UNL A   1      41.236  23.890  27.999  1.00  0.00     0.010 A 
ATOM     46  C   UNL A   1      40.626  25.111  27.655  1.00  0.00    -0.014 A 
BRANCH  46  47
ATOM     47  C   UNL A   1      41.293  26.401  27.955  1.00  0.00     0.031 A 
ATOM     48  C   UNL A   1      42.689  26.635  27.445  1.00  0.00     0.074 A 
ATOM     49  C   UNL A   1      40.653  27.367  28.636  1.00  0.00     0.049 A 
ATOM     50  N   UNL A   1      43.471  27.672  27.607  1.00  0.00    -0.248 NA
ATOM     51  C   UNL A   1      43.283  25.552  26.645  1.00  0.00     0.031 C 
ATOM     52  C   UNL A   1      39.286  27.275  29.145  1.00  0.00     0.029 A 
ATOM     53  N   UNL A   1      41.075  28.615  29.021  1.00  0.00    -0.354 N 
ATOM     54  C   UNL A   1      44.648  27.365  26.937  1.00  0.00     0.074 A 
ATOM     55  C   UNL A   1      44.490  26.035  26.389  1.00  0.00     0.031 C 
ATOM     56  C   UNL A   1      38.985  28.417  29.787  1.00  0.00     0.029 A 
ATOM     57  C   UNL A   1      40.147  29.305  29.760  1.00  0.00     0.049 A 
ATOM     58  H   UNL A   1      41.959  28.981  28.789  1.00  0.00     0.167 HD
ATOM     59  C   UNL A   1      45.757  28.127  26.787  1.00  0.00     0.037 A 
ATOM     60  C   UNL A   1      40.234  30.506  30.363  1.00  0.00     0.037 A 
ATOM     61  C   UNL A   1      45.910  29.453  27.325  1.00  0.00     0.049 A 
ATOM     62  C   UNL A   1      41.503  31.310  30.233  1.00  0.00     0.074 A 
ATOM     63  C   UNL A   1      46.986  30.314  27.204  1.00  0.00     0.029 A 
ATOM     64  N   UNL A   1      44.958  30.106  28.093  1.00  0.00    -0.354 N 
ATOM     65  N   UNL A   1      42.602  31.022  29.577  1.00  0.00    -0.248 NA
ATOM     66  C   UNL A   1      41.541  32.605  30.926  1.00  0.00     0.031 C 
ATOM     67  C   UNL A   1      46.705  31.470  27.939  1.00  0.00     0.029 A 
ATOM     68  C   UNL A   1      45.433  31.350  28.475  1.00  0.00     0.049 A 
ATOM     69  H   UNL A   1      44.075  29.740  28.332  1.00  0.00     0.167 HD
ATOM     70  C   UNL A   1      43.449  32.109  29.755  1.00  0.00     0.074 A 
ATOM     71  C   UNL A   1      42.733  33.067  30.572  1.00  0.00     0.031 C 
ATOM     72  C   UNL A   1      44.705  32.296  29.283  1.00  0.00     0.037 A 
BRANCH  59  73
ATOM     73  C   UNL A   1      46.908  27.535  26.029  1.00  0.00     0.064 A 
ATOM     74  C   UNL A   1      47.037  27.692  24.641  1.00  0.00     0.173 A 
ATOM     75  C   UNL A   1      47.916  26.833  26.708  1.00  0.00     0.173 A 
ATOM     76  F   UNL A   1      46.093  28.343  23.945  1.00  0.00    -0.203 F 
ATOM     77  C   UNL A   1      48.122  27.149  23.957  1.00  0.00     0.198 A 
ATOM     78  C   UNL A   1      49.012  26.315  26.024  1.00  0.00     0.198 A 
ATOM     79  F   UNL A   1      47.842  26.657  28.035  1.00  0.00    -0.203 F 
ATOM     80  F   UNL A   1      48.204  27.276  22.625  1.00  0.00    -0.200 F 
ATOM     81  C   UNL A   1      49.112  26.468  24.650  1.00  0.00     0.200 A 
ATOM     82  F   UNL A   1      49.974  25.666  26.696  1.00  0.00    -0.200 F 
ATOM     83  F   UNL A   1      50.159  25.953  23.991  1.00  0.00    -0.200 F 
ENDBRANCH  59  73
BRANCH  60  84
ATOM     84  C   UNL A   1      39.090  31.018  31.161  1.00  0.00     0.064 A 
ATOM     85  C   UNL A   1      38.119  31.848  30.585  1.00  0.00     0.173 A 
ATOM     86  C   UNL A   1      38.955  30.699  32.519  1.00  0.00     0.173 A 
ATOM     87  F   UNL A   1      38.221  32.204  29.296  1.00  0.00    -0.203 F 
ATOM     88  C   UNL A   1      37.063  32.351  31.343  1.00  0.00     0.198 A 
ATOM     89  C   UNL A   1      37.884  31.179  33.269  1.00  0.00     0.198 A 
ATOM     90  F   UNL A   1      39.861  29.911  33.119  1.00  0.00    -0.203 F 
ATOM     91  F   UNL A   1      36.171  33.178  30.780  1.00  0.00    -0.200 F 
ATOM     92  C   UNL A   1      36.942  32.011  32.682  1.00  0.00     0.200 A 
ATOM     93  F   UNL A   1      37.767  30.840  34.560  1.00  0.00    -0.200 F 
ATOM     94  F   UNL A   1      35.926  32.492  33.409  1.00  0.00    -0.200 F 
ENDBRANCH  60  84
BRANCH  72  95
ATOM     95  C   UNL A   1      45.380  33.598  29.606  1.00  0.00     0.064 A 
ATOM     96  C   UNL A   1      46.185  33.747  30.743  1.00  0.00     0.173 A 
ATOM     97  C   UNL A   1      45.262  34.692  28.735  1.00  0.00     0.173 A 
ATOM     98  F   UNL A   1      46.319  32.735  31.613  1.00  0.00    -0.203 F 
ATOM     99  C   UNL A   1      46.831  34.952  31.008  1.00  0.00     0.198 A 
ATOM    100  C   UNL A   1      45.932  35.886  28.989  1.00  0.00     0.198 A 
ATOM    101  F   UNL A   1      44.508  34.599  27.628  1.00  0.00    -0.203 F 
ATOM    102  F   UNL A   1      47.565  35.086  32.123  1.00  0.00    -0.200 F 
ATOM    103  C   UNL A   1      46.711  36.017  30.128  1.00  0.00     0.200 A 
ATOM    104  F   UNL A   1      45.824  36.909  28.130  1.00  0.00    -0.200 F 
ATOM    105  F   UNL A   1      47.342  37.172  30.380  1.00  0.00    -0.200 F 
ENDBRANCH  72  95
ENDBRANCH  46  47
ENDBRANCH  39  41
ENDBRANCH  38  39
ENDBRANCH  37  38
ENDBRANCH  36  37
ENDBRANCH  35  36
ENDBRANCH  34  35
ENDBRANCH   1  34
TORSDOF 20
ENDMDL
MODEL 3
REMARK VINA RESULT:     -11.4      2.788      8.463
REMARK SMILES CCN1C(=O)/C(=C/c2ccccc2O[C@H](C)C(=O)OCCOCCOC(=O)c2ccc(-c3c4nc(c(-c5c(F)c(F)c(F)c(F)c5F)c5ccc([nH]5)c(-c5c(F)c(F)c(F)c(F)c5F)c5nc(c(-c6c(F)c(F)c(F)c(F)c6F)c6ccc3[nH]6)C=C5)C=C4)cc2)S/C1=[NH+]\c1ccc(C)cc1O
REMARK SMILES IDX 20 1 19 2 17 3 18 4 15 5 16 6 14 7 13 8 8 9 9 10 10 11 12 12
REMARK SMILES IDX 11 13 7 14 3 15 4 16 92 17 5 18 6 19 91 20 93 21 2 23 1 24
REMARK SMILES IDX 94 25 95 26 100 27 96 28 99 29 97 30 98 31 101 32 21 34
REMARK SMILES IDX 22 35 23 36 24 37 25 38 26 39 27 40 28 41 29 42 90 43 30 44
REMARK SMILES IDX 89 45 31 46 32 47 33 48 83 49 34 50 88 51 82 52 84 53 35 54
REMARK SMILES IDX 87 55 81 56 80 57 36 59 68 60 48 61 67 62 49 63 52 64 66 65
REMARK SMILES IDX 85 66 50 67 51 68 65 70 86 71 53 72 37 73 38 74 46 75 39 76
REMARK SMILES IDX 40 77 44 78 47 79 41 80 42 81 45 82 43 83 69 84 70 85 78 86
REMARK SMILES IDX 71 87 72 88 76 89 79 90 73 91 74 92 77 93 75 94 54 95 55 96
REMARK SMILES IDX 63 97 56 98 57 99 61 100 64 101 58 102 59 103 62 104 60 105
REMARK H PARENT 93 22 101 33 84 58 52 69
REMARK Flexibility Score: inf
ROOT
ATOM      1  C   UNL A   1      34.193  24.899  25.951  1.00  0.00     0.261 C 
ENDROOT
BRANCH   1   2
ATOM      2  O   UNL A   1      33.176  24.161  26.651  1.00  0.00    -0.461 OA
BRANCH   2   3
ATOM      3  C   UNL A   1      31.882  24.554  26.475  1.00  0.00     0.347 C 
ATOM      4  O   UNL A   1      31.404  25.607  26.879  1.00  0.00    -0.248 OA
BRANCH   3   5
ATOM      5  C   UNL A   1      31.111  23.538  25.637  1.00  0.00     0.279 C 
ATOM      6  C   UNL A   1      29.992  22.923  26.475  1.00  0.00     0.066 C 
BRANCH   5   7
ATOM      7  O   UNL A   1      30.648  24.234  24.473  1.00  0.00    -0.478 OA
BRANCH   7   8
ATOM      8  C   UNL A   1      31.563  24.288  23.457  1.00  0.00     0.127 A 
ATOM      9  C   UNL A   1      31.496  25.272  22.460  1.00  0.00     0.018 A 
ATOM     10  C   UNL A   1      32.368  25.178  21.365  1.00  0.00     0.012 A 
ATOM     11  C   UNL A   1      33.281  24.125  21.266  1.00  0.00     0.001 A 
ATOM     12  C   UNL A   1      32.461  23.222  23.341  1.00  0.00     0.047 A 
ATOM     13  C   UNL A   1      33.330  23.149  22.257  1.00  0.00     0.004 A 
BRANCH   9  14
ATOM     14  C   UNL A   1      30.519  26.370  22.470  1.00  0.00     0.036 C 
ATOM     15  N   UNL A   1      29.966  29.649  23.883  1.00  0.00    -0.186 N 
ATOM     16  C   UNL A   1      29.614  28.595  23.061  1.00  0.00     0.348 C 
ATOM     17  C   UNL A   1      31.114  29.498  24.623  1.00  0.00     0.324 C 
ATOM     18  O   UNL A   1      28.676  28.572  22.277  1.00  0.00    -0.240 OA
ATOM     19  C   UNL A   1      30.589  27.482  23.214  1.00  0.00     0.110 C 
ATOM     20  S   UNL A   1      31.775  27.899  24.382  1.00  0.00     0.007 SA
ATOM     21  N   UNL A   1      31.610  30.458  25.333  1.00  0.00    -0.231 N 
ATOM     22  H   UNL A   1      31.158  31.333  25.328  1.00  0.00     0.313 HD
BRANCH  15  23
ATOM     23  C   UNL A   1      29.178  30.876  23.875  1.00  0.00     0.244 C 
ATOM     24  C   UNL A   1      29.145  31.538  22.504  1.00  0.00     0.055 C 
ENDBRANCH  15  23
BRANCH  21  25
ATOM     25  C   UNL A   1      32.774  30.301  26.114  1.00  0.00     0.167 A 
ATOM     26  C   UNL A   1      33.472  29.094  26.035  1.00  0.00     0.056 A 
ATOM     27  C   UNL A   1      33.211  31.250  27.051  1.00  0.00     0.162 A 
ATOM     28  C   UNL A   1      34.597  28.858  26.836  1.00  0.00     0.008 A 
ATOM     29  C   UNL A   1      34.350  31.042  27.826  1.00  0.00     0.054 A 
ATOM     30  C   UNL A   1      35.054  29.838  27.726  1.00  0.00    -0.047 A 
ATOM     31  C   UNL A   1      36.236  29.567  28.608  1.00  0.00     0.044 C 
BRANCH  27  32
ATOM     32  O   UNL A   1      32.516  32.410  27.271  1.00  0.00    -0.504 OA
ATOM     33  H   UNL A   1      32.933  33.239  27.136  1.00  0.00     0.293 HD
ENDBRANCH  27  32
ENDBRANCH  21  25
ENDBRANCH   9  14
ENDBRANCH   7   8
ENDBRANCH   5   7
ENDBRANCH   3   5
ENDBRANCH   2   3
ENDBRANCH   1   2
BRANCH   1  34
ATOM     34  C   UNL A   1      35.374  23.986  25.612  1.00  0.00     0.202 C 
BRANCH  34  35
ATOM     35  O   UNL A   1      35.152  22.591  25.829  1.00  0.00    -0.374 OA
BRANCH  35  36
ATOM     36  C   UNL A   1      35.706  21.694  24.870  1.00  0.00     0.202 C 
BRANCH  36  37
ATOM     37  C   UNL A   1      36.956  20.929  25.321  1.00  0.00     0.261 C 
BRANCH  37  38
ATOM     38  O   UNL A   1      38.150  21.723  25.198  1.00  0.00    -0.460 OA
BRANCH  38  39
ATOM     39  C   UNL A   1      39.122  21.417  26.086  1.00  0.00     0.338 C 
ATOM     40  O   UNL A   1      39.604  20.312  26.312  1.00  0.00    -0.246 OA
BRANCH  39  41
ATOM     41  C   UNL A   1      39.676  22.642  26.686  1.00  0.00     0.060 A 
ATOM     42  C   UNL A   1      39.192  23.867  26.208  1.00  0.00     0.016 A 
ATOM     43  C   UNL A   1      40.710  22.605  27.625  1.00  0.00     0.016 A 
ATOM     44  C   UNL A   1      39.776  25.059  26.625  1.00  0.00     0.010 A 
ATOM     45  C   UNL A   1      41.302  23.805  28.036  1.00  0.00     0.010 A 
ATOM     46  C   UNL A   1      40.863  25.034  27.509  1.00  0.00    -0.014 A 
BRANCH  46  47
ATOM     47  C   UNL A   1      41.632  26.279  27.751  1.00  0.00     0.031 A 
ATOM     48  C   UNL A   1      41.008  27.370  28.577  1.00  0.00     0.074 A 
ATOM     49  C   UNL A   1      42.882  26.421  27.277  1.00  0.00     0.049 A 
ATOM     50  N   UNL A   1      41.484  28.547  28.895  1.00  0.00    -0.248 NA
ATOM     51  C   UNL A   1      39.667  27.097  29.117  1.00  0.00     0.031 C 
ATOM     52  C   UNL A   1      43.608  25.419  26.501  1.00  0.00     0.029 A 
ATOM     53  N   UNL A   1      43.758  27.472  27.379  1.00  0.00    -0.354 N 
ATOM     54  C   UNL A   1      40.500  29.156  29.664  1.00  0.00     0.074 A 
ATOM     55  C   UNL A   1      39.391  28.232  29.743  1.00  0.00     0.031 C 
ATOM     56  C   UNL A   1      44.819  25.909  26.185  1.00  0.00     0.029 A 
ATOM     57  C   UNL A   1      44.939  27.268  26.711  1.00  0.00     0.049 A 
ATOM     58  H   UNL A   1      43.559  28.294  27.883  1.00  0.00     0.167 HD
ATOM     59  C   UNL A   1      40.525  30.374  30.256  1.00  0.00     0.037 A 
ATOM     60  C   UNL A   1      45.988  28.094  26.527  1.00  0.00     0.037 A 
ATOM     61  C   UNL A   1      41.633  31.289  30.183  1.00  0.00     0.049 A 
ATOM     62  C   UNL A   1      45.966  29.468  27.145  1.00  0.00     0.074 A 
ATOM     63  C   UNL A   1      41.762  32.535  30.771  1.00  0.00     0.029 A 
ATOM     64  N   UNL A   1      42.801  31.059  29.472  1.00  0.00    -0.354 N 
ATOM     65  N   UNL A   1      45.042  30.027  27.890  1.00  0.00    -0.248 NA
ATOM     66  C   UNL A   1      47.133  30.326  26.896  1.00  0.00     0.031 C 
ATOM     67  C   UNL A   1      42.989  33.079  30.377  1.00  0.00     0.029 A 
ATOM     68  C   UNL A   1      43.645  32.151  29.585  1.00  0.00     0.049 A 
ATOM     69  H   UNL A   1      43.000  30.240  28.963  1.00  0.00     0.167 HD
ATOM     70  C   UNL A   1      45.527  31.285  28.222  1.00  0.00     0.074 A 
ATOM     71  C   UNL A   1      46.832  31.406  27.604  1.00  0.00     0.031 C 
ATOM     72  C   UNL A   1      44.945  32.253  28.970  1.00  0.00     0.037 A 
BRANCH  59  73
ATOM     73  C   UNL A   1      39.304  30.800  31.016  1.00  0.00     0.064 A 
ATOM     74  C   UNL A   1      39.108  30.443  32.358  1.00  0.00     0.173 A 
ATOM     75  C   UNL A   1      38.336  31.610  30.403  1.00  0.00     0.173 A 
ATOM     76  F   UNL A   1      39.998  29.660  32.986  1.00  0.00    -0.203 F 
ATOM     77  C   UNL A   1      37.976  30.863  33.053  1.00  0.00     0.198 A 
ATOM     78  C   UNL A   1      37.219  32.049  31.107  1.00  0.00     0.198 A 
ATOM     79  F   UNL A   1      38.477  31.981  29.122  1.00  0.00    -0.203 F 
ATOM     80  F   UNL A   1      37.789  30.477  34.322  1.00  0.00    -0.200 F 
ATOM     81  C   UNL A   1      37.037  31.671  32.429  1.00  0.00     0.200 A 
ATOM     82  F   UNL A   1      36.318  32.839  30.507  1.00  0.00    -0.200 F 
ATOM     83  F   UNL A   1      35.952  32.081  33.100  1.00  0.00    -0.200 F 
ENDBRANCH  59  73
BRANCH  60  84
ATOM     84  C   UNL A   1      47.144  27.648  25.707  1.00  0.00     0.064 A 
ATOM     85  C   UNL A   1      47.143  27.792  24.313  1.00  0.00     0.173 A 
ATOM     86  C   UNL A   1      48.267  27.055  26.301  1.00  0.00     0.173 A 
ATOM     87  F   UNL A   1      46.079  28.328  23.696  1.00  0.00    -0.203 F 
ATOM     88  C   UNL A   1      48.216  27.347  23.543  1.00  0.00     0.198 A 
ATOM     89  C   UNL A   1      49.352  26.636  25.534  1.00  0.00     0.198 A 
ATOM     90  F   UNL A   1      48.316  26.890  27.632  1.00  0.00    -0.203 F 
ATOM     91  F   UNL A   1      48.172  27.457  22.208  1.00  0.00    -0.200 F 
ATOM     92  C   UNL A   1      49.322  26.775  24.155  1.00  0.00     0.200 A 
ATOM     93  F   UNL A   1      50.421  26.093  26.130  1.00  0.00    -0.200 F 
ATOM     94  F   UNL A   1      50.355  26.350  23.415  1.00  0.00    -0.200 F 
ENDBRANCH  60  84
BRANCH  72  95
ATOM     95  C   UNL A   1      45.723  33.517  29.196  1.00  0.00     0.064 A 
ATOM     96  C   UNL A   1      45.579  34.629  28.356  1.00  0.00     0.173 A 
ATOM     97  C   UNL A   1      46.582  33.633  30.300  1.00  0.00     0.173 A 
ATOM     98  F   UNL A   1      44.780  34.565  27.281  1.00  0.00    -0.203 F 
ATOM     99  C   UNL A   1      46.283  35.806  28.601  1.00  0.00     0.198 A 
ATOM    100  C   UNL A   1      47.262  34.819  30.558  1.00  0.00     0.198 A 
ATOM    101  F   UNL A   1      46.750  32.598  31.139  1.00  0.00    -0.203 F 
ATOM    102  F   UNL A   1      46.160  36.845  27.763  1.00  0.00    -0.200 F 
ATOM    103  C   UNL A   1      47.117  35.903  29.705  1.00  0.00     0.200 A 
ATOM    104  F   UNL A   1      48.058  34.915  31.633  1.00  0.00    -0.200 F 
ATOM    105  F   UNL A   1      47.785  37.039  29.945  1.00  0.00    -0.200 F 
ENDBRANCH  72  95
ENDBRANCH  46  47
ENDBRANCH  39  41
ENDBRANCH  38  39
ENDBRANCH  37  38
ENDBRANCH  36  37
ENDBRANCH  35  36
ENDBRANCH  34  35
ENDBRANCH   1  34
TORSDOF 20
ENDMDL
