MODEL 1
REMARK VINA RESULT:     -12.6      0.000      0.000
REMARK SMILES C[C@@H]1[C@@H](C(=O)OCCOCCOC(=O)c2ccc(-c3c4nc(c(-c5c(F)c(F)c(F)c(F)c5F)c5ccc([nH]5)c(-c5c(F)c(F)c(F)c(F)c5F)c5nc(c(-c6c(F)c(F)c(F)c(F)c6F)c6ccc3[nH]6)C=C5)C=C4)cc2)CC[N@@H+]1C[C@@H]1Cc2ccccc2O1
REMARK SMILES IDX 9 1 8 2 7 3 6 4 4 5 5 6 3 7 1 8 2 9 80 10 78 11 79 12 81 14
REMARK SMILES IDX 82 15 83 16 90 17 84 18 89 19 85 20 88 21 86 22 87 23 10 24
REMARK SMILES IDX 11 25 12 26 13 27 14 28 15 29 16 30 77 31 17 32 76 33 18 34
REMARK SMILES IDX 19 35 20 36 70 37 21 38 75 39 69 40 71 41 22 42 74 43 68 44
REMARK SMILES IDX 67 45 23 47 55 48 35 49 54 50 36 51 39 52 53 53 72 54 37 55
REMARK SMILES IDX 38 56 52 58 73 59 40 60 24 61 25 62 33 63 26 64 27 65 31 66
REMARK SMILES IDX 34 67 28 68 29 69 32 70 30 71 56 72 57 73 65 74 58 75 59 76
REMARK SMILES IDX 63 77 66 78 60 79 61 80 64 81 62 82 41 83 42 84 50 85 43 86
REMARK SMILES IDX 44 87 48 88 51 89 45 90 46 91 49 92 47 93
REMARK H PARENT 80 13 71 46 39 57
REMARK Flexibility Score: inf
ROOT
ATOM      1  O   UNL A   1      32.391  28.823  23.999  1.00  0.00    -0.374 OA
ENDROOT
BRANCH   1   2
ATOM      2  C   UNL A   1      30.969  28.689  24.071  1.00  0.00     0.202 C 
BRANCH   2   3
ATOM      3  C   UNL A   1      30.455  27.309  24.488  1.00  0.00     0.261 C 
BRANCH   3   4
ATOM      4  O   UNL A   1      31.579  26.479  24.827  1.00  0.00    -0.463 OA
BRANCH   4   5
ATOM      5  C   UNL A   1      31.715  26.140  26.133  1.00  0.00     0.315 C 
ATOM      6  O   UNL A   1      31.355  26.830  27.078  1.00  0.00    -0.252 OA
BRANCH   5   7
ATOM      7  C   UNL A   1      32.334  24.766  26.301  1.00  0.00     0.162 C 
ATOM      8  C   UNL A   1      34.328  24.135  24.891  1.00  0.00     0.076 C 
ATOM      9  C   UNL A   1      32.803  24.231  24.939  1.00  0.00     0.195 C 
ATOM     10  N   UNL A   1      32.092  22.966  24.824  1.00  0.00    -0.329 N 
ATOM     11  C   UNL A   1      31.403  23.682  26.861  1.00  0.00     0.083 C 
ATOM     12  C   UNL A   1      30.909  22.934  25.641  1.00  0.00     0.263 C 
ATOM     13  H   UNL A   1      32.063  22.649  23.855  1.00  0.00     0.348 HD
BRANCH  10  14
ATOM     14  C   UNL A   1      32.581  21.816  24.107  1.00  0.00     0.308 C 
BRANCH  14  15
ATOM     15  C   UNL A   1      33.164  20.652  24.943  1.00  0.00     0.232 C 
ATOM     16  C   UNL A   1      34.470  20.030  24.415  1.00  0.00     0.090 C 
ATOM     17  O   UNL A   1      32.153  19.601  25.009  1.00  0.00    -0.484 OA
ATOM     18  C   UNL A   1      34.210  18.604  24.697  1.00  0.00    -0.002 A 
ATOM     19  C   UNL A   1      32.864  18.433  24.957  1.00  0.00     0.123 A 
ATOM     20  C   UNL A   1      35.075  17.525  24.634  1.00  0.00     0.007 A 
ATOM     21  C   UNL A   1      32.312  17.180  25.115  1.00  0.00     0.047 A 
ATOM     22  C   UNL A   1      34.542  16.248  24.819  1.00  0.00     0.001 A 
ATOM     23  C   UNL A   1      33.165  16.076  25.042  1.00  0.00     0.004 A 
ENDBRANCH  14  15
ENDBRANCH  10  14
ENDBRANCH   5   7
ENDBRANCH   4   5
ENDBRANCH   3   4
ENDBRANCH   2   3
ENDBRANCH   1   2
BRANCH   1  24
ATOM     24  C   UNL A   1      33.050  29.475  25.082  1.00  0.00     0.202 C 
BRANCH  24  25
ATOM     25  C   UNL A   1      32.179  30.411  25.934  1.00  0.00     0.261 C 
BRANCH  25  26
ATOM     26  O   UNL A   1      32.655  30.543  27.288  1.00  0.00    -0.460 OA
BRANCH  26  27
ATOM     27  C   UNL A   1      33.435  31.625  27.508  1.00  0.00     0.338 C 
ATOM     28  O   UNL A   1      33.083  32.801  27.552  1.00  0.00    -0.246 OA
BRANCH  27  29
ATOM     29  C   UNL A   1      34.806  31.219  27.856  1.00  0.00     0.060 A 
ATOM     30  C   UNL A   1      35.034  29.854  28.071  1.00  0.00     0.016 A 
ATOM     31  C   UNL A   1      35.819  32.154  28.087  1.00  0.00     0.016 A 
ATOM     32  C   UNL A   1      36.260  29.422  28.571  1.00  0.00     0.010 A 
ATOM     33  C   UNL A   1      37.048  31.715  28.598  1.00  0.00     0.010 A 
ATOM     34  C   UNL A   1      37.261  30.353  28.880  1.00  0.00    -0.014 A 
BRANCH  34  35
ATOM     35  C   UNL A   1      38.454  29.902  29.640  1.00  0.00     0.031 A 
ATOM     36  C   UNL A   1      38.668  30.413  31.040  1.00  0.00     0.074 A 
ATOM     37  C   UNL A   1      39.302  28.997  29.121  1.00  0.00     0.049 A 
ATOM     38  N   UNL A   1      39.624  30.135  31.890  1.00  0.00    -0.248 NA
ATOM     39  C   UNL A   1      37.668  31.364  31.550  1.00  0.00     0.031 C 
ATOM     40  C   UNL A   1      39.181  28.391  27.797  1.00  0.00     0.029 A 
ATOM     41  N   UNL A   1      40.431  28.425  29.653  1.00  0.00    -0.354 N 
ATOM     42  C   UNL A   1      39.341  30.872  33.032  1.00  0.00     0.074 A 
ATOM     43  C   UNL A   1      38.142  31.636  32.757  1.00  0.00     0.031 C 
ATOM     44  C   UNL A   1      40.202  27.534  27.617  1.00  0.00     0.029 A 
ATOM     45  C   UNL A   1      41.058  27.549  28.801  1.00  0.00     0.049 A 
ATOM     46  H   UNL A   1      40.761  28.625  30.558  1.00  0.00     0.167 HD
ATOM     47  C   UNL A   1      40.011  30.903  34.209  1.00  0.00     0.037 A 
ATOM     48  C   UNL A   1      42.200  26.852  28.957  1.00  0.00     0.037 A 
ATOM     49  C   UNL A   1      41.200  30.141  34.490  1.00  0.00     0.049 A 
ATOM     50  C   UNL A   1      42.965  26.956  30.251  1.00  0.00     0.074 A 
ATOM     51  C   UNL A   1      41.938  30.094  35.659  1.00  0.00     0.029 A 
ATOM     52  N   UNL A   1      41.829  29.299  33.585  1.00  0.00    -0.354 N 
ATOM     53  N   UNL A   1      42.675  27.636  31.334  1.00  0.00    -0.248 NA
ATOM     54  C   UNL A   1      44.218  26.191  30.344  1.00  0.00     0.031 C 
ATOM     55  C   UNL A   1      43.039  29.258  35.448  1.00  0.00     0.029 A 
ATOM     56  C   UNL A   1      42.961  28.747  34.163  1.00  0.00     0.049 A 
ATOM     57  H   UNL A   1      41.516  29.119  32.669  1.00  0.00     0.167 HD
ATOM     58  C   UNL A   1      43.689  27.361  32.242  1.00  0.00     0.074 A 
ATOM     59  C   UNL A   1      44.598  26.442  31.590  1.00  0.00     0.031 C 
ATOM     60  C   UNL A   1      43.852  27.827  33.505  1.00  0.00     0.037 A 
BRANCH  47  61
ATOM     61  C   UNL A   1      39.483  31.807  35.282  1.00  0.00     0.064 A 
ATOM     62  C   UNL A   1      38.589  31.346  36.260  1.00  0.00     0.173 A 
ATOM     63  C   UNL A   1      39.907  33.142  35.357  1.00  0.00     0.173 A 
ATOM     64  F   UNL A   1      38.144  30.080  36.225  1.00  0.00    -0.203 F 
ATOM     65  C   UNL A   1      38.122  32.195  37.260  1.00  0.00     0.198 A 
ATOM     66  C   UNL A   1      39.458  33.981  36.372  1.00  0.00     0.198 A 
ATOM     67  F   UNL A   1      40.764  33.631  34.448  1.00  0.00    -0.203 F 
ATOM     68  F   UNL A   1      37.237  31.745  38.161  1.00  0.00    -0.200 F 
ATOM     69  C   UNL A   1      38.562  33.509  37.320  1.00  0.00     0.200 A 
ATOM     70  F   UNL A   1      39.891  35.248  36.435  1.00  0.00    -0.200 F 
ATOM     71  F   UNL A   1      38.116  34.323  38.287  1.00  0.00    -0.200 F 
ENDBRANCH  47  61
BRANCH  48  72
ATOM     72  C   UNL A   1      42.701  25.994  27.852  1.00  0.00     0.064 A 
ATOM     73  C   UNL A   1      43.611  26.484  26.906  1.00  0.00     0.173 A 
ATOM     74  C   UNL A   1      42.259  24.670  27.707  1.00  0.00     0.173 A 
ATOM     75  F   UNL A   1      44.040  27.753  26.986  1.00  0.00    -0.203 F 
ATOM     76  C   UNL A   1      44.047  25.690  25.848  1.00  0.00     0.198 A 
ATOM     77  C   UNL A   1      42.717  23.868  26.665  1.00  0.00     0.198 A 
ATOM     78  F   UNL A   1      41.384  24.154  28.584  1.00  0.00    -0.203 F 
ATOM     79  F   UNL A   1      44.881  26.199  24.931  1.00  0.00    -0.200 F 
ATOM     80  C   UNL A   1      43.604  24.380  25.732  1.00  0.00     0.200 A 
ATOM     81  F   UNL A   1      42.293  22.601  26.562  1.00  0.00    -0.200 F 
ATOM     82  F   UNL A   1      44.025  23.616  24.715  1.00  0.00    -0.200 F 
ENDBRANCH  48  72
BRANCH  60  83
ATOM     83  C   UNL A   1      45.039  27.328  34.279  1.00  0.00     0.064 A 
ATOM     84  C   UNL A   1      44.975  26.158  35.050  1.00  0.00     0.173 A 
ATOM     85  C   UNL A   1      46.265  28.007  34.212  1.00  0.00     0.173 A 
ATOM     86  F   UNL A   1      43.822  25.483  35.157  1.00  0.00    -0.203 F 
ATOM     87  C   UNL A   1      46.091  25.698  35.744  1.00  0.00     0.198 A 
ATOM     88  C   UNL A   1      47.387  27.528  34.885  1.00  0.00     0.198 A 
ATOM     89  F   UNL A   1      46.381  29.126  33.483  1.00  0.00    -0.203 F 
ATOM     90  F   UNL A   1      45.996  24.602  36.509  1.00  0.00    -0.200 F 
ATOM     91  C   UNL A   1      47.296  26.379  35.656  1.00  0.00     0.200 A 
ATOM     92  F   UNL A   1      48.554  28.180  34.789  1.00  0.00    -0.200 F 
ATOM     93  F   UNL A   1      48.371  25.931  36.320  1.00  0.00    -0.200 F 
ENDBRANCH  60  83
ENDBRANCH  34  35
ENDBRANCH  27  29
ENDBRANCH  26  27
ENDBRANCH  25  26
ENDBRANCH  24  25
ENDBRANCH   1  24
TORSDOF 16
ENDMDL
MODEL 2
REMARK VINA RESULT:     -12.6      0.490      7.187
REMARK SMILES C[C@@H]1[C@@H](C(=O)OCCOCCOC(=O)c2ccc(-c3c4nc(c(-c5c(F)c(F)c(F)c(F)c5F)c5ccc([nH]5)c(-c5c(F)c(F)c(F)c(F)c5F)c5nc(c(-c6c(F)c(F)c(F)c(F)c6F)c6ccc3[nH]6)C=C5)C=C4)cc2)CC[N@@H+]1C[C@@H]1Cc2ccccc2O1
REMARK SMILES IDX 9 1 8 2 7 3 6 4 4 5 5 6 3 7 1 8 2 9 80 10 78 11 79 12 81 14
REMARK SMILES IDX 82 15 83 16 90 17 84 18 89 19 85 20 88 21 86 22 87 23 10 24
REMARK SMILES IDX 11 25 12 26 13 27 14 28 15 29 16 30 77 31 17 32 76 33 18 34
REMARK SMILES IDX 19 35 20 36 70 37 21 38 75 39 69 40 71 41 22 42 74 43 68 44
REMARK SMILES IDX 67 45 23 47 55 48 35 49 54 50 36 51 39 52 53 53 72 54 37 55
REMARK SMILES IDX 38 56 52 58 73 59 40 60 24 61 25 62 33 63 26 64 27 65 31 66
REMARK SMILES IDX 34 67 28 68 29 69 32 70 30 71 56 72 57 73 65 74 58 75 59 76
REMARK SMILES IDX 63 77 66 78 60 79 61 80 64 81 62 82 41 83 42 84 50 85 43 86
REMARK SMILES IDX 44 87 48 88 51 89 45 90 46 91 49 92 47 93
REMARK H PARENT 80 13 71 46 39 57
REMARK Flexibility Score: inf
ROOT
ATOM      1  O   UNL A   1      32.018  28.812  23.791  1.00  0.00    -0.374 OA
ENDROOT
BRANCH   1   2
ATOM      2  C   UNL A   1      30.640  28.511  24.030  1.00  0.00     0.202 C 
BRANCH   2   3
ATOM      3  C   UNL A   1      30.305  27.026  24.192  1.00  0.00     0.261 C 
BRANCH   3   4
ATOM      4  O   UNL A   1      31.480  26.334  24.646  1.00  0.00    -0.463 OA
BRANCH   4   5
ATOM      5  C   UNL A   1      31.491  25.936  25.942  1.00  0.00     0.315 C 
ATOM      6  O   UNL A   1      30.966  26.544  26.867  1.00  0.00    -0.252 OA
BRANCH   5   7
ATOM      7  C   UNL A   1      32.198  24.608  26.123  1.00  0.00     0.162 C 
ATOM      8  C   UNL A   1      34.023  23.957  24.507  1.00  0.00     0.076 C 
ATOM      9  C   UNL A   1      32.514  23.990  24.752  1.00  0.00     0.195 C 
ATOM     10  N   UNL A   1      31.863  22.690  24.823  1.00  0.00    -0.329 N 
ATOM     11  C   UNL A   1      31.407  23.531  26.877  1.00  0.00     0.083 C 
ATOM     12  C   UNL A   1      30.800  22.669  25.791  1.00  0.00     0.263 C 
ATOM     13  H   UNL A   1      31.725  22.298  23.891  1.00  0.00     0.348 HD
BRANCH  10  14
ATOM     14  C   UNL A   1      32.315  21.510  24.130  1.00  0.00     0.308 C 
BRANCH  14  15
ATOM     15  C   UNL A   1      33.054  20.436  24.963  1.00  0.00     0.232 C 
ATOM     16  C   UNL A   1      34.349  19.876  24.346  1.00  0.00     0.090 C 
ATOM     17  O   UNL A   1      32.132  19.324  25.173  1.00  0.00    -0.484 OA
ATOM     18  C   UNL A   1      34.220  18.454  24.719  1.00  0.00    -0.002 A 
ATOM     19  C   UNL A   1      32.918  18.206  25.111  1.00  0.00     0.123 A 
ATOM     20  C   UNL A   1      35.152  17.434  24.627  1.00  0.00     0.007 A 
ATOM     21  C   UNL A   1      32.475  16.929  25.380  1.00  0.00     0.047 A 
ATOM     22  C   UNL A   1      34.731  16.136  24.922  1.00  0.00     0.001 A 
ATOM     23  C   UNL A   1      33.397  15.883  25.281  1.00  0.00     0.004 A 
ENDBRANCH  14  15
ENDBRANCH  10  14
ENDBRANCH   5   7
ENDBRANCH   4   5
ENDBRANCH   3   4
ENDBRANCH   2   3
ENDBRANCH   1   2
BRANCH   1  24
ATOM     24  C   UNL A   1      32.745  29.456  24.835  1.00  0.00     0.202 C 
BRANCH  24  25
ATOM     25  C   UNL A   1      31.933  30.394  25.741  1.00  0.00     0.261 C 
BRANCH  25  26
ATOM     26  O   UNL A   1      32.469  30.488  27.075  1.00  0.00    -0.460 OA
BRANCH  26  27
ATOM     27  C   UNL A   1      33.227  31.584  27.301  1.00  0.00     0.338 C 
ATOM     28  O   UNL A   1      32.871  32.759  27.259  1.00  0.00    -0.246 OA
BRANCH  27  29
ATOM     29  C   UNL A   1      34.567  31.204  27.776  1.00  0.00     0.060 A 
ATOM     30  C   UNL A   1      34.769  29.860  28.117  1.00  0.00     0.016 A 
ATOM     31  C   UNL A   1      35.569  32.152  28.002  1.00  0.00     0.016 A 
ATOM     32  C   UNL A   1      35.953  29.468  28.734  1.00  0.00     0.010 A 
ATOM     33  C   UNL A   1      36.757  31.753  28.631  1.00  0.00     0.010 A 
ATOM     34  C   UNL A   1      36.938  30.418  29.036  1.00  0.00    -0.014 A 
BRANCH  34  35
ATOM     35  C   UNL A   1      38.071  30.027  29.912  1.00  0.00     0.031 A 
ATOM     36  C   UNL A   1      39.120  29.088  29.377  1.00  0.00     0.074 A 
ATOM     37  C   UNL A   1      38.207  30.550  31.143  1.00  0.00     0.049 A 
ATOM     38  N   UNL A   1      40.203  28.634  29.956  1.00  0.00    -0.248 NA
ATOM     39  C   UNL A   1      38.922  28.599  28.004  1.00  0.00     0.031 C 
ATOM     40  C   UNL A   1      37.286  31.503  31.759  1.00  0.00     0.029 A 
ATOM     41  N   UNL A   1      39.179  30.356  32.093  1.00  0.00    -0.354 N 
ATOM     42  C   UNL A   1      40.814  27.809  29.021  1.00  0.00     0.074 A 
ATOM     43  C   UNL A   1      39.967  27.799  27.848  1.00  0.00     0.031 C 
ATOM     44  C   UNL A   1      37.736  31.808  32.989  1.00  0.00     0.029 A 
ATOM     45  C   UNL A   1      38.960  31.054  33.255  1.00  0.00     0.049 A 
ATOM     46  H   UNL A   1      39.958  29.771  31.955  1.00  0.00     0.167 HD
ATOM     47  C   UNL A   1      41.982  27.131  29.125  1.00  0.00     0.037 A 
ATOM     48  C   UNL A   1      39.662  31.070  34.405  1.00  0.00     0.037 A 
ATOM     49  C   UNL A   1      42.831  27.142  30.287  1.00  0.00     0.049 A 
ATOM     50  C   UNL A   1      40.921  30.252  34.519  1.00  0.00     0.074 A 
ATOM     51  C   UNL A   1      44.042  26.500  30.477  1.00  0.00     0.029 A 
ATOM     52  N   UNL A   1      42.552  27.827  31.460  1.00  0.00    -0.354 N 
ATOM     53  N   UNL A   1      41.505  29.496  33.621  1.00  0.00    -0.248 NA
ATOM     54  C   UNL A   1      41.624  30.292  35.811  1.00  0.00     0.031 C 
ATOM     55  C   UNL A   1      44.474  26.759  31.782  1.00  0.00     0.029 A 
ATOM     56  C   UNL A   1      43.557  27.602  32.388  1.00  0.00     0.049 A 
ATOM     57  H   UNL A   1      41.759  28.390  31.611  1.00  0.00     0.167 HD
ATOM     58  C   UNL A   1      42.650  28.995  34.226  1.00  0.00     0.074 A 
ATOM     59  C   UNL A   1      42.689  29.542  35.566  1.00  0.00     0.031 C 
ATOM     60  C   UNL A   1      43.587  28.158  33.715  1.00  0.00     0.037 A 
BRANCH  47  61
ATOM     61  C   UNL A   1      42.405  26.299  27.951  1.00  0.00     0.064 A 
ATOM     62  C   UNL A   1      41.881  25.016  27.730  1.00  0.00     0.173 A 
ATOM     63  C   UNL A   1      43.316  26.806  27.013  1.00  0.00     0.173 A 
ATOM     64  F   UNL A   1      41.016  24.481  28.605  1.00  0.00    -0.203 F 
ATOM     65  C   UNL A   1      42.271  24.264  26.625  1.00  0.00     0.198 A 
ATOM     66  C   UNL A   1      43.685  26.062  25.896  1.00  0.00     0.198 A 
ATOM     67  F   UNL A   1      43.843  28.029  27.176  1.00  0.00    -0.203 F 
ATOM     68  F   UNL A   1      41.790  23.025  26.455  1.00  0.00    -0.200 F 
ATOM     69  C   UNL A   1      43.167  24.789  25.706  1.00  0.00     0.200 A 
ATOM     70  F   UNL A   1      44.543  26.575  25.003  1.00  0.00    -0.200 F 
ATOM     71  F   UNL A   1      43.537  24.067  24.640  1.00  0.00    -0.200 F 
ENDBRANCH  47  61
BRANCH  48  72
ATOM     72  C   UNL A   1      39.185  31.886  35.552  1.00  0.00     0.064 A 
ATOM     73  C   UNL A   1      39.608  33.210  35.728  1.00  0.00     0.173 A 
ATOM     74  C   UNL A   1      38.313  31.346  36.510  1.00  0.00     0.173 A 
ATOM     75  F   UNL A   1      40.464  33.760  34.853  1.00  0.00    -0.203 F 
ATOM     76  C   UNL A   1      39.192  33.958  36.827  1.00  0.00     0.198 A 
ATOM     77  C   UNL A   1      37.875  32.104  37.593  1.00  0.00     0.198 A 
ATOM     78  F   UNL A   1      37.883  30.081  36.389  1.00  0.00    -0.203 F 
ATOM     79  F   UNL A   1      39.648  35.207  36.996  1.00  0.00    -0.200 F 
ATOM     80  C   UNL A   1      38.321  33.406  37.755  1.00  0.00     0.200 A 
ATOM     81  F   UNL A   1      37.028  31.569  38.483  1.00  0.00    -0.200 F 
ATOM     82  F   UNL A   1      37.919  34.128  38.811  1.00  0.00    -0.200 F 
ENDBRANCH  48  72
BRANCH  60  83
ATOM     83  C   UNL A   1      44.752  27.805  34.596  1.00  0.00     0.064 A 
ATOM     84  C   UNL A   1      44.735  26.670  35.418  1.00  0.00     0.173 A 
ATOM     85  C   UNL A   1      45.915  28.591  34.582  1.00  0.00     0.173 A 
ATOM     86  F   UNL A   1      43.642  25.896  35.477  1.00  0.00    -0.203 F 
ATOM     87  C   UNL A   1      45.832  26.346  36.212  1.00  0.00     0.198 A 
ATOM     88  C   UNL A   1      47.020  28.248  35.356  1.00  0.00     0.198 A 
ATOM     89  F   UNL A   1      45.984  29.683  33.807  1.00  0.00    -0.203 F 
ATOM     90  F   UNL A   1      45.779  25.281  37.024  1.00  0.00    -0.200 F 
ATOM     91  C   UNL A   1      46.975  27.131  36.176  1.00  0.00     0.200 A 
ATOM     92  F   UNL A   1      48.128  29.001  35.310  1.00  0.00    -0.200 F 
ATOM     93  F   UNL A   1      48.033  26.814  36.937  1.00  0.00    -0.200 F 
ENDBRANCH  60  83
ENDBRANCH  34  35
ENDBRANCH  27  29
ENDBRANCH  26  27
ENDBRANCH  25  26
ENDBRANCH  24  25
ENDBRANCH   1  24
TORSDOF 16
ENDMDL
MODEL 3
REMARK VINA RESULT:     -12.6      1.567      2.689
REMARK SMILES C[C@@H]1[C@@H](C(=O)OCCOCCOC(=O)c2ccc(-c3c4nc(c(-c5c(F)c(F)c(F)c(F)c5F)c5ccc([nH]5)c(-c5c(F)c(F)c(F)c(F)c5F)c5nc(c(-c6c(F)c(F)c(F)c(F)c6F)c6ccc3[nH]6)C=C5)C=C4)cc2)CC[N@@H+]1C[C@@H]1Cc2ccccc2O1
REMARK SMILES IDX 9 1 8 2 7 3 6 4 4 5 5 6 3 7 1 8 2 9 80 10 78 11 79 12 81 14
REMARK SMILES IDX 82 15 83 16 90 17 84 18 89 19 85 20 88 21 86 22 87 23 10 24
REMARK SMILES IDX 11 25 12 26 13 27 14 28 15 29 16 30 77 31 17 32 76 33 18 34
REMARK SMILES IDX 19 35 20 36 70 37 21 38 75 39 69 40 71 41 22 42 74 43 68 44
REMARK SMILES IDX 67 45 23 47 55 48 35 49 54 50 36 51 39 52 53 53 72 54 37 55
REMARK SMILES IDX 38 56 52 58 73 59 40 60 24 61 25 62 33 63 26 64 27 65 31 66
REMARK SMILES IDX 34 67 28 68 29 69 32 70 30 71 56 72 57 73 65 74 58 75 59 76
REMARK SMILES IDX 63 77 66 78 60 79 61 80 64 81 62 82 41 83 42 84 50 85 43 86
REMARK SMILES IDX 44 87 48 88 51 89 45 90 46 91 49 92 47 93
REMARK H PARENT 80 13 71 46 39 57
REMARK Flexibility Score: inf
ROOT
ATOM      1  O   UNL A   1      32.786  28.313  25.190  1.00  0.00    -0.374 OA
ENDROOT
BRANCH   1   2
ATOM      2  C   UNL A   1      31.736  27.510  25.737  1.00  0.00     0.202 C 
BRANCH   2   3
ATOM      3  C   UNL A   1      32.159  26.514  26.819  1.00  0.00     0.261 C 
BRANCH   3   4
ATOM      4  O   UNL A   1      31.205  25.439  26.857  1.00  0.00    -0.463 OA
BRANCH   4   5
ATOM      5  C   UNL A   1      31.659  24.207  26.521  1.00  0.00     0.315 C 
ATOM      6  O   UNL A   1      30.979  23.189  26.503  1.00  0.00    -0.252 OA
BRANCH   5   7
ATOM      7  C   UNL A   1      33.121  24.231  26.120  1.00  0.00     0.162 C 
ATOM      8  C   UNL A   1      33.746  24.997  23.799  1.00  0.00     0.076 C 
ATOM      9  C   UNL A   1      33.268  23.818  24.647  1.00  0.00     0.195 C 
ATOM     10  N   UNL A   1      34.180  22.686  24.717  1.00  0.00    -0.329 N 
ATOM     11  C   UNL A   1      34.040  23.280  26.899  1.00  0.00     0.083 C 
ATOM     12  C   UNL A   1      34.170  22.061  26.012  1.00  0.00     0.263 C 
ATOM     13  H   UNL A   1      34.130  22.123  23.868  1.00  0.00     0.348 HD
BRANCH  10  14
ATOM     14  C   UNL A   1      35.106  22.317  23.676  1.00  0.00     0.308 C 
BRANCH  14  15
ATOM     15  C   UNL A   1      36.609  22.570  23.939  1.00  0.00     0.232 C 
ATOM     16  C   UNL A   1      37.380  21.420  24.613  1.00  0.00     0.090 C 
ATOM     17  O   UNL A   1      36.719  23.751  24.791  1.00  0.00    -0.484 OA
ATOM     18  C   UNL A   1      38.250  22.188  25.524  1.00  0.00    -0.002 A 
ATOM     19  C   UNL A   1      37.769  23.480  25.625  1.00  0.00     0.123 A 
ATOM     20  C   UNL A   1      39.325  21.758  26.283  1.00  0.00     0.007 A 
ATOM     21  C   UNL A   1      38.303  24.382  26.519  1.00  0.00     0.047 A 
ATOM     22  C   UNL A   1      39.899  22.665  27.175  1.00  0.00     0.001 A 
ATOM     23  C   UNL A   1      39.381  23.964  27.305  1.00  0.00     0.004 A 
ENDBRANCH  14  15
ENDBRANCH  10  14
ENDBRANCH   5   7
ENDBRANCH   4   5
ENDBRANCH   3   4
ENDBRANCH   2   3
ENDBRANCH   1   2
BRANCH   1  24
ATOM     24  C   UNL A   1      32.519  29.698  24.980  1.00  0.00     0.202 C 
BRANCH  24  25
ATOM     25  C   UNL A   1      32.000  30.475  26.198  1.00  0.00     0.261 C 
BRANCH  25  26
ATOM     26  O   UNL A   1      32.878  30.384  27.338  1.00  0.00    -0.460 OA
BRANCH  26  27
ATOM     27  C   UNL A   1      33.642  31.478  27.549  1.00  0.00     0.338 C 
ATOM     28  O   UNL A   1      33.274  32.649  27.585  1.00  0.00    -0.246 OA
BRANCH  27  29
ATOM     29  C   UNL A   1      35.020  31.094  27.897  1.00  0.00     0.060 A 
ATOM     30  C   UNL A   1      35.249  29.749  28.212  1.00  0.00     0.016 A 
ATOM     31  C   UNL A   1      36.040  32.040  28.035  1.00  0.00     0.016 A 
ATOM     32  C   UNL A   1      36.484  29.351  28.717  1.00  0.00     0.010 A 
ATOM     33  C   UNL A   1      37.279  31.635  28.551  1.00  0.00     0.010 A 
ATOM     34  C   UNL A   1      37.493  30.299  28.933  1.00  0.00    -0.014 A 
BRANCH  34  35
ATOM     35  C   UNL A   1      38.701  29.902  29.699  1.00  0.00     0.031 A 
ATOM     36  C   UNL A   1      38.893  30.436  31.094  1.00  0.00     0.074 A 
ATOM     37  C   UNL A   1      39.585  29.024  29.191  1.00  0.00     0.049 A 
ATOM     38  N   UNL A   1      39.857  30.204  31.948  1.00  0.00    -0.248 NA
ATOM     39  C   UNL A   1      37.856  31.353  31.592  1.00  0.00     0.031 C 
ATOM     40  C   UNL A   1      39.490  28.401  27.873  1.00  0.00     0.029 A 
ATOM     41  N   UNL A   1      40.734  28.502  29.732  1.00  0.00    -0.354 N 
ATOM     42  C   UNL A   1      39.544  30.942  33.082  1.00  0.00     0.074 A 
ATOM     43  C   UNL A   1      38.317  31.655  32.797  1.00  0.00     0.031 C 
ATOM     44  C   UNL A   1      40.543  27.581  27.705  1.00  0.00     0.029 A 
ATOM     45  C   UNL A   1      41.396  27.642  28.890  1.00  0.00     0.049 A 
ATOM     46  H   UNL A   1      41.054  28.724  30.635  1.00  0.00     0.167 HD
ATOM     47  C   UNL A   1      40.209  31.010  34.259  1.00  0.00     0.037 A 
ATOM     48  C   UNL A   1      42.564  26.991  29.055  1.00  0.00     0.037 A 
ATOM     49  C   UNL A   1      41.426  30.298  34.551  1.00  0.00     0.049 A 
ATOM     50  C   UNL A   1      43.321  27.138  30.349  1.00  0.00     0.074 A 
ATOM     51  C   UNL A   1      42.163  30.292  35.721  1.00  0.00     0.029 A 
ATOM     52  N   UNL A   1      42.089  29.471  33.656  1.00  0.00    -0.354 N 
ATOM     53  N   UNL A   1      43.004  27.818  31.424  1.00  0.00    -0.248 NA
ATOM     54  C   UNL A   1      44.603  26.423  30.453  1.00  0.00     0.031 C 
ATOM     55  C   UNL A   1      43.296  29.496  35.521  1.00  0.00     0.029 A 
ATOM     56  C   UNL A   1      43.240  28.969  34.242  1.00  0.00     0.049 A 
ATOM     57  H   UNL A   1      41.786  29.270  32.742  1.00  0.00     0.167 HD
ATOM     58  C   UNL A   1      44.025  27.592  32.337  1.00  0.00     0.074 A 
ATOM     59  C   UNL A   1      44.970  26.701  31.696  1.00  0.00     0.031 C 
ATOM     60  C   UNL A   1      44.167  28.078  33.595  1.00  0.00     0.037 A 
BRANCH  47  61
ATOM     61  C   UNL A   1      39.645  31.905  35.322  1.00  0.00     0.064 A 
ATOM     62  C   UNL A   1      39.992  33.262  35.404  1.00  0.00     0.173 A 
ATOM     63  C   UNL A   1      38.714  31.408  36.247  1.00  0.00     0.173 A 
ATOM     64  F   UNL A   1      40.887  33.782  34.550  1.00  0.00    -0.203 F 
ATOM     65  C   UNL A   1      39.444  34.082  36.387  1.00  0.00     0.198 A 
ATOM     66  C   UNL A   1      38.150  32.237  37.212  1.00  0.00     0.198 A 
ATOM     67  F   UNL A   1      38.346  30.118  36.209  1.00  0.00    -0.203 F 
ATOM     68  F   UNL A   1      39.820  35.366  36.472  1.00  0.00    -0.200 F 
ATOM     69  C   UNL A   1      38.519  33.572  37.285  1.00  0.00     0.200 A 
ATOM     70  F   UNL A   1      37.248  31.745  38.073  1.00  0.00    -0.200 F 
ATOM     71  F   UNL A   1      37.989  34.364  38.227  1.00  0.00    -0.200 F 
ENDBRANCH  47  61
BRANCH  48  72
ATOM     72  C   UNL A   1      43.099  26.141  27.960  1.00  0.00     0.064 A 
ATOM     73  C   UNL A   1      43.793  26.700  26.879  1.00  0.00     0.173 A 
ATOM     74  C   UNL A   1      42.906  24.751  27.963  1.00  0.00     0.173 A 
ATOM     75  F   UNL A   1      43.978  28.028  26.818  1.00  0.00    -0.203 F 
ATOM     76  C   UNL A   1      44.258  25.905  25.834  1.00  0.00     0.198 A 
ATOM     77  C   UNL A   1      43.396  23.954  26.931  1.00  0.00     0.198 A 
ATOM     78  F   UNL A   1      42.244  24.167  28.973  1.00  0.00    -0.203 F 
ATOM     79  F   UNL A   1      44.878  26.472  24.789  1.00  0.00    -0.200 F 
ATOM     80  C   UNL A   1      44.064  24.532  25.864  1.00  0.00     0.200 A 
ATOM     81  F   UNL A   1      43.213  22.627  26.969  1.00  0.00    -0.200 F 
ATOM     82  F   UNL A   1      44.514  23.768  24.859  1.00  0.00    -0.200 F 
ENDBRANCH  48  72
BRANCH  60  83
ATOM     83  C   UNL A   1      45.371  27.633  34.376  1.00  0.00     0.064 A 
ATOM     84  C   UNL A   1      45.354  26.464  35.151  1.00  0.00     0.173 A 
ATOM     85  C   UNL A   1      46.568  28.363  34.312  1.00  0.00     0.173 A 
ATOM     86  F   UNL A   1      44.230  25.740  35.256  1.00  0.00    -0.203 F 
ATOM     87  C   UNL A   1      46.485  26.055  35.852  1.00  0.00     0.198 A 
ATOM     88  C   UNL A   1      47.705  27.935  34.992  1.00  0.00     0.198 A 
ATOM     89  F   UNL A   1      46.638  29.484  33.579  1.00  0.00    -0.203 F 
ATOM     90  F   UNL A   1      46.435  24.959  36.621  1.00  0.00    -0.200 F 
ATOM     91  C   UNL A   1      47.661  26.787  35.767  1.00  0.00     0.200 A 
ATOM     92  F   UNL A   1      48.844  28.637  34.899  1.00  0.00    -0.200 F 
ATOM     93  F   UNL A   1      48.751  26.387  36.438  1.00  0.00    -0.200 F 
ENDBRANCH  60  83
ENDBRANCH  34  35
ENDBRANCH  27  29
ENDBRANCH  26  27
ENDBRANCH  25  26
ENDBRANCH  24  25
ENDBRANCH   1  24
TORSDOF 16
ENDMDL
