MODEL 1
REMARK VINA RESULT:     -12.2      0.000      0.000
REMARK SMILES CCOC(=O)c1c(NC(=O)[C@@H]2[C@@H](C(=O)OCCOCCOC(=O)c3ccc(-c4c5nc(c(-c6c(F)c(F)c(F)c(F)c6F)c6ccc([nH]6)c(-c6c(F)c(F)c(F)c(F)c6F)c6nc(c(-c7c(F)c(F)c(F)c(F)c7F)c7ccc4[nH]7)C=C6)C=C5)cc3)[C@@H]3C=C[C@H]2CC3)sc2c1CCC2
REMARK SMILES IDX 16 1 15 2 13 3 14 4 12 5 11 6 90 7 87 8 89 9 91 10 88 11
REMARK SMILES IDX 92 12 9 13 8 14 10 16 7 17 6 18 95 19 93 20 94 21 96 22
REMARK SMILES IDX 98 23 97 24 4 25 5 26 3 27 2 28 1 29 17 30 18 31 19 32 20 33
REMARK SMILES IDX 21 34 22 35 23 36 24 37 25 38 86 39 26 40 85 41 27 42 28 43
REMARK SMILES IDX 29 44 79 45 30 46 84 47 78 48 80 49 31 50 83 51 77 52 76 53
REMARK SMILES IDX 32 55 64 56 44 57 63 58 45 59 48 60 62 61 81 62 46 63 47 64
REMARK SMILES IDX 61 66 82 67 49 68 33 69 34 70 42 71 35 72 36 73 40 74 43 75
REMARK SMILES IDX 37 76 38 77 41 78 39 79 65 80 66 81 74 82 67 83 68 84 72 85
REMARK SMILES IDX 75 86 69 87 70 88 73 89 71 90 50 91 51 92 59 93 52 94 53 95
REMARK SMILES IDX 57 96 60 97 54 98 55 99 58 100 56 101
REMARK H PARENT 8 15 80 54 48 65
REMARK Flexibility Score: inf
ROOT
ATOM      1  C   UNL A   1      33.309  19.438  24.919  1.00  0.00     0.261 C 
ENDROOT
BRANCH   1   2
ATOM      2  O   UNL A   1      32.812  20.630  25.580  1.00  0.00    -0.463 OA
BRANCH   2   3
ATOM      3  C   UNL A   1      32.538  21.669  24.743  1.00  0.00     0.310 C 
ATOM      4  O   UNL A   1      32.032  21.489  23.642  1.00  0.00    -0.252 OA
BRANCH   3   5
ATOM      5  C   UNL A   1      32.938  23.046  25.310  1.00  0.00     0.119 C 
ATOM      6  C   UNL A   1      32.164  24.347  24.787  1.00  0.00     0.100 C 
ATOM      7  C   UNL A   1      33.220  25.296  24.110  1.00  0.00     0.025 C 
ATOM      8  C   UNL A   1      34.462  23.180  24.972  1.00  0.00     0.026 C 
ATOM      9  C   UNL A   1      34.353  25.566  25.093  1.00  0.00    -0.027 C 
ATOM     10  C   UNL A   1      33.838  24.535  22.919  1.00  0.00     0.009 C 
ATOM     11  C   UNL A   1      34.955  24.469  25.580  1.00  0.00    -0.027 C 
ATOM     12  C   UNL A   1      34.698  23.367  23.442  1.00  0.00     0.009 C 
BRANCH   6  13
ATOM     13  C   UNL A   1      31.494  25.180  25.908  1.00  0.00     0.229 C 
ATOM     14  N   UNL A   1      30.881  26.397  25.809  1.00  0.00    -0.317 N 
ATOM     15  H   UNL A   1      30.815  26.860  26.675  1.00  0.00     0.170 HD
ATOM     16  O   UNL A   1      31.490  24.743  27.071  1.00  0.00    -0.274 OA
BRANCH  14  17
ATOM     17  C   UNL A   1      30.332  27.129  24.773  1.00  0.00     0.110 A 
ATOM     18  C   UNL A   1      30.825  28.350  24.290  1.00  0.00     0.098 A 
ATOM     19  C   UNL A   1      29.769  29.016  23.586  1.00  0.00    -0.017 A 
ATOM     20  S   UNL A   1      28.976  26.602  23.877  1.00  0.00    -0.122 S 
ATOM     21  C   UNL A   1      28.735  28.163  23.299  1.00  0.00     0.011 A 
ATOM     22  C   UNL A   1      29.433  30.405  23.163  1.00  0.00     0.038 C 
ATOM     23  C   UNL A   1      27.539  28.813  22.692  1.00  0.00     0.047 C 
ATOM     24  C   UNL A   1      27.920  30.319  22.767  1.00  0.00     0.010 C 
BRANCH  18  25
ATOM     25  C   UNL A   1      32.164  28.828  24.620  1.00  0.00     0.341 C 
ATOM     26  O   UNL A   1      32.983  29.093  23.743  1.00  0.00    -0.246 OA
BRANCH  25  27
ATOM     27  O   UNL A   1      32.450  28.840  25.950  1.00  0.00    -0.462 OA
BRANCH  27  28
ATOM     28  C   UNL A   1      32.841  30.113  26.505  1.00  0.00     0.230 C 
ATOM     29  C   UNL A   1      31.716  31.114  26.511  1.00  0.00     0.049 C 
ENDBRANCH  27  28
ENDBRANCH  25  27
ENDBRANCH  18  25
ENDBRANCH  14  17
ENDBRANCH   6  13
ENDBRANCH   3   5
ENDBRANCH   2   3
ENDBRANCH   1   2
BRANCH   1  30
ATOM     30  C   UNL A   1      34.823  19.323  24.632  1.00  0.00     0.202 C 
BRANCH  30  31
ATOM     31  O   UNL A   1      35.743  20.137  25.321  1.00  0.00    -0.374 OA
BRANCH  31  32
ATOM     32  C   UNL A   1      36.925  20.525  24.672  1.00  0.00     0.202 C 
BRANCH  32  33
ATOM     33  C   UNL A   1      38.247  20.761  25.423  1.00  0.00     0.261 C 
BRANCH  33  34
ATOM     34  O   UNL A   1      38.634  22.089  25.756  1.00  0.00    -0.460 OA
BRANCH  34  35
ATOM     35  C   UNL A   1      39.710  22.090  26.570  1.00  0.00     0.338 C 
ATOM     36  O   UNL A   1      40.197  21.097  27.095  1.00  0.00    -0.246 OA
BRANCH  35  37
ATOM     37  C   UNL A   1      40.064  23.464  26.962  1.00  0.00     0.060 A 
ATOM     38  C   UNL A   1      41.255  23.644  27.674  1.00  0.00     0.016 A 
ATOM     39  C   UNL A   1      39.153  24.509  26.828  1.00  0.00     0.016 A 
ATOM     40  C   UNL A   1      41.448  24.806  28.412  1.00  0.00     0.010 A 
ATOM     41  C   UNL A   1      39.376  25.671  27.540  1.00  0.00     0.010 A 
ATOM     42  C   UNL A   1      40.454  25.785  28.427  1.00  0.00    -0.014 A 
BRANCH  42  43
ATOM     43  C   UNL A   1      40.707  27.080  29.067  1.00  0.00     0.031 A 
ATOM     44  C   UNL A   1      41.883  27.707  28.420  1.00  0.00     0.074 A 
ATOM     45  C   UNL A   1      39.958  27.747  29.977  1.00  0.00     0.049 A 
ATOM     46  N   UNL A   1      43.097  27.658  28.865  1.00  0.00    -0.248 NA
ATOM     47  C   UNL A   1      41.775  28.146  27.018  1.00  0.00     0.031 C 
ATOM     48  C   UNL A   1      38.677  27.397  30.592  1.00  0.00     0.029 A 
ATOM     49  N   UNL A   1      40.157  29.024  30.437  1.00  0.00    -0.354 N 
ATOM     50  C   UNL A   1      43.853  28.277  27.883  1.00  0.00     0.074 A 
ATOM     51  C   UNL A   1      43.064  28.222  26.685  1.00  0.00     0.031 C 
ATOM     52  C   UNL A   1      38.090  28.516  31.098  1.00  0.00     0.029 A 
ATOM     53  C   UNL A   1      39.028  29.620  31.019  1.00  0.00     0.049 A 
ATOM     54  H   UNL A   1      41.023  29.487  30.365  1.00  0.00     0.167 HD
ATOM     55  C   UNL A   1      44.871  29.115  28.219  1.00  0.00     0.037 A 
ATOM     56  C   UNL A   1      38.920  30.930  31.382  1.00  0.00     0.037 A 
ATOM     57  C   UNL A   1      45.216  28.962  29.614  1.00  0.00     0.049 A 
ATOM     58  C   UNL A   1      40.306  31.423  31.590  1.00  0.00     0.074 A 
ATOM     59  C   UNL A   1      45.615  27.902  30.409  1.00  0.00     0.029 A 
ATOM     60  N   UNL A   1      44.763  29.924  30.486  1.00  0.00    -0.354 N 
ATOM     61  N   UNL A   1      41.076  30.983  32.546  1.00  0.00    -0.248 NA
ATOM     62  C   UNL A   1      40.987  32.021  30.454  1.00  0.00     0.031 C 
ATOM     63  C   UNL A   1      44.938  28.091  31.651  1.00  0.00     0.029 A 
ATOM     64  C   UNL A   1      44.240  29.296  31.585  1.00  0.00     0.049 A 
ATOM     65  H   UNL A   1      44.809  30.898  30.343  1.00  0.00     0.167 HD
ATOM     66  C   UNL A   1      42.310  30.819  31.942  1.00  0.00     0.074 A 
ATOM     67  C   UNL A   1      42.215  31.540  30.672  1.00  0.00     0.031 C 
ATOM     68  C   UNL A   1      43.168  29.848  32.376  1.00  0.00     0.037 A 
BRANCH  55  69
ATOM     69  C   UNL A   1      45.234  30.355  27.429  1.00  0.00     0.064 A 
ATOM     70  C   UNL A   1      46.591  30.573  27.124  1.00  0.00     0.173 A 
ATOM     71  C   UNL A   1      44.382  31.462  27.202  1.00  0.00     0.173 A 
ATOM     72  F   UNL A   1      47.495  29.600  27.311  1.00  0.00    -0.203 F 
ATOM     73  C   UNL A   1      47.065  31.821  26.714  1.00  0.00     0.198 A 
ATOM     74  C   UNL A   1      44.849  32.687  26.737  1.00  0.00     0.198 A 
ATOM     75  F   UNL A   1      43.085  31.465  27.524  1.00  0.00    -0.203 F 
ATOM     76  F   UNL A   1      48.382  32.014  26.568  1.00  0.00    -0.200 F 
ATOM     77  C   UNL A   1      46.194  32.879  26.526  1.00  0.00     0.200 A 
ATOM     78  F   UNL A   1      43.986  33.701  26.581  1.00  0.00    -0.200 F 
ATOM     79  F   UNL A   1      46.652  34.092  26.196  1.00  0.00    -0.200 F 
ENDBRANCH  55  69
BRANCH  56  80
ATOM     80  C   UNL A   1      37.787  31.892  31.274  1.00  0.00     0.064 A 
ATOM     81  C   UNL A   1      37.419  32.453  30.033  1.00  0.00     0.173 A 
ATOM     82  C   UNL A   1      36.836  32.004  32.304  1.00  0.00     0.173 A 
ATOM     83  F   UNL A   1      38.238  32.342  28.976  1.00  0.00    -0.203 F 
ATOM     84  C   UNL A   1      36.172  33.061  29.830  1.00  0.00     0.198 A 
ATOM     85  C   UNL A   1      35.590  32.611  32.101  1.00  0.00     0.198 A 
ATOM     86  F   UNL A   1      37.057  31.425  33.494  1.00  0.00    -0.203 F 
ATOM     87  F   UNL A   1      35.837  33.519  28.615  1.00  0.00    -0.200 F 
ATOM     88  C   UNL A   1      35.253  33.127  30.862  1.00  0.00     0.200 A 
ATOM     89  F   UNL A   1      34.687  32.624  33.093  1.00  0.00    -0.200 F 
ATOM     90  F   UNL A   1      34.031  33.639  30.651  1.00  0.00    -0.200 F 
ENDBRANCH  56  80
BRANCH  68  91
ATOM     91  C   UNL A   1      42.845  29.154  33.674  1.00  0.00     0.064 A 
ATOM     92  C   UNL A   1      42.065  27.988  33.783  1.00  0.00     0.173 A 
ATOM     93  C   UNL A   1      43.470  29.612  34.840  1.00  0.00     0.173 A 
ATOM     94  F   UNL A   1      41.514  27.423  32.704  1.00  0.00    -0.203 F 
ATOM     95  C   UNL A   1      41.889  27.338  35.005  1.00  0.00     0.198 A 
ATOM     96  C   UNL A   1      43.323  28.943  36.052  1.00  0.00     0.198 A 
ATOM     97  F   UNL A   1      44.269  30.688  34.790  1.00  0.00    -0.203 F 
ATOM     98  F   UNL A   1      41.135  26.230  35.076  1.00  0.00    -0.200 F 
ATOM     99  C   UNL A   1      42.525  27.814  36.138  1.00  0.00     0.200 A 
ATOM    100  F   UNL A   1      43.982  29.379  37.135  1.00  0.00    -0.200 F 
ATOM    101  F   UNL A   1      42.394  27.167  37.305  1.00  0.00    -0.200 F 
ENDBRANCH  68  91
ENDBRANCH  42  43
ENDBRANCH  35  37
ENDBRANCH  34  35
ENDBRANCH  33  34
ENDBRANCH  32  33
ENDBRANCH  31  32
ENDBRANCH  30  31
ENDBRANCH   1  30
TORSDOF 19
ENDMDL
MODEL 2
REMARK VINA RESULT:     -12.1      2.792      8.974
REMARK SMILES CCOC(=O)c1c(NC(=O)[C@@H]2[C@@H](C(=O)OCCOCCOC(=O)c3ccc(-c4c5nc(c(-c6c(F)c(F)c(F)c(F)c6F)c6ccc([nH]6)c(-c6c(F)c(F)c(F)c(F)c6F)c6nc(c(-c7c(F)c(F)c(F)c(F)c7F)c7ccc4[nH]7)C=C6)C=C5)cc3)[C@@H]3C=C[C@H]2CC3)sc2c1CCC2
REMARK SMILES IDX 16 1 15 2 13 3 14 4 12 5 11 6 90 7 87 8 89 9 91 10 88 11
REMARK SMILES IDX 92 12 9 13 8 14 10 16 7 17 6 18 95 19 93 20 94 21 96 22
REMARK SMILES IDX 98 23 97 24 4 25 5 26 3 27 2 28 1 29 17 30 18 31 19 32 20 33
REMARK SMILES IDX 21 34 22 35 23 36 24 37 25 38 86 39 26 40 85 41 27 42 28 43
REMARK SMILES IDX 29 44 79 45 30 46 84 47 78 48 80 49 31 50 83 51 77 52 76 53
REMARK SMILES IDX 32 55 64 56 44 57 63 58 45 59 48 60 62 61 81 62 46 63 47 64
REMARK SMILES IDX 61 66 82 67 49 68 33 69 34 70 42 71 35 72 36 73 40 74 43 75
REMARK SMILES IDX 37 76 38 77 41 78 39 79 65 80 66 81 74 82 67 83 68 84 72 85
REMARK SMILES IDX 75 86 69 87 70 88 73 89 71 90 50 91 51 92 59 93 52 94 53 95
REMARK SMILES IDX 57 96 60 97 54 98 55 99 58 100 56 101
REMARK H PARENT 8 15 80 54 48 65
REMARK Flexibility Score: inf
ROOT
ATOM      1  C   UNL A   1      34.142  29.185  26.429  1.00  0.00     0.261 C 
ENDROOT
BRANCH   1   2
ATOM      2  O   UNL A   1      33.675  27.830  26.652  1.00  0.00    -0.463 OA
BRANCH   2   3
ATOM      3  C   UNL A   1      32.356  27.732  26.976  1.00  0.00     0.310 C 
ATOM      4  O   UNL A   1      31.791  28.597  27.632  1.00  0.00    -0.252 OA
BRANCH   3   5
ATOM      5  C   UNL A   1      31.682  26.446  26.455  1.00  0.00     0.119 C 
ATOM      6  C   UNL A   1      32.604  25.289  25.841  1.00  0.00     0.100 C 
ATOM      7  C   UNL A   1      32.176  25.075  24.343  1.00  0.00     0.025 C 
ATOM      8  C   UNL A   1      30.682  26.946  25.357  1.00  0.00     0.026 C 
ATOM      9  C   UNL A   1      30.676  24.808  24.285  1.00  0.00    -0.027 C 
ATOM     10  C   UNL A   1      32.421  26.399  23.591  1.00  0.00     0.009 C 
ATOM     11  C   UNL A   1      29.910  25.749  24.861  1.00  0.00    -0.027 C 
ATOM     12  C   UNL A   1      31.429  27.468  24.093  1.00  0.00     0.009 C 
BRANCH   6  13
ATOM     13  C   UNL A   1      32.443  23.913  26.536  1.00  0.00     0.229 C 
ATOM     14  N   UNL A   1      33.157  22.769  26.324  1.00  0.00    -0.317 N 
ATOM     15  H   UNL A   1      32.684  21.964  26.638  1.00  0.00     0.170 HD
ATOM     16  O   UNL A   1      31.561  23.768  27.398  1.00  0.00    -0.274 OA
BRANCH  14  17
ATOM     17  C   UNL A   1      34.390  22.478  25.771  1.00  0.00     0.110 A 
ATOM     18  C   UNL A   1      34.733  21.272  25.142  1.00  0.00     0.098 A 
ATOM     19  C   UNL A   1      36.162  21.157  25.137  1.00  0.00    -0.017 A 
ATOM     20  S   UNL A   1      35.677  23.600  25.724  1.00  0.00    -0.122 S 
ATOM     21  C   UNL A   1      36.767  22.355  25.420  1.00  0.00     0.011 A 
ATOM     22  C   UNL A   1      37.180  20.076  25.009  1.00  0.00     0.038 C 
ATOM     23  C   UNL A   1      38.248  22.286  25.571  1.00  0.00     0.047 C 
ATOM     24  C   UNL A   1      38.508  20.756  25.483  1.00  0.00     0.010 C 
BRANCH  18  25
ATOM     25  C   UNL A   1      33.725  20.305  24.719  1.00  0.00     0.341 C 
ATOM     26  O   UNL A   1      32.539  20.615  24.628  1.00  0.00    -0.246 OA
BRANCH  25  27
ATOM     27  O   UNL A   1      34.189  19.037  24.555  1.00  0.00    -0.462 OA
BRANCH  27  28
ATOM     28  C   UNL A   1      33.245  18.077  24.036  1.00  0.00     0.230 C 
ATOM     29  C   UNL A   1      33.879  17.096  23.084  1.00  0.00     0.049 C 
ENDBRANCH  27  28
ENDBRANCH  25  27
ENDBRANCH  18  25
ENDBRANCH  14  17
ENDBRANCH   6  13
ENDBRANCH   3   5
ENDBRANCH   2   3
ENDBRANCH   1   2
BRANCH   1  30
ATOM     30  C   UNL A   1      34.908  29.903  27.564  1.00  0.00     0.202 C 
BRANCH  30  31
ATOM     31  O   UNL A   1      34.972  31.309  27.602  1.00  0.00    -0.374 OA
BRANCH  31  32
ATOM     32  C   UNL A   1      33.994  32.014  28.322  1.00  0.00     0.202 C 
BRANCH  32  33
ATOM     33  C   UNL A   1      34.300  33.317  29.083  1.00  0.00     0.261 C 
BRANCH  33  34
ATOM     34  O   UNL A   1      35.394  33.355  29.991  1.00  0.00    -0.460 OA
BRANCH  34  35
ATOM     35  C   UNL A   1      35.280  32.389  30.927  1.00  0.00     0.338 C 
ATOM     36  O   UNL A   1      34.395  32.329  31.771  1.00  0.00    -0.246 OA
BRANCH  35  37
ATOM     37  C   UNL A   1      36.499  31.567  30.978  1.00  0.00     0.060 A 
ATOM     38  C   UNL A   1      37.723  32.235  31.088  1.00  0.00     0.016 A 
ATOM     39  C   UNL A   1      36.459  30.202  30.705  1.00  0.00     0.016 A 
ATOM     40  C   UNL A   1      38.899  31.583  30.739  1.00  0.00     0.010 A 
ATOM     41  C   UNL A   1      37.640  29.559  30.394  1.00  0.00     0.010 A 
ATOM     42  C   UNL A   1      38.847  30.263  30.290  1.00  0.00    -0.014 A 
BRANCH  42  43
ATOM     43  C   UNL A   1      40.086  29.511  30.071  1.00  0.00     0.031 A 
ATOM     44  C   UNL A   1      40.699  29.213  31.387  1.00  0.00     0.074 A 
ATOM     45  C   UNL A   1      40.580  28.987  28.924  1.00  0.00     0.049 A 
ATOM     46  N   UNL A   1      41.641  29.900  31.946  1.00  0.00    -0.248 NA
ATOM     47  C   UNL A   1      40.010  28.286  32.300  1.00  0.00     0.031 C 
ATOM     48  C   UNL A   1      40.037  28.999  27.565  1.00  0.00     0.029 A 
ATOM     49  N   UNL A   1      41.668  28.162  28.790  1.00  0.00    -0.354 N 
ATOM     50  C   UNL A   1      41.803  29.320  33.193  1.00  0.00     0.074 A 
ATOM     51  C   UNL A   1      40.583  28.611  33.459  1.00  0.00     0.031 C 
ATOM     52  C   UNL A   1      40.618  28.011  26.830  1.00  0.00     0.029 A 
ATOM     53  C   UNL A   1      41.703  27.427  27.596  1.00  0.00     0.049 A 
ATOM     54  H   UNL A   1      42.369  28.092  29.478  1.00  0.00     0.167 HD
ATOM     55  C   UNL A   1      43.045  29.143  33.719  1.00  0.00     0.037 A 
ATOM     56  C   UNL A   1      42.574  26.416  27.311  1.00  0.00     0.037 A 
ATOM     57  C   UNL A   1      44.021  29.924  32.990  1.00  0.00     0.049 A 
ATOM     58  C   UNL A   1      43.762  26.630  28.178  1.00  0.00     0.074 A 
ATOM     59  C   UNL A   1      44.166  31.266  32.686  1.00  0.00     0.029 A 
ATOM     60  N   UNL A   1      44.820  29.255  32.092  1.00  0.00    -0.354 N 
ATOM     61  N   UNL A   1      44.553  27.658  28.050  1.00  0.00    -0.248 NA
ATOM     62  C   UNL A   1      43.774  25.980  29.479  1.00  0.00     0.031 C 
ATOM     63  C   UNL A   1      44.647  31.295  31.343  1.00  0.00     0.029 A 
ATOM     64  C   UNL A   1      44.858  29.980  30.930  1.00  0.00     0.049 A 
ATOM     65  H   UNL A   1      45.284  28.403  32.258  1.00  0.00     0.167 HD
ATOM     66  C   UNL A   1      44.798  28.064  29.350  1.00  0.00     0.074 A 
ATOM     67  C   UNL A   1      44.351  26.953  30.190  1.00  0.00     0.031 C 
ATOM     68  C   UNL A   1      45.032  29.381  29.629  1.00  0.00     0.037 A 
BRANCH  55  69
ATOM     69  C   UNL A   1      43.437  27.956  34.572  1.00  0.00     0.064 A 
ATOM     70  C   UNL A   1      43.321  26.670  34.012  1.00  0.00     0.173 A 
ATOM     71  C   UNL A   1      43.648  27.985  35.971  1.00  0.00     0.173 A 
ATOM     72  F   UNL A   1      43.106  26.517  32.696  1.00  0.00    -0.203 F 
ATOM     73  C   UNL A   1      43.325  25.517  34.801  1.00  0.00     0.198 A 
ATOM     74  C   UNL A   1      43.710  26.832  36.746  1.00  0.00     0.198 A 
ATOM     75  F   UNL A   1      43.687  29.116  36.682  1.00  0.00    -0.203 F 
ATOM     76  F   UNL A   1      43.075  24.328  34.238  1.00  0.00    -0.200 F 
ATOM     77  C   UNL A   1      43.514  25.599  36.168  1.00  0.00     0.200 A 
ATOM     78  F   UNL A   1      43.876  26.941  38.072  1.00  0.00    -0.200 F 
ATOM     79  F   UNL A   1      43.453  24.504  36.935  1.00  0.00    -0.200 F 
ENDBRANCH  55  69
BRANCH  56  80
ATOM     80  C   UNL A   1      42.379  25.117  26.607  1.00  0.00     0.064 A 
ATOM     81  C   UNL A   1      43.170  24.764  25.493  1.00  0.00     0.173 A 
ATOM     82  C   UNL A   1      41.671  24.067  27.216  1.00  0.00     0.173 A 
ATOM     83  F   UNL A   1      43.926  25.689  24.885  1.00  0.00    -0.203 F 
ATOM     84  C   UNL A   1      43.266  23.441  25.039  1.00  0.00     0.198 A 
ATOM     85  C   UNL A   1      41.768  22.745  26.761  1.00  0.00     0.198 A 
ATOM     86  F   UNL A   1      40.962  24.287  28.333  1.00  0.00    -0.203 F 
ATOM     87  F   UNL A   1      44.084  23.139  24.020  1.00  0.00    -0.200 F 
ATOM     88  C   UNL A   1      42.575  22.430  25.682  1.00  0.00     0.200 A 
ATOM     89  F   UNL A   1      41.134  21.766  27.424  1.00  0.00    -0.200 F 
ATOM     90  F   UNL A   1      42.724  21.154  25.298  1.00  0.00    -0.200 F 
ENDBRANCH  56  80
BRANCH  68  91
ATOM     91  C   UNL A   1      45.272  30.314  28.471  1.00  0.00     0.064 A 
ATOM     92  C   UNL A   1      44.267  31.050  27.817  1.00  0.00     0.173 A 
ATOM     93  C   UNL A   1      46.596  30.578  28.101  1.00  0.00     0.173 A 
ATOM     94  F   UNL A   1      42.985  30.936  28.176  1.00  0.00    -0.203 F 
ATOM     95  C   UNL A   1      44.572  31.973  26.817  1.00  0.00     0.198 A 
ATOM     96  C   UNL A   1      46.902  31.526  27.128  1.00  0.00     0.198 A 
ATOM     97  F   UNL A   1      47.602  29.947  28.725  1.00  0.00    -0.203 F 
ATOM     98  F   UNL A   1      43.589  32.657  26.209  1.00  0.00    -0.200 F 
ATOM     99  C   UNL A   1      45.891  32.215  26.478  1.00  0.00     0.200 A 
ATOM    100  F   UNL A   1      48.183  31.792  26.840  1.00  0.00    -0.200 F 
ATOM    101  F   UNL A   1      46.190  33.134  25.549  1.00  0.00    -0.200 F 
ENDBRANCH  68  91
ENDBRANCH  42  43
ENDBRANCH  35  37
ENDBRANCH  34  35
ENDBRANCH  33  34
ENDBRANCH  32  33
ENDBRANCH  31  32
ENDBRANCH  30  31
ENDBRANCH   1  30
TORSDOF 19
ENDMDL
MODEL 3
REMARK VINA RESULT:     -12.0      1.801      2.979
REMARK SMILES CCOC(=O)c1c(NC(=O)[C@@H]2[C@@H](C(=O)OCCOCCOC(=O)c3ccc(-c4c5nc(c(-c6c(F)c(F)c(F)c(F)c6F)c6ccc([nH]6)c(-c6c(F)c(F)c(F)c(F)c6F)c6nc(c(-c7c(F)c(F)c(F)c(F)c7F)c7ccc4[nH]7)C=C6)C=C5)cc3)[C@@H]3C=C[C@H]2CC3)sc2c1CCC2
REMARK SMILES IDX 16 1 15 2 13 3 14 4 12 5 11 6 90 7 87 8 89 9 91 10 88 11
REMARK SMILES IDX 92 12 9 13 8 14 10 16 7 17 6 18 95 19 93 20 94 21 96 22
REMARK SMILES IDX 98 23 97 24 4 25 5 26 3 27 2 28 1 29 17 30 18 31 19 32 20 33
REMARK SMILES IDX 21 34 22 35 23 36 24 37 25 38 86 39 26 40 85 41 27 42 28 43
REMARK SMILES IDX 29 44 79 45 30 46 84 47 78 48 80 49 31 50 83 51 77 52 76 53
REMARK SMILES IDX 32 55 64 56 44 57 63 58 45 59 48 60 62 61 81 62 46 63 47 64
REMARK SMILES IDX 61 66 82 67 49 68 33 69 34 70 42 71 35 72 36 73 40 74 43 75
REMARK SMILES IDX 37 76 38 77 41 78 39 79 65 80 66 81 74 82 67 83 68 84 72 85
REMARK SMILES IDX 75 86 69 87 70 88 73 89 71 90 50 91 51 92 59 93 52 94 53 95
REMARK SMILES IDX 57 96 60 97 54 98 55 99 58 100 56 101
REMARK H PARENT 8 15 80 54 48 65
REMARK Flexibility Score: inf
ROOT
ATOM      1  C   UNL A   1      37.385  21.571  24.916  1.00  0.00     0.261 C 
ENDROOT
BRANCH   1   2
ATOM      2  O   UNL A   1      36.807  22.536  23.998  1.00  0.00    -0.463 OA
BRANCH   2   3
ATOM      3  C   UNL A   1      35.956  23.427  24.576  1.00  0.00     0.310 C 
ATOM      4  O   UNL A   1      36.166  23.883  25.693  1.00  0.00    -0.252 OA
BRANCH   3   5
ATOM      5  C   UNL A   1      34.732  23.774  23.703  1.00  0.00     0.119 C 
ATOM      6  C   UNL A   1      33.753  24.947  24.182  1.00  0.00     0.100 C 
ATOM      7  C   UNL A   1      32.325  24.326  24.397  1.00  0.00     0.025 C 
ATOM      8  C   UNL A   1      33.926  22.433  23.612  1.00  0.00     0.026 C 
ATOM      9  C   UNL A   1      31.897  23.602  23.125  1.00  0.00    -0.027 C 
ATOM     10  C   UNL A   1      32.441  23.253  25.499  1.00  0.00     0.009 C 
ATOM     11  C   UNL A   1      32.755  22.665  22.690  1.00  0.00    -0.027 C 
ATOM     12  C   UNL A   1      33.269  22.063  24.976  1.00  0.00     0.009 C 
BRANCH   6  13
ATOM     13  C   UNL A   1      33.575  26.087  23.147  1.00  0.00     0.229 C 
ATOM     14  N   UNL A   1      32.952  27.290  23.311  1.00  0.00    -0.317 N 
ATOM     15  H   UNL A   1      32.692  27.703  22.455  1.00  0.00     0.170 HD
ATOM     16  O   UNL A   1      34.028  25.941  21.999  1.00  0.00    -0.274 OA
BRANCH  14  17
ATOM     17  C   UNL A   1      32.600  28.065  24.401  1.00  0.00     0.110 A 
ATOM     18  C   UNL A   1      31.422  28.817  24.516  1.00  0.00     0.098 A 
ATOM     19  C   UNL A   1      31.626  29.823  25.517  1.00  0.00    -0.017 A 
ATOM     20  S   UNL A   1      33.550  28.165  25.817  1.00  0.00    -0.122 S 
ATOM     21  C   UNL A   1      32.732  29.559  26.283  1.00  0.00     0.011 A 
ATOM     22  C   UNL A   1      31.028  31.134  25.897  1.00  0.00     0.038 C 
ATOM     23  C   UNL A   1      33.091  30.632  27.253  1.00  0.00     0.047 C 
ATOM     24  C   UNL A   1      32.081  31.753  26.878  1.00  0.00     0.010 C 
BRANCH  18  25
ATOM     25  C   UNL A   1      30.284  28.613  23.626  1.00  0.00     0.341 C 
ATOM     26  O   UNL A   1      29.759  27.509  23.500  1.00  0.00    -0.246 OA
BRANCH  25  27
ATOM     27  O   UNL A   1      29.943  29.700  22.883  1.00  0.00    -0.462 OA
BRANCH  27  28
ATOM     28  C   UNL A   1      28.548  30.069  22.898  1.00  0.00     0.230 C 
ATOM     29  C   UNL A   1      28.313  31.424  23.512  1.00  0.00     0.049 C 
ENDBRANCH  27  28
ENDBRANCH  25  27
ENDBRANCH  18  25
ENDBRANCH  14  17
ENDBRANCH   6  13
ENDBRANCH   3   5
ENDBRANCH   2   3
ENDBRANCH   1   2
BRANCH   1  30
ATOM     30  C   UNL A   1      38.646  21.969  25.715  1.00  0.00     0.202 C 
BRANCH  30  31
ATOM     31  O   UNL A   1      39.415  20.986  26.369  1.00  0.00    -0.374 OA
BRANCH  31  32
ATOM     32  C   UNL A   1      40.566  21.380  27.069  1.00  0.00     0.202 C 
BRANCH  32  33
ATOM     33  C   UNL A   1      41.989  21.104  26.552  1.00  0.00     0.261 C 
BRANCH  33  34
ATOM     34  O   UNL A   1      42.983  22.115  26.671  1.00  0.00    -0.460 OA
BRANCH  34  35
ATOM     35  C   UNL A   1      42.872  23.022  25.678  1.00  0.00     0.338 C 
ATOM     36  O   UNL A   1      43.093  22.801  24.494  1.00  0.00    -0.246 OA
BRANCH  35  37
ATOM     37  C   UNL A   1      42.713  24.378  26.228  1.00  0.00     0.060 A 
ATOM     38  C   UNL A   1      43.551  24.747  27.285  1.00  0.00     0.016 A 
ATOM     39  C   UNL A   1      41.633  25.180  25.866  1.00  0.00     0.016 A 
ATOM     40  C   UNL A   1      43.201  25.816  28.102  1.00  0.00     0.010 A 
ATOM     41  C   UNL A   1      41.318  26.259  26.668  1.00  0.00     0.010 A 
ATOM     42  C   UNL A   1      42.020  26.515  27.852  1.00  0.00    -0.014 A 
BRANCH  42  43
ATOM     43  C   UNL A   1      41.718  27.738  28.602  1.00  0.00     0.031 A 
ATOM     44  C   UNL A   1      42.716  28.773  28.244  1.00  0.00     0.074 A 
ATOM     45  C   UNL A   1      40.644  28.026  29.376  1.00  0.00     0.049 A 
ATOM     46  N   UNL A   1      43.781  29.053  28.922  1.00  0.00    -0.248 NA
ATOM     47  C   UNL A   1      42.716  29.319  26.876  1.00  0.00     0.031 C 
ATOM     48  C   UNL A   1      39.463  27.224  29.697  1.00  0.00     0.029 A 
ATOM     49  N   UNL A   1      40.328  29.238  29.937  1.00  0.00    -0.354 N 
ATOM     50  C   UNL A   1      44.451  29.988  28.151  1.00  0.00     0.074 A 
ATOM     51  C   UNL A   1      43.945  29.832  26.817  1.00  0.00     0.031 C 
ATOM     52  C   UNL A   1      38.462  28.036  30.134  1.00  0.00     0.029 A 
ATOM     53  C   UNL A   1      38.983  29.378  30.310  1.00  0.00     0.049 A 
ATOM     54  H   UNL A   1      40.993  29.952  30.069  1.00  0.00     0.167 HD
ATOM     55  C   UNL A   1      45.061  31.056  28.733  1.00  0.00     0.037 A 
ATOM     56  C   UNL A   1      38.389  30.537  30.715  1.00  0.00     0.037 A 
ATOM     57  C   UNL A   1      45.189  30.853  30.159  1.00  0.00     0.049 A 
ATOM     58  C   UNL A   1      39.477  31.409  31.229  1.00  0.00     0.074 A 
ATOM     59  C   UNL A   1      45.768  29.884  30.959  1.00  0.00     0.029 A 
ATOM     60  N   UNL A   1      44.300  31.516  30.972  1.00  0.00    -0.354 N 
ATOM     61  N   UNL A   1      40.169  31.120  32.295  1.00  0.00    -0.248 NA
ATOM     62  C   UNL A   1      40.111  32.320  30.290  1.00  0.00     0.031 C 
ATOM     63  C   UNL A   1      44.861  29.704  32.045  1.00  0.00     0.029 A 
ATOM     64  C   UNL A   1      43.828  30.630  31.905  1.00  0.00     0.049 A 
ATOM     65  H   UNL A   1      44.047  32.465  30.897  1.00  0.00     0.167 HD
ATOM     66  C   UNL A   1      41.474  31.422  31.947  1.00  0.00     0.074 A 
ATOM     67  C   UNL A   1      41.371  32.223  30.727  1.00  0.00     0.031 C 
ATOM     68  C   UNL A   1      42.514  30.722  32.492  1.00  0.00     0.037 A 
BRANCH  55  69
ATOM     69  C   UNL A   1      45.129  32.431  28.105  1.00  0.00     0.064 A 
ATOM     70  C   UNL A   1      46.396  33.012  27.914  1.00  0.00     0.173 A 
ATOM     71  C   UNL A   1      44.033  33.313  27.941  1.00  0.00     0.173 A 
ATOM     72  F   UNL A   1      47.510  32.277  28.056  1.00  0.00    -0.203 F 
ATOM     73  C   UNL A   1      46.554  34.378  27.670  1.00  0.00     0.198 A 
ATOM     74  C   UNL A   1      44.193  34.661  27.639  1.00  0.00     0.198 A 
ATOM     75  F   UNL A   1      42.766  32.958  28.175  1.00  0.00    -0.203 F 
ATOM     76  F   UNL A   1      47.785  34.906  27.632  1.00  0.00    -0.200 F 
ATOM     77  C   UNL A   1      45.453  35.203  27.538  1.00  0.00     0.200 A 
ATOM     78  F   UNL A   1      43.108  35.442  27.535  1.00  0.00    -0.200 F 
ATOM     79  F   UNL A   1      45.601  36.522  27.369  1.00  0.00    -0.200 F 
ENDBRANCH  55  69
BRANCH  56  80
ATOM     80  C   UNL A   1      37.040  31.103  30.433  1.00  0.00     0.064 A 
ATOM     81  C   UNL A   1      36.169  31.476  31.479  1.00  0.00     0.173 A 
ATOM     82  C   UNL A   1      36.724  31.611  29.160  1.00  0.00     0.173 A 
ATOM     83  F   UNL A   1      36.425  31.087  32.737  1.00  0.00    -0.203 F 
ATOM     84  C   UNL A   1      35.072  32.323  31.268  1.00  0.00     0.198 A 
ATOM     85  C   UNL A   1      35.628  32.458  28.951  1.00  0.00     0.198 A 
ATOM     86  F   UNL A   1      37.540  31.385  28.120  1.00  0.00    -0.203 F 
ATOM     87  F   UNL A   1      34.312  32.707  32.304  1.00  0.00    -0.200 F 
ATOM     88  C   UNL A   1      34.810  32.824  30.006  1.00  0.00     0.200 A 
ATOM     89  F   UNL A   1      35.413  32.979  27.734  1.00  0.00    -0.200 F 
ATOM     90  F   UNL A   1      33.808  33.695  29.815  1.00  0.00    -0.200 F 
ENDBRANCH  56  80
BRANCH  68  91
ATOM     91  C   UNL A   1      42.216  29.813  33.656  1.00  0.00     0.064 A 
ATOM     92  C   UNL A   1      41.830  28.465  33.538  1.00  0.00     0.173 A 
ATOM     93  C   UNL A   1      42.469  30.291  34.947  1.00  0.00     0.173 A 
ATOM     94  F   UNL A   1      41.666  27.898  32.339  1.00  0.00    -0.203 F 
ATOM     95  C   UNL A   1      41.669  27.651  34.659  1.00  0.00     0.198 A 
ATOM     96  C   UNL A   1      42.342  29.468  36.063  1.00  0.00     0.198 A 
ATOM     97  F   UNL A   1      42.891  31.553  35.121  1.00  0.00    -0.203 F 
ATOM     98  F   UNL A   1      41.296  26.369  34.512  1.00  0.00    -0.200 F 
ATOM     99  C   UNL A   1      41.932  28.152  35.921  1.00  0.00     0.200 A 
ATOM    100  F   UNL A   1      42.647  29.945  37.278  1.00  0.00    -0.200 F 
ATOM    101  F   UNL A   1      41.820  27.361  36.997  1.00  0.00    -0.200 F 
ENDBRANCH  68  91
ENDBRANCH  42  43
ENDBRANCH  35  37
ENDBRANCH  34  35
ENDBRANCH  33  34
ENDBRANCH  32  33
ENDBRANCH  31  32
ENDBRANCH  30  31
ENDBRANCH   1  30
TORSDOF 19
ENDMDL
