MODEL 1
REMARK VINA RESULT:     -11.4      0.000      0.000
REMARK SMILES [NH3+][C@H]1COC[C@@H]1C(=O)NC1(CC(=O)OCCOCCOC(=O)c2ccc(-c3c4nc(c(-c5c(F)c(F)c(F)c(F)c5F)c5ccc([nH]5)c(-c5c(F)c(F)c(F)c(F)c5F)c5nc(c(-c6c(F)c(F)c(F)c(F)c6F)c6ccc3[nH]6)C=C5)C=C4)cc2)CCC1
REMARK SMILES IDX 16 1 15 2 14 3 12 4 13 5 11 6 10 7 86 8 88 9 87 10 9 11 7 12
REMARK SMILES IDX 8 13 6 15 2 16 3 17 4 18 5 19 1 20 17 24 18 25 19 26 20 27
REMARK SMILES IDX 21 28 22 29 23 30 24 31 85 32 25 33 84 34 26 35 27 36 28 37
REMARK SMILES IDX 78 38 29 39 83 40 77 41 79 42 30 43 82 44 76 45 75 46 31 48
REMARK SMILES IDX 63 49 43 50 62 51 44 52 47 53 61 54 80 55 45 56 46 57 60 59
REMARK SMILES IDX 81 60 48 61 32 62 33 63 41 64 34 65 35 66 39 67 42 68 36 69
REMARK SMILES IDX 37 70 40 71 38 72 64 73 65 74 73 75 66 76 67 77 71 78 74 79
REMARK SMILES IDX 68 80 69 81 72 82 70 83 49 84 50 85 58 86 51 87 52 88 56 89
REMARK SMILES IDX 59 90 53 91 54 92 57 93 55 94
REMARK H PARENT 9 14 1 21 1 22 1 23 79 47 47 58
REMARK Flexibility Score: inf
ROOT
ATOM      1  C   UNL A   1      40.103  21.693  26.330  1.00  0.00     0.202 C 
ENDROOT
BRANCH   1   2
ATOM      2  C   UNL A   1      38.780  21.238  25.710  1.00  0.00     0.261 C 
BRANCH   2   3
ATOM      3  O   UNL A   1      38.016  22.345  25.188  1.00  0.00    -0.463 OA
BRANCH   3   4
ATOM      4  C   UNL A   1      36.938  22.025  24.430  1.00  0.00     0.308 C 
ATOM      5  O   UNL A   1      36.690  22.511  23.333  1.00  0.00    -0.252 OA
BRANCH   4   6
ATOM      6  C   UNL A   1      35.985  21.061  25.095  1.00  0.00     0.151 C 
BRANCH   6   7
ATOM      7  C   UNL A   1      34.541  21.505  25.422  1.00  0.00     0.050 C 
ATOM      8  C   UNL A   1      34.445  23.057  25.465  1.00  0.00     0.029 C 
ATOM      9  C   UNL A   1      34.195  21.485  26.933  1.00  0.00     0.029 C 
ATOM     10  C   UNL A   1      34.492  22.994  26.996  1.00  0.00     0.005 C 
BRANCH   7  11
ATOM     11  N   UNL A   1      33.590  20.906  24.451  1.00  0.00    -0.350 N 
ATOM     12  C   UNL A   1      33.115  19.648  24.206  1.00  0.00     0.232 C 
ATOM     13  O   UNL A   1      32.280  19.562  23.299  1.00  0.00    -0.274 OA
ATOM     14  H   UNL A   1      33.212  21.576  23.836  1.00  0.00     0.164 HD
BRANCH  12  15
ATOM     15  C   UNL A   1      33.566  18.423  24.984  1.00  0.00     0.164 C 
ATOM     16  C   UNL A   1      34.726  17.732  24.277  1.00  0.00     0.221 C 
ATOM     17  C   UNL A   1      34.009  16.756  23.337  1.00  0.00     0.225 C 
ATOM     18  O   UNL A   1      32.756  16.413  23.942  1.00  0.00    -0.374 OA
ATOM     19  C   UNL A   1      32.486  17.352  24.990  1.00  0.00     0.180 C 
BRANCH  16  20
ATOM     20  N   UNL A   1      35.565  17.007  25.252  1.00  0.00    -0.352 N 
ATOM     21  H   UNL A   1      35.060  16.918  26.134  1.00  0.00     0.344 HD
ATOM     22  H   UNL A   1      36.430  17.524  25.405  1.00  0.00     0.344 HD
ATOM     23  H   UNL A   1      35.782  16.079  24.889  1.00  0.00     0.344 HD
ENDBRANCH  16  20
ENDBRANCH  12  15
ENDBRANCH   7  11
ENDBRANCH   6   7
ENDBRANCH   4   6
ENDBRANCH   3   4
ENDBRANCH   2   3
ENDBRANCH   1   2
BRANCH   1  24
ATOM     24  O   UNL A   1      41.274  21.111  25.761  1.00  0.00    -0.374 OA
BRANCH  24  25
ATOM     25  C   UNL A   1      42.521  21.448  26.371  1.00  0.00     0.202 C 
BRANCH  25  26
ATOM     26  C   UNL A   1      43.534  22.118  25.438  1.00  0.00     0.261 C 
BRANCH  26  27
ATOM     27  O   UNL A   1      42.963  23.279  24.798  1.00  0.00    -0.460 OA
BRANCH  27  28
ATOM     28  C   UNL A   1      43.658  24.422  24.996  1.00  0.00     0.338 C 
ATOM     29  O   UNL A   1      44.714  24.751  24.473  1.00  0.00    -0.246 OA
BRANCH  28  30
ATOM     30  C   UNL A   1      42.897  25.351  25.850  1.00  0.00     0.060 A 
ATOM     31  C   UNL A   1      43.466  26.607  26.096  1.00  0.00     0.016 A 
ATOM     32  C   UNL A   1      41.714  24.972  26.488  1.00  0.00     0.016 A 
ATOM     33  C   UNL A   1      42.896  27.458  27.040  1.00  0.00     0.010 A 
ATOM     34  C   UNL A   1      41.144  25.827  27.439  1.00  0.00     0.010 A 
ATOM     35  C   UNL A   1      41.760  27.052  27.751  1.00  0.00    -0.014 A 
BRANCH  35  36
ATOM     36  C   UNL A   1      41.328  27.835  28.935  1.00  0.00     0.031 A 
ATOM     37  C   UNL A   1      42.102  27.699  30.218  1.00  0.00     0.074 A 
ATOM     38  C   UNL A   1      40.291  28.688  28.858  1.00  0.00     0.049 A 
ATOM     39  N   UNL A   1      41.895  28.267  31.379  1.00  0.00    -0.248 NA
ATOM     40  C   UNL A   1      43.268  26.802  30.187  1.00  0.00     0.031 C 
ATOM     41  C   UNL A   1      39.495  28.939  27.659  1.00  0.00     0.029 A 
ATOM     42  N   UNL A   1      39.732  29.500  29.813  1.00  0.00    -0.354 N 
ATOM     43  C   UNL A   1      42.897  27.793  32.215  1.00  0.00     0.074 A 
ATOM     44  C   UNL A   1      43.697  26.870  31.439  1.00  0.00     0.031 C 
ATOM     45  C   UNL A   1      38.541  29.839  27.953  1.00  0.00     0.029 A 
ATOM     46  C   UNL A   1      38.642  30.204  29.365  1.00  0.00     0.049 A 
ATOM     47  H   UNL A   1      40.079  29.568  30.731  1.00  0.00     0.167 HD
ATOM     48  C   UNL A   1      43.137  28.108  33.511  1.00  0.00     0.037 A 
ATOM     49  C   UNL A   1      37.812  31.033  30.027  1.00  0.00     0.037 A 
ATOM     50  C   UNL A   1      42.346  29.032  34.279  1.00  0.00     0.049 A 
ATOM     51  C   UNL A   1      38.062  31.320  31.486  1.00  0.00     0.074 A 
ATOM     52  C   UNL A   1      42.512  29.425  35.595  1.00  0.00     0.029 A 
ATOM     53  N   UNL A   1      41.236  29.708  33.796  1.00  0.00    -0.354 N 
ATOM     54  N   UNL A   1      39.022  30.879  32.263  1.00  0.00    -0.248 NA
ATOM     55  C   UNL A   1      37.116  32.224  32.157  1.00  0.00     0.031 C 
ATOM     56  C   UNL A   1      41.477  30.307  35.921  1.00  0.00     0.029 A 
ATOM     57  C   UNL A   1      40.695  30.501  34.794  1.00  0.00     0.049 A 
ATOM     58  H   UNL A   1      40.885  29.636  32.879  1.00  0.00     0.167 HD
ATOM     59  C   UNL A   1      38.817  31.475  33.501  1.00  0.00     0.074 A 
ATOM     60  C   UNL A   1      37.642  32.312  33.371  1.00  0.00     0.031 C 
ATOM     61  C   UNL A   1      39.538  31.344  34.641  1.00  0.00     0.037 A 
BRANCH  48  62
ATOM     62  C   UNL A   1      44.290  27.428  34.189  1.00  0.00     0.064 A 
ATOM     63  C   UNL A   1      44.150  26.176  34.804  1.00  0.00     0.173 A 
ATOM     64  C   UNL A   1      45.561  28.023  34.191  1.00  0.00     0.173 A 
ATOM     65  F   UNL A   1      42.951  25.573  34.843  1.00  0.00    -0.203 F 
ATOM     66  C   UNL A   1      45.234  25.554  35.416  1.00  0.00     0.198 A 
ATOM     67  C   UNL A   1      46.649  27.385  34.780  1.00  0.00     0.198 A 
ATOM     68  F   UNL A   1      45.750  29.218  33.612  1.00  0.00    -0.203 F 
ATOM     69  F   UNL A   1      45.068  24.377  36.035  1.00  0.00    -0.200 F 
ATOM     70  C   UNL A   1      46.485  26.155  35.397  1.00  0.00     0.200 A 
ATOM     71  F   UNL A   1      47.858  27.963  34.752  1.00  0.00    -0.200 F 
ATOM     72  F   UNL A   1      47.529  25.551  35.981  1.00  0.00    -0.200 F 
ENDBRANCH  48  62
BRANCH  49  73
ATOM     73  C   UNL A   1      36.661  31.648  29.318  1.00  0.00     0.064 A 
ATOM     74  C   UNL A   1      36.638  33.018  29.023  1.00  0.00     0.173 A 
ATOM     75  C   UNL A   1      35.554  30.878  28.928  1.00  0.00     0.173 A 
ATOM     76  F   UNL A   1      37.661  33.800  29.398  1.00  0.00    -0.203 F 
ATOM     77  C   UNL A   1      35.548  33.597  28.377  1.00  0.00     0.198 A 
ATOM     78  C   UNL A   1      34.477  31.454  28.258  1.00  0.00     0.198 A 
ATOM     79  F   UNL A   1      35.527  29.563  29.188  1.00  0.00    -0.203 F 
ATOM     80  F   UNL A   1      35.534  34.916  28.143  1.00  0.00    -0.200 F 
ATOM     81  C   UNL A   1      34.471  32.814  27.990  1.00  0.00     0.200 A 
ATOM     82  F   UNL A   1      33.445  30.690  27.876  1.00  0.00    -0.200 F 
ATOM     83  F   UNL A   1      33.425  33.369  27.364  1.00  0.00    -0.200 F 
ENDBRANCH  49  73
BRANCH  61  84
ATOM     84  C   UNL A   1      39.113  32.158  35.827  1.00  0.00     0.064 A 
ATOM     85  C   UNL A   1      38.272  31.634  36.817  1.00  0.00     0.173 A 
ATOM     86  C   UNL A   1      39.608  33.459  36.003  1.00  0.00     0.173 A 
ATOM     87  F   UNL A   1      37.763  30.399  36.687  1.00  0.00    -0.203 F 
ATOM     88  C   UNL A   1      37.927  32.390  37.935  1.00  0.00     0.198 A 
ATOM     89  C   UNL A   1      39.283  34.203  37.134  1.00  0.00     0.198 A 
ATOM     90  F   UNL A   1      40.424  34.003  35.086  1.00  0.00    -0.203 F 
ATOM     91  F   UNL A   1      37.092  31.884  38.853  1.00  0.00    -0.200 F 
ATOM     92  C   UNL A   1      38.439  33.669  38.096  1.00  0.00     0.200 A 
ATOM     93  F   UNL A   1      39.789  35.433  37.294  1.00  0.00    -0.200 F 
ATOM     94  F   UNL A   1      38.115  34.391  39.178  1.00  0.00    -0.200 F 
ENDBRANCH  61  84
ENDBRANCH  35  36
ENDBRANCH  28  30
ENDBRANCH  27  28
ENDBRANCH  26  27
ENDBRANCH  25  26
ENDBRANCH  24  25
ENDBRANCH   1  24
TORSDOF 18
ENDMDL
MODEL 2
REMARK VINA RESULT:     -10.9      1.706      2.684
REMARK SMILES [NH3+][C@H]1COC[C@@H]1C(=O)NC1(CC(=O)OCCOCCOC(=O)c2ccc(-c3c4nc(c(-c5c(F)c(F)c(F)c(F)c5F)c5ccc([nH]5)c(-c5c(F)c(F)c(F)c(F)c5F)c5nc(c(-c6c(F)c(F)c(F)c(F)c6F)c6ccc3[nH]6)C=C5)C=C4)cc2)CCC1
REMARK SMILES IDX 16 1 15 2 14 3 12 4 13 5 11 6 10 7 86 8 88 9 87 10 9 11 7 12
REMARK SMILES IDX 8 13 6 15 2 16 3 17 4 18 5 19 1 20 17 24 18 25 19 26 20 27
REMARK SMILES IDX 21 28 22 29 23 30 24 31 85 32 25 33 84 34 26 35 27 36 28 37
REMARK SMILES IDX 78 38 29 39 83 40 77 41 79 42 30 43 82 44 76 45 75 46 31 48
REMARK SMILES IDX 63 49 43 50 62 51 44 52 47 53 61 54 80 55 45 56 46 57 60 59
REMARK SMILES IDX 81 60 48 61 32 62 33 63 41 64 34 65 35 66 39 67 42 68 36 69
REMARK SMILES IDX 37 70 40 71 38 72 64 73 65 74 73 75 66 76 67 77 71 78 74 79
REMARK SMILES IDX 68 80 69 81 72 82 70 83 49 84 50 85 58 86 51 87 52 88 56 89
REMARK SMILES IDX 59 90 53 91 54 92 57 93 55 94
REMARK H PARENT 9 14 1 21 1 22 1 23 79 47 47 58
REMARK Flexibility Score: inf
ROOT
ATOM      1  C   UNL A   1      39.516  22.075  26.400  1.00  0.00     0.202 C 
ENDROOT
BRANCH   1   2
ATOM      2  C   UNL A   1      38.195  21.783  25.685  1.00  0.00     0.261 C 
BRANCH   2   3
ATOM      3  O   UNL A   1      37.694  22.936  24.978  1.00  0.00    -0.463 OA
BRANCH   3   4
ATOM      4  C   UNL A   1      36.758  22.696  24.026  1.00  0.00     0.308 C 
ATOM      5  O   UNL A   1      36.812  23.117  22.876  1.00  0.00    -0.252 OA
BRANCH   4   6
ATOM      6  C   UNL A   1      35.561  21.923  24.524  1.00  0.00     0.151 C 
BRANCH   6   7
ATOM      7  C   UNL A   1      34.502  22.624  25.404  1.00  0.00     0.050 C 
ATOM      8  C   UNL A   1      34.771  22.342  26.909  1.00  0.00     0.029 C 
ATOM      9  C   UNL A   1      33.169  21.845  25.540  1.00  0.00     0.029 C 
ATOM     10  C   UNL A   1      33.664  21.280  26.883  1.00  0.00     0.005 C 
BRANCH   7  11
ATOM     11  N   UNL A   1      34.465  24.078  25.100  1.00  0.00    -0.350 N 
ATOM     12  C   UNL A   1      33.876  24.856  24.142  1.00  0.00     0.232 C 
ATOM     13  O   UNL A   1      34.065  26.072  24.255  1.00  0.00    -0.274 OA
ATOM     14  H   UNL A   1      34.992  24.608  25.741  1.00  0.00     0.164 HD
BRANCH  12  15
ATOM     15  C   UNL A   1      33.040  24.287  23.007  1.00  0.00     0.164 C 
ATOM     16  C   UNL A   1      32.922  25.292  21.867  1.00  0.00     0.221 C 
ATOM     17  C   UNL A   1      31.677  26.094  22.258  1.00  0.00     0.225 C 
ATOM     18  O   UNL A   1      30.829  25.233  23.028  1.00  0.00    -0.374 OA
ATOM     19  C   UNL A   1      31.595  24.092  23.438  1.00  0.00     0.180 C 
BRANCH  16  20
ATOM     20  N   UNL A   1      32.719  24.592  20.583  1.00  0.00    -0.352 N 
ATOM     21  H   UNL A   1      32.248  25.215  19.928  1.00  0.00     0.344 HD
ATOM     22  H   UNL A   1      32.146  23.762  20.736  1.00  0.00     0.344 HD
ATOM     23  H   UNL A   1      33.623  24.315  20.200  1.00  0.00     0.344 HD
ENDBRANCH  16  20
ENDBRANCH  12  15
ENDBRANCH   7  11
ENDBRANCH   6   7
ENDBRANCH   4   6
ENDBRANCH   3   4
ENDBRANCH   2   3
ENDBRANCH   1   2
BRANCH   1  24
ATOM     24  O   UNL A   1      40.684  21.582  25.746  1.00  0.00    -0.374 OA
BRANCH  24  25
ATOM     25  C   UNL A   1      41.936  21.847  26.380  1.00  0.00     0.202 C 
BRANCH  25  26
ATOM     26  C   UNL A   1      43.074  22.224  25.426  1.00  0.00     0.261 C 
BRANCH  26  27
ATOM     27  O   UNL A   1      42.793  23.466  24.748  1.00  0.00    -0.460 OA
BRANCH  27  28
ATOM     28  C   UNL A   1      43.585  24.496  25.121  1.00  0.00     0.338 C 
ATOM     29  O   UNL A   1      44.726  24.731  24.748  1.00  0.00    -0.246 OA
BRANCH  28  30
ATOM     30  C   UNL A   1      42.839  25.445  25.966  1.00  0.00     0.060 A 
ATOM     31  C   UNL A   1      43.457  26.669  26.254  1.00  0.00     0.016 A 
ATOM     32  C   UNL A   1      41.619  25.111  26.557  1.00  0.00     0.016 A 
ATOM     33  C   UNL A   1      42.894  27.530  27.193  1.00  0.00     0.010 A 
ATOM     34  C   UNL A   1      41.057  25.975  27.504  1.00  0.00     0.010 A 
ATOM     35  C   UNL A   1      41.717  27.165  27.859  1.00  0.00    -0.014 A 
BRANCH  35  36
ATOM     36  C   UNL A   1      41.281  27.948  29.041  1.00  0.00     0.031 A 
ATOM     37  C   UNL A   1      42.049  27.808  30.328  1.00  0.00     0.074 A 
ATOM     38  C   UNL A   1      40.247  28.803  28.961  1.00  0.00     0.049 A 
ATOM     39  N   UNL A   1      41.839  28.375  31.489  1.00  0.00    -0.248 NA
ATOM     40  C   UNL A   1      43.213  26.909  30.301  1.00  0.00     0.031 C 
ATOM     41  C   UNL A   1      39.457  29.058  27.759  1.00  0.00     0.029 A 
ATOM     42  N   UNL A   1      39.685  29.615  29.914  1.00  0.00    -0.354 N 
ATOM     43  C   UNL A   1      42.836  27.898  32.329  1.00  0.00     0.074 A 
ATOM     44  C   UNL A   1      43.637  26.973  31.555  1.00  0.00     0.031 C 
ATOM     45  C   UNL A   1      38.503  29.959  28.049  1.00  0.00     0.029 A 
ATOM     46  C   UNL A   1      38.599  30.322  29.463  1.00  0.00     0.049 A 
ATOM     47  H   UNL A   1      40.028  29.681  30.834  1.00  0.00     0.167 HD
ATOM     48  C   UNL A   1      43.070  28.210  33.626  1.00  0.00     0.037 A 
ATOM     49  C   UNL A   1      37.768  31.152  30.122  1.00  0.00     0.037 A 
ATOM     50  C   UNL A   1      42.278  29.135  34.392  1.00  0.00     0.049 A 
ATOM     51  C   UNL A   1      38.012  31.436  31.582  1.00  0.00     0.074 A 
ATOM     52  C   UNL A   1      42.439  29.526  35.709  1.00  0.00     0.029 A 
ATOM     53  N   UNL A   1      41.171  29.815  33.904  1.00  0.00    -0.354 N 
ATOM     54  N   UNL A   1      38.967  30.992  32.363  1.00  0.00    -0.248 NA
ATOM     55  C   UNL A   1      37.065  32.342  32.250  1.00  0.00     0.031 C 
ATOM     56  C   UNL A   1      41.404  30.410  36.032  1.00  0.00     0.029 A 
ATOM     57  C   UNL A   1      40.627  30.608  34.902  1.00  0.00     0.049 A 
ATOM     58  H   UNL A   1      40.824  29.744  32.986  1.00  0.00     0.167 HD
ATOM     59  C   UNL A   1      38.758  31.588  33.601  1.00  0.00     0.074 A 
ATOM     60  C   UNL A   1      37.586  32.428  33.467  1.00  0.00     0.031 C 
ATOM     61  C   UNL A   1      39.473  31.453  34.744  1.00  0.00     0.037 A 
BRANCH  48  62
ATOM     62  C   UNL A   1      44.219  27.527  34.308  1.00  0.00     0.064 A 
ATOM     63  C   UNL A   1      45.494  28.107  34.363  1.00  0.00     0.173 A 
ATOM     64  C   UNL A   1      44.031  26.291  34.946  1.00  0.00     0.173 A 
ATOM     65  F   UNL A   1      45.729  29.281  33.755  1.00  0.00    -0.203 F 
ATOM     66  C   UNL A   1      46.545  27.466  35.012  1.00  0.00     0.198 A 
ATOM     67  C   UNL A   1      45.078  25.665  35.617  1.00  0.00     0.198 A 
ATOM     68  F   UNL A   1      42.829  25.695  34.926  1.00  0.00    -0.203 F 
ATOM     69  F   UNL A   1      47.766  28.019  35.016  1.00  0.00    -0.200 F 
ATOM     70  C   UNL A   1      46.335  26.250  35.645  1.00  0.00     0.200 A 
ATOM     71  F   UNL A   1      44.870  24.495  36.237  1.00  0.00    -0.200 F 
ATOM     72  F   UNL A   1      47.347  25.637  36.276  1.00  0.00    -0.200 F 
ENDBRANCH  48  62
BRANCH  49  73
ATOM     73  C   UNL A   1      36.621  31.770  29.408  1.00  0.00     0.064 A 
ATOM     74  C   UNL A   1      36.598  33.143  29.124  1.00  0.00     0.173 A 
ATOM     75  C   UNL A   1      35.520  31.002  29.003  1.00  0.00     0.173 A 
ATOM     76  F   UNL A   1      37.617  33.924  29.513  1.00  0.00    -0.203 F 
ATOM     77  C   UNL A   1      35.513  33.725  28.474  1.00  0.00     0.198 A 
ATOM     78  C   UNL A   1      34.447  31.581  28.329  1.00  0.00     0.198 A 
ATOM     79  F   UNL A   1      35.493  29.685  29.252  1.00  0.00    -0.203 F 
ATOM     80  F   UNL A   1      35.498  35.046  28.250  1.00  0.00    -0.200 F 
ATOM     81  C   UNL A   1      34.440  32.943  28.072  1.00  0.00     0.200 A 
ATOM     82  F   UNL A   1      33.419  30.818  27.932  1.00  0.00    -0.200 F 
ATOM     83  F   UNL A   1      33.399  33.502  27.441  1.00  0.00    -0.200 F 
ENDBRANCH  49  73
BRANCH  61  84
ATOM     84  C   UNL A   1      39.045  32.266  35.929  1.00  0.00     0.064 A 
ATOM     85  C   UNL A   1      38.225  31.733  36.932  1.00  0.00     0.173 A 
ATOM     86  C   UNL A   1      39.516  33.579  36.091  1.00  0.00     0.173 A 
ATOM     87  F   UNL A   1      37.739  30.487  36.816  1.00  0.00    -0.203 F 
ATOM     88  C   UNL A   1      37.877  32.489  38.048  1.00  0.00     0.198 A 
ATOM     89  C   UNL A   1      39.188  34.323  37.221  1.00  0.00     0.198 A 
ATOM     90  F   UNL A   1      40.311  34.132  35.162  1.00  0.00    -0.203 F 
ATOM     91  F   UNL A   1      37.062  31.973  38.978  1.00  0.00    -0.200 F 
ATOM     92  C   UNL A   1      38.365  33.780  38.195  1.00  0.00     0.200 A 
ATOM     93  F   UNL A   1      39.670  35.565  37.367  1.00  0.00    -0.200 F 
ATOM     94  F   UNL A   1      38.038  34.502  39.276  1.00  0.00    -0.200 F 
ENDBRANCH  61  84
ENDBRANCH  35  36
ENDBRANCH  28  30
ENDBRANCH  27  28
ENDBRANCH  26  27
ENDBRANCH  25  26
ENDBRANCH  24  25
ENDBRANCH   1  24
TORSDOF 18
ENDMDL
MODEL 3
REMARK VINA RESULT:     -10.8      4.790      7.414
REMARK SMILES [NH3+][C@H]1COC[C@@H]1C(=O)NC1(CC(=O)OCCOCCOC(=O)c2ccc(-c3c4nc(c(-c5c(F)c(F)c(F)c(F)c5F)c5ccc([nH]5)c(-c5c(F)c(F)c(F)c(F)c5F)c5nc(c(-c6c(F)c(F)c(F)c(F)c6F)c6ccc3[nH]6)C=C5)C=C4)cc2)CCC1
REMARK SMILES IDX 16 1 15 2 14 3 12 4 13 5 11 6 10 7 86 8 88 9 87 10 9 11 7 12
REMARK SMILES IDX 8 13 6 15 2 16 3 17 4 18 5 19 1 20 17 24 18 25 19 26 20 27
REMARK SMILES IDX 21 28 22 29 23 30 24 31 85 32 25 33 84 34 26 35 27 36 28 37
REMARK SMILES IDX 78 38 29 39 83 40 77 41 79 42 30 43 82 44 76 45 75 46 31 48
REMARK SMILES IDX 63 49 43 50 62 51 44 52 47 53 61 54 80 55 45 56 46 57 60 59
REMARK SMILES IDX 81 60 48 61 32 62 33 63 41 64 34 65 35 66 39 67 42 68 36 69
REMARK SMILES IDX 37 70 40 71 38 72 64 73 65 74 73 75 66 76 67 77 71 78 74 79
REMARK SMILES IDX 68 80 69 81 72 82 70 83 49 84 50 85 58 86 51 87 52 88 56 89
REMARK SMILES IDX 59 90 53 91 54 92 57 93 55 94
REMARK H PARENT 9 14 1 21 1 22 1 23 79 47 47 58
REMARK Flexibility Score: inf
ROOT
ATOM      1  C   UNL A   1      37.920  23.160  26.059  1.00  0.00     0.202 C 
ENDROOT
BRANCH   1   2
ATOM      2  C   UNL A   1      36.457  22.952  25.661  1.00  0.00     0.261 C 
BRANCH   2   3
ATOM      3  O   UNL A   1      35.582  22.927  26.808  1.00  0.00    -0.463 OA
BRANCH   3   4
ATOM      4  C   UNL A   1      34.543  22.056  26.751  1.00  0.00     0.308 C 
ATOM      5  O   UNL A   1      34.053  21.494  27.724  1.00  0.00    -0.252 OA
BRANCH   4   6
ATOM      6  C   UNL A   1      34.078  21.748  25.349  1.00  0.00     0.151 C 
BRANCH   6   7
ATOM      7  C   UNL A   1      32.628  21.274  25.103  1.00  0.00     0.050 C 
ATOM      8  C   UNL A   1      32.547  19.722  25.155  1.00  0.00     0.029 C 
ATOM      9  C   UNL A   1      32.225  21.203  23.609  1.00  0.00     0.029 C 
ATOM     10  C   UNL A   1      32.535  19.695  23.621  1.00  0.00     0.005 C 
BRANCH   7  11
ATOM     11  N   UNL A   1      31.708  21.920  26.074  1.00  0.00    -0.350 N 
ATOM     12  C   UNL A   1      31.271  23.197  26.298  1.00  0.00     0.232 C 
ATOM     13  O   UNL A   1      30.452  23.326  27.213  1.00  0.00    -0.274 OA
ATOM     14  H   UNL A   1      31.318  21.275  26.708  1.00  0.00     0.164 HD
BRANCH  12  15
ATOM     15  C   UNL A   1      31.747  24.392  25.488  1.00  0.00     0.164 C 
ATOM     16  C   UNL A   1      31.332  25.697  26.156  1.00  0.00     0.221 C 
ATOM     17  C   UNL A   1      29.948  25.956  25.551  1.00  0.00     0.225 C 
ATOM     18  O   UNL A   1      29.925  25.355  24.250  1.00  0.00    -0.374 OA
ATOM     19  C   UNL A   1      31.038  24.458  24.144  1.00  0.00     0.180 C 
BRANCH  16  20
ATOM     20  N   UNL A   1      32.274  26.778  25.804  1.00  0.00    -0.352 N 
ATOM     21  H   UNL A   1      33.195  26.379  25.623  1.00  0.00     0.344 HD
ATOM     22  H   UNL A   1      32.335  27.440  26.577  1.00  0.00     0.344 HD
ATOM     23  H   UNL A   1      31.941  27.259  24.968  1.00  0.00     0.344 HD
ENDBRANCH  16  20
ENDBRANCH  12  15
ENDBRANCH   7  11
ENDBRANCH   6   7
ENDBRANCH   4   6
ENDBRANCH   3   4
ENDBRANCH   2   3
ENDBRANCH   1   2
BRANCH   1  24
ATOM     24  O   UNL A   1      38.800  22.088  25.723  1.00  0.00    -0.374 OA
BRANCH  24  25
ATOM     25  C   UNL A   1      38.195  20.884  25.249  1.00  0.00     0.202 C 
BRANCH  25  26
ATOM     26  C   UNL A   1      39.097  19.647  25.301  1.00  0.00     0.261 C 
BRANCH  26  27
ATOM     27  O   UNL A   1      39.947  19.672  26.466  1.00  0.00    -0.460 OA
BRANCH  27  28
ATOM     28  C   UNL A   1      41.260  19.484  26.202  1.00  0.00     0.338 C 
ATOM     29  O   UNL A   1      41.789  18.490  25.724  1.00  0.00    -0.246 OA
BRANCH  28  30
ATOM     30  C   UNL A   1      42.018  20.728  26.428  1.00  0.00     0.060 A 
ATOM     31  C   UNL A   1      42.223  21.121  27.756  1.00  0.00     0.016 A 
ATOM     32  C   UNL A   1      42.423  21.550  25.374  1.00  0.00     0.016 A 
ATOM     33  C   UNL A   1      42.764  22.374  28.036  1.00  0.00     0.010 A 
ATOM     34  C   UNL A   1      42.962  22.810  25.657  1.00  0.00     0.010 A 
ATOM     35  C   UNL A   1      43.091  23.244  26.988  1.00  0.00    -0.014 A 
BRANCH  35  36
ATOM     36  C   UNL A   1      43.401  24.662  27.295  1.00  0.00     0.031 A 
ATOM     37  C   UNL A   1      44.790  25.177  27.028  1.00  0.00     0.074 A 
ATOM     38  C   UNL A   1      42.451  25.492  27.762  1.00  0.00     0.049 A 
ATOM     39  N   UNL A   1      45.291  26.368  27.236  1.00  0.00    -0.248 NA
ATOM     40  C   UNL A   1      45.742  24.218  26.444  1.00  0.00     0.031 C 
ATOM     41  C   UNL A   1      41.061  25.121  28.016  1.00  0.00     0.029 A 
ATOM     42  N   UNL A   1      42.517  26.819  28.105  1.00  0.00    -0.354 N 
ATOM     43  C   UNL A   1      46.613  26.301  26.817  1.00  0.00     0.074 A 
ATOM     44  C   UNL A   1      46.848  24.945  26.367  1.00  0.00     0.031 C 
ATOM     45  C   UNL A   1      40.405  26.196  28.486  1.00  0.00     0.029 A 
ATOM     46  C   UNL A   1      41.335  27.319  28.591  1.00  0.00     0.049 A 
ATOM     47  H   UNL A   1      43.335  27.359  28.013  1.00  0.00     0.167 HD
ATOM     48  C   UNL A   1      47.545  27.283  26.799  1.00  0.00     0.037 A 
ATOM     49  C   UNL A   1      41.045  28.540  29.082  1.00  0.00     0.037 A 
ATOM     50  C   UNL A   1      47.309  28.632  27.239  1.00  0.00     0.049 A 
ATOM     51  C   UNL A   1      42.117  29.599  29.109  1.00  0.00     0.074 A 
ATOM     52  C   UNL A   1      48.185  29.702  27.252  1.00  0.00     0.029 A 
ATOM     53  N   UNL A   1      46.103  29.094  27.747  1.00  0.00    -0.354 N 
ATOM     54  N   UNL A   1      43.359  29.530  28.695  1.00  0.00    -0.248 NA
ATOM     55  C   UNL A   1      41.743  30.909  29.665  1.00  0.00     0.031 C 
ATOM     56  C   UNL A   1      47.522  30.802  27.807  1.00  0.00     0.029 A 
ATOM     57  C   UNL A   1      46.219  30.430  28.094  1.00  0.00     0.049 A 
ATOM     58  H   UNL A   1      45.287  28.553  27.845  1.00  0.00     0.167 HD
ATOM     59  C   UNL A   1      43.905  30.790  28.910  1.00  0.00     0.074 A 
ATOM     60  C   UNL A   1      42.858  31.606  29.487  1.00  0.00     0.031 C 
ATOM     61  C   UNL A   1      45.160  31.231  28.649  1.00  0.00     0.037 A 
BRANCH  48  62
ATOM     62  C   UNL A   1      48.918  26.929  26.306  1.00  0.00     0.064 A 
ATOM     63  C   UNL A   1      49.898  26.410  27.164  1.00  0.00     0.173 A 
ATOM     64  C   UNL A   1      49.244  27.077  24.949  1.00  0.00     0.173 A 
ATOM     65  F   UNL A   1      49.641  26.263  28.473  1.00  0.00    -0.203 F 
ATOM     66  C   UNL A   1      51.162  26.074  26.686  1.00  0.00     0.198 A 
ATOM     67  C   UNL A   1      50.500  26.715  24.470  1.00  0.00     0.198 A 
ATOM     68  F   UNL A   1      48.340  27.566  24.086  1.00  0.00    -0.203 F 
ATOM     69  F   UNL A   1      52.097  25.619  27.532  1.00  0.00    -0.200 F 
ATOM     70  C   UNL A   1      51.459  26.219  25.339  1.00  0.00     0.200 A 
ATOM     71  F   UNL A   1      50.782  26.847  23.167  1.00  0.00    -0.200 F 
ATOM     72  F   UNL A   1      52.674  25.888  24.881  1.00  0.00    -0.200 F 
ENDBRANCH  48  62
BRANCH  49  73
ATOM     73  C   UNL A   1      39.681  28.825  29.595  1.00  0.00     0.064 A 
ATOM     74  C   UNL A   1      39.327  28.529  30.919  1.00  0.00     0.173 A 
ATOM     75  C   UNL A   1      38.699  29.393  28.769  1.00  0.00     0.173 A 
ATOM     76  F   UNL A   1      40.224  27.962  31.739  1.00  0.00    -0.203 F 
ATOM     77  C   UNL A   1      38.041  28.777  31.393  1.00  0.00     0.198 A 
ATOM     78  C   UNL A   1      37.421  29.665  29.253  1.00  0.00     0.198 A 
ATOM     79  F   UNL A   1      38.986  29.694  27.495  1.00  0.00    -0.203 F 
ATOM     80  F   UNL A   1      37.718  28.446  32.651  1.00  0.00    -0.200 F 
ATOM     81  C   UNL A   1      37.091  29.350  30.561  1.00  0.00     0.200 A 
ATOM     82  F   UNL A   1      36.510  30.230  28.449  1.00  0.00    -0.200 F 
ATOM     83  F   UNL A   1      35.856  29.594  31.019  1.00  0.00    -0.200 F 
ENDBRANCH  49  73
BRANCH  61  84
ATOM     84  C   UNL A   1      45.461  32.672  28.935  1.00  0.00     0.064 A 
ATOM     85  C   UNL A   1      46.036  33.078  30.146  1.00  0.00     0.173 A 
ATOM     86  C   UNL A   1      45.226  33.650  27.956  1.00  0.00     0.173 A 
ATOM     87  F   UNL A   1      46.267  32.182  31.118  1.00  0.00    -0.203 F 
ATOM     88  C   UNL A   1      46.351  34.415  30.375  1.00  0.00     0.198 A 
ATOM     89  C   UNL A   1      45.567  34.982  28.177  1.00  0.00     0.198 A 
ATOM     90  F   UNL A   1      44.684  33.310  26.776  1.00  0.00    -0.203 F 
ATOM     91  F   UNL A   1      46.868  34.788  31.554  1.00  0.00    -0.200 F 
ATOM     92  C   UNL A   1      46.124  35.364  29.388  1.00  0.00     0.200 A 
ATOM     93  F   UNL A   1      45.358  35.894  27.218  1.00  0.00    -0.200 F 
ATOM     94  F   UNL A   1      46.439  36.648  29.606  1.00  0.00    -0.200 F 
ENDBRANCH  61  84
ENDBRANCH  35  36
ENDBRANCH  28  30
ENDBRANCH  27  28
ENDBRANCH  26  27
ENDBRANCH  25  26
ENDBRANCH  24  25
ENDBRANCH   1  24
TORSDOF 18
ENDMDL
