MODEL 1
REMARK VINA RESULT:     -11.4      0.000      0.000
REMARK SMILES C[C@H]1SCCC[C@]1(Nc1ccc(Cl)cc1)C(=O)OCCOCCOC(=O)c1ccc(-c2c3nc(c(-c4c(F)c(F)c(F)c(F)c4F)c4ccc([nH]4)c(-c4c(F)c(F)c(F)c(F)c4F)c4nc(c(-c5c(F)c(F)c(F)c(F)c5F)c5ccc2[nH]5)C=C4)C=C3)cc1
REMARK SMILES IDX 21 1 20 2 19 3 18 4 16 5 17 6 7 7 1 8 2 9 3 10 4 11 6 12
REMARK SMILES IDX 5 13 8 14 9 16 10 17 15 18 11 19 14 20 12 21 13 22 22 23
REMARK SMILES IDX 23 24 24 25 25 26 26 27 27 28 28 29 89 30 29 31 88 32 30 33
REMARK SMILES IDX 31 34 32 35 82 36 33 37 87 38 81 39 83 40 34 41 86 42 80 43
REMARK SMILES IDX 79 44 35 46 67 47 47 48 66 49 48 50 51 51 65 52 84 53 49 54
REMARK SMILES IDX 50 55 64 57 85 58 52 59 36 60 37 61 45 62 38 63 39 64 43 65
REMARK SMILES IDX 46 66 40 67 41 68 44 69 42 70 68 71 69 72 77 73 70 74 71 75
REMARK SMILES IDX 75 76 78 77 72 78 73 79 76 80 74 81 53 82 54 83 62 84 55 85
REMARK SMILES IDX 56 86 60 87 63 88 57 89 58 90 61 91 59 92
REMARK H PARENT 8 15 83 45 51 56
REMARK Flexibility Score: inf
ROOT
ATOM      1  O   UNL A   1      31.791  30.801  26.011  1.00  0.00    -0.374 OA
ENDROOT
BRANCH   1   2
ATOM      2  C   UNL A   1      33.028  30.215  26.415  1.00  0.00     0.202 C 
BRANCH   2   3
ATOM      3  C   UNL A   1      32.940  28.946  27.264  1.00  0.00     0.261 C 
BRANCH   3   4
ATOM      4  O   UNL A   1      33.194  27.762  26.488  1.00  0.00    -0.461 OA
BRANCH   4   5
ATOM      5  C   UNL A   1      32.213  26.820  26.519  1.00  0.00     0.333 C 
ATOM      6  O   UNL A   1      31.189  26.945  27.188  1.00  0.00    -0.249 OA
BRANCH   5   7
ATOM      7  C   UNL A   1      32.531  25.559  25.643  1.00  0.00     0.147 C 
ATOM      8  C   UNL A   1      30.648  23.902  26.513  1.00  0.00     0.022 C 
ATOM      9  C   UNL A   1      32.143  24.213  26.356  1.00  0.00     0.080 C 
ATOM     10  S   UNL A   1      32.808  22.720  25.481  1.00  0.00    -0.156 SA
ATOM     11  C   UNL A   1      34.562  23.148  25.491  1.00  0.00     0.070 C 
ATOM     12  C   UNL A   1      34.085  25.637  25.476  1.00  0.00     0.042 C 
ATOM     13  C   UNL A   1      34.779  24.470  24.784  1.00  0.00     0.014 C 
BRANCH   7  14
ATOM     14  N   UNL A   1      31.922  25.619  24.275  1.00  0.00    -0.369 N 
ATOM     15  H   UNL A   1      32.142  24.924  23.614  1.00  0.00     0.161 HD
BRANCH  14  16
ATOM     16  C   UNL A   1      31.049  26.644  23.929  1.00  0.00     0.035 A 
ATOM     17  C   UNL A   1      29.662  26.475  24.013  1.00  0.00     0.027 A 
ATOM     18  C   UNL A   1      31.539  27.812  23.334  1.00  0.00     0.027 A 
ATOM     19  C   UNL A   1      28.786  27.407  23.452  1.00  0.00     0.022 A 
ATOM     20  C   UNL A   1      30.670  28.748  22.766  1.00  0.00     0.022 A 
ATOM     21  C   UNL A   1      29.296  28.530  22.811  1.00  0.00     0.041 A 
ATOM     22  Cl  UNL A   1      28.229  29.640  22.045  1.00  0.00    -0.084 Cl
ENDBRANCH  14  16
ENDBRANCH   7  14
ENDBRANCH   5   7
ENDBRANCH   4   5
ENDBRANCH   3   4
ENDBRANCH   2   3
ENDBRANCH   1   2
BRANCH   1  23
ATOM     23  C   UNL A   1      31.282  31.879  26.792  1.00  0.00     0.202 C 
BRANCH  23  24
ATOM     24  C   UNL A   1      32.140  33.145  26.850  1.00  0.00     0.261 C 
BRANCH  24  25
ATOM     25  O   UNL A   1      32.546  33.449  28.198  1.00  0.00    -0.460 OA
BRANCH  25  26
ATOM     26  C   UNL A   1      33.657  34.212  28.292  1.00  0.00     0.338 C 
ATOM     27  O   UNL A   1      33.716  35.436  28.327  1.00  0.00    -0.246 OA
BRANCH  26  28
ATOM     28  C   UNL A   1      34.842  33.372  28.535  1.00  0.00     0.060 A 
ATOM     29  C   UNL A   1      34.625  32.101  29.085  1.00  0.00     0.016 A 
ATOM     30  C   UNL A   1      36.140  33.844  28.329  1.00  0.00     0.016 A 
ATOM     31  C   UNL A   1      35.704  31.324  29.496  1.00  0.00     0.010 A 
ATOM     32  C   UNL A   1      37.224  33.065  28.751  1.00  0.00     0.010 A 
ATOM     33  C   UNL A   1      37.007  31.823  29.377  1.00  0.00    -0.014 A 
BRANCH  33  34
ATOM     34  C   UNL A   1      38.112  31.122  30.074  1.00  0.00     0.031 A 
ATOM     35  C   UNL A   1      38.364  31.430  31.525  1.00  0.00     0.074 A 
ATOM     36  C   UNL A   1      38.843  30.186  29.444  1.00  0.00     0.049 A 
ATOM     37  N   UNL A   1      39.273  30.946  32.333  1.00  0.00    -0.248 NA
ATOM     38  C   UNL A   1      37.466  32.415  32.151  1.00  0.00     0.031 C 
ATOM     39  C   UNL A   1      38.660  29.765  28.058  1.00  0.00     0.029 A 
ATOM     40  N   UNL A   1      39.887  29.420  29.897  1.00  0.00    -0.354 N 
ATOM     41  C   UNL A   1      39.058  31.565  33.557  1.00  0.00     0.074 A 
ATOM     42  C   UNL A   1      37.953  32.483  33.381  1.00  0.00     0.031 C 
ATOM     43  C   UNL A   1      39.571  28.820  27.767  1.00  0.00     0.029 A 
ATOM     44  C   UNL A   1      40.415  28.591  28.938  1.00  0.00     0.049 A 
ATOM     45  H   UNL A   1      40.226  29.461  30.820  1.00  0.00     0.167 HD
ATOM     46  C   UNL A   1      39.715  31.379  34.726  1.00  0.00     0.037 A 
ATOM     47  C   UNL A   1      41.472  27.757  29.000  1.00  0.00     0.037 A 
ATOM     48  C   UNL A   1      40.812  30.464  34.902  1.00  0.00     0.049 A 
ATOM     49  C   UNL A   1      42.234  27.623  30.293  1.00  0.00     0.074 A 
ATOM     50  C   UNL A   1      41.537  30.196  36.050  1.00  0.00     0.029 A 
ATOM     51  N   UNL A   1      41.345  29.671  33.897  1.00  0.00    -0.354 N 
ATOM     52  N   UNL A   1      42.013  28.199  31.450  1.00  0.00    -0.248 NA
ATOM     53  C   UNL A   1      43.393  26.718  30.288  1.00  0.00     0.031 C 
ATOM     54  C   UNL A   1      42.537  29.272  35.729  1.00  0.00     0.029 A 
ATOM     55  C   UNL A   1      42.405  28.929  34.393  1.00  0.00     0.049 A 
ATOM     56  H   UNL A   1      41.017  29.638  32.969  1.00  0.00     0.167 HD
ATOM     57  C   UNL A   1      42.983  27.707  32.314  1.00  0.00     0.074 A 
ATOM     58  C   UNL A   1      43.788  26.777  31.552  1.00  0.00     0.031 C 
ATOM     59  C   UNL A   1      43.188  27.999  33.621  1.00  0.00     0.037 A 
BRANCH  46  60
ATOM     60  C   UNL A   1      39.280  32.198  35.904  1.00  0.00     0.064 A 
ATOM     61  C   UNL A   1      38.352  31.709  36.836  1.00  0.00     0.173 A 
ATOM     62  C   UNL A   1      39.826  33.470  36.124  1.00  0.00     0.173 A 
ATOM     63  F   UNL A   1      37.790  30.504  36.661  1.00  0.00    -0.203 F 
ATOM     64  C   UNL A   1      37.973  32.475  37.936  1.00  0.00     0.198 A 
ATOM     65  C   UNL A   1      39.464  34.222  37.239  1.00  0.00     0.198 A 
ATOM     66  F   UNL A   1      40.720  33.981  35.264  1.00  0.00    -0.203 F 
ATOM     67  F   UNL A   1      37.056  32.006  38.794  1.00  0.00    -0.200 F 
ATOM     68  C   UNL A   1      38.534  33.727  38.140  1.00  0.00     0.200 A 
ATOM     69  F   UNL A   1      40.014  35.428  37.440  1.00  0.00    -0.200 F 
ATOM     70  F   UNL A   1      38.174  34.459  39.204  1.00  0.00    -0.200 F 
ENDBRANCH  46  60
BRANCH  47  71
ATOM     71  C   UNL A   1      41.885  26.992  27.795  1.00  0.00     0.064 A 
ATOM     72  C   UNL A   1      41.397  25.700  27.554  1.00  0.00     0.173 A 
ATOM     73  C   UNL A   1      42.796  27.528  26.874  1.00  0.00     0.173 A 
ATOM     74  F   UNL A   1      40.545  25.134  28.422  1.00  0.00    -0.203 F 
ATOM     75  C   UNL A   1      41.820  24.967  26.448  1.00  0.00     0.198 A 
ATOM     76  C   UNL A   1      43.197  26.805  25.753  1.00  0.00     0.198 A 
ATOM     77  F   UNL A   1      43.296  28.759  27.061  1.00  0.00    -0.203 F 
ATOM     78  F   UNL A   1      41.376  23.715  26.266  1.00  0.00    -0.200 F 
ATOM     79  C   UNL A   1      42.716  25.521  25.545  1.00  0.00     0.200 A 
ATOM     80  F   UNL A   1      44.056  27.348  24.880  1.00  0.00    -0.200 F 
ATOM     81  F   UNL A   1      43.124  24.815  24.483  1.00  0.00    -0.200 F 
ENDBRANCH  47  71
BRANCH  59  82
ATOM     82  C   UNL A   1      44.304  27.280  34.323  1.00  0.00     0.064 A 
ATOM     83  C   UNL A   1      45.588  27.834  34.420  1.00  0.00     0.173 A 
ATOM     84  C   UNL A   1      44.071  26.044  34.944  1.00  0.00     0.173 A 
ATOM     85  F   UNL A   1      45.864  29.007  33.832  1.00  0.00    -0.203 F 
ATOM     86  C   UNL A   1      46.606  27.163  35.094  1.00  0.00     0.198 A 
ATOM     87  C   UNL A   1      45.083  25.390  35.640  1.00  0.00     0.198 A 
ATOM     88  F   UNL A   1      42.857  25.475  34.886  1.00  0.00    -0.203 F 
ATOM     89  F   UNL A   1      47.838  27.690  35.139  1.00  0.00    -0.200 F 
ATOM     90  C   UNL A   1      46.351  25.946  35.709  1.00  0.00     0.200 A 
ATOM     91  F   UNL A   1      44.832  24.219  36.244  1.00  0.00    -0.200 F 
ATOM     92  F   UNL A   1      47.331  25.307  36.363  1.00  0.00    -0.200 F 
ENDBRANCH  59  82
ENDBRANCH  33  34
ENDBRANCH  26  28
ENDBRANCH  25  26
ENDBRANCH  24  25
ENDBRANCH  23  24
ENDBRANCH   1  23
TORSDOF 16
ENDMDL
MODEL 2
REMARK VINA RESULT:     -11.3      1.027      7.307
REMARK SMILES C[C@H]1SCCC[C@]1(Nc1ccc(Cl)cc1)C(=O)OCCOCCOC(=O)c1ccc(-c2c3nc(c(-c4c(F)c(F)c(F)c(F)c4F)c4ccc([nH]4)c(-c4c(F)c(F)c(F)c(F)c4F)c4nc(c(-c5c(F)c(F)c(F)c(F)c5F)c5ccc2[nH]5)C=C4)C=C3)cc1
REMARK SMILES IDX 21 1 20 2 19 3 18 4 16 5 17 6 7 7 1 8 2 9 3 10 4 11 6 12
REMARK SMILES IDX 5 13 8 14 9 16 10 17 15 18 11 19 14 20 12 21 13 22 22 23
REMARK SMILES IDX 23 24 24 25 25 26 26 27 27 28 28 29 89 30 29 31 88 32 30 33
REMARK SMILES IDX 31 34 32 35 82 36 33 37 87 38 81 39 83 40 34 41 86 42 80 43
REMARK SMILES IDX 79 44 35 46 67 47 47 48 66 49 48 50 51 51 65 52 84 53 49 54
REMARK SMILES IDX 50 55 64 57 85 58 52 59 36 60 37 61 45 62 38 63 39 64 43 65
REMARK SMILES IDX 46 66 40 67 41 68 44 69 42 70 68 71 69 72 77 73 70 74 71 75
REMARK SMILES IDX 75 76 78 77 72 78 73 79 76 80 74 81 53 82 54 83 62 84 55 85
REMARK SMILES IDX 56 86 60 87 63 88 57 89 58 90 61 91 59 92
REMARK H PARENT 8 15 83 45 51 56
REMARK Flexibility Score: inf
ROOT
ATOM      1  O   UNL A   1      32.965  29.672  24.744  1.00  0.00    -0.374 OA
ENDROOT
BRANCH   1   2
ATOM      2  C   UNL A   1      33.654  28.474  25.102  1.00  0.00     0.202 C 
BRANCH   2   3
ATOM      3  C   UNL A   1      33.071  27.670  26.265  1.00  0.00     0.261 C 
BRANCH   3   4
ATOM      4  O   UNL A   1      33.339  26.263  26.132  1.00  0.00    -0.461 OA
BRANCH   4   5
ATOM      5  C   UNL A   1      32.241  25.460  26.098  1.00  0.00     0.333 C 
ATOM      6  O   UNL A   1      31.298  25.584  26.877  1.00  0.00    -0.249 OA
BRANCH   5   7
ATOM      7  C   UNL A   1      32.312  24.354  24.988  1.00  0.00     0.147 C 
ATOM      8  C   UNL A   1      30.762  22.497  26.085  1.00  0.00     0.022 C 
ATOM      9  C   UNL A   1      32.151  22.901  25.570  1.00  0.00     0.080 C 
ATOM     10  S   UNL A   1      32.557  21.583  24.332  1.00  0.00    -0.156 SA
ATOM     11  C   UNL A   1      34.241  22.093  23.924  1.00  0.00     0.070 C 
ATOM     12  C   UNL A   1      33.757  24.531  24.415  1.00  0.00     0.042 C 
ATOM     13  C   UNL A   1      34.240  23.511  23.391  1.00  0.00     0.014 C 
BRANCH   7  14
ATOM     14  N   UNL A   1      31.345  24.576  23.867  1.00  0.00    -0.369 N 
ATOM     15  H   UNL A   1      31.080  23.819  23.295  1.00  0.00     0.161 HD
BRANCH  14  16
ATOM     16  C   UNL A   1      30.815  25.838  23.623  1.00  0.00     0.035 A 
ATOM     17  C   UNL A   1      29.517  26.170  24.030  1.00  0.00     0.027 A 
ATOM     18  C   UNL A   1      31.512  26.749  22.822  1.00  0.00     0.027 A 
ATOM     19  C   UNL A   1      28.900  27.343  23.587  1.00  0.00     0.022 A 
ATOM     20  C   UNL A   1      30.901  27.923  22.371  1.00  0.00     0.022 A 
ATOM     21  C   UNL A   1      29.589  28.204  22.741  1.00  0.00     0.041 A 
ATOM     22  Cl  UNL A   1      28.810  29.608  22.125  1.00  0.00    -0.084 Cl
ENDBRANCH  14  16
ENDBRANCH   7  14
ENDBRANCH   5   7
ENDBRANCH   4   5
ENDBRANCH   3   4
ENDBRANCH   2   3
ENDBRANCH   1   2
BRANCH   1  23
ATOM     23  C   UNL A   1      31.722  29.939  25.390  1.00  0.00     0.202 C 
BRANCH  23  24
ATOM     24  C   UNL A   1      31.691  31.142  26.338  1.00  0.00     0.261 C 
BRANCH  24  25
ATOM     25  O   UNL A   1      32.650  31.003  27.403  1.00  0.00    -0.460 OA
BRANCH  25  26
ATOM     26  C   UNL A   1      33.492  32.050  27.542  1.00  0.00     0.338 C 
ATOM     27  O   UNL A   1      33.208  33.242  27.485  1.00  0.00    -0.246 OA
BRANCH  26  28
ATOM     28  C   UNL A   1      34.826  31.591  27.962  1.00  0.00     0.060 A 
ATOM     29  C   UNL A   1      34.954  30.244  28.327  1.00  0.00     0.016 A 
ATOM     30  C   UNL A   1      35.904  32.468  28.095  1.00  0.00     0.016 A 
ATOM     31  C   UNL A   1      36.139  29.783  28.892  1.00  0.00     0.010 A 
ATOM     32  C   UNL A   1      37.093  32.006  28.673  1.00  0.00     0.010 A 
ATOM     33  C   UNL A   1      37.198  30.673  29.114  1.00  0.00    -0.014 A 
BRANCH  33  34
ATOM     34  C   UNL A   1      38.330  30.245  29.970  1.00  0.00     0.031 A 
ATOM     35  C   UNL A   1      39.329  29.267  29.413  1.00  0.00     0.074 A 
ATOM     36  C   UNL A   1      38.500  30.759  31.200  1.00  0.00     0.049 A 
ATOM     37  N   UNL A   1      40.391  28.750  29.978  1.00  0.00    -0.248 NA
ATOM     38  C   UNL A   1      39.103  28.815  28.030  1.00  0.00     0.031 C 
ATOM     39  C   UNL A   1      37.630  31.750  31.828  1.00  0.00     0.029 A 
ATOM     40  N   UNL A   1      39.470  30.514  32.140  1.00  0.00    -0.354 N 
ATOM     41  C   UNL A   1      40.955  27.914  29.023  1.00  0.00     0.074 A 
ATOM     42  C   UNL A   1      40.105  27.968  27.854  1.00  0.00     0.031 C 
ATOM     43  C   UNL A   1      38.099  32.024  33.058  1.00  0.00     0.029 A 
ATOM     44  C   UNL A   1      39.286  31.208  33.311  1.00  0.00     0.049 A 
ATOM     45  H   UNL A   1      40.224  29.900  31.990  1.00  0.00     0.167 HD
ATOM     46  C   UNL A   1      42.087  27.175  29.109  1.00  0.00     0.037 A 
ATOM     47  C   UNL A   1      39.989  31.171  34.460  1.00  0.00     0.037 A 
ATOM     48  C   UNL A   1      42.934  27.124  30.271  1.00  0.00     0.049 A 
ATOM     49  C   UNL A   1      41.202  30.283  34.556  1.00  0.00     0.074 A 
ATOM     50  C   UNL A   1      44.107  26.413  30.452  1.00  0.00     0.029 A 
ATOM     51  N   UNL A   1      42.693  27.809  31.452  1.00  0.00    -0.354 N 
ATOM     52  N   UNL A   1      41.739  29.509  33.643  1.00  0.00    -0.248 NA
ATOM     53  C   UNL A   1      41.911  30.266  35.845  1.00  0.00     0.031 C 
ATOM     54  C   UNL A   1      44.555  26.634  31.759  1.00  0.00     0.029 A 
ATOM     55  C   UNL A   1      43.685  27.520  32.376  1.00  0.00     0.049 A 
ATOM     56  H   UNL A   1      41.932  28.412  31.611  1.00  0.00     0.167 HD
ATOM     57  C   UNL A   1      42.859  28.939  34.235  1.00  0.00     0.074 A 
ATOM     58  C   UNL A   1      42.932  29.463  35.582  1.00  0.00     0.031 C 
ATOM     59  C   UNL A   1      43.747  28.060  33.710  1.00  0.00     0.037 A 
BRANCH  46  60
ATOM     60  C   UNL A   1      42.464  26.343  27.920  1.00  0.00     0.064 A 
ATOM     61  C   UNL A   1      41.940  25.056  27.728  1.00  0.00     0.173 A 
ATOM     62  C   UNL A   1      43.329  26.854  26.942  1.00  0.00     0.173 A 
ATOM     63  F   UNL A   1      41.121  24.517  28.643  1.00  0.00    -0.203 F 
ATOM     64  C   UNL A   1      42.285  24.303  26.608  1.00  0.00     0.198 A 
ATOM     65  C   UNL A   1      43.651  26.109  25.811  1.00  0.00     0.198 A 
ATOM     66  F   UNL A   1      43.854  28.081  27.078  1.00  0.00    -0.203 F 
ATOM     67  F   UNL A   1      41.804  23.060  26.463  1.00  0.00    -0.200 F 
ATOM     68  C   UNL A   1      43.134  24.833  25.647  1.00  0.00     0.200 A 
ATOM     69  F   UNL A   1      44.464  26.626  24.879  1.00  0.00    -0.200 F 
ATOM     70  F   UNL A   1      43.459  24.110  24.566  1.00  0.00    -0.200 F 
ENDBRANCH  46  60
BRANCH  47  71
ATOM     71  C   UNL A   1      39.556  31.989  35.621  1.00  0.00     0.064 A 
ATOM     72  C   UNL A   1      38.580  31.523  36.514  1.00  0.00     0.173 A 
ATOM     73  C   UNL A   1      40.090  33.266  35.847  1.00  0.00     0.173 A 
ATOM     74  F   UNL A   1      38.018  30.320  36.322  1.00  0.00    -0.203 F 
ATOM     75  C   UNL A   1      38.142  32.311  37.576  1.00  0.00     0.198 A 
ATOM     76  C   UNL A   1      39.672  34.041  36.926  1.00  0.00     0.198 A 
ATOM     77  F   UNL A   1      41.024  33.759  35.020  1.00  0.00    -0.203 F 
ATOM     78  F   UNL A   1      37.173  31.862  38.386  1.00  0.00    -0.200 F 
ATOM     79  C   UNL A   1      38.692  33.567  37.785  1.00  0.00     0.200 A 
ATOM     80  F   UNL A   1      40.213  35.250  37.128  1.00  0.00    -0.200 F 
ATOM     81  F   UNL A   1      38.270  34.325  38.805  1.00  0.00    -0.200 F 
ENDBRANCH  47  71
BRANCH  59  82
ATOM     82  C   UNL A   1      44.896  27.635  34.579  1.00  0.00     0.064 A 
ATOM     83  C   UNL A   1      46.090  28.368  34.628  1.00  0.00     0.173 A 
ATOM     84  C   UNL A   1      44.780  26.506  35.404  1.00  0.00     0.173 A 
ATOM     85  F   UNL A   1      46.253  29.447  33.848  1.00  0.00    -0.203 F 
ATOM     86  C   UNL A   1      47.137  27.973  35.457  1.00  0.00     0.198 A 
ATOM     87  C   UNL A   1      45.819  26.130  36.251  1.00  0.00     0.198 A 
ATOM     88  F   UNL A   1      43.655  25.776  35.399  1.00  0.00    -0.203 F 
ATOM     89  F   UNL A   1      48.286  28.663  35.458  1.00  0.00    -0.200 F 
ATOM     90  C   UNL A   1      46.998  26.859  36.272  1.00  0.00     0.200 A 
ATOM     91  F   UNL A   1      45.678  25.061  37.047  1.00  0.00    -0.200 F 
ATOM     92  F   UNL A   1      48.005  26.485  37.073  1.00  0.00    -0.200 F 
ENDBRANCH  59  82
ENDBRANCH  33  34
ENDBRANCH  26  28
ENDBRANCH  25  26
ENDBRANCH  24  25
ENDBRANCH  23  24
ENDBRANCH   1  23
TORSDOF 16
ENDMDL
MODEL 3
REMARK VINA RESULT:     -11.2      1.033      7.584
REMARK SMILES C[C@H]1SCCC[C@]1(Nc1ccc(Cl)cc1)C(=O)OCCOCCOC(=O)c1ccc(-c2c3nc(c(-c4c(F)c(F)c(F)c(F)c4F)c4ccc([nH]4)c(-c4c(F)c(F)c(F)c(F)c4F)c4nc(c(-c5c(F)c(F)c(F)c(F)c5F)c5ccc2[nH]5)C=C4)C=C3)cc1
REMARK SMILES IDX 21 1 20 2 19 3 18 4 16 5 17 6 7 7 1 8 2 9 3 10 4 11 6 12
REMARK SMILES IDX 5 13 8 14 9 16 10 17 15 18 11 19 14 20 12 21 13 22 22 23
REMARK SMILES IDX 23 24 24 25 25 26 26 27 27 28 28 29 89 30 29 31 88 32 30 33
REMARK SMILES IDX 31 34 32 35 82 36 33 37 87 38 81 39 83 40 34 41 86 42 80 43
REMARK SMILES IDX 79 44 35 46 67 47 47 48 66 49 48 50 51 51 65 52 84 53 49 54
REMARK SMILES IDX 50 55 64 57 85 58 52 59 36 60 37 61 45 62 38 63 39 64 43 65
REMARK SMILES IDX 46 66 40 67 41 68 44 69 42 70 68 71 69 72 77 73 70 74 71 75
REMARK SMILES IDX 75 76 78 77 72 78 73 79 76 80 74 81 53 82 54 83 62 84 55 85
REMARK SMILES IDX 56 86 60 87 63 88 57 89 58 90 61 91 59 92
REMARK H PARENT 8 15 83 45 51 56
REMARK Flexibility Score: inf
ROOT
ATOM      1  O   UNL A   1      33.188  29.704  24.926  1.00  0.00    -0.374 OA
ENDROOT
BRANCH   1   2
ATOM      2  C   UNL A   1      33.683  28.368  24.989  1.00  0.00     0.202 C 
BRANCH   2   3
ATOM      3  C   UNL A   1      33.032  27.444  26.019  1.00  0.00     0.261 C 
BRANCH   3   4
ATOM      4  O   UNL A   1      33.242  26.056  25.704  1.00  0.00    -0.461 OA
BRANCH   4   5
ATOM      5  C   UNL A   1      32.205  25.226  25.999  1.00  0.00     0.333 C 
ATOM      6  O   UNL A   1      31.380  25.474  26.877  1.00  0.00    -0.249 OA
BRANCH   5   7
ATOM      7  C   UNL A   1      32.185  23.921  25.131  1.00  0.00     0.147 C 
ATOM      8  C   UNL A   1      30.415  22.484  26.494  1.00  0.00     0.022 C 
ATOM      9  C   UNL A   1      31.852  22.636  25.975  1.00  0.00     0.080 C 
ATOM     10  S   UNL A   1      32.146  21.065  25.037  1.00  0.00    -0.156 SA
ATOM     11  C   UNL A   1      33.884  21.311  24.615  1.00  0.00     0.070 C 
ATOM     12  C   UNL A   1      33.654  23.835  24.601  1.00  0.00     0.042 C 
ATOM     13  C   UNL A   1      34.050  22.589  23.818  1.00  0.00     0.014 C 
BRANCH   7  14
ATOM     14  N   UNL A   1      31.276  24.013  23.944  1.00  0.00    -0.369 N 
ATOM     15  H   UNL A   1      30.912  23.190  23.544  1.00  0.00     0.161 HD
BRANCH  14  16
ATOM     16  C   UNL A   1      30.938  25.247  23.399  1.00  0.00     0.035 A 
ATOM     17  C   UNL A   1      31.783  25.892  22.488  1.00  0.00     0.027 A 
ATOM     18  C   UNL A   1      29.822  25.943  23.876  1.00  0.00     0.027 A 
ATOM     19  C   UNL A   1      31.565  27.223  22.120  1.00  0.00     0.022 A 
ATOM     20  C   UNL A   1      29.599  27.275  23.517  1.00  0.00     0.022 A 
ATOM     21  C   UNL A   1      30.485  27.915  22.655  1.00  0.00     0.041 A 
ATOM     22  Cl  UNL A   1      30.255  29.576  22.272  1.00  0.00    -0.084 Cl
ENDBRANCH  14  16
ENDBRANCH   7  14
ENDBRANCH   5   7
ENDBRANCH   4   5
ENDBRANCH   3   4
ENDBRANCH   2   3
ENDBRANCH   1   2
BRANCH   1  23
ATOM     23  C   UNL A   1      31.850  29.937  25.359  1.00  0.00     0.202 C 
BRANCH  23  24
ATOM     24  C   UNL A   1      31.613  31.192  26.203  1.00  0.00     0.261 C 
BRANCH  24  25
ATOM     25  O   UNL A   1      32.425  31.190  27.394  1.00  0.00    -0.460 OA
BRANCH  25  26
ATOM     26  C   UNL A   1      33.291  32.223  27.485  1.00  0.00     0.338 C 
ATOM     27  O   UNL A   1      33.035  33.417  27.375  1.00  0.00    -0.246 OA
BRANCH  26  28
ATOM     28  C   UNL A   1      34.614  31.751  27.924  1.00  0.00     0.060 A 
ATOM     29  C   UNL A   1      34.741  30.389  28.230  1.00  0.00     0.016 A 
ATOM     30  C   UNL A   1      35.683  32.627  28.132  1.00  0.00     0.016 A 
ATOM     31  C   UNL A   1      35.911  29.909  28.809  1.00  0.00     0.010 A 
ATOM     32  C   UNL A   1      36.856  32.144  28.723  1.00  0.00     0.010 A 
ATOM     33  C   UNL A   1      36.956  30.793  29.105  1.00  0.00    -0.014 A 
BRANCH  33  34
ATOM     34  C   UNL A   1      38.065  30.331  29.975  1.00  0.00     0.031 A 
ATOM     35  C   UNL A   1      39.076  29.371  29.410  1.00  0.00     0.074 A 
ATOM     36  C   UNL A   1      38.203  30.801  31.226  1.00  0.00     0.049 A 
ATOM     37  N   UNL A   1      40.121  28.830  29.983  1.00  0.00    -0.248 NA
ATOM     38  C   UNL A   1      38.885  28.969  28.007  1.00  0.00     0.031 C 
ATOM     39  C   UNL A   1      37.319  31.771  31.866  1.00  0.00     0.029 A 
ATOM     40  N   UNL A   1      39.147  30.520  32.182  1.00  0.00    -0.354 N 
ATOM     41  C   UNL A   1      40.708  28.027  29.015  1.00  0.00     0.074 A 
ATOM     42  C   UNL A   1      39.890  28.125  27.826  1.00  0.00     0.031 C 
ATOM     43  C   UNL A   1      37.756  32.000  33.117  1.00  0.00     0.029 A 
ATOM     44  C   UNL A   1      38.934  31.172  33.372  1.00  0.00     0.049 A 
ATOM     45  H   UNL A   1      39.904  29.909  32.030  1.00  0.00     0.167 HD
ATOM     46  C   UNL A   1      41.836  27.282  29.105  1.00  0.00     0.037 A 
ATOM     47  C   UNL A   1      39.606  31.092  34.537  1.00  0.00     0.037 A 
ATOM     48  C   UNL A   1      42.653  27.187  30.285  1.00  0.00     0.049 A 
ATOM     49  C   UNL A   1      40.815  30.197  34.633  1.00  0.00     0.074 A 
ATOM     50  C   UNL A   1      43.819  26.467  30.473  1.00  0.00     0.029 A 
ATOM     51  N   UNL A   1      42.382  27.830  31.484  1.00  0.00    -0.354 N 
ATOM     52  N   UNL A   1      41.374  29.455  33.708  1.00  0.00    -0.248 NA
ATOM     53  C   UNL A   1      41.489  30.133  35.939  1.00  0.00     0.031 C 
ATOM     54  C   UNL A   1      44.232  26.640  31.798  1.00  0.00     0.029 A 
ATOM     55  C   UNL A   1      43.348  27.506  32.423  1.00  0.00     0.049 A 
ATOM     56  H   UNL A   1      41.617  28.430  31.644  1.00  0.00     0.167 HD
ATOM     57  C   UNL A   1      42.477  28.860  34.309  1.00  0.00     0.074 A 
ATOM     58  C   UNL A   1      42.515  29.336  35.675  1.00  0.00     0.031 C 
ATOM     59  C   UNL A   1      43.376  27.998  33.776  1.00  0.00     0.037 A 
BRANCH  46  60
ATOM     60  C   UNL A   1      42.242  26.491  27.897  1.00  0.00     0.064 A 
ATOM     61  C   UNL A   1      43.204  26.970  26.995  1.00  0.00     0.173 A 
ATOM     62  C   UNL A   1      41.691  25.224  27.661  1.00  0.00     0.173 A 
ATOM     63  F   UNL A   1      43.748  28.183  27.169  1.00  0.00    -0.203 F 
ATOM     64  C   UNL A   1      43.584  26.214  25.888  1.00  0.00     0.198 A 
ATOM     65  C   UNL A   1      42.093  24.460  26.568  1.00  0.00     0.198 A 
ATOM     66  F   UNL A   1      40.770  24.720  28.496  1.00  0.00    -0.203 F 
ATOM     67  F   UNL A   1      44.476  26.706  25.017  1.00  0.00    -0.200 F 
ATOM     68  C   UNL A   1      43.034  24.958  25.680  1.00  0.00     0.200 A 
ATOM     69  F   UNL A   1      41.568  23.243  26.373  1.00  0.00    -0.200 F 
ATOM     70  F   UNL A   1      43.408  24.229  24.619  1.00  0.00    -0.200 F 
ENDBRANCH  46  60
BRANCH  47  71
ATOM     71  C   UNL A   1      39.144  31.870  35.715  1.00  0.00     0.064 A 
ATOM     72  C   UNL A   1      39.609  33.171  35.952  1.00  0.00     0.173 A 
ATOM     73  C   UNL A   1      38.249  31.317  36.642  1.00  0.00     0.173 A 
ATOM     74  F   UNL A   1      40.489  33.732  35.109  1.00  0.00    -0.203 F 
ATOM     75  C   UNL A   1      39.210  33.882  37.082  1.00  0.00     0.198 A 
ATOM     76  C   UNL A   1      37.828  32.040  37.756  1.00  0.00     0.198 A 
ATOM     77  F   UNL A   1      37.778  30.074  36.462  1.00  0.00    -0.203 F 
ATOM     78  F   UNL A   1      39.707  35.105  37.312  1.00  0.00    -0.200 F 
ATOM     79  C   UNL A   1      38.315  33.318  37.980  1.00  0.00     0.200 A 
ATOM     80  F   UNL A   1      36.958  31.493  38.616  1.00  0.00    -0.200 F 
ATOM     81  F   UNL A   1      37.934  34.001  39.067  1.00  0.00    -0.200 F 
ENDBRANCH  47  71
BRANCH  59  82
ATOM     82  C   UNL A   1      44.500  27.539  34.659  1.00  0.00     0.064 A 
ATOM     83  C   UNL A   1      44.404  26.367  35.422  1.00  0.00     0.173 A 
ATOM     84  C   UNL A   1      45.704  28.260  34.706  1.00  0.00     0.173 A 
ATOM     85  F   UNL A   1      43.270  25.652  35.420  1.00  0.00    -0.203 F 
ATOM     86  C   UNL A   1      45.465  25.945  36.219  1.00  0.00     0.198 A 
ATOM     87  C   UNL A   1      46.772  27.819  35.483  1.00  0.00     0.198 A 
ATOM     88  F   UNL A   1      45.848  29.384  33.989  1.00  0.00    -0.203 F 
ATOM     89  F   UNL A   1      45.338  24.844  36.973  1.00  0.00    -0.200 F 
ATOM     90  C   UNL A   1      46.650  26.666  36.244  1.00  0.00     0.200 A 
ATOM     91  F   UNL A   1      47.920  28.512  35.495  1.00  0.00    -0.200 F 
ATOM     92  F   UNL A   1      47.671  26.253  37.006  1.00  0.00    -0.200 F 
ENDBRANCH  59  82
ENDBRANCH  33  34
ENDBRANCH  26  28
ENDBRANCH  25  26
ENDBRANCH  24  25
ENDBRANCH  23  24
ENDBRANCH   1  23
TORSDOF 16
ENDMDL
