MODEL 1
REMARK VINA RESULT:     -12.3      0.000      0.000
REMARK SMILES Cc1cc(NC(=O)c2ccc(Br)cc2N)ccc1C(=O)OCCOCCOC(=O)c1ccc(-c2c3nc(c(-c4c(F)c(F)c(F)c(F)c4F)c4ccc([nH]4)c(-c4c(F)c(F)c(F)c(F)c4F)c4nc(c(-c5c(F)c(F)c(F)c(F)c5F)c5ccc2[nH]5)C=C4)C=C3)cc1
REMARK SMILES IDX 23 1 22 2 21 3 19 4 20 5 18 6 1 7 2 8 3 9 4 10 17 11 16 12
REMARK SMILES IDX 5 13 6 14 7 16 8 17 9 18 14 19 10 20 13 21 11 22 12 23 15 24
REMARK SMILES IDX 24 27 25 28 26 29 27 30 28 31 29 32 30 33 31 34 92 35 32 36
REMARK SMILES IDX 91 37 33 38 34 39 35 40 85 41 36 42 90 43 84 44 86 45 37 46
REMARK SMILES IDX 89 47 83 48 82 49 38 51 70 52 50 53 69 54 51 55 54 56 68 57
REMARK SMILES IDX 87 58 52 59 53 60 67 62 88 63 55 64 39 65 40 66 48 67 41 68
REMARK SMILES IDX 42 69 46 70 49 71 43 72 44 73 47 74 45 75 71 76 72 77 80 78
REMARK SMILES IDX 73 79 74 80 78 81 81 82 75 83 76 84 79 85 77 86 56 87 57 88
REMARK SMILES IDX 65 89 58 90 59 91 63 92 66 93 60 94 61 95 64 96 62 97
REMARK H PARENT 5 15 15 25 15 26 86 50 54 61
REMARK Flexibility Score: inf
ROOT
ATOM      1  C   UNL A   1      31.953  29.795  25.310  1.00  0.00     0.202 C 
ENDROOT
BRANCH   1   2
ATOM      2  C   UNL A   1      30.947  29.916  24.209  1.00  0.00     0.261 C 
BRANCH   2   3
ATOM      3  O   UNL A   1      31.333  29.227  23.014  1.00  0.00    -0.460 OA
BRANCH   3   4
ATOM      4  C   UNL A   1      30.389  28.487  22.395  1.00  0.00     0.338 C 
ATOM      5  O   UNL A   1      29.493  28.903  21.693  1.00  0.00    -0.246 OA
BRANCH   4   6
ATOM      6  C   UNL A   1      30.654  27.062  22.715  1.00  0.00     0.063 A 
ATOM      7  C   UNL A   1      28.533  26.658  24.204  1.00  0.00     0.045 C 
ATOM      8  C   UNL A   1      29.844  26.271  23.563  1.00  0.00    -0.035 A 
ATOM      9  C   UNL A   1      30.183  24.930  23.709  1.00  0.00     0.030 A 
ATOM     10  C   UNL A   1      31.196  24.357  22.949  1.00  0.00     0.041 A 
ATOM     11  C   UNL A   1      31.805  26.513  22.114  1.00  0.00     0.018 A 
ATOM     12  C   UNL A   1      32.091  25.155  22.244  1.00  0.00     0.027 A 
BRANCH  10  13
ATOM     13  N   UNL A   1      31.209  22.976  22.751  1.00  0.00    -0.322 N 
ATOM     14  C   UNL A   1      32.275  22.111  22.958  1.00  0.00     0.257 C 
ATOM     15  H   UNL A   1      30.371  22.570  22.431  1.00  0.00     0.170 HD
ATOM     16  O   UNL A   1      32.240  20.990  22.450  1.00  0.00    -0.269 OA
BRANCH  14  17
ATOM     17  C   UNL A   1      33.460  22.478  23.815  1.00  0.00     0.063 A 
ATOM     18  C   UNL A   1      34.577  22.979  23.118  1.00  0.00     0.017 A 
ATOM     19  C   UNL A   1      33.531  22.329  25.223  1.00  0.00     0.045 A 
ATOM     20  C   UNL A   1      35.754  23.318  23.790  1.00  0.00     0.016 A 
ATOM     21  C   UNL A   1      34.730  22.672  25.877  1.00  0.00     0.042 A 
ATOM     22  C   UNL A   1      35.826  23.159  25.167  1.00  0.00     0.020 A 
ATOM     23  Br  UNL A   1      37.431  23.558  26.084  1.00  0.00    -0.051 Br
BRANCH  19  24
ATOM     24  N   UNL A   1      32.546  21.722  26.001  1.00  0.00    -0.398 N 
ATOM     25  H   UNL A   1      32.548  21.842  26.978  1.00  0.00     0.156 HD
ATOM     26  H   UNL A   1      31.850  21.175  25.573  1.00  0.00     0.156 HD
ENDBRANCH  19  24
ENDBRANCH  14  17
ENDBRANCH  10  13
ENDBRANCH   4   6
ENDBRANCH   3   4
ENDBRANCH   2   3
ENDBRANCH   1   2
BRANCH   1  27
ATOM     27  O   UNL A   1      31.410  30.527  26.396  1.00  0.00    -0.374 OA
BRANCH  27  28
ATOM     28  C   UNL A   1      32.339  31.314  27.116  1.00  0.00     0.202 C 
BRANCH  28  29
ATOM     29  C   UNL A   1      33.690  30.612  27.308  1.00  0.00     0.261 C 
BRANCH  29  30
ATOM     30  O   UNL A   1      34.406  31.244  28.393  1.00  0.00    -0.460 OA
BRANCH  30  31
ATOM     31  C   UNL A   1      35.715  31.546  28.170  1.00  0.00     0.338 C 
ATOM     32  O   UNL A   1      36.128  32.575  27.661  1.00  0.00    -0.246 OA
BRANCH  31  33
ATOM     33  C   UNL A   1      36.552  30.319  28.349  1.00  0.00     0.060 A 
ATOM     34  C   UNL A   1      36.596  29.667  29.600  1.00  0.00     0.016 A 
ATOM     35  C   UNL A   1      37.530  30.045  27.396  1.00  0.00     0.016 A 
ATOM     36  C   UNL A   1      37.704  28.871  29.949  1.00  0.00     0.010 A 
ATOM     37  C   UNL A   1      38.658  29.351  27.780  1.00  0.00     0.010 A 
ATOM     38  C   UNL A   1      38.777  28.789  29.067  1.00  0.00    -0.014 A 
BRANCH  38  39
ATOM     39  C   UNL A   1      40.134  28.311  29.374  1.00  0.00     0.031 A 
ATOM     40  C   UNL A   1      40.499  26.945  28.928  1.00  0.00     0.074 A 
ATOM     41  C   UNL A   1      41.123  29.185  29.709  1.00  0.00     0.049 A 
ATOM     42  N   UNL A   1      41.650  26.416  29.140  1.00  0.00    -0.248 NA
ATOM     43  C   UNL A   1      39.594  26.031  28.232  1.00  0.00     0.031 C 
ATOM     44  C   UNL A   1      42.561  29.071  29.438  1.00  0.00     0.029 A 
ATOM     45  N   UNL A   1      41.039  30.429  30.350  1.00  0.00    -0.354 N 
ATOM     46  C   UNL A   1      41.764  25.306  28.345  1.00  0.00     0.074 A 
ATOM     47  C   UNL A   1      40.420  25.029  27.910  1.00  0.00     0.031 C 
ATOM     48  C   UNL A   1      43.235  30.003  30.134  1.00  0.00     0.029 A 
ATOM     49  C   UNL A   1      42.271  30.687  30.975  1.00  0.00     0.049 A 
ATOM     50  H   UNL A   1      40.253  31.021  30.359  1.00  0.00     0.167 HD
ATOM     51  C   UNL A   1      43.019  24.848  28.079  1.00  0.00     0.037 A 
ATOM     52  C   UNL A   1      42.341  30.911  32.313  1.00  0.00     0.037 A 
ATOM     53  C   UNL A   1      44.001  25.546  28.926  1.00  0.00     0.049 A 
ATOM     54  C   UNL A   1      43.100  29.767  32.908  1.00  0.00     0.074 A 
ATOM     55  C   UNL A   1      44.993  26.481  28.683  1.00  0.00     0.029 A 
ATOM     56  N   UNL A   1      43.815  25.533  30.312  1.00  0.00    -0.354 N 
ATOM     57  N   UNL A   1      43.164  28.605  32.312  1.00  0.00    -0.248 NA
ATOM     58  C   UNL A   1      43.962  29.855  34.079  1.00  0.00     0.031 C 
ATOM     59  C   UNL A   1      45.321  27.097  29.931  1.00  0.00     0.029 A 
ATOM     60  C   UNL A   1      44.565  26.510  30.938  1.00  0.00     0.049 A 
ATOM     61  H   UNL A   1      43.222  24.905  30.785  1.00  0.00     0.167 HD
ATOM     62  C   UNL A   1      44.137  27.862  32.895  1.00  0.00     0.074 A 
ATOM     63  C   UNL A   1      44.566  28.652  34.038  1.00  0.00     0.031 C 
ATOM     64  C   UNL A   1      44.540  26.664  32.393  1.00  0.00     0.037 A 
BRANCH  51  65
ATOM     65  C   UNL A   1      43.397  23.872  26.981  1.00  0.00     0.064 A 
ATOM     66  C   UNL A   1      42.994  22.520  27.069  1.00  0.00     0.173 A 
ATOM     67  C   UNL A   1      44.210  24.163  25.861  1.00  0.00     0.173 A 
ATOM     68  F   UNL A   1      42.249  22.086  28.095  1.00  0.00    -0.203 F 
ATOM     69  C   UNL A   1      43.354  21.559  26.115  1.00  0.00     0.198 A 
ATOM     70  C   UNL A   1      44.524  23.213  24.881  1.00  0.00     0.198 A 
ATOM     71  F   UNL A   1      44.787  25.354  25.687  1.00  0.00    -0.203 F 
ATOM     72  F   UNL A   1      42.975  20.284  26.278  1.00  0.00    -0.200 F 
ATOM     73  C   UNL A   1      44.103  21.909  25.011  1.00  0.00     0.200 A 
ATOM     74  F   UNL A   1      45.262  23.576  23.820  1.00  0.00    -0.200 F 
ATOM     75  F   UNL A   1      44.433  20.995  24.089  1.00  0.00    -0.200 F 
ENDBRANCH  51  65
BRANCH  52  76
ATOM     76  C   UNL A   1      41.148  31.667  32.795  1.00  0.00     0.064 A 
ATOM     77  C   UNL A   1      41.075  33.017  32.374  1.00  0.00     0.173 A 
ATOM     78  C   UNL A   1      39.934  31.028  33.088  1.00  0.00     0.173 A 
ATOM     79  F   UNL A   1      42.200  33.677  32.052  1.00  0.00    -0.203 F 
ATOM     80  C   UNL A   1      39.854  33.635  32.100  1.00  0.00     0.198 A 
ATOM     81  C   UNL A   1      38.710  31.655  32.813  1.00  0.00     0.198 A 
ATOM     82  F   UNL A   1      39.922  29.744  33.473  1.00  0.00    -0.203 F 
ATOM     83  F   UNL A   1      39.832  34.848  31.525  1.00  0.00    -0.200 F 
ATOM     84  C   UNL A   1      38.673  32.937  32.281  1.00  0.00     0.200 A 
ATOM     85  F   UNL A   1      37.562  30.973  32.948  1.00  0.00    -0.200 F 
ATOM     86  F   UNL A   1      37.514  33.465  31.862  1.00  0.00    -0.200 F 
ENDBRANCH  52  76
BRANCH  64  87
ATOM     87  C   UNL A   1      44.995  25.555  33.293  1.00  0.00     0.064 A 
ATOM     88  C   UNL A   1      46.336  25.127  33.352  1.00  0.00     0.173 A 
ATOM     89  C   UNL A   1      44.136  25.018  34.274  1.00  0.00     0.173 A 
ATOM     90  F   UNL A   1      47.285  25.670  32.576  1.00  0.00    -0.203 F 
ATOM     91  C   UNL A   1      46.762  24.163  34.258  1.00  0.00     0.198 A 
ATOM     92  C   UNL A   1      44.585  24.112  35.229  1.00  0.00     0.198 A 
ATOM     93  F   UNL A   1      42.850  25.388  34.365  1.00  0.00    -0.203 F 
ATOM     94  F   UNL A   1      48.035  23.746  34.229  1.00  0.00    -0.200 F 
ATOM     95  C   UNL A   1      45.889  23.663  35.204  1.00  0.00     0.200 A 
ATOM     96  F   UNL A   1      43.749  23.695  36.190  1.00  0.00    -0.200 F 
ATOM     97  F   UNL A   1      46.314  22.769  36.105  1.00  0.00    -0.200 F 
ENDBRANCH  64  87
ENDBRANCH  38  39
ENDBRANCH  31  33
ENDBRANCH  30  31
ENDBRANCH  29  30
ENDBRANCH  28  29
ENDBRANCH  27  28
ENDBRANCH   1  27
TORSDOF 17
ENDMDL
MODEL 2
REMARK VINA RESULT:     -12.2      2.849      4.168
REMARK SMILES Cc1cc(NC(=O)c2ccc(Br)cc2N)ccc1C(=O)OCCOCCOC(=O)c1ccc(-c2c3nc(c(-c4c(F)c(F)c(F)c(F)c4F)c4ccc([nH]4)c(-c4c(F)c(F)c(F)c(F)c4F)c4nc(c(-c5c(F)c(F)c(F)c(F)c5F)c5ccc2[nH]5)C=C4)C=C3)cc1
REMARK SMILES IDX 23 1 22 2 21 3 19 4 20 5 18 6 1 7 2 8 3 9 4 10 17 11 16 12
REMARK SMILES IDX 5 13 6 14 7 16 8 17 9 18 14 19 10 20 13 21 11 22 12 23 15 24
REMARK SMILES IDX 24 27 25 28 26 29 27 30 28 31 29 32 30 33 31 34 92 35 32 36
REMARK SMILES IDX 91 37 33 38 34 39 35 40 85 41 36 42 90 43 84 44 86 45 37 46
REMARK SMILES IDX 89 47 83 48 82 49 38 51 70 52 50 53 69 54 51 55 54 56 68 57
REMARK SMILES IDX 87 58 52 59 53 60 67 62 88 63 55 64 39 65 40 66 48 67 41 68
REMARK SMILES IDX 42 69 46 70 49 71 43 72 44 73 47 74 45 75 71 76 72 77 80 78
REMARK SMILES IDX 73 79 74 80 78 81 81 82 75 83 76 84 79 85 77 86 56 87 57 88
REMARK SMILES IDX 65 89 58 90 59 91 63 92 66 93 60 94 61 95 64 96 62 97
REMARK H PARENT 5 15 15 25 15 26 86 50 54 61
REMARK Flexibility Score: inf
ROOT
ATOM      1  C   UNL A   1      31.771  33.014  26.806  1.00  0.00     0.202 C 
ENDROOT
BRANCH   1   2
ATOM      2  C   UNL A   1      31.294  31.627  26.511  1.00  0.00     0.261 C 
BRANCH   2   3
ATOM      3  O   UNL A   1      32.202  30.613  26.954  1.00  0.00    -0.460 OA
BRANCH   3   4
ATOM      4  C   UNL A   1      31.811  29.328  26.812  1.00  0.00     0.338 C 
ATOM      5  O   UNL A   1      31.272  28.642  27.654  1.00  0.00    -0.246 OA
BRANCH   4   6
ATOM      6  C   UNL A   1      32.144  28.907  25.428  1.00  0.00     0.063 A 
ATOM      7  C   UNL A   1      34.711  28.531  25.807  1.00  0.00     0.045 C 
ATOM      8  C   UNL A   1      33.450  28.602  24.980  1.00  0.00    -0.035 A 
ATOM      9  C   UNL A   1      33.592  28.152  23.672  1.00  0.00     0.030 A 
ATOM     10  C   UNL A   1      32.483  27.887  22.878  1.00  0.00     0.041 A 
ATOM     11  C   UNL A   1      31.050  28.831  24.542  1.00  0.00     0.018 A 
ATOM     12  C   UNL A   1      31.220  28.333  23.251  1.00  0.00     0.027 A 
BRANCH  10  13
ATOM     13  N   UNL A   1      32.607  27.018  21.793  1.00  0.00    -0.322 N 
ATOM     14  C   UNL A   1      32.992  25.684  21.829  1.00  0.00     0.257 C 
ATOM     15  H   UNL A   1      32.398  27.390  20.906  1.00  0.00     0.170 HD
ATOM     16  O   UNL A   1      33.357  25.141  20.787  1.00  0.00    -0.269 OA
BRANCH  14  17
ATOM     17  C   UNL A   1      32.944  24.863  23.092  1.00  0.00     0.063 A 
ATOM     18  C   UNL A   1      34.181  24.673  23.737  1.00  0.00     0.017 A 
ATOM     19  C   UNL A   1      31.779  24.266  23.638  1.00  0.00     0.045 A 
ATOM     20  C   UNL A   1      34.281  23.895  24.894  1.00  0.00     0.016 A 
ATOM     21  C   UNL A   1      31.905  23.483  24.801  1.00  0.00     0.042 A 
ATOM     22  C   UNL A   1      33.141  23.301  25.419  1.00  0.00     0.020 A 
ATOM     23  Br  UNL A   1      33.267  22.200  26.952  1.00  0.00    -0.051 Br
BRANCH  19  24
ATOM     24  N   UNL A   1      30.529  24.271  23.020  1.00  0.00    -0.398 N 
ATOM     25  H   UNL A   1      29.804  23.704  23.371  1.00  0.00     0.156 HD
ATOM     26  H   UNL A   1      30.371  24.841  22.234  1.00  0.00     0.156 HD
ENDBRANCH  19  24
ENDBRANCH  14  17
ENDBRANCH  10  13
ENDBRANCH   4   6
ENDBRANCH   3   4
ENDBRANCH   2   3
ENDBRANCH   1   2
BRANCH   1  27
ATOM     27  O   UNL A   1      32.892  32.852  27.660  1.00  0.00    -0.374 OA
BRANCH  27  28
ATOM     28  C   UNL A   1      33.606  34.038  27.948  1.00  0.00     0.202 C 
BRANCH  28  29
ATOM     29  C   UNL A   1      33.166  34.691  29.266  1.00  0.00     0.261 C 
BRANCH  29  30
ATOM     30  O   UNL A   1      34.333  34.967  30.073  1.00  0.00    -0.460 OA
BRANCH  30  31
ATOM     31  C   UNL A   1      34.419  34.320  31.269  1.00  0.00     0.338 C 
ATOM     32  O   UNL A   1      34.116  34.790  32.353  1.00  0.00    -0.246 OA
BRANCH  31  33
ATOM     33  C   UNL A   1      35.223  33.069  31.106  1.00  0.00     0.060 A 
ATOM     34  C   UNL A   1      35.200  32.075  32.108  1.00  0.00     0.016 A 
ATOM     35  C   UNL A   1      36.237  33.059  30.152  1.00  0.00     0.016 A 
ATOM     36  C   UNL A   1      36.275  31.177  32.245  1.00  0.00     0.010 A 
ATOM     37  C   UNL A   1      37.334  32.248  30.353  1.00  0.00     0.010 A 
ATOM     38  C   UNL A   1      37.386  31.327  31.418  1.00  0.00    -0.014 A 
BRANCH  38  39
ATOM     39  C   UNL A   1      38.718  30.737  31.620  1.00  0.00     0.031 A 
ATOM     40  C   UNL A   1      39.075  29.551  30.805  1.00  0.00     0.074 A 
ATOM     41  C   UNL A   1      39.708  31.443  32.230  1.00  0.00     0.049 A 
ATOM     42  N   UNL A   1      40.205  28.947  30.893  1.00  0.00    -0.248 NA
ATOM     43  C   UNL A   1      38.182  28.909  29.839  1.00  0.00     0.031 C 
ATOM     44  C   UNL A   1      41.155  31.368  31.989  1.00  0.00     0.029 A 
ATOM     45  N   UNL A   1      39.622  32.447  33.206  1.00  0.00    -0.354 N 
ATOM     46  C   UNL A   1      40.331  28.115  29.811  1.00  0.00     0.074 A 
ATOM     47  C   UNL A   1      39.001  28.020  29.267  1.00  0.00     0.031 C 
ATOM     48  C   UNL A   1      41.816  32.034  32.952  1.00  0.00     0.029 A 
ATOM     49  C   UNL A   1      40.831  32.472  33.922  1.00  0.00     0.049 A 
ATOM     50  H   UNL A   1      38.848  33.035  33.360  1.00  0.00     0.167 HD
ATOM     51  C   UNL A   1      41.587  27.715  29.467  1.00  0.00     0.037 A 
ATOM     52  C   UNL A   1      40.847  32.293  35.268  1.00  0.00     0.037 A 
ATOM     53  C   UNL A   1      42.545  28.104  30.516  1.00  0.00     0.049 A 
ATOM     54  C   UNL A   1      41.557  31.001  35.528  1.00  0.00     0.074 A 
ATOM     55  C   UNL A   1      43.565  29.037  30.594  1.00  0.00     0.029 A 
ATOM     56  N   UNL A   1      42.299  27.691  31.830  1.00  0.00    -0.354 N 
ATOM     57  N   UNL A   1      41.624  30.063  34.620  1.00  0.00    -0.248 NA
ATOM     58  C   UNL A   1      42.370  30.715  36.702  1.00  0.00     0.031 C 
ATOM     59  C   UNL A   1      43.851  29.250  31.978  1.00  0.00     0.029 A 
ATOM     60  C   UNL A   1      43.041  28.418  32.741  1.00  0.00     0.049 A 
ATOM     61  H   UNL A   1      41.674  26.971  32.076  1.00  0.00     0.167 HD
ATOM     62  C   UNL A   1      42.556  29.152  34.992  1.00  0.00     0.074 A 
ATOM     63  C   UNL A   1      42.951  29.558  36.331  1.00  0.00     0.031 C 
ATOM     64  C   UNL A   1      42.957  28.141  34.175  1.00  0.00     0.037 A 
BRANCH  51  65
ATOM     65  C   UNL A   1      41.993  27.092  28.145  1.00  0.00     0.064 A 
ATOM     66  C   UNL A   1      42.302  25.715  28.080  1.00  0.00     0.173 A 
ATOM     67  C   UNL A   1      42.175  27.785  26.926  1.00  0.00     0.173 A 
ATOM     68  F   UNL A   1      42.210  24.933  29.165  1.00  0.00    -0.203 F 
ATOM     69  C   UNL A   1      42.732  25.090  26.902  1.00  0.00     0.198 A 
ATOM     70  C   UNL A   1      42.553  27.149  25.737  1.00  0.00     0.198 A 
ATOM     71  F   UNL A   1      42.056  29.111  26.834  1.00  0.00    -0.203 F 
ATOM     72  F   UNL A   1      43.050  23.788  26.916  1.00  0.00    -0.200 F 
ATOM     73  C   UNL A   1      42.839  25.803  25.726  1.00  0.00     0.200 A 
ATOM     74  F   UNL A   1      42.660  27.866  24.608  1.00  0.00    -0.200 F 
ATOM     75  F   UNL A   1      43.233  25.203  24.595  1.00  0.00    -0.200 F 
ENDBRANCH  51  65
BRANCH  52  76
ATOM     76  C   UNL A   1      39.650  32.911  35.908  1.00  0.00     0.064 A 
ATOM     77  C   UNL A   1      38.702  31.998  36.430  1.00  0.00     0.173 A 
ATOM     78  C   UNL A   1      39.698  34.183  36.500  1.00  0.00     0.173 A 
ATOM     79  F   UNL A   1      38.624  30.756  35.925  1.00  0.00    -0.203 F 
ATOM     80  C   UNL A   1      37.968  32.282  37.583  1.00  0.00     0.198 A 
ATOM     81  C   UNL A   1      38.956  34.463  37.656  1.00  0.00     0.198 A 
ATOM     82  F   UNL A   1      40.584  35.094  36.072  1.00  0.00    -0.203 F 
ATOM     83  F   UNL A   1      37.222  31.323  38.154  1.00  0.00    -0.200 F 
ATOM     84  C   UNL A   1      38.128  33.500  38.219  1.00  0.00     0.200 A 
ATOM     85  F   UNL A   1      39.134  35.626  38.301  1.00  0.00    -0.200 F 
ATOM     86  F   UNL A   1      37.555  33.711  39.413  1.00  0.00    -0.200 F 
ENDBRANCH  52  76
BRANCH  64  87
ATOM     87  C   UNL A   1      43.350  26.803  34.726  1.00  0.00     0.064 A 
ATOM     88  C   UNL A   1      42.406  25.804  35.037  1.00  0.00     0.173 A 
ATOM     89  C   UNL A   1      44.702  26.405  34.770  1.00  0.00     0.173 A 
ATOM     90  F   UNL A   1      41.089  26.006  34.889  1.00  0.00    -0.203 F 
ATOM     91  C   UNL A   1      42.788  24.535  35.457  1.00  0.00     0.198 A 
ATOM     92  C   UNL A   1      45.076  25.110  35.115  1.00  0.00     0.198 A 
ATOM     93  F   UNL A   1      45.695  27.242  34.438  1.00  0.00    -0.203 F 
ATOM     94  F   UNL A   1      41.850  23.643  35.801  1.00  0.00    -0.200 F 
ATOM     95  C   UNL A   1      44.123  24.185  35.486  1.00  0.00     0.200 A 
ATOM     96  F   UNL A   1      46.369  24.760  35.062  1.00  0.00    -0.200 F 
ATOM     97  F   UNL A   1      44.487  22.947  35.845  1.00  0.00    -0.200 F 
ENDBRANCH  64  87
ENDBRANCH  38  39
ENDBRANCH  31  33
ENDBRANCH  30  31
ENDBRANCH  29  30
ENDBRANCH  28  29
ENDBRANCH  27  28
ENDBRANCH   1  27
TORSDOF 17
ENDMDL
MODEL 3
REMARK VINA RESULT:     -12.1      1.968      3.146
REMARK SMILES Cc1cc(NC(=O)c2ccc(Br)cc2N)ccc1C(=O)OCCOCCOC(=O)c1ccc(-c2c3nc(c(-c4c(F)c(F)c(F)c(F)c4F)c4ccc([nH]4)c(-c4c(F)c(F)c(F)c(F)c4F)c4nc(c(-c5c(F)c(F)c(F)c(F)c5F)c5ccc2[nH]5)C=C4)C=C3)cc1
REMARK SMILES IDX 23 1 22 2 21 3 19 4 20 5 18 6 1 7 2 8 3 9 4 10 17 11 16 12
REMARK SMILES IDX 5 13 6 14 7 16 8 17 9 18 14 19 10 20 13 21 11 22 12 23 15 24
REMARK SMILES IDX 24 27 25 28 26 29 27 30 28 31 29 32 30 33 31 34 92 35 32 36
REMARK SMILES IDX 91 37 33 38 34 39 35 40 85 41 36 42 90 43 84 44 86 45 37 46
REMARK SMILES IDX 89 47 83 48 82 49 38 51 70 52 50 53 69 54 51 55 54 56 68 57
REMARK SMILES IDX 87 58 52 59 53 60 67 62 88 63 55 64 39 65 40 66 48 67 41 68
REMARK SMILES IDX 42 69 46 70 49 71 43 72 44 73 47 74 45 75 71 76 72 77 80 78
REMARK SMILES IDX 73 79 74 80 78 81 81 82 75 83 76 84 79 85 77 86 56 87 57 88
REMARK SMILES IDX 65 89 58 90 59 91 63 92 66 93 60 94 61 95 64 96 62 97
REMARK H PARENT 5 15 15 25 15 26 86 50 54 61
REMARK Flexibility Score: inf
ROOT
ATOM      1  C   UNL A   1      34.150  28.493  23.179  1.00  0.00     0.202 C 
ENDROOT
BRANCH   1   2
ATOM      2  C   UNL A   1      33.378  27.981  22.004  1.00  0.00     0.261 C 
BRANCH   2   3
ATOM      3  O   UNL A   1      33.779  26.669  21.594  1.00  0.00    -0.460 OA
BRANCH   3   4
ATOM      4  C   UNL A   1      32.839  25.885  21.025  1.00  0.00     0.338 C 
ATOM      5  O   UNL A   1      32.663  25.717  19.837  1.00  0.00    -0.246 OA
BRANCH   4   6
ATOM      6  C   UNL A   1      32.063  25.247  22.118  1.00  0.00     0.063 A 
ATOM      7  C   UNL A   1      33.273  22.921  22.067  1.00  0.00     0.045 C 
ATOM      8  C   UNL A   1      32.233  23.908  22.540  1.00  0.00    -0.035 A 
ATOM      9  C   UNL A   1      31.481  23.476  23.627  1.00  0.00     0.030 A 
ATOM     10  C   UNL A   1      30.692  24.360  24.353  1.00  0.00     0.041 A 
ATOM     11  C   UNL A   1      31.102  26.073  22.736  1.00  0.00     0.018 A 
ATOM     12  C   UNL A   1      30.397  25.623  23.852  1.00  0.00     0.027 A 
BRANCH  10  13
ATOM     13  N   UNL A   1      30.340  24.047  25.667  1.00  0.00    -0.322 N 
ATOM     14  C   UNL A   1      31.139  23.435  26.624  1.00  0.00     0.257 C 
ATOM     15  H   UNL A   1      29.427  24.288  25.946  1.00  0.00     0.170 HD
ATOM     16  O   UNL A   1      30.606  22.944  27.618  1.00  0.00    -0.269 OA
BRANCH  14  17
ATOM     17  C   UNL A   1      32.641  23.382  26.509  1.00  0.00     0.063 A 
ATOM     18  C   UNL A   1      33.269  24.612  26.235  1.00  0.00     0.017 A 
ATOM     19  C   UNL A   1      33.431  22.210  26.624  1.00  0.00     0.045 A 
ATOM     20  C   UNL A   1      34.654  24.693  26.062  1.00  0.00     0.016 A 
ATOM     21  C   UNL A   1      34.823  22.315  26.441  1.00  0.00     0.042 A 
ATOM     22  C   UNL A   1      35.424  23.541  26.163  1.00  0.00     0.020 A 
ATOM     23  Br  UNL A   1      37.292  23.624  25.876  1.00  0.00    -0.051 Br
BRANCH  19  24
ATOM     24  N   UNL A   1      32.914  20.922  26.758  1.00  0.00    -0.398 N 
ATOM     25  H   UNL A   1      33.037  20.428  27.601  1.00  0.00     0.156 HD
ATOM     26  H   UNL A   1      32.426  20.508  26.011  1.00  0.00     0.156 HD
ENDBRANCH  19  24
ENDBRANCH  14  17
ENDBRANCH  10  13
ENDBRANCH   4   6
ENDBRANCH   3   4
ENDBRANCH   2   3
ENDBRANCH   1   2
BRANCH   1  27
ATOM     27  O   UNL A   1      33.658  27.769  24.295  1.00  0.00    -0.374 OA
BRANCH  27  28
ATOM     28  C   UNL A   1      32.855  28.513  25.189  1.00  0.00     0.202 C 
BRANCH  28  29
ATOM     29  C   UNL A   1      33.248  28.301  26.658  1.00  0.00     0.261 C 
BRANCH  29  30
ATOM     30  O   UNL A   1      34.455  29.043  26.940  1.00  0.00    -0.460 OA
BRANCH  30  31
ATOM     31  C   UNL A   1      34.306  30.233  27.588  1.00  0.00     0.338 C 
ATOM     32  O   UNL A   1      33.460  31.075  27.338  1.00  0.00    -0.246 OA
BRANCH  31  33
ATOM     33  C   UNL A   1      35.510  30.497  28.436  1.00  0.00     0.060 A 
ATOM     34  C   UNL A   1      36.585  31.255  27.925  1.00  0.00     0.016 A 
ATOM     35  C   UNL A   1      35.701  29.711  29.570  1.00  0.00     0.016 A 
ATOM     36  C   UNL A   1      37.881  31.099  28.453  1.00  0.00     0.010 A 
ATOM     37  C   UNL A   1      36.986  29.484  30.014  1.00  0.00     0.010 A 
ATOM     38  C   UNL A   1      38.093  30.141  29.441  1.00  0.00    -0.014 A 
BRANCH  38  39
ATOM     39  C   UNL A   1      39.388  29.590  29.869  1.00  0.00     0.031 A 
ATOM     40  C   UNL A   1      39.800  28.283  29.303  1.00  0.00     0.074 A 
ATOM     41  C   UNL A   1      40.327  30.386  30.449  1.00  0.00     0.049 A 
ATOM     42  N   UNL A   1      40.905  27.700  29.601  1.00  0.00    -0.248 NA
ATOM     43  C   UNL A   1      38.994  27.491  28.373  1.00  0.00     0.031 C 
ATOM     44  C   UNL A   1      41.789  30.268  30.369  1.00  0.00     0.029 A 
ATOM     45  N   UNL A   1      40.165  31.539  31.230  1.00  0.00    -0.354 N 
ATOM     46  C   UNL A   1      41.119  26.698  28.691  1.00  0.00     0.074 A 
ATOM     47  C   UNL A   1      39.848  26.517  28.041  1.00  0.00     0.031 C 
ATOM     48  C   UNL A   1      42.366  31.084  31.268  1.00  0.00     0.029 A 
ATOM     49  C   UNL A   1      41.299  31.681  32.049  1.00  0.00     0.049 A 
ATOM     50  H   UNL A   1      39.391  32.146  31.208  1.00  0.00     0.167 HD
ATOM     51  C   UNL A   1      42.395  26.244  28.545  1.00  0.00     0.037 A 
ATOM     52  C   UNL A   1      41.181  31.729  33.402  1.00  0.00     0.037 A 
ATOM     53  C   UNL A   1      43.254  26.800  29.604  1.00  0.00     0.049 A 
ATOM     54  C   UNL A   1      41.837  30.498  33.941  1.00  0.00     0.074 A 
ATOM     55  C   UNL A   1      44.279  27.731  29.626  1.00  0.00     0.029 A 
ATOM     56  N   UNL A   1      42.874  26.614  30.937  1.00  0.00    -0.354 N 
ATOM     57  N   UNL A   1      41.975  29.420  33.213  1.00  0.00    -0.248 NA
ATOM     58  C   UNL A   1      42.526  30.410  35.221  1.00  0.00     0.031 C 
ATOM     59  C   UNL A   1      44.433  28.172  30.978  1.00  0.00     0.029 A 
ATOM     60  C   UNL A   1      43.537  27.481  31.784  1.00  0.00     0.049 A 
ATOM     61  H   UNL A   1      42.214  25.947  31.236  1.00  0.00     0.167 HD
ATOM     62  C   UNL A   1      42.848  28.583  33.822  1.00  0.00     0.074 A 
ATOM     63  C   UNL A   1      43.119  29.206  35.107  1.00  0.00     0.031 C 
ATOM     64  C   UNL A   1      43.308  27.448  33.229  1.00  0.00     0.037 A 
BRANCH  51  65
ATOM     65  C   UNL A   1      42.916  25.407  27.391  1.00  0.00     0.064 A 
ATOM     66  C   UNL A   1      43.913  25.927  26.536  1.00  0.00     0.173 A 
ATOM     67  C   UNL A   1      42.439  24.130  27.016  1.00  0.00     0.173 A 
ATOM     68  F   UNL A   1      44.438  27.143  26.744  1.00  0.00    -0.203 F 
ATOM     69  C   UNL A   1      44.399  25.226  25.425  1.00  0.00     0.198 A 
ATOM     70  C   UNL A   1      42.963  23.408  25.937  1.00  0.00     0.198 A 
ATOM     71  F   UNL A   1      41.410  23.543  27.631  1.00  0.00    -0.203 F 
ATOM     72  F   UNL A   1      45.316  25.792  24.628  1.00  0.00    -0.200 F 
ATOM     73  C   UNL A   1      43.938  23.958  25.136  1.00  0.00     0.200 A 
ATOM     74  F   UNL A   1      42.492  22.180  25.670  1.00  0.00    -0.200 F 
ATOM     75  F   UNL A   1      44.414  23.279  24.084  1.00  0.00    -0.200 F 
ENDBRANCH  51  65
BRANCH  52  76
ATOM     76  C   UNL A   1      39.938  32.449  33.808  1.00  0.00     0.064 A 
ATOM     77  C   UNL A   1      39.006  31.680  34.546  1.00  0.00     0.173 A 
ATOM     78  C   UNL A   1      39.917  33.837  34.011  1.00  0.00     0.173 A 
ATOM     79  F   UNL A   1      38.993  30.343  34.416  1.00  0.00    -0.203 F 
ATOM     80  C   UNL A   1      38.221  32.246  35.551  1.00  0.00     0.198 A 
ATOM     81  C   UNL A   1      39.124  34.401  35.020  1.00  0.00     0.198 A 
ATOM     82  F   UNL A   1      40.784  34.628  33.362  1.00  0.00    -0.203 F 
ATOM     83  F   UNL A   1      37.490  31.457  36.354  1.00  0.00    -0.200 F 
ATOM     84  C   UNL A   1      38.312  33.602  35.814  1.00  0.00     0.200 A 
ATOM     85  F   UNL A   1      39.235  35.706  35.309  1.00  0.00    -0.200 F 
ATOM     86  F   UNL A   1      37.688  34.118  36.883  1.00  0.00    -0.200 F 
ENDBRANCH  52  76
BRANCH  64  87
ATOM     87  C   UNL A   1      43.620  26.220  34.030  1.00  0.00     0.064 A 
ATOM     88  C   UNL A   1      42.645  25.542  34.788  1.00  0.00     0.173 A 
ATOM     89  C   UNL A   1      44.864  25.568  33.903  1.00  0.00     0.173 A 
ATOM     90  F   UNL A   1      41.380  25.977  34.863  1.00  0.00    -0.203 F 
ATOM     91  C   UNL A   1      42.925  24.351  35.450  1.00  0.00     0.198 A 
ATOM     92  C   UNL A   1      45.113  24.338  34.503  1.00  0.00     0.198 A 
ATOM     93  F   UNL A   1      45.856  26.078  33.160  1.00  0.00    -0.203 F 
ATOM     94  F   UNL A   1      41.980  23.781  36.209  1.00  0.00    -0.200 F 
ATOM     95  C   UNL A   1      44.156  23.744  35.299  1.00  0.00     0.200 A 
ATOM     96  F   UNL A   1      46.282  23.720  34.285  1.00  0.00    -0.200 F 
ATOM     97  F   UNL A   1      44.407  22.574  35.901  1.00  0.00    -0.200 F 
ENDBRANCH  64  87
ENDBRANCH  38  39
ENDBRANCH  31  33
ENDBRANCH  30  31
ENDBRANCH  29  30
ENDBRANCH  28  29
ENDBRANCH  27  28
ENDBRANCH   1  27
TORSDOF 17
ENDMDL
