MODEL 1
REMARK VINA RESULT:     -10.6      0.000      0.000
REMARK SMILES O=C(OCCOCCOC(=O)[C@H](Cc1ccccc1)SCc1nccs1)c1ccc(-c2c3nc(c(-c4c(F)c(F)c(F)c(F)c4F)c4ccc([nH]4)c(-c4c(F)c(F)c(F)c(F)c4F)c4nc(c(-c5c(F)c(F)c(F)c(F)c5F)c5ccc2[nH]5)C=C4)C=C3)cc1
REMARK SMILES IDX 7 1 6 2 5 3 4 4 3 5 2 6 1 7 27 8 28 9 89 10 29 11 88 12
REMARK SMILES IDX 30 13 31 14 32 15 82 16 33 17 87 18 81 19 83 20 34 21 86 22
REMARK SMILES IDX 80 23 79 24 35 26 67 27 47 28 66 29 48 30 51 31 65 32 84 33
REMARK SMILES IDX 49 34 50 35 64 37 85 38 52 39 36 40 37 41 45 42 38 43 39 44
REMARK SMILES IDX 43 45 46 46 40 47 41 48 44 49 42 50 68 51 69 52 77 53 70 54
REMARK SMILES IDX 71 55 75 56 78 57 72 58 73 59 76 60 74 61 53 62 54 63 62 64
REMARK SMILES IDX 55 65 56 66 60 67 63 68 57 69 58 70 61 71 59 72 8 73 9 74
REMARK SMILES IDX 10 75 11 76 12 77 20 78 21 79 22 80 23 81 26 82 24 83 25 84
REMARK SMILES IDX 13 85 14 86 15 87 19 88 16 89 18 90 17 91
REMARK H PARENT 83 25 51 36
REMARK Flexibility Score: inf
ROOT
ATOM      1  C   UNL A   1      33.179  27.145  24.166  1.00  0.00     0.202 C 
ENDROOT
BRANCH   1   2
ATOM      2  O   UNL A   1      32.903  28.513  24.420  1.00  0.00    -0.374 OA
BRANCH   2   3
ATOM      3  C   UNL A   1      31.598  28.821  24.899  1.00  0.00     0.202 C 
BRANCH   3   4
ATOM      4  C   UNL A   1      31.583  30.064  25.788  1.00  0.00     0.261 C 
BRANCH   4   5
ATOM      5  O   UNL A   1      32.885  30.658  25.841  1.00  0.00    -0.460 OA
BRANCH   5   6
ATOM      6  C   UNL A   1      33.366  31.378  26.885  1.00  0.00     0.338 C 
ATOM      7  O   UNL A   1      32.733  32.355  27.283  1.00  0.00    -0.246 OA
BRANCH   6   8
ATOM      8  C   UNL A   1      34.578  30.967  27.659  1.00  0.00     0.060 A 
ATOM      9  C   UNL A   1      34.903  29.658  28.033  1.00  0.00     0.016 A 
ATOM     10  C   UNL A   1      35.500  31.983  27.952  1.00  0.00     0.016 A 
ATOM     11  C   UNL A   1      36.079  29.356  28.685  1.00  0.00     0.010 A 
ATOM     12  C   UNL A   1      36.699  31.691  28.603  1.00  0.00     0.010 A 
ATOM     13  C   UNL A   1      36.979  30.371  28.971  1.00  0.00    -0.014 A 
BRANCH  13  14
ATOM     14  C   UNL A   1      38.127  30.010  29.804  1.00  0.00     0.031 A 
ATOM     15  C   UNL A   1      39.193  29.174  29.178  1.00  0.00     0.074 A 
ATOM     16  C   UNL A   1      38.265  30.576  31.014  1.00  0.00     0.049 A 
ATOM     17  N   UNL A   1      40.268  28.666  29.710  1.00  0.00    -0.248 NA
ATOM     18  C   UNL A   1      39.029  28.882  27.743  1.00  0.00     0.031 C 
ATOM     19  C   UNL A   1      37.339  31.551  31.598  1.00  0.00     0.029 A 
ATOM     20  N   UNL A   1      39.252  30.449  31.948  1.00  0.00    -0.354 N 
ATOM     21  C   UNL A   1      40.881  27.953  28.691  1.00  0.00     0.074 A 
ATOM     22  C   UNL A   1      40.068  28.100  27.506  1.00  0.00     0.031 C 
ATOM     23  C   UNL A   1      37.816  31.947  32.788  1.00  0.00     0.029 A 
ATOM     24  C   UNL A   1      39.029  31.194  33.079  1.00  0.00     0.049 A 
ATOM     25  H   UNL A   1      40.045  29.880  31.824  1.00  0.00     0.167 HD
ATOM     26  C   UNL A   1      42.017  27.225  28.766  1.00  0.00     0.037 A 
ATOM     27  C   UNL A   1      39.720  31.213  34.231  1.00  0.00     0.037 A 
ATOM     28  C   UNL A   1      42.786  27.119  29.975  1.00  0.00     0.049 A 
ATOM     29  C   UNL A   1      40.919  30.310  34.328  1.00  0.00     0.074 A 
ATOM     30  C   UNL A   1      43.911  26.361  30.230  1.00  0.00     0.029 A 
ATOM     31  N   UNL A   1      42.489  27.811  31.147  1.00  0.00    -0.354 N 
ATOM     32  N   UNL A   1      41.451  29.541  33.405  1.00  0.00    -0.248 NA
ATOM     33  C   UNL A   1      41.602  30.255  35.623  1.00  0.00     0.031 C 
ATOM     34  C   UNL A   1      44.264  26.556  31.571  1.00  0.00     0.029 A 
ATOM     35  C   UNL A   1      43.397  27.484  32.135  1.00  0.00     0.049 A 
ATOM     36  H   UNL A   1      41.741  28.441  31.255  1.00  0.00     0.167 HD
ATOM     37  C   UNL A   1      42.541  28.923  33.997  1.00  0.00     0.074 A 
ATOM     38  C   UNL A   1      42.602  29.424  35.359  1.00  0.00     0.031 C 
ATOM     39  C   UNL A   1      43.413  28.025  33.475  1.00  0.00     0.037 A 
BRANCH  26  40
ATOM     40  C   UNL A   1      42.389  26.428  27.551  1.00  0.00     0.064 A 
ATOM     41  C   UNL A   1      41.842  25.163  27.284  1.00  0.00     0.173 A 
ATOM     42  C   UNL A   1      43.388  26.902  26.686  1.00  0.00     0.173 A 
ATOM     43  F   UNL A   1      40.911  24.644  28.099  1.00  0.00    -0.203 F 
ATOM     44  C   UNL A   1      42.316  24.384  26.229  1.00  0.00     0.198 A 
ATOM     45  C   UNL A   1      43.836  26.135  25.613  1.00  0.00     0.198 A 
ATOM     46  F   UNL A   1      43.956  28.099  26.899  1.00  0.00    -0.203 F 
ATOM     47  F   UNL A   1      41.841  23.143  26.047  1.00  0.00    -0.200 F 
ATOM     48  C   UNL A   1      43.311  24.871  25.395  1.00  0.00     0.200 A 
ATOM     49  F   UNL A   1      44.797  26.609  24.809  1.00  0.00    -0.200 F 
ATOM     50  F   UNL A   1      43.782  24.112  24.395  1.00  0.00    -0.200 F 
ENDBRANCH  26  40
BRANCH  27  51
ATOM     51  C   UNL A   1      39.265  32.058  35.368  1.00  0.00     0.064 A 
ATOM     52  C   UNL A   1      38.472  31.530  36.395  1.00  0.00     0.173 A 
ATOM     53  C   UNL A   1      39.628  33.412  35.461  1.00  0.00     0.173 A 
ATOM     54  F   UNL A   1      38.081  30.248  36.347  1.00  0.00    -0.203 F 
ATOM     55  C   UNL A   1      38.051  32.323  37.462  1.00  0.00     0.198 A 
ATOM     56  C   UNL A   1      39.233  34.196  36.544  1.00  0.00     0.198 A 
ATOM     57  F   UNL A   1      40.386  33.973  34.507  1.00  0.00    -0.203 F 
ATOM     58  F   UNL A   1      37.262  31.802  38.411  1.00  0.00    -0.200 F 
ATOM     59  C   UNL A   1      38.438  33.652  37.540  1.00  0.00     0.200 A 
ATOM     60  F   UNL A   1      39.625  35.475  36.621  1.00  0.00    -0.200 F 
ATOM     61  F   UNL A   1      38.041  34.411  38.571  1.00  0.00    -0.200 F 
ENDBRANCH  27  51
BRANCH  39  62
ATOM     62  C   UNL A   1      44.525  27.572  34.371  1.00  0.00     0.064 A 
ATOM     63  C   UNL A   1      45.729  28.282  34.470  1.00  0.00     0.173 A 
ATOM     64  C   UNL A   1      44.354  26.437  35.178  1.00  0.00     0.173 A 
ATOM     65  F   UNL A   1      45.941  29.363  33.703  1.00  0.00    -0.203 F 
ATOM     66  C   UNL A   1      46.734  27.857  35.332  1.00  0.00     0.198 A 
ATOM     67  C   UNL A   1      45.347  26.037  36.063  1.00  0.00     0.198 A 
ATOM     68  F   UNL A   1      43.214  25.731  35.121  1.00  0.00    -0.203 F 
ATOM     69  F   UNL A   1      47.897  28.521  35.377  1.00  0.00    -0.200 F 
ATOM     70  C   UNL A   1      46.539  26.743  36.134  1.00  0.00     0.200 A 
ATOM     71  F   UNL A   1      45.151  24.970  36.849  1.00  0.00    -0.200 F 
ATOM     72  F   UNL A   1      47.504  26.343  36.973  1.00  0.00    -0.200 F 
ENDBRANCH  39  62
ENDBRANCH  13  14
ENDBRANCH   6   8
ENDBRANCH   5   6
ENDBRANCH   4   5
ENDBRANCH   3   4
ENDBRANCH   2   3
ENDBRANCH   1   2
BRANCH   1  73
ATOM     73  C   UNL A   1      32.420  26.284  25.166  1.00  0.00     0.261 C 
BRANCH  73  74
ATOM     74  O   UNL A   1      33.296  25.286  25.717  1.00  0.00    -0.462 OA
BRANCH  74  75
ATOM     75  C   UNL A   1      32.688  24.228  26.337  1.00  0.00     0.319 C 
ATOM     76  O   UNL A   1      31.708  24.314  27.068  1.00  0.00    -0.251 OA
BRANCH  75  77
ATOM     77  C   UNL A   1      33.349  22.919  25.921  1.00  0.00     0.161 C 
BRANCH  77  78
ATOM     78  S   UNL A   1      32.045  21.740  25.310  1.00  0.00    -0.139 SA
BRANCH  78  79
ATOM     79  C   UNL A   1      32.983  20.594  24.231  1.00  0.00     0.138 C 
BRANCH  79  80
ATOM     80  C   UNL A   1      33.085  19.166  24.677  1.00  0.00     0.102 A 
ATOM     81  N   UNL A   1      32.122  18.544  25.329  1.00  0.00    -0.249 NA
ATOM     82  S   UNL A   1      34.459  18.193  24.310  1.00  0.00    -0.126 S 
ATOM     83  C   UNL A   1      32.525  17.265  25.661  1.00  0.00     0.123 A 
ATOM     84  C   UNL A   1      33.771  16.900  25.204  1.00  0.00     0.087 A 
ENDBRANCH  79  80
ENDBRANCH  78  79
ENDBRANCH  77  78
BRANCH  77  85
ATOM     85  C   UNL A   1      34.524  23.136  24.941  1.00  0.00     0.061 C 
BRANCH  85  86
ATOM     86  C   UNL A   1      35.926  22.765  25.412  1.00  0.00    -0.046 A 
ATOM     87  C   UNL A   1      36.798  23.697  25.990  1.00  0.00     0.004 A 
ATOM     88  C   UNL A   1      36.444  21.498  25.105  1.00  0.00     0.004 A 
ATOM     89  C   UNL A   1      38.151  23.408  26.195  1.00  0.00     0.000 A 
ATOM     90  C   UNL A   1      37.794  21.199  25.321  1.00  0.00     0.000 A 
ATOM     91  C   UNL A   1      38.653  22.160  25.847  1.00  0.00     0.000 A 
ENDBRANCH  85  86
ENDBRANCH  77  85
ENDBRANCH  75  77
ENDBRANCH  74  75
ENDBRANCH  73  74
ENDBRANCH   1  73
TORSDOF 19
ENDMDL
MODEL 2
REMARK VINA RESULT:     -10.6      1.595      2.967
REMARK SMILES O=C(OCCOCCOC(=O)[C@H](Cc1ccccc1)SCc1nccs1)c1ccc(-c2c3nc(c(-c4c(F)c(F)c(F)c(F)c4F)c4ccc([nH]4)c(-c4c(F)c(F)c(F)c(F)c4F)c4nc(c(-c5c(F)c(F)c(F)c(F)c5F)c5ccc2[nH]5)C=C4)C=C3)cc1
REMARK SMILES IDX 7 1 6 2 5 3 4 4 3 5 2 6 1 7 27 8 28 9 89 10 29 11 88 12
REMARK SMILES IDX 30 13 31 14 32 15 82 16 33 17 87 18 81 19 83 20 34 21 86 22
REMARK SMILES IDX 80 23 79 24 35 26 67 27 47 28 66 29 48 30 51 31 65 32 84 33
REMARK SMILES IDX 49 34 50 35 64 37 85 38 52 39 36 40 37 41 45 42 38 43 39 44
REMARK SMILES IDX 43 45 46 46 40 47 41 48 44 49 42 50 68 51 69 52 77 53 70 54
REMARK SMILES IDX 71 55 75 56 78 57 72 58 73 59 76 60 74 61 53 62 54 63 62 64
REMARK SMILES IDX 55 65 56 66 60 67 63 68 57 69 58 70 61 71 59 72 8 73 9 74
REMARK SMILES IDX 10 75 11 76 12 77 20 78 21 79 22 80 23 81 26 82 24 83 25 84
REMARK SMILES IDX 13 85 14 86 15 87 19 88 16 89 18 90 17 91
REMARK H PARENT 83 25 51 36
REMARK Flexibility Score: inf
ROOT
ATOM      1  C   UNL A   1      33.937  26.162  25.377  1.00  0.00     0.202 C 
ENDROOT
BRANCH   1   2
ATOM      2  O   UNL A   1      33.944  27.457  25.957  1.00  0.00    -0.374 OA
BRANCH   2   3
ATOM      3  C   UNL A   1      32.777  28.248  25.763  1.00  0.00     0.202 C 
BRANCH   3   4
ATOM      4  C   UNL A   1      33.110  29.695  25.398  1.00  0.00     0.261 C 
BRANCH   4   5
ATOM      5  O   UNL A   1      32.571  30.595  26.373  1.00  0.00    -0.460 OA
BRANCH   5   6
ATOM      6  C   UNL A   1      33.305  31.456  27.121  1.00  0.00     0.338 C 
ATOM      7  O   UNL A   1      32.919  32.617  27.251  1.00  0.00    -0.246 OA
BRANCH   6   8
ATOM      8  C   UNL A   1      34.509  31.028  27.899  1.00  0.00     0.060 A 
ATOM      9  C   UNL A   1      34.733  29.747  28.417  1.00  0.00     0.016 A 
ATOM     10  C   UNL A   1      35.528  31.982  28.039  1.00  0.00     0.016 A 
ATOM     11  C   UNL A   1      35.904  29.415  29.062  1.00  0.00     0.010 A 
ATOM     12  C   UNL A   1      36.723  31.657  28.682  1.00  0.00     0.010 A 
ATOM     13  C   UNL A   1      36.902  30.369  29.195  1.00  0.00    -0.014 A 
BRANCH  13  14
ATOM     14  C   UNL A   1      38.048  30.003  30.028  1.00  0.00     0.031 A 
ATOM     15  C   UNL A   1      39.115  29.171  29.399  1.00  0.00     0.074 A 
ATOM     16  C   UNL A   1      38.184  30.562  31.242  1.00  0.00     0.049 A 
ATOM     17  N   UNL A   1      40.189  28.659  29.930  1.00  0.00    -0.248 NA
ATOM     18  C   UNL A   1      38.953  28.886  27.963  1.00  0.00     0.031 C 
ATOM     19  C   UNL A   1      37.257  31.533  31.829  1.00  0.00     0.029 A 
ATOM     20  N   UNL A   1      39.169  30.429  32.176  1.00  0.00    -0.354 N 
ATOM     21  C   UNL A   1      40.803  27.951  28.908  1.00  0.00     0.074 A 
ATOM     22  C   UNL A   1      39.992  28.105  27.722  1.00  0.00     0.031 C 
ATOM     23  C   UNL A   1      37.732  31.922  33.023  1.00  0.00     0.029 A 
ATOM     24  C   UNL A   1      38.945  31.167  33.311  1.00  0.00     0.049 A 
ATOM     25  H   UNL A   1      39.963  29.860  32.050  1.00  0.00     0.167 HD
ATOM     26  C   UNL A   1      41.939  27.223  28.980  1.00  0.00     0.037 A 
ATOM     27  C   UNL A   1      39.633  31.180  34.465  1.00  0.00     0.037 A 
ATOM     28  C   UNL A   1      42.706  27.110  30.190  1.00  0.00     0.049 A 
ATOM     29  C   UNL A   1      40.832  30.276  34.559  1.00  0.00     0.074 A 
ATOM     30  C   UNL A   1      43.830  26.350  30.443  1.00  0.00     0.029 A 
ATOM     31  N   UNL A   1      42.407  27.794  31.366  1.00  0.00    -0.354 N 
ATOM     32  N   UNL A   1      41.366  29.512  33.632  1.00  0.00    -0.248 NA
ATOM     33  C   UNL A   1      41.513  30.213  35.855  1.00  0.00     0.031 C 
ATOM     34  C   UNL A   1      44.181  26.537  31.786  1.00  0.00     0.029 A 
ATOM     35  C   UNL A   1      43.313  27.461  32.354  1.00  0.00     0.049 A 
ATOM     36  H   UNL A   1      41.659  28.425  31.476  1.00  0.00     0.167 HD
ATOM     37  C   UNL A   1      42.454  28.890  34.222  1.00  0.00     0.074 A 
ATOM     38  C   UNL A   1      42.513  29.383  35.587  1.00  0.00     0.031 C 
ATOM     39  C   UNL A   1      43.327  27.995  33.696  1.00  0.00     0.037 A 
BRANCH  26  40
ATOM     40  C   UNL A   1      42.313  26.433  27.761  1.00  0.00     0.064 A 
ATOM     41  C   UNL A   1      41.797  25.152  27.507  1.00  0.00     0.173 A 
ATOM     42  C   UNL A   1      43.283  26.932  26.878  1.00  0.00     0.173 A 
ATOM     43  F   UNL A   1      40.896  24.609  28.339  1.00  0.00    -0.203 F 
ATOM     44  C   UNL A   1      42.275  24.384  26.446  1.00  0.00     0.198 A 
ATOM     45  C   UNL A   1      43.734  26.175  25.800  1.00  0.00     0.198 A 
ATOM     46  F   UNL A   1      43.820  28.145  27.079  1.00  0.00    -0.203 F 
ATOM     47  F   UNL A   1      41.833  23.130  26.276  1.00  0.00    -0.200 F 
ATOM     48  C   UNL A   1      43.242  24.896  25.595  1.00  0.00     0.200 A 
ATOM     49  F   UNL A   1      44.668  26.673  24.978  1.00  0.00    -0.200 F 
ATOM     50  F   UNL A   1      43.717  24.148  24.589  1.00  0.00    -0.200 F 
ENDBRANCH  26  40
BRANCH  27  51
ATOM     51  C   UNL A   1      39.177  32.018  35.606  1.00  0.00     0.064 A 
ATOM     52  C   UNL A   1      39.577  33.355  35.731  1.00  0.00     0.173 A 
ATOM     53  C   UNL A   1      38.318  31.504  36.591  1.00  0.00     0.173 A 
ATOM     54  F   UNL A   1      40.412  33.891  34.829  1.00  0.00    -0.203 F 
ATOM     55  C   UNL A   1      39.144  34.140  36.800  1.00  0.00     0.198 A 
ATOM     56  C   UNL A   1      37.861  32.298  37.641  1.00  0.00     0.198 A 
ATOM     57  F   UNL A   1      37.902  30.230  36.524  1.00  0.00    -0.203 F 
ATOM     58  F   UNL A   1      39.572  35.405  36.915  1.00  0.00    -0.200 F 
ATOM     59  C   UNL A   1      38.281  33.614  37.749  1.00  0.00     0.200 A 
ATOM     60  F   UNL A   1      37.013  31.788  38.545  1.00  0.00    -0.200 F 
ATOM     61  F   UNL A   1      37.858  34.373  38.770  1.00  0.00    -0.200 F 
ENDBRANCH  27  51
BRANCH  39  62
ATOM     62  C   UNL A   1      44.437  27.536  34.592  1.00  0.00     0.064 A 
ATOM     63  C   UNL A   1      45.643  28.243  34.694  1.00  0.00     0.173 A 
ATOM     64  C   UNL A   1      44.263  26.399  35.394  1.00  0.00     0.173 A 
ATOM     65  F   UNL A   1      45.857  29.326  33.931  1.00  0.00    -0.203 F 
ATOM     66  C   UNL A   1      46.647  27.813  35.555  1.00  0.00     0.198 A 
ATOM     67  C   UNL A   1      45.255  25.993  36.279  1.00  0.00     0.198 A 
ATOM     68  F   UNL A   1      43.122  25.696  35.335  1.00  0.00    -0.203 F 
ATOM     69  F   UNL A   1      47.811  28.474  35.604  1.00  0.00    -0.200 F 
ATOM     70  C   UNL A   1      46.448  26.696  36.353  1.00  0.00     0.200 A 
ATOM     71  F   UNL A   1      45.056  24.924  37.062  1.00  0.00    -0.200 F 
ATOM     72  F   UNL A   1      47.412  26.292  37.191  1.00  0.00    -0.200 F 
ENDBRANCH  39  62
ENDBRANCH  13  14
ENDBRANCH   6   8
ENDBRANCH   5   6
ENDBRANCH   4   5
ENDBRANCH   3   4
ENDBRANCH   2   3
ENDBRANCH   1   2
BRANCH   1  73
ATOM     73  C   UNL A   1      33.007  25.259  26.174  1.00  0.00     0.261 C 
BRANCH  73  74
ATOM     74  O   UNL A   1      33.426  23.889  26.046  1.00  0.00    -0.462 OA
BRANCH  74  75
ATOM     75  C   UNL A   1      32.436  22.947  26.127  1.00  0.00     0.319 C 
ATOM     76  O   UNL A   1      31.568  22.918  26.991  1.00  0.00    -0.251 OA
BRANCH  75  77
ATOM     77  C   UNL A   1      32.515  21.991  24.942  1.00  0.00     0.161 C 
BRANCH  77  78
ATOM     78  S   UNL A   1      33.953  22.470  23.862  1.00  0.00    -0.139 SA
BRANCH  78  79
ATOM     79  C   UNL A   1      33.149  23.051  22.321  1.00  0.00     0.138 C 
BRANCH  79  80
ATOM     80  C   UNL A   1      32.845  24.515  22.221  1.00  0.00     0.102 A 
ATOM     81  N   UNL A   1      33.653  25.382  21.644  1.00  0.00    -0.249 NA
ATOM     82  S   UNL A   1      31.363  25.180  22.801  1.00  0.00    -0.126 S 
ATOM     83  C   UNL A   1      33.140  26.659  21.759  1.00  0.00     0.123 A 
ATOM     84  C   UNL A   1      31.910  26.749  22.372  1.00  0.00     0.087 A 
ENDBRANCH  79  80
ENDBRANCH  78  79
ENDBRANCH  77  78
BRANCH  77  85
ATOM     85  C   UNL A   1      32.510  20.509  25.379  1.00  0.00     0.061 C 
BRANCH  85  86
ATOM     86  C   UNL A   1      32.963  19.463  24.365  1.00  0.00    -0.046 A 
ATOM     87  C   UNL A   1      32.231  19.168  23.208  1.00  0.00     0.004 A 
ATOM     88  C   UNL A   1      34.053  18.634  24.671  1.00  0.00     0.004 A 
ATOM     89  C   UNL A   1      32.526  18.052  22.418  1.00  0.00     0.000 A 
ATOM     90  C   UNL A   1      34.360  17.525  23.876  1.00  0.00     0.000 A 
ATOM     91  C   UNL A   1      33.585  17.221  22.760  1.00  0.00     0.000 A 
ENDBRANCH  85  86
ENDBRANCH  77  85
ENDBRANCH  75  77
ENDBRANCH  74  75
ENDBRANCH  73  74
ENDBRANCH   1  73
TORSDOF 19
ENDMDL
MODEL 3
REMARK VINA RESULT:     -10.5      2.858      4.687
REMARK SMILES O=C(OCCOCCOC(=O)[C@H](Cc1ccccc1)SCc1nccs1)c1ccc(-c2c3nc(c(-c4c(F)c(F)c(F)c(F)c4F)c4ccc([nH]4)c(-c4c(F)c(F)c(F)c(F)c4F)c4nc(c(-c5c(F)c(F)c(F)c(F)c5F)c5ccc2[nH]5)C=C4)C=C3)cc1
REMARK SMILES IDX 7 1 6 2 5 3 4 4 3 5 2 6 1 7 27 8 28 9 89 10 29 11 88 12
REMARK SMILES IDX 30 13 31 14 32 15 82 16 33 17 87 18 81 19 83 20 34 21 86 22
REMARK SMILES IDX 80 23 79 24 35 26 67 27 47 28 66 29 48 30 51 31 65 32 84 33
REMARK SMILES IDX 49 34 50 35 64 37 85 38 52 39 36 40 37 41 45 42 38 43 39 44
REMARK SMILES IDX 43 45 46 46 40 47 41 48 44 49 42 50 68 51 69 52 77 53 70 54
REMARK SMILES IDX 71 55 75 56 78 57 72 58 73 59 76 60 74 61 53 62 54 63 62 64
REMARK SMILES IDX 55 65 56 66 60 67 63 68 57 69 58 70 61 71 59 72 8 73 9 74
REMARK SMILES IDX 10 75 11 76 12 77 20 78 21 79 22 80 23 81 26 82 24 83 25 84
REMARK SMILES IDX 13 85 14 86 15 87 19 88 16 89 18 90 17 91
REMARK H PARENT 83 25 51 36
REMARK Flexibility Score: inf
ROOT
ATOM      1  C   UNL A   1      32.752  30.278  26.769  1.00  0.00     0.202 C 
ENDROOT
BRANCH   1   2
ATOM      2  O   UNL A   1      31.469  30.863  26.611  1.00  0.00    -0.374 OA
BRANCH   2   3
ATOM      3  C   UNL A   1      31.409  32.285  26.642  1.00  0.00     0.202 C 
BRANCH   3   4
ATOM      4  C   UNL A   1      32.664  32.906  27.256  1.00  0.00     0.261 C 
BRANCH   4   5
ATOM      5  O   UNL A   1      32.337  34.118  27.946  1.00  0.00    -0.460 OA
BRANCH   5   6
ATOM      6  C   UNL A   1      33.167  34.773  28.795  1.00  0.00     0.338 C 
ATOM      7  O   UNL A   1      32.930  35.946  29.081  1.00  0.00    -0.246 OA
BRANCH   6   8
ATOM      8  C   UNL A   1      34.299  34.097  29.502  1.00  0.00     0.060 A 
ATOM      9  C   UNL A   1      34.174  33.137  30.512  1.00  0.00     0.016 A 
ATOM     10  C   UNL A   1      35.588  34.401  29.039  1.00  0.00     0.016 A 
ATOM     11  C   UNL A   1      35.271  32.508  31.062  1.00  0.00     0.010 A 
ATOM     12  C   UNL A   1      36.707  33.766  29.579  1.00  0.00     0.010 A 
ATOM     13  C   UNL A   1      36.538  32.821  30.596  1.00  0.00    -0.014 A 
BRANCH  13  14
ATOM     14  C   UNL A   1      37.665  32.241  31.330  1.00  0.00     0.031 A 
ATOM     15  C   UNL A   1      38.498  31.229  30.618  1.00  0.00     0.074 A 
ATOM     16  C   UNL A   1      38.008  32.757  32.522  1.00  0.00     0.049 A 
ATOM     17  N   UNL A   1      39.501  30.522  31.059  1.00  0.00    -0.248 NA
ATOM     18  C   UNL A   1      38.162  30.991  29.204  1.00  0.00     0.031 C 
ATOM     19  C   UNL A   1      37.333  33.879  33.179  1.00  0.00     0.029 A 
ATOM     20  N   UNL A   1      39.028  32.435  33.369  1.00  0.00    -0.354 N 
ATOM     21  C   UNL A   1      39.880  29.720  29.993  1.00  0.00     0.074 A 
ATOM     22  C   UNL A   1      39.012  30.032  28.881  1.00  0.00     0.031 C 
ATOM     23  C   UNL A   1      37.974  34.164  34.323  1.00  0.00     0.029 A 
ATOM     24  C   UNL A   1      39.045  33.194  34.512  1.00  0.00     0.049 A 
ATOM     25  H   UNL A   1      39.688  31.729  33.179  1.00  0.00     0.167 HD
ATOM     26  C   UNL A   1      40.862  28.792  29.973  1.00  0.00     0.037 A 
ATOM     27  C   UNL A   1      39.821  33.069  35.602  1.00  0.00     0.037 A 
ATOM     28  C   UNL A   1      41.697  28.529  31.113  1.00  0.00     0.049 A 
ATOM     29  C   UNL A   1      40.834  31.957  35.599  1.00  0.00     0.074 A 
ATOM     30  C   UNL A   1      42.677  27.571  31.274  1.00  0.00     0.029 A 
ATOM     31  N   UNL A   1      41.635  29.249  32.304  1.00  0.00    -0.354 N 
ATOM     32  N   UNL A   1      41.133  31.113  34.636  1.00  0.00    -0.248 NA
ATOM     33  C   UNL A   1      41.602  31.758  36.831  1.00  0.00     0.031 C 
ATOM     34  C   UNL A   1      43.173  27.679  32.579  1.00  0.00     0.029 A 
ATOM     35  C   UNL A   1      42.545  28.745  33.212  1.00  0.00     0.049 A 
ATOM     36  H   UNL A   1      41.029  30.007  32.473  1.00  0.00     0.167 HD
ATOM     37  C   UNL A   1      42.134  30.295  35.136  1.00  0.00     0.074 A 
ATOM     38  C   UNL A   1      42.402  30.759  36.486  1.00  0.00     0.031 C 
ATOM     39  C   UNL A   1      42.775  29.257  34.544  1.00  0.00     0.037 A 
BRANCH  26  40
ATOM     40  C   UNL A   1      40.975  27.955  28.734  1.00  0.00     0.064 A 
ATOM     41  C   UNL A   1      41.801  28.312  27.657  1.00  0.00     0.173 A 
ATOM     42  C   UNL A   1      40.162  26.820  28.583  1.00  0.00     0.173 A 
ATOM     43  F   UNL A   1      42.571  29.409  27.730  1.00  0.00    -0.203 F 
ATOM     44  C   UNL A   1      41.772  27.596  26.461  1.00  0.00     0.198 A 
ATOM     45  C   UNL A   1      40.160  26.087  27.400  1.00  0.00     0.198 A 
ATOM     46  F   UNL A   1      39.343  26.438  29.575  1.00  0.00    -0.203 F 
ATOM     47  F   UNL A   1      42.503  28.008  25.416  1.00  0.00    -0.200 F 
ATOM     48  C   UNL A   1      40.952  26.484  26.334  1.00  0.00     0.200 A 
ATOM     49  F   UNL A   1      39.367  25.013  27.280  1.00  0.00    -0.200 F 
ATOM     50  F   UNL A   1      40.908  25.810  25.177  1.00  0.00    -0.200 F 
ENDBRANCH  26  40
BRANCH  27  51
ATOM     51  C   UNL A   1      39.631  33.969  36.770  1.00  0.00     0.064 A 
ATOM     52  C   UNL A   1      38.824  33.595  37.852  1.00  0.00     0.173 A 
ATOM     53  C   UNL A   1      40.265  35.221  36.837  1.00  0.00     0.173 A 
ATOM     54  F   UNL A   1      38.180  32.419  37.832  1.00  0.00    -0.203 F 
ATOM     55  C   UNL A   1      38.651  34.439  38.949  1.00  0.00     0.198 A 
ATOM     56  C   UNL A   1      40.116  36.051  37.948  1.00  0.00     0.198 A 
ATOM     57  F   UNL A   1      41.050  35.634  35.831  1.00  0.00    -0.203 F 
ATOM     58  F   UNL A   1      37.844  34.072  39.953  1.00  0.00    -0.200 F 
ATOM     59  C   UNL A   1      39.302  35.662  39.000  1.00  0.00     0.200 A 
ATOM     60  F   UNL A   1      40.763  37.223  37.997  1.00  0.00    -0.200 F 
ATOM     61  F   UNL A   1      39.143  36.468  40.059  1.00  0.00    -0.200 F 
ENDBRANCH  27  51
BRANCH  39  62
ATOM     62  C   UNL A   1      43.854  28.592  35.343  1.00  0.00     0.064 A 
ATOM     63  C   UNL A   1      45.196  28.977  35.234  1.00  0.00     0.173 A 
ATOM     64  C   UNL A   1      43.522  27.591  36.268  1.00  0.00     0.173 A 
ATOM     65  F   UNL A   1      45.560  29.919  34.349  1.00  0.00    -0.203 F 
ATOM     66  C   UNL A   1      46.176  28.365  36.010  1.00  0.00     0.198 A 
ATOM     67  C   UNL A   1      44.499  27.007  37.066  1.00  0.00     0.198 A 
ATOM     68  F   UNL A   1      42.248  27.196  36.411  1.00  0.00    -0.203 F 
ATOM     69  F   UNL A   1      47.460  28.713  35.857  1.00  0.00    -0.200 F 
ATOM     70  C   UNL A   1      45.825  27.390  36.931  1.00  0.00     0.200 A 
ATOM     71  F   UNL A   1      44.156  26.076  37.967  1.00  0.00    -0.200 F 
ATOM     72  F   UNL A   1      46.768  26.811  37.686  1.00  0.00    -0.200 F 
ENDBRANCH  39  62
ENDBRANCH  13  14
ENDBRANCH   6   8
ENDBRANCH   5   6
ENDBRANCH   4   5
ENDBRANCH   3   4
ENDBRANCH   2   3
ENDBRANCH   1   2
BRANCH   1  73
ATOM     73  C   UNL A   1      32.704  28.828  26.307  1.00  0.00     0.261 C 
BRANCH  73  74
ATOM     74  O   UNL A   1      33.734  28.590  25.333  1.00  0.00    -0.462 OA
BRANCH  74  75
ATOM     75  C   UNL A   1      33.311  28.387  24.047  1.00  0.00     0.319 C 
ATOM     76  O   UNL A   1      33.774  28.949  23.061  1.00  0.00    -0.251 OA
BRANCH  75  77
ATOM     77  C   UNL A   1      32.243  27.301  24.006  1.00  0.00     0.161 C 
BRANCH  77  78
ATOM     78  S   UNL A   1      30.862  27.839  22.881  1.00  0.00    -0.139 SA
BRANCH  78  79
ATOM     79  C   UNL A   1      30.283  29.402  23.641  1.00  0.00     0.138 C 
BRANCH  79  80
ATOM     80  C   UNL A   1      29.421  30.293  22.797  1.00  0.00     0.102 A 
ATOM     81  N   UNL A   1      29.142  30.040  21.534  1.00  0.00    -0.249 NA
ATOM     82  S   UNL A   1      28.664  31.703  23.440  1.00  0.00    -0.126 S 
ATOM     83  C   UNL A   1      28.383  31.065  21.002  1.00  0.00     0.123 A 
ATOM     84  C   UNL A   1      28.038  32.064  21.883  1.00  0.00     0.087 A 
ENDBRANCH  79  80
ENDBRANCH  78  79
ENDBRANCH  77  78
BRANCH  77  85
ATOM     85  C   UNL A   1      32.829  25.909  23.677  1.00  0.00     0.061 C 
BRANCH  85  86
ATOM     86  C   UNL A   1      33.442  25.102  24.818  1.00  0.00    -0.046 A 
ATOM     87  C   UNL A   1      34.821  24.890  24.935  1.00  0.00     0.004 A 
ATOM     88  C   UNL A   1      32.602  24.394  25.690  1.00  0.00     0.004 A 
ATOM     89  C   UNL A   1      35.347  23.959  25.837  1.00  0.00     0.000 A 
ATOM     90  C   UNL A   1      33.123  23.472  26.603  1.00  0.00     0.000 A 
ATOM     91  C   UNL A   1      34.494  23.239  26.664  1.00  0.00     0.000 A 
ENDBRANCH  85  86
ENDBRANCH  77  85
ENDBRANCH  75  77
ENDBRANCH  74  75
ENDBRANCH  73  74
ENDBRANCH   1  73
TORSDOF 19
ENDMDL
