MODEL 1
REMARK VINA RESULT:     -11.9      0.000      0.000
REMARK SMILES CC(=O)N1C[C@@H]2C[N@H+](CC(=O)NCc3ccccc3)C[C@]2(C(=O)OCCOCCOC(=O)c2ccc(-c3c4nc(c(-c5c(F)c(F)c(F)c(F)c5F)c5ccc([nH]5)c(-c5c(F)c(F)c(F)c(F)c5F)c5nc(c(-c6c(F)c(F)c(F)c(F)c6F)c6ccc3[nH]6)C=C5)C=C4)cc2)C1
REMARK SMILES IDX 26 1 25 2 24 3 22 4 23 5 21 6 4 7 5 8 96 9 6 10 7 11 20 12
REMARK SMILES IDX 8 13 2 15 1 16 3 17 9 18 10 19 11 20 12 21 13 23 14 24 15 25
REMARK SMILES IDX 19 26 16 27 18 28 17 29 27 30 28 31 29 32 30 33 31 34 32 35
REMARK SMILES IDX 33 36 34 37 95 38 35 39 94 40 36 41 37 42 38 43 88 44 39 45
REMARK SMILES IDX 93 46 87 47 89 48 40 49 92 50 86 51 85 52 41 54 73 55 53 56
REMARK SMILES IDX 72 57 54 58 57 59 71 60 90 61 55 62 56 63 70 65 91 66 58 67
REMARK SMILES IDX 42 68 43 69 51 70 44 71 45 72 49 73 52 74 46 75 47 76 50 77
REMARK SMILES IDX 48 78 74 79 75 80 83 81 76 82 77 83 81 84 84 85 78 86 79 87
REMARK SMILES IDX 82 88 80 89 59 90 60 91 68 92 61 93 62 94 66 95 69 96 63 97
REMARK SMILES IDX 64 98 67 99 65 100
REMARK H PARENT 8 14 12 22 89 53 57 64
REMARK Flexibility Score: inf
ROOT
ATOM      1  C   UNL A   1      36.435  23.064  25.208  1.00  0.00     0.202 C 
ENDROOT
BRANCH   1   2
ATOM      2  C   UNL A   1      35.097  23.601  25.705  1.00  0.00     0.261 C 
BRANCH   2   3
ATOM      3  O   UNL A   1      34.464  24.760  25.099  1.00  0.00    -0.463 OA
BRANCH   3   4
ATOM      4  C   UNL A   1      33.880  24.963  23.872  1.00  0.00     0.320 C 
ATOM      5  O   UNL A   1      34.273  24.578  22.785  1.00  0.00    -0.251 OA
BRANCH   4   6
ATOM      6  C   UNL A   1      32.541  25.698  24.157  1.00  0.00     0.144 C 
ATOM      7  N   UNL A   1      32.386  28.001  24.884  1.00  0.00    -0.341 N 
ATOM      8  C   UNL A   1      31.053  27.709  24.465  1.00  0.00     0.130 C 
ATOM      9  C   UNL A   1      33.316  27.071  24.226  1.00  0.00     0.144 C 
ATOM     10  C   UNL A   1      31.246  26.468  23.622  1.00  0.00     0.089 C 
ATOM     11  C   UNL A   1      30.035  25.539  23.746  1.00  0.00     0.269 C 
ATOM     12  C   UNL A   1      31.963  24.470  23.339  1.00  0.00     0.284 C 
ATOM     13  N   UNL A   1      30.662  24.249  23.998  1.00  0.00    -0.326 N 
ATOM     14  H   UNL A   1      30.105  23.465  23.660  1.00  0.00     0.348 HD
BRANCH   7  15
ATOM     15  C   UNL A   1      32.580  28.865  25.938  1.00  0.00     0.219 C 
ATOM     16  C   UNL A   1      32.006  28.489  27.269  1.00  0.00     0.114 C 
ATOM     17  O   UNL A   1      33.218  29.913  25.819  1.00  0.00    -0.275 OA
ENDBRANCH   7  15
BRANCH  13  18
ATOM     18  C   UNL A   1      30.831  23.881  25.465  1.00  0.00     0.363 C 
BRANCH  18  19
ATOM     19  C   UNL A   1      30.763  22.375  25.836  1.00  0.00     0.275 C 
ATOM     20  O   UNL A   1      29.807  21.953  26.498  1.00  0.00    -0.268 OA
ATOM     21  N   UNL A   1      31.741  21.460  25.539  1.00  0.00    -0.347 N 
ATOM     22  H   UNL A   1      31.937  20.819  26.260  1.00  0.00     0.164 HD
BRANCH  21  23
ATOM     23  C   UNL A   1      32.540  21.281  24.333  1.00  0.00     0.151 C 
BRANCH  23  24
ATOM     24  C   UNL A   1      32.917  19.834  24.018  1.00  0.00    -0.029 A 
ATOM     25  C   UNL A   1      32.206  19.103  23.060  1.00  0.00     0.005 A 
ATOM     26  C   UNL A   1      33.987  19.156  24.626  1.00  0.00     0.005 A 
ATOM     27  C   UNL A   1      32.552  17.773  22.751  1.00  0.00     0.000 A 
ATOM     28  C   UNL A   1      34.328  17.830  24.345  1.00  0.00     0.000 A 
ATOM     29  C   UNL A   1      33.605  17.133  23.399  1.00  0.00     0.000 A 
ENDBRANCH  23  24
ENDBRANCH  21  23
ENDBRANCH  18  19
ENDBRANCH  13  18
ENDBRANCH   4   6
ENDBRANCH   3   4
ENDBRANCH   2   3
ENDBRANCH   1   2
BRANCH   1  30
ATOM     30  O   UNL A   1      36.725  21.751  25.629  1.00  0.00    -0.374 OA
BRANCH  30  31
ATOM     31  C   UNL A   1      37.328  20.913  24.647  1.00  0.00     0.202 C 
BRANCH  31  32
ATOM     32  C   UNL A   1      38.511  20.068  25.145  1.00  0.00     0.261 C 
BRANCH  32  33
ATOM     33  O   UNL A   1      39.012  20.419  26.448  1.00  0.00    -0.460 OA
BRANCH  33  34
ATOM     34  C   UNL A   1      40.340  20.675  26.526  1.00  0.00     0.338 C 
ATOM     35  O   UNL A   1      41.243  19.971  26.133  1.00  0.00    -0.246 OA
BRANCH  34  36
ATOM     36  C   UNL A   1      40.540  22.046  27.053  1.00  0.00     0.060 A 
ATOM     37  C   UNL A   1      39.778  23.084  26.506  1.00  0.00     0.016 A 
ATOM     38  C   UNL A   1      41.512  22.319  28.020  1.00  0.00     0.016 A 
ATOM     39  C   UNL A   1      40.031  24.408  26.874  1.00  0.00     0.010 A 
ATOM     40  C   UNL A   1      41.774  23.646  28.377  1.00  0.00     0.010 A 
ATOM     41  C   UNL A   1      41.066  24.700  27.773  1.00  0.00    -0.014 A 
BRANCH  41  42
ATOM     42  C   UNL A   1      41.541  26.098  27.934  1.00  0.00     0.031 A 
ATOM     43  C   UNL A   1      42.908  26.456  27.412  1.00  0.00     0.074 A 
ATOM     44  C   UNL A   1      40.784  27.037  28.526  1.00  0.00     0.049 A 
ATOM     45  N   UNL A   1      43.564  27.585  27.497  1.00  0.00    -0.248 NA
ATOM     46  C   UNL A   1      43.631  25.393  26.697  1.00  0.00     0.031 C 
ATOM     47  C   UNL A   1      39.432  26.834  29.038  1.00  0.00     0.029 A 
ATOM     48  N   UNL A   1      41.059  28.353  28.812  1.00  0.00    -0.354 N 
ATOM     49  C   UNL A   1      44.777  27.365  26.857  1.00  0.00     0.074 A 
ATOM     50  C   UNL A   1      44.776  25.991  26.406  1.00  0.00     0.031 C 
ATOM     51  C   UNL A   1      39.001  27.979  29.596  1.00  0.00     0.029 A 
ATOM     52  C   UNL A   1      40.060  28.985  29.509  1.00  0.00     0.049 A 
ATOM     53  H   UNL A   1      41.893  28.800  28.542  1.00  0.00     0.167 HD
ATOM     54  C   UNL A   1      45.799  28.232  26.659  1.00  0.00     0.037 A 
ATOM     55  C   UNL A   1      40.018  30.223  30.042  1.00  0.00     0.037 A 
ATOM     56  C   UNL A   1      45.805  29.598  27.110  1.00  0.00     0.049 A 
ATOM     57  C   UNL A   1      41.198  31.147  29.873  1.00  0.00     0.074 A 
ATOM     58  C   UNL A   1      46.786  30.559  26.938  1.00  0.00     0.029 A 
ATOM     59  N   UNL A   1      44.783  30.193  27.832  1.00  0.00    -0.354 N 
ATOM     60  N   UNL A   1      42.328  30.941  29.241  1.00  0.00    -0.248 NA
ATOM     61  C   UNL A   1      41.094  32.479  30.491  1.00  0.00     0.031 C 
ATOM     62  C   UNL A   1      46.379  31.722  27.600  1.00  0.00     0.029 A 
ATOM     63  C   UNL A   1      45.121  31.502  28.138  1.00  0.00     0.049 A 
ATOM     64  H   UNL A   1      43.941  29.753  28.089  1.00  0.00     0.167 HD
ATOM     65  C   UNL A   1      43.055  32.120  29.360  1.00  0.00     0.074 A 
ATOM     66  C   UNL A   1      42.236  33.041  30.117  1.00  0.00     0.031 C 
ATOM     67  C   UNL A   1      44.290  32.413  28.883  1.00  0.00     0.037 A 
BRANCH  54  68
ATOM     68  C   UNL A   1      47.015  27.715  25.947  1.00  0.00     0.064 A 
ATOM     69  C   UNL A   1      47.116  27.737  24.549  1.00  0.00     0.173 A 
ATOM     70  C   UNL A   1      48.106  27.221  26.677  1.00  0.00     0.173 A 
ATOM     71  F   UNL A   1      46.093  28.186  23.805  1.00  0.00    -0.203 F 
ATOM     72  C   UNL A   1      48.255  27.259  23.906  1.00  0.00     0.198 A 
ATOM     73  C   UNL A   1      49.254  26.769  26.033  1.00  0.00     0.198 A 
ATOM     74  F   UNL A   1      48.062  27.182  28.018  1.00  0.00    -0.203 F 
ATOM     75  F   UNL A   1      48.311  27.247  22.566  1.00  0.00    -0.200 F 
ATOM     76  C   UNL A   1      49.325  26.782  24.648  1.00  0.00     0.200 A 
ATOM     77  F   UNL A   1      50.291  26.318  26.752  1.00  0.00    -0.200 F 
ATOM     78  F   UNL A   1      50.423  26.326  24.028  1.00  0.00    -0.200 F 
ENDBRANCH  54  68
BRANCH  55  79
ATOM     79  C   UNL A   1      38.823  30.660  30.811  1.00  0.00     0.064 A 
ATOM     80  C   UNL A   1      37.743  31.290  30.178  1.00  0.00     0.173 A 
ATOM     81  C   UNL A   1      38.746  30.471  32.199  1.00  0.00     0.173 A 
ATOM     82  F   UNL A   1      37.783  31.520  28.857  1.00  0.00    -0.203 F 
ATOM     83  C   UNL A   1      36.639  31.729  30.906  1.00  0.00     0.198 A 
ATOM     84  C   UNL A   1      37.628  30.885  32.921  1.00  0.00     0.198 A 
ATOM     85  F   UNL A   1      39.754  29.877  32.852  1.00  0.00    -0.203 F 
ATOM     86  F   UNL A   1      35.640  32.368  30.282  1.00  0.00    -0.200 F 
ATOM     87  C   UNL A   1      36.579  31.520  32.275  1.00  0.00     0.200 A 
ATOM     88  F   UNL A   1      37.571  30.672  34.242  1.00  0.00    -0.200 F 
ATOM     89  F   UNL A   1      35.514  31.938  32.973  1.00  0.00    -0.200 F 
ENDBRANCH  55  79
BRANCH  67  90
ATOM     90  C   UNL A   1      44.820  33.797  29.125  1.00  0.00     0.064 A 
ATOM     91  C   UNL A   1      45.618  34.097  30.238  1.00  0.00     0.173 A 
ATOM     92  C   UNL A   1      44.574  34.821  28.196  1.00  0.00     0.173 A 
ATOM     93  F   UNL A   1      45.871  33.156  31.160  1.00  0.00    -0.203 F 
ATOM     94  C   UNL A   1      46.136  35.377  30.423  1.00  0.00     0.198 A 
ATOM     95  C   UNL A   1      45.116  36.091  28.370  1.00  0.00     0.198 A 
ATOM     96  F   UNL A   1      43.824  34.584  27.110  1.00  0.00    -0.203 F 
ATOM     97  F   UNL A   1      46.865  35.652  31.513  1.00  0.00    -0.200 F 
ATOM     98  C   UNL A   1      45.891  36.369  29.485  1.00  0.00     0.200 A 
ATOM     99  F   UNL A   1      44.891  37.045  27.456  1.00  0.00    -0.200 F 
ATOM    100  F   UNL A   1      46.400  37.597  29.659  1.00  0.00    -0.200 F 
ENDBRANCH  67  90
ENDBRANCH  41  42
ENDBRANCH  34  36
ENDBRANCH  33  34
ENDBRANCH  32  33
ENDBRANCH  31  32
ENDBRANCH  30  31
ENDBRANCH   1  30
TORSDOF 19
ENDMDL
MODEL 2
REMARK VINA RESULT:     -11.9      0.614      7.139
REMARK SMILES CC(=O)N1C[C@@H]2C[N@H+](CC(=O)NCc3ccccc3)C[C@]2(C(=O)OCCOCCOC(=O)c2ccc(-c3c4nc(c(-c5c(F)c(F)c(F)c(F)c5F)c5ccc([nH]5)c(-c5c(F)c(F)c(F)c(F)c5F)c5nc(c(-c6c(F)c(F)c(F)c(F)c6F)c6ccc3[nH]6)C=C5)C=C4)cc2)C1
REMARK SMILES IDX 26 1 25 2 24 3 22 4 23 5 21 6 4 7 5 8 96 9 6 10 7 11 20 12
REMARK SMILES IDX 8 13 2 15 1 16 3 17 9 18 10 19 11 20 12 21 13 23 14 24 15 25
REMARK SMILES IDX 19 26 16 27 18 28 17 29 27 30 28 31 29 32 30 33 31 34 32 35
REMARK SMILES IDX 33 36 34 37 95 38 35 39 94 40 36 41 37 42 38 43 88 44 39 45
REMARK SMILES IDX 93 46 87 47 89 48 40 49 92 50 86 51 85 52 41 54 73 55 53 56
REMARK SMILES IDX 72 57 54 58 57 59 71 60 90 61 55 62 56 63 70 65 91 66 58 67
REMARK SMILES IDX 42 68 43 69 51 70 44 71 45 72 49 73 52 74 46 75 47 76 50 77
REMARK SMILES IDX 48 78 74 79 75 80 83 81 76 82 77 83 81 84 84 85 78 86 79 87
REMARK SMILES IDX 82 88 80 89 59 90 60 91 68 92 61 93 62 94 66 95 69 96 63 97
REMARK SMILES IDX 64 98 67 99 65 100
REMARK H PARENT 8 14 12 22 89 53 57 64
REMARK Flexibility Score: inf
ROOT
ATOM      1  C   UNL A   1      36.391  23.354  24.444  1.00  0.00     0.202 C 
ENDROOT
BRANCH   1   2
ATOM      2  C   UNL A   1      35.225  24.071  25.116  1.00  0.00     0.261 C 
BRANCH   2   3
ATOM      3  O   UNL A   1      34.527  25.170  24.470  1.00  0.00    -0.463 OA
BRANCH   3   4
ATOM      4  C   UNL A   1      33.626  25.215  23.433  1.00  0.00     0.320 C 
ATOM      5  O   UNL A   1      33.720  24.687  22.339  1.00  0.00    -0.251 OA
BRANCH   4   6
ATOM      6  C   UNL A   1      32.396  25.993  23.975  1.00  0.00     0.144 C 
ATOM      7  N   UNL A   1      32.456  28.308  24.676  1.00  0.00    -0.341 N 
ATOM      8  C   UNL A   1      31.057  28.052  24.547  1.00  0.00     0.130 C 
ATOM      9  C   UNL A   1      33.204  27.343  23.857  1.00  0.00     0.144 C 
ATOM     10  C   UNL A   1      31.038  26.795  23.705  1.00  0.00     0.089 C 
ATOM     11  C   UNL A   1      29.855  25.905  24.093  1.00  0.00     0.269 C 
ATOM     12  C   UNL A   1      31.628  24.773  23.317  1.00  0.00     0.284 C 
ATOM     13  N   UNL A   1      30.487  24.600  24.234  1.00  0.00    -0.326 N 
ATOM     14  H   UNL A   1      29.851  23.828  24.033  1.00  0.00     0.348 HD
BRANCH   7  15
ATOM     15  C   UNL A   1      32.887  29.180  25.651  1.00  0.00     0.219 C 
ATOM     16  C   UNL A   1      34.038  28.758  26.511  1.00  0.00     0.114 C 
ATOM     17  O   UNL A   1      32.370  30.285  25.818  1.00  0.00    -0.275 OA
ENDBRANCH   7  15
BRANCH  13  18
ATOM     18  C   UNL A   1      30.946  24.244  25.641  1.00  0.00     0.363 C 
BRANCH  18  19
ATOM     19  C   UNL A   1      30.737  22.780  26.113  1.00  0.00     0.275 C 
ATOM     20  O   UNL A   1      29.752  22.497  26.805  1.00  0.00    -0.268 OA
ATOM     21  N   UNL A   1      31.620  21.757  25.874  1.00  0.00    -0.347 N 
ATOM     22  H   UNL A   1      31.762  21.150  26.635  1.00  0.00     0.164 HD
BRANCH  21  23
ATOM     23  C   UNL A   1      32.386  21.423  24.679  1.00  0.00     0.151 C 
BRANCH  23  24
ATOM     24  C   UNL A   1      32.558  19.926  24.421  1.00  0.00    -0.029 A 
ATOM     25  C   UNL A   1      32.430  19.405  23.129  1.00  0.00     0.005 A 
ATOM     26  C   UNL A   1      32.873  18.993  25.423  1.00  0.00     0.005 A 
ATOM     27  C   UNL A   1      32.600  18.030  22.877  1.00  0.00     0.000 A 
ATOM     28  C   UNL A   1      33.023  17.623  25.191  1.00  0.00     0.000 A 
ATOM     29  C   UNL A   1      32.885  17.137  23.907  1.00  0.00     0.000 A 
ENDBRANCH  23  24
ENDBRANCH  21  23
ENDBRANCH  18  19
ENDBRANCH  13  18
ENDBRANCH   4   6
ENDBRANCH   3   4
ENDBRANCH   2   3
ENDBRANCH   1   2
BRANCH   1  30
ATOM     30  O   UNL A   1      36.078  22.071  23.954  1.00  0.00    -0.374 OA
BRANCH  30  31
ATOM     31  C   UNL A   1      36.407  20.989  24.821  1.00  0.00     0.202 C 
BRANCH  31  32
ATOM     32  C   UNL A   1      37.911  20.722  24.992  1.00  0.00     0.261 C 
BRANCH  32  33
ATOM     33  O   UNL A   1      38.421  20.911  26.326  1.00  0.00    -0.460 OA
BRANCH  33  34
ATOM     34  C   UNL A   1      39.769  20.914  26.452  1.00  0.00     0.338 C 
ATOM     35  O   UNL A   1      40.539  20.057  26.080  1.00  0.00    -0.246 OA
BRANCH  34  36
ATOM     36  C   UNL A   1      40.202  22.220  27.004  1.00  0.00     0.060 A 
ATOM     37  C   UNL A   1      39.639  23.385  26.471  1.00  0.00     0.016 A 
ATOM     38  C   UNL A   1      41.197  22.302  27.983  1.00  0.00     0.016 A 
ATOM     39  C   UNL A   1      40.117  24.637  26.864  1.00  0.00     0.010 A 
ATOM     40  C   UNL A   1      41.685  23.557  28.365  1.00  0.00     0.010 A 
ATOM     41  C   UNL A   1      41.178  24.728  27.775  1.00  0.00    -0.014 A 
BRANCH  41  42
ATOM     42  C   UNL A   1      41.890  26.018  27.963  1.00  0.00     0.031 A 
ATOM     43  C   UNL A   1      41.183  27.127  28.698  1.00  0.00     0.074 A 
ATOM     44  C   UNL A   1      43.136  26.212  27.499  1.00  0.00     0.049 A 
ATOM     45  N   UNL A   1      41.569  28.357  28.924  1.00  0.00    -0.248 NA
ATOM     46  C   UNL A   1      39.860  26.801  29.252  1.00  0.00     0.031 C 
ATOM     47  C   UNL A   1      43.945  25.212  26.808  1.00  0.00     0.029 A 
ATOM     48  N   UNL A   1      43.933  27.331  27.526  1.00  0.00    -0.354 N 
ATOM     49  C   UNL A   1      40.535  28.952  29.636  1.00  0.00     0.074 A 
ATOM     50  C   UNL A   1      39.497  27.956  29.788  1.00  0.00     0.031 C 
ATOM     51  C   UNL A   1      45.117  25.769  26.456  1.00  0.00     0.029 A 
ATOM     52  C   UNL A   1      45.127  27.172  26.868  1.00  0.00     0.049 A 
ATOM     53  H   UNL A   1      43.672  28.167  27.975  1.00  0.00     0.167 HD
ATOM     54  C   UNL A   1      40.460  30.213  30.124  1.00  0.00     0.037 A 
ATOM     55  C   UNL A   1      46.101  28.066  26.603  1.00  0.00     0.037 A 
ATOM     56  C   UNL A   1      41.489  31.207  29.971  1.00  0.00     0.049 A 
ATOM     57  C   UNL A   1      45.962  29.486  27.093  1.00  0.00     0.074 A 
ATOM     58  C   UNL A   1      41.512  32.506  30.448  1.00  0.00     0.029 A 
ATOM     59  N   UNL A   1      42.673  31.013  29.279  1.00  0.00    -0.354 N 
ATOM     60  N   UNL A   1      44.996  30.032  27.791  1.00  0.00    -0.248 NA
ATOM     61  C   UNL A   1      47.054  30.415  26.758  1.00  0.00     0.031 C 
ATOM     62  C   UNL A   1      42.689  33.114  30.001  1.00  0.00     0.029 A 
ATOM     63  C   UNL A   1      43.423  32.178  29.292  1.00  0.00     0.049 A 
ATOM     64  H   UNL A   1      42.943  30.172  28.843  1.00  0.00     0.167 HD
ATOM     65  C   UNL A   1      45.373  31.353  28.002  1.00  0.00     0.074 A 
ATOM     66  C   UNL A   1      46.661  31.527  27.366  1.00  0.00     0.031 C 
ATOM     67  C   UNL A   1      44.711  32.333  28.665  1.00  0.00     0.037 A 
BRANCH  54  68
ATOM     68  C   UNL A   1      39.201  30.601  30.844  1.00  0.00     0.064 A 
ATOM     69  C   UNL A   1      38.107  31.160  30.168  1.00  0.00     0.173 A 
ATOM     70  C   UNL A   1      39.079  30.380  32.224  1.00  0.00     0.173 A 
ATOM     71  F   UNL A   1      38.180  31.405  28.851  1.00  0.00    -0.203 F 
ATOM     72  C   UNL A   1      36.945  31.508  30.853  1.00  0.00     0.198 A 
ATOM     73  C   UNL A   1      37.906  30.705  32.900  1.00  0.00     0.198 A 
ATOM     74  F   UNL A   1      40.096  29.845  32.917  1.00  0.00    -0.203 F 
ATOM     75  F   UNL A   1      35.929  32.083  30.195  1.00  0.00    -0.200 F 
ATOM     76  C   UNL A   1      36.844  31.274  32.216  1.00  0.00     0.200 A 
ATOM     77  F   UNL A   1      37.806  30.468  34.216  1.00  0.00    -0.200 F 
ATOM     78  F   UNL A   1      35.723  31.605  32.873  1.00  0.00    -0.200 F 
ENDBRANCH  54  68
BRANCH  55  79
ATOM     79  C   UNL A   1      47.291  27.654  25.814  1.00  0.00     0.064 A 
ATOM     80  C   UNL A   1      48.463  27.211  26.443  1.00  0.00     0.173 A 
ATOM     81  C   UNL A   1      47.287  27.714  24.412  1.00  0.00     0.173 A 
ATOM     82  F   UNL A   1      48.526  27.164  27.782  1.00  0.00    -0.203 F 
ATOM     83  C   UNL A   1      49.588  26.857  25.701  1.00  0.00     0.198 A 
ATOM     84  C   UNL A   1      48.404  27.333  23.671  1.00  0.00     0.198 A 
ATOM     85  F   UNL A   1      46.193  28.135  23.762  1.00  0.00    -0.203 F 
ATOM     86  F   UNL A   1      50.709  26.478  26.331  1.00  0.00    -0.200 F 
ATOM     87  C   UNL A   1      49.556  26.912  24.316  1.00  0.00     0.200 A 
ATOM     88  F   UNL A   1      48.363  27.378  22.333  1.00  0.00    -0.200 F 
ATOM     89  F   UNL A   1      50.637  26.566  23.604  1.00  0.00    -0.200 F 
ENDBRANCH  55  79
BRANCH  67  90
ATOM     90  C   UNL A   1      45.382  33.672  28.778  1.00  0.00     0.064 A 
ATOM     91  C   UNL A   1      45.151  34.693  27.844  1.00  0.00     0.173 A 
ATOM     92  C   UNL A   1      46.219  33.955  29.868  1.00  0.00     0.173 A 
ATOM     93  F   UNL A   1      44.369  34.469  26.778  1.00  0.00    -0.203 F 
ATOM     94  C   UNL A   1      45.749  35.943  27.989  1.00  0.00     0.198 A 
ATOM     95  C   UNL A   1      46.792  35.213  30.025  1.00  0.00     0.198 A 
ATOM     96  F   UNL A   1      46.465  33.015  30.794  1.00  0.00    -0.203 F 
ATOM     97  F   UNL A   1      45.545  36.893  27.066  1.00  0.00    -0.200 F 
ATOM     98  C   UNL A   1      46.561  36.204  29.084  1.00  0.00     0.200 A 
ATOM     99  F   UNL A   1      47.565  35.469  31.089  1.00  0.00    -0.200 F 
ATOM    100  F   UNL A   1      47.126  37.411  29.227  1.00  0.00    -0.200 F 
ENDBRANCH  67  90
ENDBRANCH  41  42
ENDBRANCH  34  36
ENDBRANCH  33  34
ENDBRANCH  32  33
ENDBRANCH  31  32
ENDBRANCH  30  31
ENDBRANCH   1  30
TORSDOF 19
ENDMDL
MODEL 3
REMARK VINA RESULT:     -11.9      4.329      9.774
REMARK SMILES CC(=O)N1C[C@@H]2C[N@H+](CC(=O)NCc3ccccc3)C[C@]2(C(=O)OCCOCCOC(=O)c2ccc(-c3c4nc(c(-c5c(F)c(F)c(F)c(F)c5F)c5ccc([nH]5)c(-c5c(F)c(F)c(F)c(F)c5F)c5nc(c(-c6c(F)c(F)c(F)c(F)c6F)c6ccc3[nH]6)C=C5)C=C4)cc2)C1
REMARK SMILES IDX 26 1 25 2 24 3 22 4 23 5 21 6 4 7 5 8 96 9 6 10 7 11 20 12
REMARK SMILES IDX 8 13 2 15 1 16 3 17 9 18 10 19 11 20 12 21 13 23 14 24 15 25
REMARK SMILES IDX 19 26 16 27 18 28 17 29 27 30 28 31 29 32 30 33 31 34 32 35
REMARK SMILES IDX 33 36 34 37 95 38 35 39 94 40 36 41 37 42 38 43 88 44 39 45
REMARK SMILES IDX 93 46 87 47 89 48 40 49 92 50 86 51 85 52 41 54 73 55 53 56
REMARK SMILES IDX 72 57 54 58 57 59 71 60 90 61 55 62 56 63 70 65 91 66 58 67
REMARK SMILES IDX 42 68 43 69 51 70 44 71 45 72 49 73 52 74 46 75 47 76 50 77
REMARK SMILES IDX 48 78 74 79 75 80 83 81 76 82 77 83 81 84 84 85 78 86 79 87
REMARK SMILES IDX 82 88 80 89 59 90 60 91 68 92 61 93 62 94 66 95 69 96 63 97
REMARK SMILES IDX 64 98 67 99 65 100
REMARK H PARENT 8 14 12 22 89 53 57 64
REMARK Flexibility Score: inf
ROOT
ATOM      1  C   UNL A   1      33.245  30.408  26.766  1.00  0.00     0.202 C 
ENDROOT
BRANCH   1   2
ATOM      2  C   UNL A   1      33.744  29.029  27.182  1.00  0.00     0.261 C 
BRANCH   2   3
ATOM      3  O   UNL A   1      33.477  27.844  26.383  1.00  0.00    -0.463 OA
BRANCH   3   4
ATOM      4  C   UNL A   1      32.327  27.138  26.124  1.00  0.00     0.320 C 
ATOM      5  O   UNL A   1      31.558  26.644  26.929  1.00  0.00    -0.251 OA
BRANCH   4   6
ATOM      6  C   UNL A   1      32.138  27.187  24.583  1.00  0.00     0.144 C 
ATOM      7  N   UNL A   1      30.281  28.276  23.479  1.00  0.00    -0.341 N 
ATOM      8  C   UNL A   1      31.216  28.086  22.416  1.00  0.00     0.130 C 
ATOM      9  C   UNL A   1      30.997  28.262  24.763  1.00  0.00     0.144 C 
ATOM     10  C   UNL A   1      32.505  27.829  23.165  1.00  0.00     0.089 C 
ATOM     11  C   UNL A   1      33.389  26.845  22.394  1.00  0.00     0.269 C 
ATOM     12  C   UNL A   1      33.665  26.765  24.617  1.00  0.00     0.284 C 
ATOM     13  N   UNL A   1      33.768  25.895  23.431  1.00  0.00    -0.326 N 
ATOM     14  H   UNL A   1      34.675  25.462  23.258  1.00  0.00     0.348 HD
BRANCH   7  15
ATOM     15  C   UNL A   1      28.934  28.203  23.203  1.00  0.00     0.219 C 
ATOM     16  C   UNL A   1      28.314  29.325  22.429  1.00  0.00     0.114 C 
ATOM     17  O   UNL A   1      28.243  27.246  23.555  1.00  0.00    -0.275 OA
ENDBRANCH   7  15
BRANCH  13  18
ATOM     18  C   UNL A   1      32.874  24.671  23.553  1.00  0.00     0.363 C 
BRANCH  18  19
ATOM     19  C   UNL A   1      33.395  23.341  22.945  1.00  0.00     0.275 C 
ATOM     20  O   UNL A   1      33.703  23.297  21.748  1.00  0.00    -0.268 OA
ATOM     21  N   UNL A   1      33.480  22.156  23.633  1.00  0.00    -0.347 N 
ATOM     22  H   UNL A   1      33.200  21.363  23.122  1.00  0.00     0.164 HD
BRANCH  21  23
ATOM     23  C   UNL A   1      33.915  21.879  24.996  1.00  0.00     0.151 C 
BRANCH  23  24
ATOM     24  C   UNL A   1      35.381  22.202  25.284  1.00  0.00    -0.029 A 
ATOM     25  C   UNL A   1      35.762  23.483  25.701  1.00  0.00     0.005 A 
ATOM     26  C   UNL A   1      36.422  21.265  25.180  1.00  0.00     0.005 A 
ATOM     27  C   UNL A   1      37.107  23.789  25.982  1.00  0.00     0.000 A 
ATOM     28  C   UNL A   1      37.764  21.561  25.435  1.00  0.00     0.000 A 
ATOM     29  C   UNL A   1      38.110  22.833  25.839  1.00  0.00     0.000 A 
ENDBRANCH  23  24
ENDBRANCH  21  23
ENDBRANCH  18  19
ENDBRANCH  13  18
ENDBRANCH   4   6
ENDBRANCH   3   4
ENDBRANCH   2   3
ENDBRANCH   1   2
BRANCH   1  30
ATOM     30  O   UNL A   1      31.948  30.717  27.221  1.00  0.00    -0.374 OA
BRANCH  30  31
ATOM     31  C   UNL A   1      31.413  31.951  26.750  1.00  0.00     0.202 C 
BRANCH  31  32
ATOM     32  C   UNL A   1      32.363  33.155  26.845  1.00  0.00     0.261 C 
BRANCH  32  33
ATOM     33  O   UNL A   1      32.506  33.722  28.161  1.00  0.00    -0.460 OA
BRANCH  33  34
ATOM     34  C   UNL A   1      33.644  34.421  28.387  1.00  0.00     0.338 C 
ATOM     35  O   UNL A   1      33.756  35.624  28.470  1.00  0.00    -0.246 OA
BRANCH  34  36
ATOM     36  C   UNL A   1      34.749  33.475  28.666  1.00  0.00     0.060 A 
ATOM     37  C   UNL A   1      34.448  32.284  29.337  1.00  0.00     0.016 A 
ATOM     38  C   UNL A   1      36.072  33.783  28.335  1.00  0.00     0.016 A 
ATOM     39  C   UNL A   1      35.477  31.429  29.742  1.00  0.00     0.010 A 
ATOM     40  C   UNL A   1      37.102  32.933  28.753  1.00  0.00     0.010 A 
ATOM     41  C   UNL A   1      36.813  31.775  29.497  1.00  0.00    -0.014 A 
BRANCH  41  42
ATOM     42  C   UNL A   1      37.910  31.043  30.181  1.00  0.00     0.031 A 
ATOM     43  C   UNL A   1      38.203  31.371  31.621  1.00  0.00     0.074 A 
ATOM     44  C   UNL A   1      38.634  30.105  29.549  1.00  0.00     0.049 A 
ATOM     45  N   UNL A   1      39.148  30.919  32.405  1.00  0.00    -0.248 NA
ATOM     46  C   UNL A   1      37.304  32.343  32.263  1.00  0.00     0.031 C 
ATOM     47  C   UNL A   1      38.429  29.664  28.172  1.00  0.00     0.029 A 
ATOM     48  N   UNL A   1      39.705  29.363  29.984  1.00  0.00    -0.354 N 
ATOM     49  C   UNL A   1      38.964  31.557  33.625  1.00  0.00     0.074 A 
ATOM     50  C   UNL A   1      37.831  32.442  33.475  1.00  0.00     0.031 C 
ATOM     51  C   UNL A   1      39.360  28.743  27.866  1.00  0.00     0.029 A 
ATOM     52  C   UNL A   1      40.245  28.554  29.015  1.00  0.00     0.049 A 
ATOM     53  H   UNL A   1      40.053  29.407  30.904  1.00  0.00     0.167 HD
ATOM     54  C   UNL A   1      39.674  31.414  34.770  1.00  0.00     0.037 A 
ATOM     55  C   UNL A   1      41.345  27.775  29.044  1.00  0.00     0.037 A 
ATOM     56  C   UNL A   1      40.805  30.538  34.922  1.00  0.00     0.049 A 
ATOM     57  C   UNL A   1      42.164  27.688  30.308  1.00  0.00     0.074 A 
ATOM     58  C   UNL A   1      41.575  30.310  36.049  1.00  0.00     0.029 A 
ATOM     59  N   UNL A   1      41.333  29.753  33.910  1.00  0.00    -0.354 N 
ATOM     60  N   UNL A   1      41.965  28.271  31.465  1.00  0.00    -0.248 NA
ATOM     61  C   UNL A   1      43.360  26.831  30.269  1.00  0.00     0.031 C 
ATOM     62  C   UNL A   1      42.601  29.424  35.705  1.00  0.00     0.029 A 
ATOM     63  C   UNL A   1      42.437  29.059  34.379  1.00  0.00     0.049 A 
ATOM     64  H   UNL A   1      40.977  29.695  32.994  1.00  0.00     0.167 HD
ATOM     65  C   UNL A   1      42.990  27.833  32.297  1.00  0.00     0.074 A 
ATOM     66  C   UNL A   1      43.804  26.928  31.515  1.00  0.00     0.031 C 
ATOM     67  C   UNL A   1      43.232  28.151  33.592  1.00  0.00     0.037 A 
BRANCH  54  68
ATOM     68  C   UNL A   1      39.265  32.254  35.945  1.00  0.00     0.064 A 
ATOM     69  C   UNL A   1      38.354  31.787  36.904  1.00  0.00     0.173 A 
ATOM     70  C   UNL A   1      39.818  33.530  36.130  1.00  0.00     0.173 A 
ATOM     71  F   UNL A   1      37.787  30.579  36.764  1.00  0.00    -0.203 F 
ATOM     72  C   UNL A   1      37.992  32.578  37.991  1.00  0.00     0.198 A 
ATOM     73  C   UNL A   1      39.473  34.308  37.232  1.00  0.00     0.198 A 
ATOM     74  F   UNL A   1      40.696  34.022  35.243  1.00  0.00    -0.203 F 
ATOM     75  F   UNL A   1      37.085  32.129  38.871  1.00  0.00    -0.200 F 
ATOM     76  C   UNL A   1      38.556  33.834  38.157  1.00  0.00     0.200 A 
ATOM     77  F   UNL A   1      40.027  35.517  37.396  1.00  0.00    -0.200 F 
ATOM     78  F   UNL A   1      38.209  34.592  39.207  1.00  0.00    -0.200 F 
ENDBRANCH  54  68
BRANCH  55  79
ATOM     79  C   UNL A   1      41.756  27.027  27.827  1.00  0.00     0.064 A 
ATOM     80  C   UNL A   1      41.272  25.737  27.569  1.00  0.00     0.173 A 
ATOM     81  C   UNL A   1      42.658  27.581  26.906  1.00  0.00     0.173 A 
ATOM     82  F   UNL A   1      40.431  25.152  28.435  1.00  0.00    -0.203 F 
ATOM     83  C   UNL A   1      41.685  25.025  26.445  1.00  0.00     0.198 A 
ATOM     84  C   UNL A   1      43.049  26.878  25.767  1.00  0.00     0.198 A 
ATOM     85  F   UNL A   1      43.154  28.810  27.108  1.00  0.00    -0.203 F 
ATOM     86  F   UNL A   1      41.240  23.776  26.246  1.00  0.00    -0.200 F 
ATOM     87  C   UNL A   1      42.567  25.598  25.541  1.00  0.00     0.200 A 
ATOM     88  F   UNL A   1      43.893  27.441  24.893  1.00  0.00    -0.200 F 
ATOM     89  F   UNL A   1      42.960  24.914  24.458  1.00  0.00    -0.200 F 
ENDBRANCH  55  79
BRANCH  67  90
ATOM     90  C   UNL A   1      44.399  27.487  34.265  1.00  0.00     0.064 A 
ATOM     91  C   UNL A   1      45.660  28.096  34.324  1.00  0.00     0.173 A 
ATOM     92  C   UNL A   1      44.235  26.251  34.911  1.00  0.00     0.173 A 
ATOM     93  F   UNL A   1      45.872  29.271  33.712  1.00  0.00    -0.203 F 
ATOM     94  C   UNL A   1      46.720  27.484  34.991  1.00  0.00     0.198 A 
ATOM     95  C   UNL A   1      45.287  25.656  35.599  1.00  0.00     0.198 A 
ATOM     96  F   UNL A   1      43.045  25.631  34.891  1.00  0.00    -0.203 F 
ATOM     97  F   UNL A   1      47.927  28.066  35.003  1.00  0.00    -0.200 F 
ATOM     98  C   UNL A   1      46.530  26.270  35.634  1.00  0.00     0.200 A 
ATOM     99  F   UNL A   1      45.099  24.490  36.232  1.00  0.00    -0.200 F 
ATOM    100  F   UNL A   1      47.548  25.688  36.284  1.00  0.00    -0.200 F 
ENDBRANCH  67  90
ENDBRANCH  41  42
ENDBRANCH  34  36
ENDBRANCH  33  34
ENDBRANCH  32  33
ENDBRANCH  31  32
ENDBRANCH  30  31
ENDBRANCH   1  30
TORSDOF 19
ENDMDL
