MODEL 1
REMARK VINA RESULT:     -12.2      0.000      0.000
REMARK SMILES Cc1ccc(NC(=O)C[N@H+]2CCC[C@@H](C(=O)OCCOCCOC(=O)c3ccc(-c4c5nc(c(-c6c(F)c(F)c(F)c(F)c6F)c6ccc([nH]6)c(-c6c(F)c(F)c(F)c(F)c6F)c6nc(c(-c7c(F)c(F)c(F)c(F)c7F)c7ccc4[nH]7)C=C6)C=C5)cc3)C2)cc1Cl
REMARK SMILES IDX 19 1 18 2 17 3 15 4 16 5 14 6 10 7 11 8 89 9 12 11 13 12
REMARK SMILES IDX 9 13 7 14 6 15 8 17 5 18 1 19 2 20 3 21 91 22 4 23 90 24
REMARK SMILES IDX 92 25 20 26 21 27 22 28 23 29 24 30 25 31 26 32 27 33 88 34
REMARK SMILES IDX 28 35 87 36 29 37 30 38 31 39 81 40 32 41 86 42 80 43 82 44
REMARK SMILES IDX 33 45 85 46 79 47 78 48 34 50 66 51 46 52 65 53 47 54 50 55
REMARK SMILES IDX 64 56 83 57 48 58 49 59 63 61 84 62 51 63 35 64 36 65 44 66
REMARK SMILES IDX 37 67 38 68 42 69 45 70 39 71 40 72 43 73 41 74 67 75 68 76
REMARK SMILES IDX 76 77 69 78 70 79 74 80 77 81 71 82 72 83 75 84 73 85 52 86
REMARK SMILES IDX 53 87 61 88 54 89 55 90 59 91 62 92 56 93 57 94 60 95 58 96
REMARK H PARENT 10 10 6 16 82 49 50 60
REMARK Flexibility Score: inf
ROOT
ATOM      1  C   UNL A   1      39.550  21.366  26.250  1.00  0.00     0.202 C 
ENDROOT
BRANCH   1   2
ATOM      2  C   UNL A   1      38.272  21.451  25.402  1.00  0.00     0.261 C 
BRANCH   2   3
ATOM      3  O   UNL A   1      37.393  22.557  25.658  1.00  0.00    -0.463 OA
BRANCH   3   4
ATOM      4  C   UNL A   1      36.681  22.920  24.558  1.00  0.00     0.314 C 
ATOM      5  O   UNL A   1      36.829  22.402  23.454  1.00  0.00    -0.252 OA
BRANCH   4   6
ATOM      6  C   UNL A   1      35.658  24.013  24.837  1.00  0.00     0.154 C 
ATOM      7  N   UNL A   1      33.437  24.534  23.603  1.00  0.00    -0.326 N 
ATOM      8  C   UNL A   1      32.711  23.975  24.746  1.00  0.00     0.262 C 
ATOM      9  C   UNL A   1      34.819  24.067  23.557  1.00  0.00     0.278 C 
ATOM     10  H   UNL A   1      33.450  25.544  23.741  1.00  0.00     0.348 HD
ATOM     11  C   UNL A   1      33.453  24.312  26.043  1.00  0.00     0.062 C 
ATOM     12  C   UNL A   1      34.830  23.655  26.070  1.00  0.00     0.027 C 
BRANCH   7  13
ATOM     13  C   UNL A   1      32.743  24.269  22.301  1.00  0.00     0.363 C 
BRANCH  13  14
ATOM     14  C   UNL A   1      32.764  25.416  21.265  1.00  0.00     0.279 C 
ATOM     15  N   UNL A   1      32.507  26.736  21.549  1.00  0.00    -0.321 N 
ATOM     16  H   UNL A   1      32.516  27.316  20.755  1.00  0.00     0.170 HD
ATOM     17  O   UNL A   1      33.097  25.169  20.096  1.00  0.00    -0.268 OA
BRANCH  15  18
ATOM     18  C   UNL A   1      32.231  27.431  22.745  1.00  0.00     0.042 A 
ATOM     19  C   UNL A   1      31.499  30.508  25.690  1.00  0.00     0.046 C 
ATOM     20  C   UNL A   1      31.710  29.342  24.765  1.00  0.00    -0.032 A 
ATOM     21  C   UNL A   1      30.733  29.025  23.815  1.00  0.00     0.007 A 
ATOM     22  C   UNL A   1      32.896  28.597  24.762  1.00  0.00     0.046 A 
ATOM     23  C   UNL A   1      30.986  28.068  22.824  1.00  0.00     0.026 A 
ATOM     24  C   UNL A   1      33.142  27.629  23.777  1.00  0.00     0.047 A 
ATOM     25  Cl  UNL A   1      34.152  28.906  25.911  1.00  0.00    -0.084 Cl
ENDBRANCH  15  18
ENDBRANCH  13  14
ENDBRANCH   7  13
ENDBRANCH   4   6
ENDBRANCH   3   4
ENDBRANCH   2   3
ENDBRANCH   1   2
BRANCH   1  26
ATOM     26  O   UNL A   1      40.671  22.181  25.946  1.00  0.00    -0.374 OA
BRANCH  26  27
ATOM     27  C   UNL A   1      41.985  21.692  26.190  1.00  0.00     0.202 C 
BRANCH  27  28
ATOM     28  C   UNL A   1      43.158  22.243  25.377  1.00  0.00     0.261 C 
BRANCH  28  29
ATOM     29  O   UNL A   1      42.859  23.487  24.719  1.00  0.00    -0.460 OA
BRANCH  29  30
ATOM     30  C   UNL A   1      43.645  24.518  25.103  1.00  0.00     0.338 C 
ATOM     31  O   UNL A   1      44.802  24.739  24.760  1.00  0.00    -0.246 OA
BRANCH  30  32
ATOM     32  C   UNL A   1      42.881  25.499  25.887  1.00  0.00     0.060 A 
ATOM     33  C   UNL A   1      43.512  26.714  26.191  1.00  0.00     0.016 A 
ATOM     34  C   UNL A   1      41.644  25.178  26.444  1.00  0.00     0.016 A 
ATOM     35  C   UNL A   1      42.942  27.581  27.117  1.00  0.00     0.010 A 
ATOM     36  C   UNL A   1      41.078  26.043  27.385  1.00  0.00     0.010 A 
ATOM     37  C   UNL A   1      41.752  27.220  27.760  1.00  0.00    -0.014 A 
BRANCH  37  38
ATOM     38  C   UNL A   1      41.328  27.978  28.960  1.00  0.00     0.031 A 
ATOM     39  C   UNL A   1      42.105  27.801  30.237  1.00  0.00     0.074 A 
ATOM     40  C   UNL A   1      40.301  28.842  28.904  1.00  0.00     0.049 A 
ATOM     41  N   UNL A   1      41.904  28.337  31.414  1.00  0.00    -0.248 NA
ATOM     42  C   UNL A   1      43.265  26.898  30.177  1.00  0.00     0.031 C 
ATOM     43  C   UNL A   1      39.509  29.132  27.711  1.00  0.00     0.029 A 
ATOM     44  N   UNL A   1      39.749  29.631  29.881  1.00  0.00    -0.354 N 
ATOM     45  C   UNL A   1      42.907  27.833  32.233  1.00  0.00     0.074 A 
ATOM     46  C   UNL A   1      43.699  26.930  31.428  1.00  0.00     0.031 C 
ATOM     47  C   UNL A   1      38.559  30.029  28.029  1.00  0.00     0.029 A 
ATOM     48  C   UNL A   1      38.662  30.350  29.453  1.00  0.00     0.049 A 
ATOM     49  H   UNL A   1      40.097  29.676  30.800  1.00  0.00     0.167 HD
ATOM     50  C   UNL A   1      43.148  28.106  33.537  1.00  0.00     0.037 A 
ATOM     51  C   UNL A   1      37.833  31.159  30.141  1.00  0.00     0.037 A 
ATOM     52  C   UNL A   1      42.360  29.008  34.333  1.00  0.00     0.049 A 
ATOM     53  C   UNL A   1      38.082  31.394  31.608  1.00  0.00     0.074 A 
ATOM     54  C   UNL A   1      42.528  29.362  35.659  1.00  0.00     0.029 A 
ATOM     55  N   UNL A   1      41.247  29.695  33.873  1.00  0.00    -0.354 N 
ATOM     56  N   UNL A   1      39.040  30.927  32.371  1.00  0.00    -0.248 NA
ATOM     57  C   UNL A   1      37.134  32.273  32.309  1.00  0.00     0.031 C 
ATOM     58  C   UNL A   1      41.491  30.231  36.014  1.00  0.00     0.029 A 
ATOM     59  C   UNL A   1      40.705  30.456  34.895  1.00  0.00     0.049 A 
ATOM     60  H   UNL A   1      40.895  29.651  32.955  1.00  0.00     0.167 HD
ATOM     61  C   UNL A   1      38.829  31.474  33.630  1.00  0.00     0.074 A 
ATOM     62  C   UNL A   1      37.656  32.316  33.526  1.00  0.00     0.031 C 
ATOM     63  C   UNL A   1      39.542  31.297  34.769  1.00  0.00     0.037 A 
BRANCH  50  64
ATOM     64  C   UNL A   1      44.298  27.400  34.191  1.00  0.00     0.064 A 
ATOM     65  C   UNL A   1      45.564  27.996  34.298  1.00  0.00     0.173 A 
ATOM     66  C   UNL A   1      44.122  26.125  34.749  1.00  0.00     0.173 A 
ATOM     67  F   UNL A   1      45.786  29.209  33.767  1.00  0.00    -0.203 F 
ATOM     68  C   UNL A   1      46.617  27.332  34.921  1.00  0.00     0.198 A 
ATOM     69  C   UNL A   1      45.171  25.474  35.393  1.00  0.00     0.198 A 
ATOM     70  F   UNL A   1      42.932  25.512  34.674  1.00  0.00    -0.203 F 
ATOM     71  F   UNL A   1      47.828  27.902  34.977  1.00  0.00    -0.200 F 
ATOM     72  C   UNL A   1      46.418  26.075  35.473  1.00  0.00     0.200 A 
ATOM     73  F   UNL A   1      44.974  24.264  35.934  1.00  0.00    -0.200 F 
ATOM     74  F   UNL A   1      47.431  25.440  36.079  1.00  0.00    -0.200 F 
ENDBRANCH  50  64
BRANCH  51  75
ATOM     75  C   UNL A   1      36.681  31.795  29.453  1.00  0.00     0.064 A 
ATOM     76  C   UNL A   1      36.683  33.164  29.152  1.00  0.00     0.173 A 
ATOM     77  C   UNL A   1      35.549  31.049  29.094  1.00  0.00     0.173 A 
ATOM     78  F   UNL A   1      37.734  33.924  29.498  1.00  0.00    -0.203 F 
ATOM     79  C   UNL A   1      35.592  33.766  28.532  1.00  0.00     0.198 A 
ATOM     80  C   UNL A   1      34.467  31.647  28.451  1.00  0.00     0.198 A 
ATOM     81  F   UNL A   1      35.496  29.736  29.363  1.00  0.00    -0.203 F 
ATOM     82  F   UNL A   1      35.601  35.085  28.294  1.00  0.00    -0.200 F 
ATOM     83  C   UNL A   1      34.486  33.006  28.178  1.00  0.00     0.200 A 
ATOM     84  F   UNL A   1      33.407  30.907  28.100  1.00  0.00    -0.200 F 
ATOM     85  F   UNL A   1      33.437  33.586  27.577  1.00  0.00    -0.200 F 
ENDBRANCH  51  75
BRANCH  63  86
ATOM     86  C   UNL A   1      39.099  32.055  35.985  1.00  0.00     0.064 A 
ATOM     87  C   UNL A   1      39.519  33.371  36.227  1.00  0.00     0.173 A 
ATOM     88  C   UNL A   1      38.203  31.472  36.896  1.00  0.00     0.173 A 
ATOM     89  F   UNL A   1      40.386  33.965  35.393  1.00  0.00    -0.203 F 
ATOM     90  C   UNL A   1      39.076  34.068  37.348  1.00  0.00     0.198 A 
ATOM     91  C   UNL A   1      37.742  32.182  38.000  1.00  0.00     0.198 A 
ATOM     92  F   UNL A   1      37.766  30.218  36.704  1.00  0.00    -0.203 F 
ATOM     93  F   UNL A   1      39.523  35.309  37.581  1.00  0.00    -0.200 F 
ATOM     94  C   UNL A   1      38.183  33.476  38.229  1.00  0.00     0.200 A 
ATOM     95  F   UNL A   1      36.869  31.613  38.843  1.00  0.00    -0.200 F 
ATOM     96  F   UNL A   1      37.752  34.152  39.303  1.00  0.00    -0.200 F 
ENDBRANCH  63  86
ENDBRANCH  37  38
ENDBRANCH  30  32
ENDBRANCH  29  30
ENDBRANCH  28  29
ENDBRANCH  27  28
ENDBRANCH  26  27
ENDBRANCH   1  26
TORSDOF 17
ENDMDL
MODEL 2
REMARK VINA RESULT:     -12.0      4.370      6.676
REMARK SMILES Cc1ccc(NC(=O)C[N@H+]2CCC[C@@H](C(=O)OCCOCCOC(=O)c3ccc(-c4c5nc(c(-c6c(F)c(F)c(F)c(F)c6F)c6ccc([nH]6)c(-c6c(F)c(F)c(F)c(F)c6F)c6nc(c(-c7c(F)c(F)c(F)c(F)c7F)c7ccc4[nH]7)C=C6)C=C5)cc3)C2)cc1Cl
REMARK SMILES IDX 19 1 18 2 17 3 15 4 16 5 14 6 10 7 11 8 89 9 12 11 13 12
REMARK SMILES IDX 9 13 7 14 6 15 8 17 5 18 1 19 2 20 3 21 91 22 4 23 90 24
REMARK SMILES IDX 92 25 20 26 21 27 22 28 23 29 24 30 25 31 26 32 27 33 88 34
REMARK SMILES IDX 28 35 87 36 29 37 30 38 31 39 81 40 32 41 86 42 80 43 82 44
REMARK SMILES IDX 33 45 85 46 79 47 78 48 34 50 66 51 46 52 65 53 47 54 50 55
REMARK SMILES IDX 64 56 83 57 48 58 49 59 63 61 84 62 51 63 35 64 36 65 44 66
REMARK SMILES IDX 37 67 38 68 42 69 45 70 39 71 40 72 43 73 41 74 67 75 68 76
REMARK SMILES IDX 76 77 69 78 70 79 74 80 77 81 71 82 72 83 75 84 73 85 52 86
REMARK SMILES IDX 53 87 61 88 54 89 55 90 59 91 62 92 56 93 57 94 60 95 58 96
REMARK H PARENT 10 10 6 16 82 49 50 60
REMARK Flexibility Score: inf
ROOT
ATOM      1  C   UNL A   1      36.120  21.611  24.822  1.00  0.00     0.202 C 
ENDROOT
BRANCH   1   2
ATOM      2  C   UNL A   1      34.880  21.236  25.649  1.00  0.00     0.261 C 
BRANCH   2   3
ATOM      3  O   UNL A   1      33.720  22.067  25.497  1.00  0.00    -0.463 OA
BRANCH   3   4
ATOM      4  C   UNL A   1      33.498  22.854  26.584  1.00  0.00     0.314 C 
ATOM      5  O   UNL A   1      33.815  22.535  27.727  1.00  0.00    -0.252 OA
BRANCH   4   6
ATOM      6  C   UNL A   1      32.844  24.186  26.240  1.00  0.00     0.154 C 
ATOM      7  N   UNL A   1      32.045  25.073  23.937  1.00  0.00    -0.326 N 
ATOM      8  C   UNL A   1      30.664  24.845  24.368  1.00  0.00     0.262 C 
ATOM      9  C   UNL A   1      32.994  24.287  24.719  1.00  0.00     0.278 C 
ATOM     10  H   UNL A   1      32.237  26.059  24.108  1.00  0.00     0.348 HD
ATOM     11  C   UNL A   1      30.533  25.146  25.864  1.00  0.00     0.062 C 
ATOM     12  C   UNL A   1      31.384  24.187  26.689  1.00  0.00     0.027 C 
BRANCH   7  13
ATOM     13  C   UNL A   1      32.234  24.829  22.470  1.00  0.00     0.363 C 
BRANCH  13  14
ATOM     14  C   UNL A   1      32.752  26.023  21.636  1.00  0.00     0.279 C 
ATOM     15  N   UNL A   1      32.838  27.318  22.088  1.00  0.00    -0.321 N 
ATOM     16  H   UNL A   1      33.143  27.952  21.400  1.00  0.00     0.170 HD
ATOM     17  O   UNL A   1      33.187  25.818  20.492  1.00  0.00    -0.268 OA
BRANCH  15  18
ATOM     18  C   UNL A   1      32.579  27.926  23.334  1.00  0.00     0.042 A 
ATOM     19  C   UNL A   1      31.910  30.786  26.504  1.00  0.00     0.046 C 
ATOM     20  C   UNL A   1      32.099  29.690  25.493  1.00  0.00    -0.032 A 
ATOM     21  C   UNL A   1      31.111  29.457  24.529  1.00  0.00     0.007 A 
ATOM     22  C   UNL A   1      33.274  28.930  25.427  1.00  0.00     0.046 A 
ATOM     23  C   UNL A   1      31.345  28.573  23.469  1.00  0.00     0.026 A 
ATOM     24  C   UNL A   1      33.500  28.034  24.370  1.00  0.00     0.047 A 
ATOM     25  Cl  UNL A   1      34.541  29.135  26.586  1.00  0.00    -0.084 Cl
ENDBRANCH  15  18
ENDBRANCH  13  14
ENDBRANCH   7  13
ENDBRANCH   4   6
ENDBRANCH   3   4
ENDBRANCH   2   3
ENDBRANCH   1   2
BRANCH   1  26
ATOM     26  O   UNL A   1      37.414  21.219  25.250  1.00  0.00    -0.374 OA
BRANCH  26  27
ATOM     27  C   UNL A   1      37.875  19.899  24.984  1.00  0.00     0.202 C 
BRANCH  27  28
ATOM     28  C   UNL A   1      39.202  19.427  25.583  1.00  0.00     0.261 C 
BRANCH  28  29
ATOM     29  O   UNL A   1      40.187  20.471  25.675  1.00  0.00    -0.460 OA
BRANCH  29  30
ATOM     30  C   UNL A   1      40.875  20.480  26.838  1.00  0.00     0.338 C 
ATOM     31  O   UNL A   1      41.497  19.550  27.342  1.00  0.00    -0.246 OA
BRANCH  30  32
ATOM     32  C   UNL A   1      40.952  21.839  27.394  1.00  0.00     0.060 A 
ATOM     33  C   UNL A   1      40.254  22.852  26.722  1.00  0.00     0.016 A 
ATOM     34  C   UNL A   1      41.810  22.143  28.451  1.00  0.00     0.016 A 
ATOM     35  C   UNL A   1      40.470  24.185  27.055  1.00  0.00     0.010 A 
ATOM     36  C   UNL A   1      42.038  23.484  28.775  1.00  0.00     0.010 A 
ATOM     37  C   UNL A   1      41.408  24.507  28.044  1.00  0.00    -0.014 A 
BRANCH  37  38
ATOM     38  C   UNL A   1      41.868  25.910  28.165  1.00  0.00     0.031 A 
ATOM     39  C   UNL A   1      43.203  26.284  27.578  1.00  0.00     0.074 A 
ATOM     40  C   UNL A   1      41.095  26.842  28.746  1.00  0.00     0.049 A 
ATOM     41  N   UNL A   1      43.820  27.438  27.586  1.00  0.00    -0.248 NA
ATOM     42  C   UNL A   1      43.939  25.213  26.888  1.00  0.00     0.031 C 
ATOM     43  C   UNL A   1      39.765  26.605  29.303  1.00  0.00     0.029 A 
ATOM     44  N   UNL A   1      41.324  28.176  28.963  1.00  0.00    -0.354 N 
ATOM     45  C   UNL A   1      45.015  27.230  26.910  1.00  0.00     0.074 A 
ATOM     46  C   UNL A   1      45.050  25.836  26.527  1.00  0.00     0.031 C 
ATOM     47  C   UNL A   1      39.298  27.758  29.814  1.00  0.00     0.029 A 
ATOM     48  C   UNL A   1      40.309  28.802  29.643  1.00  0.00     0.049 A 
ATOM     49  H   UNL A   1      42.137  28.641  28.661  1.00  0.00     0.167 HD
ATOM     50  C   UNL A   1      45.992  28.124  26.628  1.00  0.00     0.037 A 
ATOM     51  C   UNL A   1      40.220  30.068  30.093  1.00  0.00     0.037 A 
ATOM     52  C   UNL A   1      45.952  29.511  27.007  1.00  0.00     0.049 A 
ATOM     53  C   UNL A   1      41.350  31.027  29.826  1.00  0.00     0.074 A 
ATOM     54  C   UNL A   1      46.885  30.502  26.759  1.00  0.00     0.029 A 
ATOM     55  N   UNL A   1      44.921  30.102  27.723  1.00  0.00    -0.354 N 
ATOM     56  N   UNL A   1      42.469  30.828  29.172  1.00  0.00    -0.248 NA
ATOM     57  C   UNL A   1      41.203  32.390  30.356  1.00  0.00     0.031 C 
ATOM     58  C   UNL A   1      46.438  31.683  27.362  1.00  0.00     0.029 A 
ATOM     59  C   UNL A   1      45.205  31.439  27.944  1.00  0.00     0.049 A 
ATOM     60  H   UNL A   1      44.107  29.639  28.027  1.00  0.00     0.167 HD
ATOM     61  C   UNL A   1      43.145  32.042  29.189  1.00  0.00     0.074 A 
ATOM     62  C   UNL A   1      42.305  32.975  29.909  1.00  0.00     0.031 C 
ATOM     63  C   UNL A   1      44.350  32.355  28.654  1.00  0.00     0.037 A 
BRANCH  50  64
ATOM     64  C   UNL A   1      47.200  27.623  25.893  1.00  0.00     0.064 A 
ATOM     65  C   UNL A   1      47.275  27.652  24.493  1.00  0.00     0.173 A 
ATOM     66  C   UNL A   1      48.309  27.138  26.601  1.00  0.00     0.173 A 
ATOM     67  F   UNL A   1      46.234  28.094  23.770  1.00  0.00    -0.203 F 
ATOM     68  C   UNL A   1      48.410  27.196  23.827  1.00  0.00     0.198 A 
ATOM     69  C   UNL A   1      49.452  26.705  25.934  1.00  0.00     0.198 A 
ATOM     70  F   UNL A   1      48.288  27.090  27.941  1.00  0.00    -0.203 F 
ATOM     71  F   UNL A   1      48.445  27.195  22.488  1.00  0.00    -0.200 F 
ATOM     72  C   UNL A   1      49.498  26.729  24.548  1.00  0.00     0.200 A 
ATOM     73  F   UNL A   1      50.506  26.264  26.633  1.00  0.00    -0.200 F 
ATOM     74  F   UNL A   1      50.593  26.295  23.907  1.00  0.00    -0.200 F 
ENDBRANCH  50  64
BRANCH  51  75
ATOM     75  C   UNL A   1      39.022  30.499  30.857  1.00  0.00     0.064 A 
ATOM     76  C   UNL A   1      38.986  30.414  32.255  1.00  0.00     0.173 A 
ATOM     77  C   UNL A   1      37.884  30.993  30.202  1.00  0.00     0.173 A 
ATOM     78  F   UNL A   1      40.042  29.925  32.923  1.00  0.00    -0.203 F 
ATOM     79  C   UNL A   1      37.852  30.793  32.969  1.00  0.00     0.198 A 
ATOM     80  C   UNL A   1      36.759  31.396  30.919  1.00  0.00     0.198 A 
ATOM     81  F   UNL A   1      37.867  31.091  28.865  1.00  0.00    -0.203 F 
ATOM     82  F   UNL A   1      37.827  30.663  34.303  1.00  0.00    -0.200 F 
ATOM     83  C   UNL A   1      36.741  31.288  32.301  1.00  0.00     0.200 A 
ATOM     84  F   UNL A   1      35.694  31.884  30.271  1.00  0.00    -0.200 F 
ATOM     85  F   UNL A   1      35.651  31.656  32.990  1.00  0.00    -0.200 F 
ENDBRANCH  51  75
BRANCH  63  86
ATOM     86  C   UNL A   1      44.818  33.773  28.795  1.00  0.00     0.064 A 
ATOM     87  C   UNL A   1      45.623  34.180  29.869  1.00  0.00     0.173 A 
ATOM     88  C   UNL A   1      44.496  34.726  27.815  1.00  0.00     0.173 A 
ATOM     89  F   UNL A   1      45.945  33.309  30.837  1.00  0.00    -0.203 F 
ATOM     90  C   UNL A   1      46.070  35.495  29.969  1.00  0.00     0.198 A 
ATOM     91  C   UNL A   1      44.967  36.032  27.905  1.00  0.00     0.198 A 
ATOM     92  F   UNL A   1      43.735  34.384  26.765  1.00  0.00    -0.203 F 
ATOM     93  F   UNL A   1      46.803  35.872  31.025  1.00  0.00    -0.200 F 
ATOM     94  C   UNL A   1      45.748  36.418  28.984  1.00  0.00     0.200 A 
ATOM     95  F   UNL A   1      44.666  36.919  26.946  1.00  0.00    -0.200 F 
ATOM     96  F   UNL A   1      46.186  37.681  29.078  1.00  0.00    -0.200 F 
ENDBRANCH  63  86
ENDBRANCH  37  38
ENDBRANCH  30  32
ENDBRANCH  29  30
ENDBRANCH  28  29
ENDBRANCH  27  28
ENDBRANCH  26  27
ENDBRANCH   1  26
TORSDOF 17
ENDMDL
MODEL 3
REMARK VINA RESULT:     -11.8      4.319      6.599
REMARK SMILES Cc1ccc(NC(=O)C[N@H+]2CCC[C@@H](C(=O)OCCOCCOC(=O)c3ccc(-c4c5nc(c(-c6c(F)c(F)c(F)c(F)c6F)c6ccc([nH]6)c(-c6c(F)c(F)c(F)c(F)c6F)c6nc(c(-c7c(F)c(F)c(F)c(F)c7F)c7ccc4[nH]7)C=C6)C=C5)cc3)C2)cc1Cl
REMARK SMILES IDX 19 1 18 2 17 3 15 4 16 5 14 6 10 7 11 8 89 9 12 11 13 12
REMARK SMILES IDX 9 13 7 14 6 15 8 17 5 18 1 19 2 20 3 21 91 22 4 23 90 24
REMARK SMILES IDX 92 25 20 26 21 27 22 28 23 29 24 30 25 31 26 32 27 33 88 34
REMARK SMILES IDX 28 35 87 36 29 37 30 38 31 39 81 40 32 41 86 42 80 43 82 44
REMARK SMILES IDX 33 45 85 46 79 47 78 48 34 50 66 51 46 52 65 53 47 54 50 55
REMARK SMILES IDX 64 56 83 57 48 58 49 59 63 61 84 62 51 63 35 64 36 65 44 66
REMARK SMILES IDX 37 67 38 68 42 69 45 70 39 71 40 72 43 73 41 74 67 75 68 76
REMARK SMILES IDX 76 77 69 78 70 79 74 80 77 81 71 82 72 83 75 84 73 85 52 86
REMARK SMILES IDX 53 87 61 88 54 89 55 90 59 91 62 92 56 93 57 94 60 95 58 96
REMARK H PARENT 10 10 6 16 82 49 50 60
REMARK Flexibility Score: inf
ROOT
ATOM      1  C   UNL A   1      35.190  22.062  25.325  1.00  0.00     0.202 C 
ENDROOT
BRANCH   1   2
ATOM      2  C   UNL A   1      34.022  22.156  26.319  1.00  0.00     0.261 C 
BRANCH   2   3
ATOM      3  O   UNL A   1      32.752  22.571  25.795  1.00  0.00    -0.463 OA
BRANCH   3   4
ATOM      4  C   UNL A   1      32.097  23.421  26.632  1.00  0.00     0.314 C 
ATOM      5  O   UNL A   1      31.776  23.126  27.780  1.00  0.00    -0.252 OA
BRANCH   4   6
ATOM      6  C   UNL A   1      31.828  24.786  26.013  1.00  0.00     0.154 C 
ATOM      7  N   UNL A   1      31.516  25.423  23.518  1.00  0.00    -0.326 N 
ATOM      8  C   UNL A   1      30.083  25.588  23.775  1.00  0.00     0.262 C 
ATOM      9  C   UNL A   1      32.156  24.589  24.530  1.00  0.00     0.278 C 
ATOM     10  H   UNL A   1      31.924  26.355  23.574  1.00  0.00     0.348 HD
ATOM     11  C   UNL A   1      29.874  26.162  25.180  1.00  0.00     0.062 C 
ATOM     12  C   UNL A   1      30.373  25.191  26.245  1.00  0.00     0.027 C 
BRANCH   7  13
ATOM     13  C   UNL A   1      31.792  24.895  22.143  1.00  0.00     0.363 C 
BRANCH  13  14
ATOM     14  C   UNL A   1      32.699  25.765  21.242  1.00  0.00     0.279 C 
ATOM     15  N   UNL A   1      33.079  27.055  21.523  1.00  0.00    -0.321 N 
ATOM     16  H   UNL A   1      33.616  27.469  20.810  1.00  0.00     0.170 HD
ATOM     17  O   UNL A   1      33.186  25.268  20.215  1.00  0.00    -0.268 OA
BRANCH  15  18
ATOM     18  C   UNL A   1      32.857  27.911  22.622  1.00  0.00     0.042 A 
ATOM     19  C   UNL A   1      31.844  29.509  26.507  1.00  0.00     0.046 C 
ATOM     20  C   UNL A   1      32.254  29.082  25.126  1.00  0.00    -0.032 A 
ATOM     21  C   UNL A   1      33.431  28.346  24.948  1.00  0.00     0.007 A 
ATOM     22  C   UNL A   1      31.455  29.327  24.002  1.00  0.00     0.046 A 
ATOM     23  C   UNL A   1      33.735  27.779  23.705  1.00  0.00     0.026 A 
ATOM     24  C   UNL A   1      31.770  28.769  22.753  1.00  0.00     0.047 A 
ATOM     25  Cl  UNL A   1      29.993  30.243  24.122  1.00  0.00    -0.084 Cl
ENDBRANCH  15  18
ENDBRANCH  13  14
ENDBRANCH   7  13
ENDBRANCH   4   6
ENDBRANCH   3   4
ENDBRANCH   2   3
ENDBRANCH   1   2
BRANCH   1  26
ATOM     26  O   UNL A   1      36.417  21.466  25.712  1.00  0.00    -0.374 OA
BRANCH  26  27
ATOM     27  C   UNL A   1      36.902  20.329  25.006  1.00  0.00     0.202 C 
BRANCH  27  28
ATOM     28  C   UNL A   1      38.319  19.820  25.279  1.00  0.00     0.261 C 
BRANCH  28  29
ATOM     29  O   UNL A   1      39.291  20.874  25.390  1.00  0.00    -0.460 OA
BRANCH  29  30
ATOM     30  C   UNL A   1      40.137  20.739  26.435  1.00  0.00     0.338 C 
ATOM     31  O   UNL A   1      40.784  19.743  26.745  1.00  0.00    -0.246 OA
BRANCH  30  32
ATOM     32  C   UNL A   1      40.348  22.026  27.113  1.00  0.00     0.060 A 
ATOM     33  C   UNL A   1      39.583  23.118  26.678  1.00  0.00     0.016 A 
ATOM     34  C   UNL A   1      41.378  22.200  28.037  1.00  0.00     0.016 A 
ATOM     35  C   UNL A   1      39.895  24.403  27.110  1.00  0.00     0.010 A 
ATOM     36  C   UNL A   1      41.700  23.492  28.460  1.00  0.00     0.010 A 
ATOM     37  C   UNL A   1      40.993  24.600  27.957  1.00  0.00    -0.014 A 
BRANCH  37  38
ATOM     38  C   UNL A   1      41.513  25.973  28.149  1.00  0.00     0.031 A 
ATOM     39  C   UNL A   1      42.880  26.308  27.616  1.00  0.00     0.074 A 
ATOM     40  C   UNL A   1      40.765  26.917  28.743  1.00  0.00     0.049 A 
ATOM     41  N   UNL A   1      43.549  27.430  27.689  1.00  0.00    -0.248 NA
ATOM     42  C   UNL A   1      43.587  25.231  26.905  1.00  0.00     0.031 C 
ATOM     43  C   UNL A   1      39.409  26.722  29.252  1.00  0.00     0.029 A 
ATOM     44  N   UNL A   1      41.048  28.230  29.021  1.00  0.00    -0.354 N 
ATOM     45  C   UNL A   1      44.754  27.193  27.040  1.00  0.00     0.074 A 
ATOM     46  C   UNL A   1      44.737  25.814  26.602  1.00  0.00     0.031 C 
ATOM     47  C   UNL A   1      38.980  27.874  29.795  1.00  0.00     0.029 A 
ATOM     48  C   UNL A   1      40.042  28.875  29.696  1.00  0.00     0.049 A 
ATOM     49  H   UNL A   1      41.890  28.668  28.763  1.00  0.00     0.167 HD
ATOM     50  C   UNL A   1      45.779  28.050  26.823  1.00  0.00     0.037 A 
ATOM     51  C   UNL A   1      39.997  30.126  30.194  1.00  0.00     0.037 A 
ATOM     52  C   UNL A   1      45.790  29.422  27.257  1.00  0.00     0.049 A 
ATOM     53  C   UNL A   1      41.178  31.040  29.999  1.00  0.00     0.074 A 
ATOM     54  C   UNL A   1      46.775  30.377  27.076  1.00  0.00     0.029 A 
ATOM     55  N   UNL A   1      44.766  30.031  27.965  1.00  0.00    -0.354 N 
ATOM     56  N   UNL A   1      42.306  30.814  29.371  1.00  0.00    -0.248 NA
ATOM     57  C   UNL A   1      41.076  32.387  30.580  1.00  0.00     0.031 C 
ATOM     58  C   UNL A   1      46.364  31.553  27.713  1.00  0.00     0.029 A 
ATOM     59  C   UNL A   1      45.103  31.344  28.249  1.00  0.00     0.049 A 
ATOM     60  H   UNL A   1      43.923  29.596  28.227  1.00  0.00     0.167 HD
ATOM     61  C   UNL A   1      43.035  31.994  29.456  1.00  0.00     0.074 A 
ATOM     62  C   UNL A   1      42.217  32.937  30.189  1.00  0.00     0.031 C 
ATOM     63  C   UNL A   1      44.270  32.271  28.970  1.00  0.00     0.037 A 
BRANCH  50  64
ATOM     64  C   UNL A   1      46.984  27.522  26.104  1.00  0.00     0.064 A 
ATOM     65  C   UNL A   1      48.024  26.874  26.787  1.00  0.00     0.173 A 
ATOM     66  C   UNL A   1      47.084  27.637  24.710  1.00  0.00     0.173 A 
ATOM     67  F   UNL A   1      47.982  26.752  28.123  1.00  0.00    -0.203 F 
ATOM     68  C   UNL A   1      49.130  26.378  26.102  1.00  0.00     0.198 A 
ATOM     69  C   UNL A   1      48.180  27.119  24.024  1.00  0.00     0.198 A 
ATOM     70  F   UNL A   1      46.117  28.248  24.010  1.00  0.00    -0.203 F 
ATOM     71  F   UNL A   1      50.131  25.798  26.777  1.00  0.00    -0.200 F 
ATOM     72  C   UNL A   1      49.204  26.495  24.722  1.00  0.00     0.200 A 
ATOM     73  F   UNL A   1      48.244  27.223  22.691  1.00  0.00    -0.200 F 
ATOM     74  F   UNL A   1      50.265  26.011  24.062  1.00  0.00    -0.200 F 
ENDBRANCH  50  64
BRANCH  51  75
ATOM     75  C   UNL A   1      38.796  30.582  30.939  1.00  0.00     0.064 A 
ATOM     76  C   UNL A   1      37.693  31.129  30.270  1.00  0.00     0.173 A 
ATOM     77  C   UNL A   1      38.733  30.492  32.338  1.00  0.00     0.173 A 
ATOM     78  F   UNL A   1      37.718  31.258  28.934  1.00  0.00    -0.203 F 
ATOM     79  C   UNL A   1      36.579  31.582  30.971  1.00  0.00     0.198 A 
ATOM     80  C   UNL A   1      37.607  30.921  33.037  1.00  0.00     0.198 A 
ATOM     81  F   UNL A   1      39.764  29.978  33.025  1.00  0.00    -0.203 F 
ATOM     82  F   UNL A   1      35.554  32.139  30.310  1.00  0.00    -0.200 F 
ATOM     83  C   UNL A   1      36.534  31.473  32.353  1.00  0.00     0.200 A 
ATOM     84  F   UNL A   1      37.564  30.804  34.370  1.00  0.00    -0.200 F 
ATOM     85  F   UNL A   1      35.459  31.906  33.027  1.00  0.00    -0.200 F 
ENDBRANCH  51  75
BRANCH  63  86
ATOM     86  C   UNL A   1      44.797  33.659  29.182  1.00  0.00     0.064 A 
ATOM     87  C   UNL A   1      44.526  34.696  28.277  1.00  0.00     0.173 A 
ATOM     88  C   UNL A   1      45.546  33.966  30.329  1.00  0.00     0.173 A 
ATOM     89  F   UNL A   1      43.827  34.448  27.158  1.00  0.00    -0.203 F 
ATOM     90  C   UNL A   1      45.002  35.985  28.503  1.00  0.00     0.198 A 
ATOM     91  C   UNL A   1      45.996  35.261  30.565  1.00  0.00     0.198 A 
ATOM     92  F   UNL A   1      45.825  33.011  31.228  1.00  0.00    -0.203 F 
ATOM     93  F   UNL A   1      44.766  36.950  27.605  1.00  0.00    -0.200 F 
ATOM     94  C   UNL A   1      45.730  36.268  29.649  1.00  0.00     0.200 A 
ATOM     95  F   UNL A   1      46.689  35.536  31.679  1.00  0.00    -0.200 F 
ATOM     96  F   UNL A   1      46.181  37.511  29.868  1.00  0.00    -0.200 F 
ENDBRANCH  63  86
ENDBRANCH  37  38
ENDBRANCH  30  32
ENDBRANCH  29  30
ENDBRANCH  28  29
ENDBRANCH  27  28
ENDBRANCH  26  27
ENDBRANCH   1  26
TORSDOF 17
ENDMDL
