MODEL 1
REMARK VINA RESULT:     -11.1      0.000      0.000
REMARK SMILES Cc1oc2c(c1C(=O)NCCCC(=O)OCCOCCOC(=O)c1ccc(-c3c4nc(c(-c5c(F)c(F)c(F)c(F)c5F)c5ccc([nH]5)c(-c5c(F)c(F)c(F)c(F)c5F)c5nc(c(-c6c(F)c(F)c(F)c(F)c6F)c6ccc3[nH]6)C=C5)C=C4)cc1)CCCC2
REMARK SMILES IDX 17 1 16 2 15 3 13 4 14 5 12 6 11 7 10 8 9 9 7 10 8 11 6 13
REMARK SMILES IDX 1 14 2 15 3 16 4 17 5 18 90 19 87 20 89 21 88 22 18 23 19 24
REMARK SMILES IDX 20 25 21 26 22 27 23 28 24 29 25 30 86 31 26 32 85 33 27 34
REMARK SMILES IDX 28 35 29 36 79 37 30 38 84 39 78 40 80 41 31 42 83 43 77 44
REMARK SMILES IDX 76 45 32 47 64 48 44 49 63 50 45 51 48 52 62 53 81 54 46 55
REMARK SMILES IDX 47 56 61 58 82 59 49 60 33 61 34 62 42 63 35 64 36 65 40 66
REMARK SMILES IDX 43 67 37 68 38 69 41 70 39 71 65 72 66 73 74 74 67 75 68 76
REMARK SMILES IDX 72 77 75 78 69 79 70 80 73 81 71 82 50 83 51 84 59 85 52 86
REMARK SMILES IDX 53 87 57 88 60 89 54 90 55 91 58 92 56 93
REMARK H PARENT 9 12 80 46 48 57
REMARK Flexibility Score: inf
ROOT
ATOM      1  C   UNL A   1      39.453  21.316  25.997  1.00  0.00     0.202 C 
ENDROOT
BRANCH   1   2
ATOM      2  C   UNL A   1      38.481  22.483  26.142  1.00  0.00     0.261 C 
BRANCH   2   3
ATOM      3  O   UNL A   1      37.424  22.369  25.172  1.00  0.00    -0.463 OA
BRANCH   3   4
ATOM      4  C   UNL A   1      36.165  22.221  25.650  1.00  0.00     0.305 C 
ATOM      5  O   UNL A   1      35.549  21.166  25.687  1.00  0.00    -0.252 OA
BRANCH   4   6
ATOM      6  C   UNL A   1      35.579  23.530  26.142  1.00  0.00     0.124 C 
BRANCH   6   7
ATOM      7  C   UNL A   1      35.145  24.552  25.083  1.00  0.00     0.033 C 
BRANCH   7   8
ATOM      8  C   UNL A   1      34.407  23.974  23.876  1.00  0.00     0.117 C 
BRANCH   8   9
ATOM      9  N   UNL A   1      33.994  25.003  22.970  1.00  0.00    -0.352 N 
ATOM     10  C   UNL A   1      33.084  26.015  23.039  1.00  0.00     0.255 C 
ATOM     11  O   UNL A   1      33.083  26.738  22.037  1.00  0.00    -0.269 OA
ATOM     12  H   UNL A   1      34.473  24.972  22.110  1.00  0.00     0.163 HD
BRANCH  10  13
ATOM     13  C   UNL A   1      32.208  26.323  24.177  1.00  0.00     0.084 A 
ATOM     14  C   UNL A   1      29.661  25.482  23.879  1.00  0.00     0.088 C 
ATOM     15  C   UNL A   1      30.866  26.079  24.499  1.00  0.00     0.114 A 
ATOM     16  O   UNL A   1      30.558  26.606  25.728  1.00  0.00    -0.465 OA
ATOM     17  C   UNL A   1      31.636  27.280  26.152  1.00  0.00     0.108 A 
ATOM     18  C   UNL A   1      32.672  27.156  25.266  1.00  0.00     0.007 A 
ATOM     19  C   UNL A   1      31.583  28.082  27.391  1.00  0.00     0.076 C 
ATOM     20  C   UNL A   1      33.959  27.890  25.464  1.00  0.00     0.040 C 
ATOM     21  C   UNL A   1      32.703  29.137  27.330  1.00  0.00     0.008 C 
ATOM     22  C   UNL A   1      34.041  28.527  26.868  1.00  0.00     0.005 C 
ENDBRANCH  10  13
ENDBRANCH   8   9
ENDBRANCH   7   8
ENDBRANCH   6   7
ENDBRANCH   4   6
ENDBRANCH   3   4
ENDBRANCH   2   3
ENDBRANCH   1   2
BRANCH   1  23
ATOM     23  O   UNL A   1      40.624  21.358  26.815  1.00  0.00    -0.374 OA
BRANCH  23  24
ATOM     24  C   UNL A   1      41.179  20.136  27.292  1.00  0.00     0.202 C 
BRANCH  24  25
ATOM     25  C   UNL A   1      42.200  19.453  26.388  1.00  0.00     0.261 C 
BRANCH  25  26
ATOM     26  O   UNL A   1      42.686  20.359  25.408  1.00  0.00    -0.460 OA
BRANCH  26  27
ATOM     27  C   UNL A   1      44.035  20.362  25.231  1.00  0.00     0.338 C 
ATOM     28  O   UNL A   1      44.795  19.428  25.321  1.00  0.00    -0.246 OA
BRANCH  27  29
ATOM     29  C   UNL A   1      44.446  21.765  25.031  1.00  0.00     0.060 A 
ATOM     30  C   UNL A   1      45.547  22.187  25.768  1.00  0.00     0.016 A 
ATOM     31  C   UNL A   1      43.527  22.671  24.500  1.00  0.00     0.016 A 
ATOM     32  C   UNL A   1      45.483  23.443  26.324  1.00  0.00     0.010 A 
ATOM     33  C   UNL A   1      43.466  23.924  25.044  1.00  0.00     0.010 A 
ATOM     34  C   UNL A   1      44.348  24.216  26.072  1.00  0.00    -0.014 A 
BRANCH  34  35
ATOM     35  C   UNL A   1      44.080  25.372  26.890  1.00  0.00     0.031 A 
ATOM     36  C   UNL A   1      45.081  26.428  26.680  1.00  0.00     0.074 A 
ATOM     37  C   UNL A   1      42.970  25.487  27.644  1.00  0.00     0.049 A 
ATOM     38  N   UNL A   1      46.070  26.724  27.454  1.00  0.00    -0.248 NA
ATOM     39  C   UNL A   1      45.145  27.044  25.345  1.00  0.00     0.031 C 
ATOM     40  C   UNL A   1      41.784  24.626  27.696  1.00  0.00     0.029 A 
ATOM     41  N   UNL A   1      42.651  26.493  28.501  1.00  0.00    -0.354 N 
ATOM     42  C   UNL A   1      46.757  27.725  26.783  1.00  0.00     0.074 A 
ATOM     43  C   UNL A   1      46.320  27.666  25.415  1.00  0.00     0.031 C 
ATOM     44  C   UNL A   1      40.795  25.266  28.368  1.00  0.00     0.029 A 
ATOM     45  C   UNL A   1      41.317  26.511  28.901  1.00  0.00     0.049 A 
ATOM     46  H   UNL A   1      43.309  27.156  28.813  1.00  0.00     0.167 HD
ATOM     47  C   UNL A   1      47.370  28.725  27.470  1.00  0.00     0.037 A 
ATOM     48  C   UNL A   1      40.718  27.553  29.536  1.00  0.00     0.037 A 
ATOM     49  C   UNL A   1      47.548  28.361  28.855  1.00  0.00     0.049 A 
ATOM     50  C   UNL A   1      41.807  28.380  30.134  1.00  0.00     0.074 A 
ATOM     51  C   UNL A   1      48.229  27.357  29.515  1.00  0.00     0.029 A 
ATOM     52  N   UNL A   1      46.643  28.855  29.765  1.00  0.00    -0.354 N 
ATOM     53  N   UNL A   1      42.574  27.961  31.105  1.00  0.00    -0.248 NA
ATOM     54  C   UNL A   1      42.369  29.439  29.306  1.00  0.00     0.031 C 
ATOM     55  C   UNL A   1      47.384  26.985  30.603  1.00  0.00     0.029 A 
ATOM     56  C   UNL A   1      46.269  27.824  30.587  1.00  0.00     0.049 A 
ATOM     57  H   UNL A   1      46.320  29.784  29.816  1.00  0.00     0.167 HD
ATOM     58  C   UNL A   1      43.850  28.391  30.763  1.00  0.00     0.074 A 
ATOM     59  C   UNL A   1      43.653  29.336  29.665  1.00  0.00     0.031 C 
ATOM     60  C   UNL A   1      44.960  27.720  31.189  1.00  0.00     0.037 A 
BRANCH  47  61
ATOM     61  C   UNL A   1      47.405  30.160  26.999  1.00  0.00     0.064 A 
ATOM     62  C   UNL A   1      48.624  30.857  27.087  1.00  0.00     0.173 A 
ATOM     63  C   UNL A   1      46.266  30.964  26.757  1.00  0.00     0.173 A 
ATOM     64  F   UNL A   1      49.773  30.199  27.308  1.00  0.00    -0.203 F 
ATOM     65  C   UNL A   1      48.680  32.252  27.051  1.00  0.00     0.198 A 
ATOM     66  C   UNL A   1      46.334  32.350  26.668  1.00  0.00     0.198 A 
ATOM     67  F   UNL A   1      45.023  30.474  26.705  1.00  0.00    -0.203 F 
ATOM     68  F   UNL A   1      49.843  32.874  27.283  1.00  0.00    -0.200 F 
ATOM     69  C   UNL A   1      47.533  32.997  26.855  1.00  0.00     0.200 A 
ATOM     70  F   UNL A   1      45.205  33.051  26.487  1.00  0.00    -0.200 F 
ATOM     71  F   UNL A   1      47.571  34.335  26.895  1.00  0.00    -0.200 F 
ENDBRANCH  47  61
BRANCH  48  72
ATOM     72  C   UNL A   1      39.353  28.088  29.302  1.00  0.00     0.064 A 
ATOM     73  C   UNL A   1      38.438  28.256  30.355  1.00  0.00     0.173 A 
ATOM     74  C   UNL A   1      39.018  28.706  28.081  1.00  0.00     0.173 A 
ATOM     75  F   UNL A   1      38.706  27.749  31.567  1.00  0.00    -0.203 F 
ATOM     76  C   UNL A   1      37.265  29.007  30.197  1.00  0.00     0.198 A 
ATOM     77  C   UNL A   1      37.849  29.452  27.924  1.00  0.00     0.198 A 
ATOM     78  F   UNL A   1      39.864  28.678  27.043  1.00  0.00    -0.203 F 
ATOM     79  F   UNL A   1      36.440  29.190  31.238  1.00  0.00    -0.200 F 
ATOM     80  C   UNL A   1      36.976  29.611  28.985  1.00  0.00     0.200 A 
ATOM     81  F   UNL A   1      37.604  30.066  26.757  1.00  0.00    -0.200 F 
ATOM     82  F   UNL A   1      35.884  30.377  28.848  1.00  0.00    -0.200 F 
ENDBRANCH  48  72
BRANCH  60  83
ATOM     83  C   UNL A   1      44.769  26.633  32.211  1.00  0.00     0.064 A 
ATOM     84  C   UNL A   1      44.529  25.285  31.884  1.00  0.00     0.173 A 
ATOM     85  C   UNL A   1      44.993  26.938  33.559  1.00  0.00     0.173 A 
ATOM     86  F   UNL A   1      44.406  24.899  30.609  1.00  0.00    -0.203 F 
ATOM     87  C   UNL A   1      44.477  24.299  32.870  1.00  0.00     0.198 A 
ATOM     88  C   UNL A   1      44.976  25.947  34.536  1.00  0.00     0.198 A 
ATOM     89  F   UNL A   1      45.285  28.196  33.921  1.00  0.00    -0.203 F 
ATOM     90  F   UNL A   1      44.242  23.023  32.532  1.00  0.00    -0.200 F 
ATOM     91  C   UNL A   1      44.708  24.631  34.194  1.00  0.00     0.200 A 
ATOM     92  F   UNL A   1      45.251  26.265  35.809  1.00  0.00    -0.200 F 
ATOM     93  F   UNL A   1      44.703  23.678  35.138  1.00  0.00    -0.200 F 
ENDBRANCH  60  83
ENDBRANCH  34  35
ENDBRANCH  27  29
ENDBRANCH  26  27
ENDBRANCH  25  26
ENDBRANCH  24  25
ENDBRANCH  23  24
ENDBRANCH   1  23
TORSDOF 18
ENDMDL
MODEL 2
REMARK VINA RESULT:     -11.1      4.402     10.226
REMARK SMILES Cc1oc2c(c1C(=O)NCCCC(=O)OCCOCCOC(=O)c1ccc(-c3c4nc(c(-c5c(F)c(F)c(F)c(F)c5F)c5ccc([nH]5)c(-c5c(F)c(F)c(F)c(F)c5F)c5nc(c(-c6c(F)c(F)c(F)c(F)c6F)c6ccc3[nH]6)C=C5)C=C4)cc1)CCCC2
REMARK SMILES IDX 17 1 16 2 15 3 13 4 14 5 12 6 11 7 10 8 9 9 7 10 8 11 6 13
REMARK SMILES IDX 1 14 2 15 3 16 4 17 5 18 90 19 87 20 89 21 88 22 18 23 19 24
REMARK SMILES IDX 20 25 21 26 22 27 23 28 24 29 25 30 86 31 26 32 85 33 27 34
REMARK SMILES IDX 28 35 29 36 79 37 30 38 84 39 78 40 80 41 31 42 83 43 77 44
REMARK SMILES IDX 76 45 32 47 64 48 44 49 63 50 45 51 48 52 62 53 81 54 46 55
REMARK SMILES IDX 47 56 61 58 82 59 49 60 33 61 34 62 42 63 35 64 36 65 40 66
REMARK SMILES IDX 43 67 37 68 38 69 41 70 39 71 65 72 66 73 74 74 67 75 68 76
REMARK SMILES IDX 72 77 75 78 69 79 70 80 73 81 71 82 50 83 51 84 59 85 52 86
REMARK SMILES IDX 53 87 57 88 60 89 54 90 55 91 58 92 56 93
REMARK H PARENT 9 12 80 46 48 57
REMARK Flexibility Score: inf
ROOT
ATOM      1  C   UNL A   1      33.393  35.275  28.498  1.00  0.00     0.202 C 
ENDROOT
BRANCH   1   2
ATOM      2  C   UNL A   1      32.901  36.213  29.597  1.00  0.00     0.261 C 
BRANCH   2   3
ATOM      3  O   UNL A   1      32.885  35.528  30.862  1.00  0.00    -0.463 OA
BRANCH   3   4
ATOM      4  C   UNL A   1      33.024  36.288  31.974  1.00  0.00     0.305 C 
ATOM      5  O   UNL A   1      32.153  37.002  32.450  1.00  0.00    -0.252 OA
BRANCH   4   6
ATOM      6  C   UNL A   1      34.407  36.168  32.584  1.00  0.00     0.124 C 
BRANCH   6   7
ATOM      7  C   UNL A   1      34.499  35.681  34.037  1.00  0.00     0.033 C 
BRANCH   7   8
ATOM      8  C   UNL A   1      35.227  34.354  34.240  1.00  0.00     0.117 C 
BRANCH   8   9
ATOM      9  N   UNL A   1      34.872  33.399  33.234  1.00  0.00    -0.352 N 
ATOM     10  C   UNL A   1      35.578  32.503  32.489  1.00  0.00     0.255 C 
ATOM     11  O   UNL A   1      34.864  31.805  31.762  1.00  0.00    -0.269 OA
ATOM     12  H   UNL A   1      33.907  33.389  33.038  1.00  0.00     0.163 HD
BRANCH  10  13
ATOM     13  C   UNL A   1      37.029  32.280  32.538  1.00  0.00     0.084 A 
ATOM     14  C   UNL A   1      37.827  30.565  34.463  1.00  0.00     0.088 C 
ATOM     15  C   UNL A   1      37.893  31.490  33.308  1.00  0.00     0.114 A 
ATOM     16  O   UNL A   1      39.196  31.675  32.919  1.00  0.00    -0.465 OA
ATOM     17  C   UNL A   1      39.201  32.648  31.998  1.00  0.00     0.108 A 
ATOM     18  C   UNL A   1      37.928  33.064  31.717  1.00  0.00     0.007 A 
ATOM     19  C   UNL A   1      40.474  33.181  31.473  1.00  0.00     0.076 C 
ATOM     20  C   UNL A   1      37.668  34.205  30.787  1.00  0.00     0.040 C 
ATOM     21  C   UNL A   1      40.209  34.586  30.901  1.00  0.00     0.008 C 
ATOM     22  C   UNL A   1      38.943  34.617  30.021  1.00  0.00     0.005 C 
ENDBRANCH  10  13
ENDBRANCH   8   9
ENDBRANCH   7   8
ENDBRANCH   6   7
ENDBRANCH   4   6
ENDBRANCH   3   4
ENDBRANCH   2   3
ENDBRANCH   1   2
BRANCH   1  23
ATOM     23  O   UNL A   1      32.585  34.127  28.232  1.00  0.00    -0.374 OA
BRANCH  23  24
ATOM     24  C   UNL A   1      33.220  32.876  27.982  1.00  0.00     0.202 C 
BRANCH  24  25
ATOM     25  C   UNL A   1      34.705  32.787  28.320  1.00  0.00     0.261 C 
BRANCH  25  26
ATOM     26  O   UNL A   1      35.360  31.870  27.455  1.00  0.00    -0.460 OA
BRANCH  26  27
ATOM     27  C   UNL A   1      35.461  30.596  27.922  1.00  0.00     0.338 C 
ATOM     28  O   UNL A   1      34.773  29.646  27.636  1.00  0.00    -0.246 OA
BRANCH  27  29
ATOM     29  C   UNL A   1      36.503  30.595  28.966  1.00  0.00     0.060 A 
ATOM     30  C   UNL A   1      37.610  31.401  28.722  1.00  0.00     0.016 A 
ATOM     31  C   UNL A   1      36.553  29.534  29.873  1.00  0.00     0.016 A 
ATOM     32  C   UNL A   1      38.843  30.885  29.048  1.00  0.00     0.010 A 
ATOM     33  C   UNL A   1      37.777  29.025  30.205  1.00  0.00     0.010 A 
ATOM     34  C   UNL A   1      38.891  29.621  29.637  1.00  0.00    -0.014 A 
BRANCH  34  35
ATOM     35  C   UNL A   1      40.142  28.904  29.679  1.00  0.00     0.031 A 
ATOM     36  C   UNL A   1      40.648  28.779  31.053  1.00  0.00     0.074 A 
ATOM     37  C   UNL A   1      40.683  28.324  28.591  1.00  0.00     0.049 A 
ATOM     38  N   UNL A   1      41.594  29.469  31.596  1.00  0.00    -0.248 NA
ATOM     39  C   UNL A   1      39.846  27.989  32.000  1.00  0.00     0.031 C 
ATOM     40  C   UNL A   1      40.117  28.144  27.250  1.00  0.00     0.029 A 
ATOM     41  N   UNL A   1      41.882  27.688  28.500  1.00  0.00    -0.354 N 
ATOM     42  C   UNL A   1      41.638  29.032  32.913  1.00  0.00     0.074 A 
ATOM     43  C   UNL A   1      40.390  28.362  33.157  1.00  0.00     0.031 C 
ATOM     44  C   UNL A   1      40.877  27.259  26.558  1.00  0.00     0.029 A 
ATOM     45  C   UNL A   1      42.042  26.917  27.352  1.00  0.00     0.049 A 
ATOM     46  H   UNL A   1      42.579  27.766  29.191  1.00  0.00     0.167 HD
ATOM     47  C   UNL A   1      42.820  28.965  33.580  1.00  0.00     0.037 A 
ATOM     48  C   UNL A   1      43.032  26.004  27.171  1.00  0.00     0.037 A 
ATOM     49  C   UNL A   1      43.829  29.758  32.919  1.00  0.00     0.049 A 
ATOM     50  C   UNL A   1      44.116  26.342  28.140  1.00  0.00     0.074 A 
ATOM     51  C   UNL A   1      43.964  31.098  32.614  1.00  0.00     0.029 A 
ATOM     52  N   UNL A   1      44.726  29.102  32.109  1.00  0.00    -0.354 N 
ATOM     53  N   UNL A   1      44.829  27.435  28.064  1.00  0.00    -0.248 NA
ATOM     54  C   UNL A   1      44.041  25.735  29.462  1.00  0.00     0.031 C 
ATOM     55  C   UNL A   1      44.574  31.129  31.325  1.00  0.00     0.029 A 
ATOM     56  C   UNL A   1      44.837  29.813  30.942  1.00  0.00     0.049 A 
ATOM     57  H   UNL A   1      45.203  28.269  32.328  1.00  0.00     0.167 HD
ATOM     58  C   UNL A   1      44.939  27.879  29.376  1.00  0.00     0.074 A 
ATOM     59  C   UNL A   1      44.472  26.764  30.198  1.00  0.00     0.031 C 
ATOM     60  C   UNL A   1      45.110  29.204  29.662  1.00  0.00     0.037 A 
BRANCH  47  61
ATOM     61  C   UNL A   1      43.166  27.862  34.552  1.00  0.00     0.064 A 
ATOM     62  C   UNL A   1      43.430  28.214  35.889  1.00  0.00     0.173 A 
ATOM     63  C   UNL A   1      43.545  26.548  34.188  1.00  0.00     0.173 A 
ATOM     64  F   UNL A   1      43.109  29.433  36.350  1.00  0.00    -0.203 F 
ATOM     65  C   UNL A   1      44.119  27.362  36.754  1.00  0.00     0.198 A 
ATOM     66  C   UNL A   1      44.183  25.682  35.070  1.00  0.00     0.198 A 
ATOM     67  F   UNL A   1      43.424  26.070  32.946  1.00  0.00    -0.203 F 
ATOM     68  F   UNL A   1      44.472  27.797  37.970  1.00  0.00    -0.200 F 
ATOM     69  C   UNL A   1      44.506  26.102  36.340  1.00  0.00     0.200 A 
ATOM     70  F   UNL A   1      44.557  24.468  34.641  1.00  0.00    -0.200 F 
ATOM     71  F   UNL A   1      45.232  25.311  37.140  1.00  0.00    -0.200 F 
ENDBRANCH  47  61
BRANCH  48  72
ATOM     72  C   UNL A   1      42.919  24.663  26.543  1.00  0.00     0.064 A 
ATOM     73  C   UNL A   1      43.666  24.318  25.404  1.00  0.00     0.173 A 
ATOM     74  C   UNL A   1      42.284  23.600  27.216  1.00  0.00     0.173 A 
ATOM     75  F   UNL A   1      44.349  25.260  24.737  1.00  0.00    -0.203 F 
ATOM     76  C   UNL A   1      43.779  22.989  24.972  1.00  0.00     0.198 A 
ATOM     77  C   UNL A   1      42.395  22.277  26.785  1.00  0.00     0.198 A 
ATOM     78  F   UNL A   1      41.620  23.811  28.360  1.00  0.00    -0.203 F 
ATOM     79  F   UNL A   1      44.542  22.691  23.911  1.00  0.00    -0.200 F 
ATOM     80  C   UNL A   1      43.150  21.970  25.668  1.00  0.00     0.200 A 
ATOM     81  F   UNL A   1      41.815  21.297  27.492  1.00  0.00    -0.200 F 
ATOM     82  F   UNL A   1      43.303  20.693  25.291  1.00  0.00    -0.200 F 
ENDBRANCH  48  72
BRANCH  60  83
ATOM     83  C   UNL A   1      45.386  30.136  28.514  1.00  0.00     0.064 A 
ATOM     84  C   UNL A   1      44.381  30.782  27.771  1.00  0.00     0.173 A 
ATOM     85  C   UNL A   1      46.712  30.507  28.261  1.00  0.00     0.173 A 
ATOM     86  F   UNL A   1      43.086  30.555  28.024  1.00  0.00    -0.203 F 
ATOM     87  C   UNL A   1      44.696  31.726  26.794  1.00  0.00     0.198 A 
ATOM     88  C   UNL A   1      47.021  31.475  27.311  1.00  0.00     0.198 A 
ATOM     89  F   UNL A   1      47.707  29.967  28.981  1.00  0.00    -0.203 F 
ATOM     90  F   UNL A   1      43.719  32.324  26.097  1.00  0.00    -0.200 F 
ATOM     91  C   UNL A   1      46.017  32.077  26.571  1.00  0.00     0.200 A 
ATOM     92  F   UNL A   1      48.298  31.848  27.135  1.00  0.00    -0.200 F 
ATOM     93  F   UNL A   1      46.320  33.017  25.664  1.00  0.00    -0.200 F 
ENDBRANCH  60  83
ENDBRANCH  34  35
ENDBRANCH  27  29
ENDBRANCH  26  27
ENDBRANCH  25  26
ENDBRANCH  24  25
ENDBRANCH  23  24
ENDBRANCH   1  23
TORSDOF 18
ENDMDL
MODEL 3
REMARK VINA RESULT:     -11.1      1.609      2.806
REMARK SMILES Cc1oc2c(c1C(=O)NCCCC(=O)OCCOCCOC(=O)c1ccc(-c3c4nc(c(-c5c(F)c(F)c(F)c(F)c5F)c5ccc([nH]5)c(-c5c(F)c(F)c(F)c(F)c5F)c5nc(c(-c6c(F)c(F)c(F)c(F)c6F)c6ccc3[nH]6)C=C5)C=C4)cc1)CCCC2
REMARK SMILES IDX 17 1 16 2 15 3 13 4 14 5 12 6 11 7 10 8 9 9 7 10 8 11 6 13
REMARK SMILES IDX 1 14 2 15 3 16 4 17 5 18 90 19 87 20 89 21 88 22 18 23 19 24
REMARK SMILES IDX 20 25 21 26 22 27 23 28 24 29 25 30 86 31 26 32 85 33 27 34
REMARK SMILES IDX 28 35 29 36 79 37 30 38 84 39 78 40 80 41 31 42 83 43 77 44
REMARK SMILES IDX 76 45 32 47 64 48 44 49 63 50 45 51 48 52 62 53 81 54 46 55
REMARK SMILES IDX 47 56 61 58 82 59 49 60 33 61 34 62 42 63 35 64 36 65 40 66
REMARK SMILES IDX 43 67 37 68 38 69 41 70 39 71 65 72 66 73 74 74 67 75 68 76
REMARK SMILES IDX 72 77 75 78 69 79 70 80 73 81 71 82 50 83 51 84 59 85 52 86
REMARK SMILES IDX 53 87 57 88 60 89 54 90 55 91 58 92 56 93
REMARK H PARENT 9 12 80 46 48 57
REMARK Flexibility Score: inf
ROOT
ATOM      1  C   UNL A   1      39.216  22.072  26.132  1.00  0.00     0.202 C 
ENDROOT
BRANCH   1   2
ATOM      2  C   UNL A   1      37.868  21.945  25.426  1.00  0.00     0.261 C 
BRANCH   2   3
ATOM      3  O   UNL A   1      37.501  23.203  24.830  1.00  0.00    -0.463 OA
BRANCH   3   4
ATOM      4  C   UNL A   1      36.197  23.560  24.905  1.00  0.00     0.305 C 
ATOM      5  O   UNL A   1      35.714  24.272  25.774  1.00  0.00    -0.252 OA
BRANCH   4   6
ATOM      6  C   UNL A   1      35.373  22.970  23.778  1.00  0.00     0.124 C 
BRANCH   6   7
ATOM      7  C   UNL A   1      34.632  23.948  22.857  1.00  0.00     0.033 C 
BRANCH   7   8
ATOM      8  C   UNL A   1      33.571  23.323  21.953  1.00  0.00     0.117 C 
BRANCH   8   9
ATOM      9  N   UNL A   1      32.252  23.524  22.472  1.00  0.00    -0.352 N 
ATOM     10  C   UNL A   1      31.558  22.997  23.520  1.00  0.00     0.255 C 
ATOM     11  O   UNL A   1      30.440  23.502  23.666  1.00  0.00    -0.269 OA
ATOM     12  H   UNL A   1      31.735  24.188  21.961  1.00  0.00     0.163 HD
BRANCH  10  13
ATOM     13  C   UNL A   1      32.043  21.982  24.465  1.00  0.00     0.084 A 
ATOM     14  C   UNL A   1      32.747  22.959  26.880  1.00  0.00     0.088 C 
ATOM     15  C   UNL A   1      32.482  21.986  25.796  1.00  0.00     0.114 A 
ATOM     16  O   UNL A   1      32.831  20.720  26.195  1.00  0.00    -0.465 OA
ATOM     17  C   UNL A   1      32.736  19.925  25.120  1.00  0.00     0.108 A 
ATOM     18  C   UNL A   1      32.267  20.618  24.037  1.00  0.00     0.007 A 
ATOM     19  C   UNL A   1      33.177  18.517  25.186  1.00  0.00     0.076 C 
ATOM     20  C   UNL A   1      32.158  19.978  22.691  1.00  0.00     0.040 C 
ATOM     21  C   UNL A   1      33.472  18.038  23.752  1.00  0.00     0.008 C 
ATOM     22  C   UNL A   1      32.357  18.450  22.769  1.00  0.00     0.005 C 
ENDBRANCH  10  13
ENDBRANCH   8   9
ENDBRANCH   7   8
ENDBRANCH   6   7
ENDBRANCH   4   6
ENDBRANCH   3   4
ENDBRANCH   2   3
ENDBRANCH   1   2
BRANCH   1  23
ATOM     23  O   UNL A   1      40.046  20.909  26.132  1.00  0.00    -0.374 OA
BRANCH  23  24
ATOM     24  C   UNL A   1      41.084  20.800  27.103  1.00  0.00     0.202 C 
BRANCH  24  25
ATOM     25  C   UNL A   1      42.273  19.921  26.732  1.00  0.00     0.261 C 
BRANCH  25  26
ATOM     26  O   UNL A   1      42.723  20.217  25.417  1.00  0.00    -0.460 OA
BRANCH  26  27
ATOM     27  C   UNL A   1      44.072  20.199  25.244  1.00  0.00     0.338 C 
ATOM     28  O   UNL A   1      44.819  19.254  25.337  1.00  0.00    -0.246 OA
BRANCH  27  29
ATOM     29  C   UNL A   1      44.505  21.595  25.041  1.00  0.00     0.060 A 
ATOM     30  C   UNL A   1      45.604  22.006  25.789  1.00  0.00     0.016 A 
ATOM     31  C   UNL A   1      43.605  22.512  24.495  1.00  0.00     0.016 A 
ATOM     32  C   UNL A   1      45.551  23.266  26.337  1.00  0.00     0.010 A 
ATOM     33  C   UNL A   1      43.555  23.768  25.033  1.00  0.00     0.010 A 
ATOM     34  C   UNL A   1      44.429  24.052  26.069  1.00  0.00    -0.014 A 
BRANCH  34  35
ATOM     35  C   UNL A   1      44.168  25.217  26.879  1.00  0.00     0.031 A 
ATOM     36  C   UNL A   1      45.186  26.257  26.675  1.00  0.00     0.074 A 
ATOM     37  C   UNL A   1      43.051  25.351  27.619  1.00  0.00     0.049 A 
ATOM     38  N   UNL A   1      46.170  26.544  27.459  1.00  0.00    -0.248 NA
ATOM     39  C   UNL A   1      45.274  26.866  25.338  1.00  0.00     0.031 C 
ATOM     40  C   UNL A   1      41.852  24.507  27.661  1.00  0.00     0.029 A 
ATOM     41  N   UNL A   1      42.736  26.366  28.468  1.00  0.00    -0.354 N 
ATOM     42  C   UNL A   1      46.879  27.532  26.791  1.00  0.00     0.074 A 
ATOM     43  C   UNL A   1      46.457  27.472  25.418  1.00  0.00     0.031 C 
ATOM     44  C   UNL A   1      40.864  25.164  28.318  1.00  0.00     0.029 A 
ATOM     45  C   UNL A   1      41.398  26.404  28.851  1.00  0.00     0.049 A 
ATOM     46  H   UNL A   1      43.399  27.020  28.784  1.00  0.00     0.167 HD
ATOM     47  C   UNL A   1      47.498  28.526  27.480  1.00  0.00     0.037 A 
ATOM     48  C   UNL A   1      40.806  27.457  29.475  1.00  0.00     0.037 A 
ATOM     49  C   UNL A   1      47.654  28.167  28.870  1.00  0.00     0.049 A 
ATOM     50  C   UNL A   1      41.900  28.272  30.081  1.00  0.00     0.074 A 
ATOM     51  C   UNL A   1      48.313  27.157  29.542  1.00  0.00     0.029 A 
ATOM     52  N   UNL A   1      46.746  28.677  29.766  1.00  0.00    -0.354 N 
ATOM     53  N   UNL A   1      42.649  27.847  31.063  1.00  0.00    -0.248 NA
ATOM     54  C   UNL A   1      42.486  29.319  29.255  1.00  0.00     0.031 C 
ATOM     55  C   UNL A   1      47.451  26.801  30.622  1.00  0.00     0.029 A 
ATOM     56  C   UNL A   1      46.348  27.656  30.589  1.00  0.00     0.049 A 
ATOM     57  H   UNL A   1      46.436  29.611  29.810  1.00  0.00     0.167 HD
ATOM     58  C   UNL A   1      43.935  28.257  30.734  1.00  0.00     0.074 A 
ATOM     59  C   UNL A   1      43.764  29.200  29.630  1.00  0.00     0.031 C 
ATOM     60  C   UNL A   1      45.031  27.573  31.176  1.00  0.00     0.037 A 
BRANCH  47  61
ATOM     61  C   UNL A   1      47.558  29.958  27.003  1.00  0.00     0.064 A 
ATOM     62  C   UNL A   1      48.781  30.645  27.120  1.00  0.00     0.173 A 
ATOM     63  C   UNL A   1      46.433  30.771  26.727  1.00  0.00     0.173 A 
ATOM     64  F   UNL A   1      49.917  29.977  27.374  1.00  0.00    -0.203 F 
ATOM     65  C   UNL A   1      48.851  32.038  27.078  1.00  0.00     0.198 A 
ATOM     66  C   UNL A   1      46.516  32.156  26.632  1.00  0.00     0.198 A 
ATOM     67  F   UNL A   1      45.188  30.292  26.645  1.00  0.00    -0.203 F 
ATOM     68  F   UNL A   1      50.013  32.651  27.337  1.00  0.00    -0.200 F 
ATOM     69  C   UNL A   1      47.716  32.793  26.848  1.00  0.00     0.200 A 
ATOM     70  F   UNL A   1      45.399  32.866  26.418  1.00  0.00    -0.200 F 
ATOM     71  F   UNL A   1      47.765  34.131  26.882  1.00  0.00    -0.200 F 
ENDBRANCH  47  61
BRANCH  48  72
ATOM     72  C   UNL A   1      39.452  28.010  29.222  1.00  0.00     0.064 A 
ATOM     73  C   UNL A   1      38.517  28.169  30.258  1.00  0.00     0.173 A 
ATOM     74  C   UNL A   1      39.148  28.653  28.005  1.00  0.00     0.173 A 
ATOM     75  F   UNL A   1      38.754  27.638  31.467  1.00  0.00    -0.203 F 
ATOM     76  C   UNL A   1      37.354  28.935  30.090  1.00  0.00     0.198 A 
ATOM     77  C   UNL A   1      37.989  29.413  27.838  1.00  0.00     0.198 A 
ATOM     78  F   UNL A   1      40.014  28.634  26.984  1.00  0.00    -0.203 F 
ATOM     79  F   UNL A   1      36.510  29.107  31.117  1.00  0.00    -0.200 F 
ATOM     80  C   UNL A   1      37.097  29.562  28.883  1.00  0.00     0.200 A 
ATOM     81  F   UNL A   1      37.775  30.049  26.677  1.00  0.00    -0.200 F 
ATOM     82  F   UNL A   1      36.016  30.341  28.738  1.00  0.00    -0.200 F 
ENDBRANCH  48  72
BRANCH  60  83
ATOM     83  C   UNL A   1      44.813  26.494  32.201  1.00  0.00     0.064 A 
ATOM     84  C   UNL A   1      44.544  25.151  31.878  1.00  0.00     0.173 A 
ATOM     85  C   UNL A   1      45.040  26.798  33.548  1.00  0.00     0.173 A 
ATOM     86  F   UNL A   1      44.415  24.764  30.604  1.00  0.00    -0.203 F 
ATOM     87  C   UNL A   1      44.467  24.170  32.866  1.00  0.00     0.198 A 
ATOM     88  C   UNL A   1      44.998  25.811  34.528  1.00  0.00     0.198 A 
ATOM     89  F   UNL A   1      45.360  28.051  33.907  1.00  0.00    -0.203 F 
ATOM     90  F   UNL A   1      44.204  22.898  32.532  1.00  0.00    -0.200 F 
ATOM     91  C   UNL A   1      44.702  24.500  34.190  1.00  0.00     0.200 A 
ATOM     92  F   UNL A   1      45.277  26.127  35.801  1.00  0.00    -0.200 F 
ATOM     93  F   UNL A   1      44.673  23.551  35.137  1.00  0.00    -0.200 F 
ENDBRANCH  60  83
ENDBRANCH  34  35
ENDBRANCH  27  29
ENDBRANCH  26  27
ENDBRANCH  25  26
ENDBRANCH  24  25
ENDBRANCH  23  24
ENDBRANCH   1  23
TORSDOF 18
ENDMDL
