MODEL 1
REMARK VINA RESULT:     -11.8      0.000      0.000
REMARK SMILES COc1cccc(C[N@@H+]2C[C@H](C(=O)OCCOCCOC(=O)c3ccc(-c4c5nc(c(-c6c(F)c(F)c(F)c(F)c6F)c6ccc([nH]6)c(-c6c(F)c(F)c(F)c(F)c6F)c6nc(c(-c7c(F)c(F)c(F)c(F)c7F)c7ccc4[nH]7)C=C6)C=C5)cc3)C3(CC[NH+](C)CC3)C2)c1
REMARK SMILES IDX 16 1 15 2 14 3 12 4 13 5 11 6 9 7 10 8 93 9 86 11 87 12
REMARK SMILES IDX 92 13 88 14 91 15 89 16 90 17 8 19 7 20 3 21 4 22 94 23 5 24
REMARK SMILES IDX 6 25 2 26 1 27 17 28 18 29 19 30 20 31 21 32 22 33 23 34
REMARK SMILES IDX 24 35 85 36 25 37 84 38 26 39 27 40 28 41 78 42 29 43 83 44
REMARK SMILES IDX 77 45 79 46 30 47 82 48 76 49 75 50 31 52 63 53 43 54 62 55
REMARK SMILES IDX 44 56 47 57 61 58 80 59 45 60 46 61 60 63 81 64 48 65 32 66
REMARK SMILES IDX 33 67 41 68 34 69 35 70 39 71 42 72 36 73 37 74 40 75 38 76
REMARK SMILES IDX 64 77 65 78 73 79 66 80 67 81 71 82 74 83 68 84 69 85 72 86
REMARK SMILES IDX 70 87 49 88 50 89 58 90 51 91 52 92 56 93 59 94 53 95 54 96
REMARK SMILES IDX 57 97 55 98
REMARK H PARENT 9 10 89 18 79 51 47 62
REMARK Flexibility Score: inf
ROOT
ATOM      1  C   UNL A   1      36.987  22.412  25.518  1.00  0.00     0.202 C 
ENDROOT
BRANCH   1   2
ATOM      2  C   UNL A   1      36.282  23.359  24.547  1.00  0.00     0.261 C 
BRANCH   2   3
ATOM      3  O   UNL A   1      35.564  22.607  23.548  1.00  0.00    -0.463 OA
BRANCH   3   4
ATOM      4  C   UNL A   1      34.348  23.115  23.237  1.00  0.00     0.315 C 
ATOM      5  O   UNL A   1      33.970  23.338  22.092  1.00  0.00    -0.252 OA
BRANCH   4   6
ATOM      6  C   UNL A   1      33.479  23.374  24.443  1.00  0.00     0.166 C 
ATOM      7  N   UNL A   1      31.776  24.456  25.532  1.00  0.00    -0.330 N 
ATOM      8  C   UNL A   1      32.479  24.509  24.259  1.00  0.00     0.278 C 
ATOM      9  C   UNL A   1      31.644  23.060  25.946  1.00  0.00     0.271 C 
ATOM     10  H   UNL A   1      32.366  24.931  26.216  1.00  0.00     0.348 HD
ATOM     11  C   UNL A   1      32.624  22.235  25.052  1.00  0.00     0.049 C 
ATOM     12  C   UNL A   1      33.467  21.282  25.919  1.00  0.00     0.075 C 
ATOM     13  C   UNL A   1      31.784  21.406  24.041  1.00  0.00     0.075 C 
ATOM     14  C   UNL A   1      34.215  20.234  25.094  1.00  0.00     0.262 C 
ATOM     15  C   UNL A   1      32.530  20.256  23.353  1.00  0.00     0.262 C 
ATOM     16  N   UNL A   1      33.339  19.424  24.244  1.00  0.00    -0.337 N 
ATOM     17  C   UNL A   1      32.533  18.479  25.011  1.00  0.00     0.332 C 
ATOM     18  H   UNL A   1      33.945  18.857  23.650  1.00  0.00     0.347 HD
BRANCH   7  19
ATOM     19  C   UNL A   1      30.621  25.326  25.718  1.00  0.00     0.299 C 
BRANCH  19  20
ATOM     20  C   UNL A   1      30.716  26.712  25.119  1.00  0.00     0.010 A 
ATOM     21  C   UNL A   1      30.214  28.287  23.341  1.00  0.00     0.119 A 
ATOM     22  C   UNL A   1      30.999  29.258  23.953  1.00  0.00     0.046 A 
ATOM     23  C   UNL A   1      30.079  27.018  23.907  1.00  0.00     0.056 A 
ATOM     24  C   UNL A   1      31.598  28.981  25.178  1.00  0.00     0.004 A 
ATOM     25  C   UNL A   1      31.449  27.719  25.762  1.00  0.00     0.010 A 
BRANCH  21  26
ATOM     26  O   UNL A   1      29.633  28.589  22.140  1.00  0.00    -0.497 OA
ATOM     27  C   UNL A   1      29.528  30.004  21.982  1.00  0.00     0.278 C 
ENDBRANCH  21  26
ENDBRANCH  19  20
ENDBRANCH   7  19
ENDBRANCH   4   6
ENDBRANCH   3   4
ENDBRANCH   2   3
ENDBRANCH   1   2
BRANCH   1  28
ATOM     28  O   UNL A   1      38.026  21.613  24.942  1.00  0.00    -0.374 OA
BRANCH  28  29
ATOM     29  C   UNL A   1      37.918  20.203  25.107  1.00  0.00     0.202 C 
BRANCH  29  30
ATOM     30  C   UNL A   1      39.150  19.507  25.690  1.00  0.00     0.261 C 
BRANCH  30  31
ATOM     31  O   UNL A   1      40.322  20.334  25.747  1.00  0.00    -0.460 OA
BRANCH  31  32
ATOM     32  C   UNL A   1      40.866  20.440  26.984  1.00  0.00     0.338 C 
ATOM     33  O   UNL A   1      41.271  19.541  27.702  1.00  0.00    -0.246 OA
BRANCH  32  34
ATOM     34  C   UNL A   1      40.986  21.849  27.385  1.00  0.00     0.060 A 
ATOM     35  C   UNL A   1      40.479  22.829  26.525  1.00  0.00     0.016 A 
ATOM     36  C   UNL A   1      41.765  22.205  28.489  1.00  0.00     0.016 A 
ATOM     37  C   UNL A   1      40.788  24.172  26.743  1.00  0.00     0.010 A 
ATOM     38  C   UNL A   1      42.071  23.554  28.707  1.00  0.00     0.010 A 
ATOM     39  C   UNL A   1      41.615  24.542  27.816  1.00  0.00    -0.014 A 
BRANCH  39  40
ATOM     40  C   UNL A   1      42.078  25.948  27.942  1.00  0.00     0.031 A 
ATOM     41  C   UNL A   1      43.406  26.357  27.362  1.00  0.00     0.074 A 
ATOM     42  C   UNL A   1      41.309  26.862  28.561  1.00  0.00     0.049 A 
ATOM     43  N   UNL A   1      43.990  27.530  27.372  1.00  0.00    -0.248 NA
ATOM     44  C   UNL A   1      44.180  25.306  26.684  1.00  0.00     0.031 C 
ATOM     45  C   UNL A   1      40.001  26.598  29.157  1.00  0.00     0.029 A 
ATOM     46  N   UNL A   1      41.526  28.197  28.799  1.00  0.00    -0.354 N 
ATOM     47  C   UNL A   1      45.199  27.357  26.710  1.00  0.00     0.074 A 
ATOM     48  C   UNL A   1      45.277  25.962  26.332  1.00  0.00     0.031 C 
ATOM     49  C   UNL A   1      39.535  27.733  29.704  1.00  0.00     0.029 A 
ATOM     50  C   UNL A   1      40.521  28.796  29.518  1.00  0.00     0.049 A 
ATOM     51  H   UNL A   1      42.326  28.678  28.485  1.00  0.00     0.167 HD
ATOM     52  C   UNL A   1      46.153  28.280  26.436  1.00  0.00     0.037 A 
ATOM     53  C   UNL A   1      40.418  30.054  29.988  1.00  0.00     0.037 A 
ATOM     54  C   UNL A   1      46.072  29.672  26.796  1.00  0.00     0.049 A 
ATOM     55  C   UNL A   1      41.511  31.050  29.704  1.00  0.00     0.074 A 
ATOM     56  C   UNL A   1      46.959  30.693  26.501  1.00  0.00     0.029 A 
ATOM     57  N   UNL A   1      45.048  30.236  27.540  1.00  0.00    -0.354 N 
ATOM     58  N   UNL A   1      42.620  30.891  29.023  1.00  0.00    -0.248 NA
ATOM     59  C   UNL A   1      41.338  32.403  30.254  1.00  0.00     0.031 C 
ATOM     60  C   UNL A   1      46.498  31.865  27.108  1.00  0.00     0.029 A 
ATOM     61  C   UNL A   1      45.301  31.584  27.745  1.00  0.00     0.049 A 
ATOM     62  H   UNL A   1      44.259  29.752  27.875  1.00  0.00     0.167 HD
ATOM     63  C   UNL A   1      43.262  32.122  29.045  1.00  0.00     0.074 A 
ATOM     64  C   UNL A   1      42.414  33.025  29.795  1.00  0.00     0.031 C 
ATOM     65  C   UNL A   1      44.451  32.472  28.494  1.00  0.00     0.037 A 
BRANCH  52  66
ATOM     66  C   UNL A   1      47.386  27.818  25.718  1.00  0.00     0.064 A 
ATOM     67  C   UNL A   1      47.466  27.820  24.318  1.00  0.00     0.173 A 
ATOM     68  C   UNL A   1      48.524  27.432  26.442  1.00  0.00     0.173 A 
ATOM     69  F   UNL A   1      46.403  28.175  23.582  1.00  0.00    -0.203 F 
ATOM     70  C   UNL A   1      48.637  27.435  23.669  1.00  0.00     0.198 A 
ATOM     71  C   UNL A   1      49.699  27.070  25.791  1.00  0.00     0.198 A 
ATOM     72  F   UNL A   1      48.500  27.421  27.784  1.00  0.00    -0.203 F 
ATOM     73  F   UNL A   1      48.683  27.417  22.330  1.00  0.00    -0.200 F 
ATOM     74  C   UNL A   1      49.754  27.068  24.405  1.00  0.00     0.200 A 
ATOM     75  F   UNL A   1      50.782  26.726  26.503  1.00  0.00    -0.200 F 
ATOM     76  F   UNL A   1      50.883  26.710  23.778  1.00  0.00    -0.200 F 
ENDBRANCH  52  66
BRANCH  53  77
ATOM     77  C   UNL A   1      39.236  30.443  30.798  1.00  0.00     0.064 A 
ATOM     78  C   UNL A   1      38.086  30.972  30.195  1.00  0.00     0.173 A 
ATOM     79  C   UNL A   1      39.240  30.310  32.194  1.00  0.00     0.173 A 
ATOM     80  F   UNL A   1      38.046  31.144  28.866  1.00  0.00    -0.203 F 
ATOM     81  C   UNL A   1      36.992  31.369  30.962  1.00  0.00     0.198 A 
ATOM     82  C   UNL A   1      38.137  30.684  32.956  1.00  0.00     0.198 A 
ATOM     83  F   UNL A   1      40.320  29.815  32.818  1.00  0.00    -0.203 F 
ATOM     84  F   UNL A   1      35.923  31.916  30.366  1.00  0.00    -0.200 F 
ATOM     85  C   UNL A   1      37.016  31.220  32.340  1.00  0.00     0.200 A 
ATOM     86  F   UNL A   1      38.162  30.532  34.287  1.00  0.00    -0.200 F 
ATOM     87  F   UNL A   1      35.964  31.604  33.076  1.00  0.00    -0.200 F 
ENDBRANCH  53  77
BRANCH  65  88
ATOM     88  C   UNL A   1      44.899  33.893  28.667  1.00  0.00     0.064 A 
ATOM     89  C   UNL A   1      45.701  34.280  29.750  1.00  0.00     0.173 A 
ATOM     90  C   UNL A   1      44.562  34.869  27.716  1.00  0.00     0.173 A 
ATOM     91  F   UNL A   1      46.039  33.387  30.693  1.00  0.00    -0.203 F 
ATOM     92  C   UNL A   1      46.134  35.596  29.886  1.00  0.00     0.198 A 
ATOM     93  C   UNL A   1      45.016  36.179  27.842  1.00  0.00     0.198 A 
ATOM     94  F   UNL A   1      43.801  34.548  26.660  1.00  0.00    -0.203 F 
ATOM     95  F   UNL A   1      46.868  35.953  30.949  1.00  0.00    -0.200 F 
ATOM     96  C   UNL A   1      45.796  36.543  28.929  1.00  0.00     0.200 A 
ATOM     97  F   UNL A   1      44.698  37.090  26.912  1.00  0.00    -0.200 F 
ATOM     98  F   UNL A   1      46.219  37.808  29.059  1.00  0.00    -0.200 F 
ENDBRANCH  65  88
ENDBRANCH  39  40
ENDBRANCH  32  34
ENDBRANCH  31  32
ENDBRANCH  30  31
ENDBRANCH  29  30
ENDBRANCH  28  29
ENDBRANCH   1  28
TORSDOF 17
ENDMDL
MODEL 2
REMARK VINA RESULT:     -11.7      4.514     10.539
REMARK SMILES COc1cccc(C[N@@H+]2C[C@H](C(=O)OCCOCCOC(=O)c3ccc(-c4c5nc(c(-c6c(F)c(F)c(F)c(F)c6F)c6ccc([nH]6)c(-c6c(F)c(F)c(F)c(F)c6F)c6nc(c(-c7c(F)c(F)c(F)c(F)c7F)c7ccc4[nH]7)C=C6)C=C5)cc3)C3(CC[NH+](C)CC3)C2)c1
REMARK SMILES IDX 16 1 15 2 14 3 12 4 13 5 11 6 9 7 10 8 93 9 86 11 87 12
REMARK SMILES IDX 92 13 88 14 91 15 89 16 90 17 8 19 7 20 3 21 4 22 94 23 5 24
REMARK SMILES IDX 6 25 2 26 1 27 17 28 18 29 19 30 20 31 21 32 22 33 23 34
REMARK SMILES IDX 24 35 85 36 25 37 84 38 26 39 27 40 28 41 78 42 29 43 83 44
REMARK SMILES IDX 77 45 79 46 30 47 82 48 76 49 75 50 31 52 63 53 43 54 62 55
REMARK SMILES IDX 44 56 47 57 61 58 80 59 45 60 46 61 60 63 81 64 48 65 32 66
REMARK SMILES IDX 33 67 41 68 34 69 35 70 39 71 42 72 36 73 37 74 40 75 38 76
REMARK SMILES IDX 64 77 65 78 73 79 66 80 67 81 71 82 74 83 68 84 69 85 72 86
REMARK SMILES IDX 70 87 49 88 50 89 58 90 51 91 52 92 56 93 59 94 53 95 54 96
REMARK SMILES IDX 57 97 55 98
REMARK H PARENT 9 10 89 18 79 51 47 62
REMARK Flexibility Score: inf
ROOT
ATOM      1  C   UNL A   1      32.980  30.253  27.116  1.00  0.00     0.202 C 
ENDROOT
BRANCH   1   2
ATOM      2  C   UNL A   1      33.099  28.729  27.160  1.00  0.00     0.261 C 
BRANCH   2   3
ATOM      3  O   UNL A   1      31.802  28.132  27.358  1.00  0.00    -0.463 OA
BRANCH   3   4
ATOM      4  C   UNL A   1      31.575  27.032  26.602  1.00  0.00     0.315 C 
ATOM      5  O   UNL A   1      30.614  26.284  26.750  1.00  0.00    -0.252 OA
BRANCH   4   6
ATOM      6  C   UNL A   1      32.618  26.812  25.533  1.00  0.00     0.166 C 
ATOM      7  N   UNL A   1      34.088  25.499  24.362  1.00  0.00    -0.330 N 
ATOM      8  C   UNL A   1      33.197  25.403  25.509  1.00  0.00     0.278 C 
ATOM      9  C   UNL A   1      33.467  26.347  23.346  1.00  0.00     0.271 C 
ATOM     10  H   UNL A   1      34.936  25.967  24.685  1.00  0.00     0.348 HD
ATOM     11  C   UNL A   1      32.287  27.092  24.047  1.00  0.00     0.049 C 
ATOM     12  C   UNL A   1      32.334  28.596  23.720  1.00  0.00     0.075 C 
ATOM     13  C   UNL A   1      30.951  26.492  23.526  1.00  0.00     0.075 C 
ATOM     14  C   UNL A   1      31.048  29.328  24.109  1.00  0.00     0.262 C 
ATOM     15  C   UNL A   1      29.700  27.339  23.794  1.00  0.00     0.262 C 
ATOM     16  N   UNL A   1      29.844  28.764  23.494  1.00  0.00    -0.337 N 
ATOM     17  C   UNL A   1      29.762  29.045  22.064  1.00  0.00     0.332 C 
ATOM     18  H   UNL A   1      29.046  29.238  23.919  1.00  0.00     0.347 HD
BRANCH   7  19
ATOM     19  C   UNL A   1      34.763  24.289  23.910  1.00  0.00     0.299 C 
BRANCH  19  20
ATOM     20  C   UNL A   1      33.909  23.045  23.787  1.00  0.00     0.010 A 
ATOM     21  C   UNL A   1      33.340  20.792  24.490  1.00  0.00     0.119 A 
ATOM     22  C   UNL A   1      32.396  20.693  23.474  1.00  0.00     0.046 A 
ATOM     23  C   UNL A   1      34.103  21.951  24.643  1.00  0.00     0.056 A 
ATOM     24  C   UNL A   1      32.162  21.788  22.647  1.00  0.00     0.004 A 
ATOM     25  C   UNL A   1      32.907  22.961  22.810  1.00  0.00     0.010 A 
BRANCH  21  26
ATOM     26  O   UNL A   1      33.545  19.702  25.290  1.00  0.00    -0.497 OA
ATOM     27  C   UNL A   1      34.375  18.748  24.625  1.00  0.00     0.278 C 
ENDBRANCH  21  26
ENDBRANCH  19  20
ENDBRANCH   7  19
ENDBRANCH   4   6
ENDBRANCH   3   4
ENDBRANCH   2   3
ENDBRANCH   1   2
BRANCH   1  28
ATOM     28  O   UNL A   1      31.646  30.761  27.225  1.00  0.00    -0.374 OA
BRANCH  28  29
ATOM     29  C   UNL A   1      31.406  32.055  26.683  1.00  0.00     0.202 C 
BRANCH  29  30
ATOM     30  C   UNL A   1      32.537  33.070  26.862  1.00  0.00     0.261 C 
BRANCH  30  31
ATOM     31  O   UNL A   1      32.445  33.848  28.064  1.00  0.00    -0.460 OA
BRANCH  31  32
ATOM     32  C   UNL A   1      33.578  34.523  28.376  1.00  0.00     0.338 C 
ATOM     33  O   UNL A   1      33.731  35.730  28.461  1.00  0.00    -0.246 OA
BRANCH  32  34
ATOM     34  C   UNL A   1      34.675  33.592  28.684  1.00  0.00     0.060 A 
ATOM     35  C   UNL A   1      34.398  32.489  29.498  1.00  0.00     0.016 A 
ATOM     36  C   UNL A   1      35.990  33.915  28.344  1.00  0.00     0.016 A 
ATOM     37  C   UNL A   1      35.447  31.726  30.013  1.00  0.00     0.010 A 
ATOM     38  C   UNL A   1      37.041  33.147  28.861  1.00  0.00     0.010 A 
ATOM     39  C   UNL A   1      36.778  32.070  29.727  1.00  0.00    -0.014 A 
BRANCH  39  40
ATOM     40  C   UNL A   1      37.889  31.362  30.414  1.00  0.00     0.031 A 
ATOM     41  C   UNL A   1      38.220  31.693  31.845  1.00  0.00     0.074 A 
ATOM     42  C   UNL A   1      38.593  30.415  29.767  1.00  0.00     0.049 A 
ATOM     43  N   UNL A   1      39.153  31.193  32.619  1.00  0.00    -0.248 NA
ATOM     44  C   UNL A   1      37.394  32.725  32.491  1.00  0.00     0.031 C 
ATOM     45  C   UNL A   1      38.367  29.995  28.386  1.00  0.00     0.029 A 
ATOM     46  N   UNL A   1      39.648  29.644  30.188  1.00  0.00    -0.354 N 
ATOM     47  C   UNL A   1      39.031  31.852  33.835  1.00  0.00     0.074 A 
ATOM     48  C   UNL A   1      37.950  32.804  33.692  1.00  0.00     0.031 C 
ATOM     49  C   UNL A   1      39.266  29.049  28.067  1.00  0.00     0.029 A 
ATOM     50  C   UNL A   1      40.144  28.814  29.212  1.00  0.00     0.049 A 
ATOM     51  H   UNL A   1      40.014  29.682  31.101  1.00  0.00     0.167 HD
ATOM     52  C   UNL A   1      39.749  31.674  34.970  1.00  0.00     0.037 A 
ATOM     53  C   UNL A   1      41.197  27.976  29.236  1.00  0.00     0.037 A 
ATOM     54  C   UNL A   1      40.814  30.716  35.122  1.00  0.00     0.049 A 
ATOM     55  C   UNL A   1      42.005  27.825  30.498  1.00  0.00     0.074 A 
ATOM     56  C   UNL A   1      41.553  30.419  36.255  1.00  0.00     0.029 A 
ATOM     57  N   UNL A   1      41.300  29.909  34.106  1.00  0.00    -0.354 N 
ATOM     58  N   UNL A   1      41.840  28.407  31.661  1.00  0.00    -0.248 NA
ATOM     59  C   UNL A   1      43.146  26.899  30.451  1.00  0.00     0.031 C 
ATOM     60  C   UNL A   1      42.518  29.467  35.912  1.00  0.00     0.029 A 
ATOM     61  C   UNL A   1      42.353  29.139  34.577  1.00  0.00     0.049 A 
ATOM     62  H   UNL A   1      40.951  29.885  33.186  1.00  0.00     0.167 HD
ATOM     63  C   UNL A   1      42.838  27.904  32.485  1.00  0.00     0.074 A 
ATOM     64  C   UNL A   1      43.597  26.958  31.696  1.00  0.00     0.031 C 
ATOM     65  C   UNL A   1      43.103  28.202  33.781  1.00  0.00     0.037 A 
BRANCH  52  66
ATOM     66  C   UNL A   1      39.421  32.541  36.148  1.00  0.00     0.064 A 
ATOM     67  C   UNL A   1      38.470  32.156  37.104  1.00  0.00     0.173 A 
ATOM     68  C   UNL A   1      40.116  33.742  36.358  1.00  0.00     0.173 A 
ATOM     69  F   UNL A   1      37.776  31.019  36.945  1.00  0.00    -0.203 F 
ATOM     70  C   UNL A   1      38.215  32.951  38.219  1.00  0.00     0.198 A 
ATOM     71  C   UNL A   1      39.874  34.523  37.484  1.00  0.00     0.198 A 
ATOM     72  F   UNL A   1      41.041  34.151  35.476  1.00  0.00    -0.203 F 
ATOM     73  F   UNL A   1      37.281  32.578  39.106  1.00  0.00    -0.200 F 
ATOM     74  C   UNL A   1      38.921  34.129  38.412  1.00  0.00     0.200 A 
ATOM     75  F   UNL A   1      40.565  35.655  37.676  1.00  0.00    -0.200 F 
ATOM     76  F   UNL A   1      38.682  34.886  39.492  1.00  0.00    -0.200 F 
ENDBRANCH  52  66
BRANCH  53  77
ATOM     77  C   UNL A   1      41.565  27.220  28.011  1.00  0.00     0.064 A 
ATOM     78  C   UNL A   1      41.080  25.924  27.786  1.00  0.00     0.173 A 
ATOM     79  C   UNL A   1      42.424  27.773  27.051  1.00  0.00     0.173 A 
ATOM     80  F   UNL A   1      40.278  25.343  28.690  1.00  0.00    -0.203 F 
ATOM     81  C   UNL A   1      41.455  25.204  26.653  1.00  0.00     0.198 A 
ATOM     82  C   UNL A   1      42.778  27.063  25.907  1.00  0.00     0.198 A 
ATOM     83  F   UNL A   1      42.919  29.008  27.225  1.00  0.00    -0.203 F 
ATOM     84  F   UNL A   1      41.016  23.950  26.484  1.00  0.00    -0.200 F 
ATOM     85  C   UNL A   1      42.299  25.776  25.713  1.00  0.00     0.200 A 
ATOM     86  F   UNL A   1      43.588  27.621  24.998  1.00  0.00    -0.200 F 
ATOM     87  F   UNL A   1      42.660  25.082  24.625  1.00  0.00    -0.200 F 
ENDBRANCH  53  77
BRANCH  65  88
ATOM     88  C   UNL A   1      44.250  27.489  34.433  1.00  0.00     0.064 A 
ATOM     89  C   UNL A   1      44.084  26.230  35.029  1.00  0.00     0.173 A 
ATOM     90  C   UNL A   1      45.537  28.048  34.422  1.00  0.00     0.173 A 
ATOM     91  F   UNL A   1      42.871  25.660  35.078  1.00  0.00    -0.203 F 
ATOM     92  C   UNL A   1      45.162  25.566  35.608  1.00  0.00     0.198 A 
ATOM     93  C   UNL A   1      46.617  27.370  34.980  1.00  0.00     0.198 A 
ATOM     94  F   UNL A   1      45.748  29.247  33.860  1.00  0.00    -0.203 F 
ATOM     95  F   UNL A   1      44.975  24.381  36.206  1.00  0.00    -0.200 F 
ATOM     96  C   UNL A   1      46.429  26.133  35.577  1.00  0.00     0.200 A 
ATOM     97  F   UNL A   1      47.842  27.914  34.940  1.00  0.00    -0.200 F 
ATOM     98  F   UNL A   1      47.466  25.488  36.129  1.00  0.00    -0.200 F 
ENDBRANCH  65  88
ENDBRANCH  39  40
ENDBRANCH  32  34
ENDBRANCH  31  32
ENDBRANCH  30  31
ENDBRANCH  29  30
ENDBRANCH  28  29
ENDBRANCH   1  28
TORSDOF 17
ENDMDL
MODEL 3
REMARK VINA RESULT:     -11.7      5.104     10.271
REMARK SMILES COc1cccc(C[N@@H+]2C[C@H](C(=O)OCCOCCOC(=O)c3ccc(-c4c5nc(c(-c6c(F)c(F)c(F)c(F)c6F)c6ccc([nH]6)c(-c6c(F)c(F)c(F)c(F)c6F)c6nc(c(-c7c(F)c(F)c(F)c(F)c7F)c7ccc4[nH]7)C=C6)C=C5)cc3)C3(CC[NH+](C)CC3)C2)c1
REMARK SMILES IDX 16 1 15 2 14 3 12 4 13 5 11 6 9 7 10 8 93 9 86 11 87 12
REMARK SMILES IDX 92 13 88 14 91 15 89 16 90 17 8 19 7 20 3 21 4 22 94 23 5 24
REMARK SMILES IDX 6 25 2 26 1 27 17 28 18 29 19 30 20 31 21 32 22 33 23 34
REMARK SMILES IDX 24 35 85 36 25 37 84 38 26 39 27 40 28 41 78 42 29 43 83 44
REMARK SMILES IDX 77 45 79 46 30 47 82 48 76 49 75 50 31 52 63 53 43 54 62 55
REMARK SMILES IDX 44 56 47 57 61 58 80 59 45 60 46 61 60 63 81 64 48 65 32 66
REMARK SMILES IDX 33 67 41 68 34 69 35 70 39 71 42 72 36 73 37 74 40 75 38 76
REMARK SMILES IDX 64 77 65 78 73 79 66 80 67 81 71 82 74 83 68 84 69 85 72 86
REMARK SMILES IDX 70 87 49 88 50 89 58 90 51 91 52 92 56 93 59 94 53 95 54 96
REMARK SMILES IDX 57 97 55 98
REMARK H PARENT 9 10 89 18 79 51 47 62
REMARK Flexibility Score: inf
ROOT
ATOM      1  C   UNL A   1      33.482  30.069  26.597  1.00  0.00     0.202 C 
ENDROOT
BRANCH   1   2
ATOM      2  C   UNL A   1      33.391  28.599  26.185  1.00  0.00     0.261 C 
BRANCH   2   3
ATOM      3  O   UNL A   1      33.960  28.411  24.875  1.00  0.00    -0.463 OA
BRANCH   3   4
ATOM      4  C   UNL A   1      33.130  28.736  23.855  1.00  0.00     0.315 C 
ATOM      5  O   UNL A   1      33.474  29.376  22.867  1.00  0.00    -0.252 OA
BRANCH   4   6
ATOM      6  C   UNL A   1      31.723  28.221  24.039  1.00  0.00     0.166 C 
ATOM      7  N   UNL A   1      29.451  28.363  23.769  1.00  0.00    -0.330 N 
ATOM      8  C   UNL A   1      30.643  29.157  23.511  1.00  0.00     0.278 C 
ATOM      9  C   UNL A   1      29.758  26.953  23.538  1.00  0.00     0.271 C 
ATOM     10  H   UNL A   1      29.229  28.477  24.759  1.00  0.00     0.348 HD
ATOM     11  C   UNL A   1      31.314  26.840  23.469  1.00  0.00     0.049 C 
ATOM     12  C   UNL A   1      31.807  25.682  24.357  1.00  0.00     0.075 C 
ATOM     13  C   UNL A   1      31.722  26.569  21.994  1.00  0.00     0.075 C 
ATOM     14  C   UNL A   1      33.270  25.318  24.100  1.00  0.00     0.262 C 
ATOM     15  C   UNL A   1      33.150  26.047  21.791  1.00  0.00     0.262 C 
ATOM     16  N   UNL A   1      33.550  24.974  22.703  1.00  0.00    -0.337 N 
ATOM     17  C   UNL A   1      32.993  23.680  22.322  1.00  0.00     0.332 C 
ATOM     18  H   UNL A   1      34.563  24.878  22.620  1.00  0.00     0.347 HD
BRANCH   7  19
ATOM     19  C   UNL A   1      28.171  28.863  23.282  1.00  0.00     0.299 C 
BRANCH  19  20
ATOM     20  C   UNL A   1      28.202  30.171  22.521  1.00  0.00     0.010 A 
ATOM     21  C   UNL A   1      28.341  32.594  22.484  1.00  0.00     0.119 A 
ATOM     22  C   UNL A   1      28.140  32.604  21.108  1.00  0.00     0.046 A 
ATOM     23  C   UNL A   1      28.360  31.392  23.193  1.00  0.00     0.056 A 
ATOM     24  C   UNL A   1      28.028  31.397  20.424  1.00  0.00     0.004 A 
ATOM     25  C   UNL A   1      28.069  30.187  21.125  1.00  0.00     0.010 A 
BRANCH  21  26
ATOM     26  O   UNL A   1      28.452  33.795  23.128  1.00  0.00    -0.497 OA
ATOM     27  C   UNL A   1      29.800  34.009  23.549  1.00  0.00     0.278 C 
ENDBRANCH  21  26
ENDBRANCH  19  20
ENDBRANCH   7  19
ENDBRANCH   4   6
ENDBRANCH   3   4
ENDBRANCH   2   3
ENDBRANCH   1   2
BRANCH   1  28
ATOM     28  O   UNL A   1      32.284  30.619  27.154  1.00  0.00    -0.374 OA
BRANCH  28  29
ATOM     29  C   UNL A   1      31.735  31.757  26.499  1.00  0.00     0.202 C 
BRANCH  29  30
ATOM     30  C   UNL A   1      31.764  33.062  27.298  1.00  0.00     0.261 C 
BRANCH  30  31
ATOM     31  O   UNL A   1      33.062  33.670  27.384  1.00  0.00    -0.460 OA
BRANCH  31  32
ATOM     32  C   UNL A   1      33.207  34.519  28.431  1.00  0.00     0.338 C 
ATOM     33  O   UNL A   1      32.513  35.480  28.716  1.00  0.00    -0.246 OA
BRANCH  32  34
ATOM     34  C   UNL A   1      34.329  34.106  29.288  1.00  0.00     0.060 A 
ATOM     35  C   UNL A   1      35.629  34.407  28.868  1.00  0.00     0.016 A 
ATOM     36  C   UNL A   1      34.110  33.262  30.379  1.00  0.00     0.016 A 
ATOM     37  C   UNL A   1      36.719  33.825  29.516  1.00  0.00     0.010 A 
ATOM     38  C   UNL A   1      35.206  32.681  31.028  1.00  0.00     0.010 A 
ATOM     39  C   UNL A   1      36.515  32.930  30.579  1.00  0.00    -0.014 A 
BRANCH  39  40
ATOM     40  C   UNL A   1      37.666  32.185  31.150  1.00  0.00     0.031 A 
ATOM     41  C   UNL A   1      38.175  32.527  32.525  1.00  0.00     0.074 A 
ATOM     42  C   UNL A   1      38.249  31.196  30.449  1.00  0.00     0.049 A 
ATOM     43  N   UNL A   1      39.169  32.000  33.198  1.00  0.00    -0.248 NA
ATOM     44  C   UNL A   1      37.474  33.607  33.237  1.00  0.00     0.031 C 
ATOM     45  C   UNL A   1      37.848  30.762  29.113  1.00  0.00     0.029 A 
ATOM     46  N   UNL A   1      39.312  30.386  30.764  1.00  0.00    -0.354 N 
ATOM     47  C   UNL A   1      39.217  32.686  34.405  1.00  0.00     0.074 A 
ATOM     48  C   UNL A   1      38.168  33.683  34.365  1.00  0.00     0.031 C 
ATOM     49  C   UNL A   1      38.663  29.770  28.715  1.00  0.00     0.029 A 
ATOM     50  C   UNL A   1      39.656  29.517  29.757  1.00  0.00     0.049 A 
ATOM     51  H   UNL A   1      39.783  30.424  31.628  1.00  0.00     0.167 HD
ATOM     52  C   UNL A   1      40.054  32.496  35.453  1.00  0.00     0.037 A 
ATOM     53  C   UNL A   1      40.668  28.632  29.679  1.00  0.00     0.037 A 
ATOM     54  C   UNL A   1      41.087  31.495  35.504  1.00  0.00     0.049 A 
ATOM     55  C   UNL A   1      41.610  28.469  30.843  1.00  0.00     0.074 A 
ATOM     56  C   UNL A   1      41.938  31.185  36.552  1.00  0.00     0.029 A 
ATOM     57  N   UNL A   1      41.417  30.648  34.459  1.00  0.00    -0.354 N 
ATOM     58  N   UNL A   1      41.606  29.078  32.003  1.00  0.00    -0.248 NA
ATOM     59  C   UNL A   1      42.697  27.491  30.687  1.00  0.00     0.031 C 
ATOM     60  C   UNL A   1      42.816  30.185  36.123  1.00  0.00     0.029 A 
ATOM     61  C   UNL A   1      42.483  29.840  34.823  1.00  0.00     0.049 A 
ATOM     62  H   UNL A   1      40.963  30.623  33.585  1.00  0.00     0.167 HD
ATOM     63  C   UNL A   1      42.670  28.546  32.719  1.00  0.00     0.074 A 
ATOM     64  C   UNL A   1      43.292  27.553  31.870  1.00  0.00     0.031 C 
ATOM     65  C   UNL A   1      43.095  28.856  33.969  1.00  0.00     0.037 A 
BRANCH  52  66
ATOM     66  C   UNL A   1      39.902  33.399  36.641  1.00  0.00     0.064 A 
ATOM     67  C   UNL A   1      40.611  34.604  36.746  1.00  0.00     0.173 A 
ATOM     68  C   UNL A   1      38.984  33.085  37.655  1.00  0.00     0.173 A 
ATOM     69  F   UNL A   1      41.504  34.945  35.804  1.00  0.00    -0.203 F 
ATOM     70  C   UNL A   1      40.420  35.455  37.832  1.00  0.00     0.198 A 
ATOM     71  C   UNL A   1      38.779  33.948  38.728  1.00  0.00     0.198 A 
ATOM     72  F   UNL A   1      38.275  31.948  37.597  1.00  0.00    -0.203 F 
ATOM     73  F   UNL A   1      41.129  36.588  37.927  1.00  0.00    -0.200 F 
ATOM     74  C   UNL A   1      39.499  35.130  38.818  1.00  0.00     0.200 A 
ATOM     75  F   UNL A   1      37.881  33.640  39.674  1.00  0.00    -0.200 F 
ATOM     76  F   UNL A   1      39.308  35.956  39.856  1.00  0.00    -0.200 F 
ENDBRANCH  52  66
BRANCH  53  77
ATOM     77  C   UNL A   1      40.859  27.838  28.439  1.00  0.00     0.064 A 
ATOM     78  C   UNL A   1      40.276  26.572  28.291  1.00  0.00     0.173 A 
ATOM     79  C   UNL A   1      41.643  28.325  27.382  1.00  0.00     0.173 A 
ATOM     80  F   UNL A   1      39.542  26.053  29.286  1.00  0.00    -0.203 F 
ATOM     81  C   UNL A   1      40.487  25.815  27.140  1.00  0.00     0.198 A 
ATOM     82  C   UNL A   1      41.831  27.578  26.223  1.00  0.00     0.198 A 
ATOM     83  F   UNL A   1      42.226  29.529  27.478  1.00  0.00    -0.203 F 
ATOM     84  F   UNL A   1      39.958  24.587  27.043  1.00  0.00    -0.200 F 
ATOM     85  C   UNL A   1      41.259  26.320  26.106  1.00  0.00     0.200 A 
ATOM     86  F   UNL A   1      42.573  28.073  25.222  1.00  0.00    -0.200 F 
ATOM     87  F   UNL A   1      41.461  25.591  25.000  1.00  0.00    -0.200 F 
ENDBRANCH  53  77
BRANCH  65  88
ATOM     88  C   UNL A   1      44.279  28.103  34.501  1.00  0.00     0.064 A 
ATOM     89  C   UNL A   1      44.128  26.873  35.156  1.00  0.00     0.173 A 
ATOM     90  C   UNL A   1      45.580  28.595  34.314  1.00  0.00     0.173 A 
ATOM     91  F   UNL A   1      42.904  26.368  35.372  1.00  0.00    -0.203 F 
ATOM     92  C   UNL A   1      45.237  26.171  35.623  1.00  0.00     0.198 A 
ATOM     93  C   UNL A   1      46.687  27.879  34.760  1.00  0.00     0.198 A 
ATOM     94  F   UNL A   1      45.777  29.765  33.689  1.00  0.00    -0.203 F 
ATOM     95  F   UNL A   1      45.068  25.015  36.280  1.00  0.00    -0.200 F 
ATOM     96  C   UNL A   1      46.515  26.670  35.419  1.00  0.00     0.200 A 
ATOM     97  F   UNL A   1      47.922  28.357  34.553  1.00  0.00    -0.200 F 
ATOM     98  F   UNL A   1      47.580  25.989  35.863  1.00  0.00    -0.200 F 
ENDBRANCH  65  88
ENDBRANCH  39  40
ENDBRANCH  32  34
ENDBRANCH  31  32
ENDBRANCH  30  31
ENDBRANCH  29  30
ENDBRANCH  28  29
ENDBRANCH   1  28
TORSDOF 17
ENDMDL
