MODEL 1
REMARK VINA RESULT:     -12.1      0.000      0.000
REMARK SMILES Cc1ccc(CN(CC(=O)OCCOCCOC(=O)c2ccc(-c3c4nc(c(-c5c(F)c(F)c(F)c(F)c5F)c5ccc([nH]5)c(-c5c(F)c(F)c(F)c(F)c5F)c5nc(c(-c6c(F)c(F)c(F)c(F)c6F)c6ccc3[nH]6)C=C5)C=C4)cc2)C(=O)c2cc3c(s2)CCOC3)cc1
REMARK SMILES IDX 13 1 12 2 11 3 9 4 10 5 8 6 7 7 6 8 5 9 1 10 2 11 3 12 95 13
REMARK SMILES IDX 4 14 94 15 83 16 84 17 85 18 86 19 89 20 87 21 88 22 93 23
REMARK SMILES IDX 90 24 92 25 91 26 14 27 15 28 16 29 17 30 18 31 19 32 20 33
REMARK SMILES IDX 21 34 82 35 22 36 81 37 23 38 24 39 25 40 75 41 26 42 80 43
REMARK SMILES IDX 74 44 76 45 27 46 79 47 73 48 72 49 28 51 60 52 40 53 59 54
REMARK SMILES IDX 41 55 44 56 58 57 77 58 42 59 43 60 57 62 78 63 45 64 29 65
REMARK SMILES IDX 30 66 38 67 31 68 32 69 36 70 39 71 33 72 34 73 37 74 35 75
REMARK SMILES IDX 61 76 62 77 70 78 63 79 64 80 68 81 71 82 65 83 66 84 69 85
REMARK SMILES IDX 67 86 46 87 47 88 55 89 48 90 49 91 53 92 56 93 50 94 51 95
REMARK SMILES IDX 54 96 52 97
REMARK H PARENT 76 50 44 61
REMARK Flexibility Score: inf
ROOT
ATOM      1  C   UNL A   1      32.349  28.228  27.757  1.00  0.00     0.202 C 
ENDROOT
BRANCH   1   2
ATOM      2  C   UNL A   1      31.246  27.600  26.981  1.00  0.00     0.261 C 
BRANCH   2   3
ATOM      3  O   UNL A   1      31.695  26.743  25.947  1.00  0.00    -0.462 OA
BRANCH   3   4
ATOM      4  C   UNL A   1      31.075  25.535  25.760  1.00  0.00     0.325 C 
ATOM      5  O   UNL A   1      29.999  25.357  25.243  1.00  0.00    -0.250 OA
BRANCH   4   6
ATOM      6  C   UNL A   1      31.897  24.427  26.415  1.00  0.00     0.242 C 
BRANCH   6   7
ATOM      7  N   UNL A   1      32.235  23.417  25.409  1.00  0.00    -0.323 N 
BRANCH   7   8
ATOM      8  C   UNL A   1      32.975  23.926  24.235  1.00  0.00     0.156 C 
BRANCH   8   9
ATOM      9  C   UNL A   1      34.439  23.738  24.417  1.00  0.00    -0.029 A 
ATOM     10  C   UNL A   1      38.167  22.081  25.545  1.00  0.00     0.044 C 
ATOM     11  C   UNL A   1      36.951  22.806  25.066  1.00  0.00    -0.051 A 
ATOM     12  C   UNL A   1      36.279  23.660  25.947  1.00  0.00     0.004 A 
ATOM     13  C   UNL A   1      36.420  22.541  23.799  1.00  0.00     0.004 A 
ATOM     14  C   UNL A   1      35.031  24.147  25.614  1.00  0.00     0.006 A 
ATOM     15  C   UNL A   1      35.162  23.014  23.468  1.00  0.00     0.006 A 
ENDBRANCH   8   9
ENDBRANCH   7   8
BRANCH   7  16
ATOM     16  C   UNL A   1      31.578  22.175  25.303  1.00  0.00     0.264 C 
ATOM     17  O   UNL A   1      30.447  22.013  25.756  1.00  0.00    -0.268 OA
BRANCH  16  18
ATOM     18  C   UNL A   1      32.363  21.043  24.837  1.00  0.00     0.093 A 
ATOM     19  C   UNL A   1      32.383  20.534  23.555  1.00  0.00     0.032 A 
ATOM     20  S   UNL A   1      33.591  20.248  25.744  1.00  0.00    -0.135 S 
ATOM     21  C   UNL A   1      32.718  19.172  23.608  1.00  0.00    -0.008 A 
ATOM     22  C   UNL A   1      33.749  19.081  24.511  1.00  0.00     0.013 A 
ATOM     23  C   UNL A   1      32.332  18.023  22.735  1.00  0.00     0.196 C 
ATOM     24  C   UNL A   1      34.792  18.035  24.339  1.00  0.00     0.075 C 
ATOM     25  O   UNL A   1      33.376  17.041  22.593  1.00  0.00    -0.376 OA
ATOM     26  C   UNL A   1      34.085  16.771  23.824  1.00  0.00     0.166 C 
ENDBRANCH  16  18
ENDBRANCH   7  16
ENDBRANCH   6   7
ENDBRANCH   4   6
ENDBRANCH   3   4
ENDBRANCH   2   3
ENDBRANCH   1   2
BRANCH   1  27
ATOM     27  O   UNL A   1      32.325  29.558  27.343  1.00  0.00    -0.374 OA
BRANCH  27  28
ATOM     28  C   UNL A   1      33.461  30.002  26.658  1.00  0.00     0.202 C 
BRANCH  28  29
ATOM     29  C   UNL A   1      33.877  31.238  27.426  1.00  0.00     0.261 C 
BRANCH  29  30
ATOM     30  O   UNL A   1      35.328  31.221  27.529  1.00  0.00    -0.460 OA
BRANCH  30  31
ATOM     31  C   UNL A   1      35.800  30.939  28.785  1.00  0.00     0.338 C 
ATOM     32  O   UNL A   1      35.562  31.623  29.769  1.00  0.00    -0.246 OA
BRANCH  31  33
ATOM     33  C   UNL A   1      36.825  29.836  28.761  1.00  0.00     0.060 A 
ATOM     34  C   UNL A   1      37.038  29.091  29.939  1.00  0.00     0.016 A 
ATOM     35  C   UNL A   1      37.789  29.804  27.749  1.00  0.00     0.016 A 
ATOM     36  C   UNL A   1      38.266  28.447  30.167  1.00  0.00     0.010 A 
ATOM     37  C   UNL A   1      39.034  29.246  28.022  1.00  0.00     0.010 A 
ATOM     38  C   UNL A   1      39.294  28.582  29.237  1.00  0.00    -0.014 A 
BRANCH  38  39
ATOM     39  C   UNL A   1      40.664  28.068  29.418  1.00  0.00     0.031 A 
ATOM     40  C   UNL A   1      40.936  26.674  29.001  1.00  0.00     0.074 A 
ATOM     41  C   UNL A   1      41.722  28.853  29.756  1.00  0.00     0.049 A 
ATOM     42  N   UNL A   1      42.003  26.036  29.335  1.00  0.00    -0.248 NA
ATOM     43  C   UNL A   1      40.027  25.848  28.202  1.00  0.00     0.031 C 
ATOM     44  C   UNL A   1      43.160  28.628  29.538  1.00  0.00     0.029 A 
ATOM     45  N   UNL A   1      41.752  30.146  30.294  1.00  0.00    -0.354 N 
ATOM     46  C   UNL A   1      42.116  24.976  28.475  1.00  0.00     0.074 A 
ATOM     47  C   UNL A   1      40.788  24.774  27.964  1.00  0.00     0.031 C 
ATOM     48  C   UNL A   1      43.878  29.532  30.241  1.00  0.00     0.029 A 
ATOM     49  C   UNL A   1      42.928  30.305  31.031  1.00  0.00     0.049 A 
ATOM     50  H   UNL A   1      41.056  30.832  30.173  1.00  0.00     0.167 HD
ATOM     51  C   UNL A   1      43.367  24.534  28.165  1.00  0.00     0.037 A 
ATOM     52  C   UNL A   1      42.904  30.533  32.371  1.00  0.00     0.037 A 
ATOM     53  C   UNL A   1      44.380  25.176  29.020  1.00  0.00     0.049 A 
ATOM     54  C   UNL A   1      43.583  29.368  33.010  1.00  0.00     0.074 A 
ATOM     55  C   UNL A   1      45.441  26.031  28.780  1.00  0.00     0.029 A 
ATOM     56  N   UNL A   1      44.192  25.180  30.408  1.00  0.00    -0.354 N 
ATOM     57  N   UNL A   1      43.631  28.209  32.413  1.00  0.00    -0.248 NA
ATOM     58  C   UNL A   1      44.363  29.410  34.238  1.00  0.00     0.031 C 
ATOM     59  C   UNL A   1      45.804  26.636  30.025  1.00  0.00     0.029 A 
ATOM     60  C   UNL A   1      44.999  26.114  31.030  1.00  0.00     0.049 A 
ATOM     61  H   UNL A   1      43.562  24.591  30.882  1.00  0.00     0.167 HD
ATOM     62  C   UNL A   1      44.562  27.441  33.020  1.00  0.00     0.074 A 
ATOM     63  C   UNL A   1      44.929  28.188  34.214  1.00  0.00     0.031 C 
ATOM     64  C   UNL A   1      44.986  26.264  32.486  1.00  0.00     0.037 A 
BRANCH  51  65
ATOM     65  C   UNL A   1      43.698  23.660  26.970  1.00  0.00     0.064 A 
ATOM     66  C   UNL A   1      43.269  22.316  26.939  1.00  0.00     0.173 A 
ATOM     67  C   UNL A   1      44.488  24.046  25.861  1.00  0.00     0.173 A 
ATOM     68  F   UNL A   1      42.555  21.798  27.948  1.00  0.00    -0.203 F 
ATOM     69  C   UNL A   1      43.570  21.453  25.877  1.00  0.00     0.198 A 
ATOM     70  C   UNL A   1      44.733  23.203  24.771  1.00  0.00     0.198 A 
ATOM     71  F   UNL A   1      45.119  25.224  25.808  1.00  0.00    -0.203 F 
ATOM     72  F   UNL A   1      43.175  20.174  25.927  1.00  0.00    -0.200 F 
ATOM     73  C   UNL A   1      44.278  21.904  24.782  1.00  0.00     0.200 A 
ATOM     74  F   UNL A   1      45.437  23.659  23.725  1.00  0.00    -0.200 F 
ATOM     75  F   UNL A   1      44.543  21.086  23.754  1.00  0.00    -0.200 F 
ENDBRANCH  51  65
BRANCH  52  76
ATOM     76  C   UNL A   1      41.710  31.305  32.819  1.00  0.00     0.064 A 
ATOM     77  C   UNL A   1      41.764  32.713  32.698  1.00  0.00     0.173 A 
ATOM     78  C   UNL A   1      40.438  30.729  32.925  1.00  0.00     0.173 A 
ATOM     79  F   UNL A   1      42.948  33.325  32.523  1.00  0.00    -0.203 F 
ATOM     80  C   UNL A   1      40.607  33.486  32.581  1.00  0.00     0.198 A 
ATOM     81  C   UNL A   1      39.278  31.508  32.805  1.00  0.00     0.198 A 
ATOM     82  F   UNL A   1      40.305  29.399  33.017  1.00  0.00    -0.203 F 
ATOM     83  F   UNL A   1      40.704  34.788  32.267  1.00  0.00    -0.200 F 
ATOM     84  C   UNL A   1      39.364  32.879  32.613  1.00  0.00     0.200 A 
ATOM     85  F   UNL A   1      38.076  30.916  32.759  1.00  0.00    -0.200 F 
ATOM     86  F   UNL A   1      38.265  33.597  32.337  1.00  0.00    -0.200 F 
ENDBRANCH  52  76
BRANCH  64  87
ATOM     87  C   UNL A   1      45.457  25.147  33.354  1.00  0.00     0.064 A 
ATOM     88  C   UNL A   1      46.823  24.880  33.559  1.00  0.00     0.173 A 
ATOM     89  C   UNL A   1      44.550  24.452  34.177  1.00  0.00     0.173 A 
ATOM     90  F   UNL A   1      47.780  25.578  32.932  1.00  0.00    -0.203 F 
ATOM     91  C   UNL A   1      47.248  23.923  34.471  1.00  0.00     0.198 A 
ATOM     92  C   UNL A   1      44.985  23.552  35.141  1.00  0.00     0.198 A 
ATOM     93  F   UNL A   1      43.227  24.660  34.101  1.00  0.00    -0.203 F 
ATOM     94  F   UNL A   1      48.556  23.664  34.595  1.00  0.00    -0.200 F 
ATOM     95  C   UNL A   1      46.331  23.270  35.273  1.00  0.00     0.200 A 
ATOM     96  F   UNL A   1      44.093  22.980  35.962  1.00  0.00    -0.200 F 
ATOM     97  F   UNL A   1      46.747  22.388  36.187  1.00  0.00    -0.200 F 
ENDBRANCH  64  87
ENDBRANCH  38  39
ENDBRANCH  31  33
ENDBRANCH  30  31
ENDBRANCH  29  30
ENDBRANCH  28  29
ENDBRANCH  27  28
ENDBRANCH   1  27
TORSDOF 19
ENDMDL
MODEL 2
REMARK VINA RESULT:     -12.0      2.030      3.753
REMARK SMILES Cc1ccc(CN(CC(=O)OCCOCCOC(=O)c2ccc(-c3c4nc(c(-c5c(F)c(F)c(F)c(F)c5F)c5ccc([nH]5)c(-c5c(F)c(F)c(F)c(F)c5F)c5nc(c(-c6c(F)c(F)c(F)c(F)c6F)c6ccc3[nH]6)C=C5)C=C4)cc2)C(=O)c2cc3c(s2)CCOC3)cc1
REMARK SMILES IDX 13 1 12 2 11 3 9 4 10 5 8 6 7 7 6 8 5 9 1 10 2 11 3 12 95 13
REMARK SMILES IDX 4 14 94 15 83 16 84 17 85 18 86 19 89 20 87 21 88 22 93 23
REMARK SMILES IDX 90 24 92 25 91 26 14 27 15 28 16 29 17 30 18 31 19 32 20 33
REMARK SMILES IDX 21 34 82 35 22 36 81 37 23 38 24 39 25 40 75 41 26 42 80 43
REMARK SMILES IDX 74 44 76 45 27 46 79 47 73 48 72 49 28 51 60 52 40 53 59 54
REMARK SMILES IDX 41 55 44 56 58 57 77 58 42 59 43 60 57 62 78 63 45 64 29 65
REMARK SMILES IDX 30 66 38 67 31 68 32 69 36 70 39 71 33 72 34 73 37 74 35 75
REMARK SMILES IDX 61 76 62 77 70 78 63 79 64 80 68 81 71 82 65 83 66 84 69 85
REMARK SMILES IDX 67 86 46 87 47 88 55 89 48 90 49 91 53 92 56 93 50 94 51 95
REMARK SMILES IDX 54 96 52 97
REMARK H PARENT 76 50 44 61
REMARK Flexibility Score: inf
ROOT
ATOM      1  C   UNL A   1      31.352  27.974  23.819  1.00  0.00     0.202 C 
ENDROOT
BRANCH   1   2
ATOM      2  C   UNL A   1      30.595  26.696  23.719  1.00  0.00     0.261 C 
BRANCH   2   3
ATOM      3  O   UNL A   1      31.424  25.551  23.632  1.00  0.00    -0.462 OA
BRANCH   3   4
ATOM      4  C   UNL A   1      31.392  24.621  24.639  1.00  0.00     0.325 C 
ATOM      5  O   UNL A   1      31.462  24.849  25.822  1.00  0.00    -0.250 OA
BRANCH   4   6
ATOM      6  C   UNL A   1      31.371  23.216  24.043  1.00  0.00     0.242 C 
BRANCH   6   7
ATOM      7  N   UNL A   1      32.722  22.649  24.094  1.00  0.00    -0.323 N 
BRANCH   7   8
ATOM      8  C   UNL A   1      33.029  21.874  25.315  1.00  0.00     0.156 C 
BRANCH   8   9
ATOM      9  C   UNL A   1      33.181  20.430  24.993  1.00  0.00    -0.029 A 
ATOM     10  C   UNL A   1      34.046  16.846  22.914  1.00  0.00     0.044 C 
ATOM     11  C   UNL A   1      33.694  18.000  23.795  1.00  0.00    -0.051 A 
ATOM     12  C   UNL A   1      32.421  18.572  23.686  1.00  0.00     0.004 A 
ATOM     13  C   UNL A   1      34.659  18.581  24.626  1.00  0.00     0.004 A 
ATOM     14  C   UNL A   1      32.155  19.778  24.306  1.00  0.00     0.006 A 
ATOM     15  C   UNL A   1      34.401  19.797  25.235  1.00  0.00     0.006 A 
ENDBRANCH   8   9
ENDBRANCH   7   8
BRANCH   7  16
ATOM     16  C   UNL A   1      33.792  23.120  23.309  1.00  0.00     0.264 C 
ATOM     17  O   UNL A   1      33.676  23.260  22.093  1.00  0.00    -0.268 OA
BRANCH  16  18
ATOM     18  C   UNL A   1      35.093  23.225  23.950  1.00  0.00     0.093 A 
ATOM     19  C   UNL A   1      36.252  22.585  23.559  1.00  0.00     0.032 A 
ATOM     20  S   UNL A   1      35.497  24.342  25.196  1.00  0.00    -0.135 S 
ATOM     21  C   UNL A   1      37.083  22.418  24.677  1.00  0.00    -0.008 A 
ATOM     22  C   UNL A   1      37.029  23.610  25.358  1.00  0.00     0.013 A 
ATOM     23  C   UNL A   1      38.078  21.359  25.021  1.00  0.00     0.196 C 
ATOM     24  C   UNL A   1      38.214  24.076  26.125  1.00  0.00     0.075 C 
ATOM     25  O   UNL A   1      39.210  21.860  25.756  1.00  0.00    -0.376 OA
ATOM     26  C   UNL A   1      38.857  22.834  26.764  1.00  0.00     0.166 C 
ENDBRANCH  16  18
ENDBRANCH   7  16
ENDBRANCH   6   7
ENDBRANCH   4   6
ENDBRANCH   3   4
ENDBRANCH   2   3
ENDBRANCH   1   2
BRANCH   1  27
ATOM     27  O   UNL A   1      32.671  27.594  23.576  1.00  0.00    -0.374 OA
BRANCH  27  28
ATOM     28  C   UNL A   1      33.648  28.309  24.276  1.00  0.00     0.202 C 
BRANCH  28  29
ATOM     29  C   UNL A   1      33.221  28.170  25.721  1.00  0.00     0.261 C 
BRANCH  29  30
ATOM     30  O   UNL A   1      34.394  28.409  26.548  1.00  0.00    -0.460 OA
BRANCH  30  31
ATOM     31  C   UNL A   1      34.258  29.448  27.431  1.00  0.00     0.338 C 
ATOM     32  O   UNL A   1      33.232  30.099  27.562  1.00  0.00    -0.246 OA
BRANCH  31  33
ATOM     33  C   UNL A   1      35.579  29.838  28.041  1.00  0.00     0.060 A 
ATOM     34  C   UNL A   1      36.663  30.107  27.180  1.00  0.00     0.016 A 
ATOM     35  C   UNL A   1      35.828  29.571  29.390  1.00  0.00     0.016 A 
ATOM     36  C   UNL A   1      37.987  29.959  27.628  1.00  0.00     0.010 A 
ATOM     37  C   UNL A   1      37.137  29.333  29.799  1.00  0.00     0.010 A 
ATOM     38  C   UNL A   1      38.226  29.503  28.922  1.00  0.00    -0.014 A 
BRANCH  38  39
ATOM     39  C   UNL A   1      39.558  29.183  29.467  1.00  0.00     0.031 A 
ATOM     40  C   UNL A   1      40.191  27.916  29.036  1.00  0.00     0.074 A 
ATOM     41  C   UNL A   1      40.311  30.066  30.176  1.00  0.00     0.049 A 
ATOM     42  N   UNL A   1      41.218  27.408  29.624  1.00  0.00    -0.248 NA
ATOM     43  C   UNL A   1      39.717  27.078  27.932  1.00  0.00     0.031 C 
ATOM     44  C   UNL A   1      41.767  30.094  30.388  1.00  0.00     0.029 A 
ATOM     45  N   UNL A   1      39.946  31.263  30.805  1.00  0.00    -0.354 N 
ATOM     46  C   UNL A   1      41.765  26.504  28.752  1.00  0.00     0.074 A 
ATOM     47  C   UNL A   1      40.700  26.175  27.847  1.00  0.00     0.031 C 
ATOM     48  C   UNL A   1      42.074  30.992  31.350  1.00  0.00     0.029 A 
ATOM     49  C   UNL A   1      40.813  31.497  31.876  1.00  0.00     0.049 A 
ATOM     50  H   UNL A   1      39.198  31.845  30.537  1.00  0.00     0.167 HD
ATOM     51  C   UNL A   1      43.112  26.305  28.800  1.00  0.00     0.037 A 
ATOM     52  C   UNL A   1      40.366  31.534  33.159  1.00  0.00     0.037 A 
ATOM     53  C   UNL A   1      43.703  26.970  29.975  1.00  0.00     0.049 A 
ATOM     54  C   UNL A   1      41.038  30.409  33.874  1.00  0.00     0.074 A 
ATOM     55  C   UNL A   1      44.610  28.002  30.142  1.00  0.00     0.029 A 
ATOM     56  N   UNL A   1      43.129  26.757  31.235  1.00  0.00    -0.354 N 
ATOM     57  N   UNL A   1      41.469  29.364  33.223  1.00  0.00    -0.248 NA
ATOM     58  C   UNL A   1      41.414  30.402  35.279  1.00  0.00     0.031 C 
ATOM     59  C   UNL A   1      44.485  28.479  31.485  1.00  0.00     0.029 A 
ATOM     60  C   UNL A   1      43.538  27.709  32.150  1.00  0.00     0.049 A 
ATOM     61  H   UNL A   1      42.511  26.020  31.443  1.00  0.00     0.167 HD
ATOM     62  C   UNL A   1      42.314  28.670  34.017  1.00  0.00     0.074 A 
ATOM     63  C   UNL A   1      42.180  29.296  35.325  1.00  0.00     0.031 C 
ATOM     64  C   UNL A   1      43.083  27.655  33.540  1.00  0.00     0.037 A 
BRANCH  51  65
ATOM     65  C   UNL A   1      43.926  25.662  27.693  1.00  0.00     0.064 A 
ATOM     66  C   UNL A   1      44.469  26.459  26.663  1.00  0.00     0.173 A 
ATOM     67  C   UNL A   1      44.153  24.274  27.538  1.00  0.00     0.173 A 
ATOM     68  F   UNL A   1      44.289  27.787  26.653  1.00  0.00    -0.203 F 
ATOM     69  C   UNL A   1      45.203  25.918  25.600  1.00  0.00     0.198 A 
ATOM     70  C   UNL A   1      44.942  23.742  26.511  1.00  0.00     0.198 A 
ATOM     71  F   UNL A   1      43.569  23.361  28.322  1.00  0.00    -0.203 F 
ATOM     72  F   UNL A   1      45.653  26.722  24.626  1.00  0.00    -0.200 F 
ATOM     73  C   UNL A   1      45.463  24.564  25.538  1.00  0.00     0.200 A 
ATOM     74  F   UNL A   1      45.166  22.420  26.464  1.00  0.00    -0.200 F 
ATOM     75  F   UNL A   1      46.188  24.050  24.536  1.00  0.00    -0.200 F 
ENDBRANCH  51  65
BRANCH  52  76
ATOM     76  C   UNL A   1      38.972  32.048  33.286  1.00  0.00     0.064 A 
ATOM     77  C   UNL A   1      38.783  33.445  33.186  1.00  0.00     0.173 A 
ATOM     78  C   UNL A   1      37.849  31.241  33.061  1.00  0.00     0.173 A 
ATOM     79  F   UNL A   1      39.832  34.274  33.322  1.00  0.00    -0.203 F 
ATOM     80  C   UNL A   1      37.567  33.996  32.777  1.00  0.00     0.198 A 
ATOM     81  C   UNL A   1      36.630  31.797  32.648  1.00  0.00     0.198 A 
ATOM     82  F   UNL A   1      37.956  29.906  33.114  1.00  0.00    -0.203 F 
ATOM     83  F   UNL A   1      37.487  35.308  32.501  1.00  0.00    -0.200 F 
ATOM     84  C   UNL A   1      36.496  33.168  32.487  1.00  0.00     0.200 A 
ATOM     85  F   UNL A   1      35.615  30.995  32.293  1.00  0.00    -0.200 F 
ATOM     86  F   UNL A   1      35.385  33.683  31.939  1.00  0.00    -0.200 F 
ENDBRANCH  52  76
BRANCH  64  87
ATOM     87  C   UNL A   1      43.486  26.515  34.412  1.00  0.00     0.064 A 
ATOM     88  C   UNL A   1      42.549  25.625  34.967  1.00  0.00     0.173 A 
ATOM     89  C   UNL A   1      44.843  26.156  34.534  1.00  0.00     0.173 A 
ATOM     90  F   UNL A   1      41.230  25.793  34.795  1.00  0.00    -0.203 F 
ATOM     91  C   UNL A   1      42.945  24.494  35.667  1.00  0.00     0.198 A 
ATOM     92  C   UNL A   1      45.230  24.983  35.168  1.00  0.00     0.198 A 
ATOM     93  F   UNL A   1      45.820  26.905  34.003  1.00  0.00    -0.203 F 
ATOM     94  F   UNL A   1      42.019  23.704  36.225  1.00  0.00    -0.200 F 
ATOM     95  C   UNL A   1      44.285  24.164  35.755  1.00  0.00     0.200 A 
ATOM     96  F   UNL A   1      46.524  24.636  35.183  1.00  0.00    -0.200 F 
ATOM     97  F   UNL A   1      44.661  23.046  36.384  1.00  0.00    -0.200 F 
ENDBRANCH  64  87
ENDBRANCH  38  39
ENDBRANCH  31  33
ENDBRANCH  30  31
ENDBRANCH  29  30
ENDBRANCH  28  29
ENDBRANCH  27  28
ENDBRANCH   1  27
TORSDOF 19
ENDMDL
MODEL 3
REMARK VINA RESULT:     -12.0      3.742      9.994
REMARK SMILES Cc1ccc(CN(CC(=O)OCCOCCOC(=O)c2ccc(-c3c4nc(c(-c5c(F)c(F)c(F)c(F)c5F)c5ccc([nH]5)c(-c5c(F)c(F)c(F)c(F)c5F)c5nc(c(-c6c(F)c(F)c(F)c(F)c6F)c6ccc3[nH]6)C=C5)C=C4)cc2)C(=O)c2cc3c(s2)CCOC3)cc1
REMARK SMILES IDX 13 1 12 2 11 3 9 4 10 5 8 6 7 7 6 8 5 9 1 10 2 11 3 12 95 13
REMARK SMILES IDX 4 14 94 15 83 16 84 17 85 18 86 19 89 20 87 21 88 22 93 23
REMARK SMILES IDX 90 24 92 25 91 26 14 27 15 28 16 29 17 30 18 31 19 32 20 33
REMARK SMILES IDX 21 34 82 35 22 36 81 37 23 38 24 39 25 40 75 41 26 42 80 43
REMARK SMILES IDX 74 44 76 45 27 46 79 47 73 48 72 49 28 51 60 52 40 53 59 54
REMARK SMILES IDX 41 55 44 56 58 57 77 58 42 59 43 60 57 62 78 63 45 64 29 65
REMARK SMILES IDX 30 66 38 67 31 68 32 69 36 70 39 71 33 72 34 73 37 74 35 75
REMARK SMILES IDX 61 76 62 77 70 78 63 79 64 80 68 81 71 82 65 83 66 84 69 85
REMARK SMILES IDX 67 86 46 87 47 88 55 89 48 90 49 91 53 92 56 93 50 94 51 95
REMARK SMILES IDX 54 96 52 97
REMARK H PARENT 76 50 44 61
REMARK Flexibility Score: inf
ROOT
ATOM      1  C   UNL A   1      36.806  22.574  23.502  1.00  0.00     0.202 C 
ENDROOT
BRANCH   1   2
ATOM      2  C   UNL A   1      35.587  23.322  23.913  1.00  0.00     0.261 C 
BRANCH   2   3
ATOM      3  O   UNL A   1      34.785  23.743  22.826  1.00  0.00    -0.462 OA
BRANCH   3   4
ATOM      4  C   UNL A   1      33.721  24.575  23.059  1.00  0.00     0.325 C 
ATOM      5  O   UNL A   1      33.446  25.574  22.438  1.00  0.00    -0.250 OA
BRANCH   4   6
ATOM      6  C   UNL A   1      32.978  24.123  24.313  1.00  0.00     0.242 C 
BRANCH   6   7
ATOM      7  N   UNL A   1      31.870  25.045  24.578  1.00  0.00    -0.323 N 
BRANCH   7   8
ATOM      8  C   UNL A   1      31.768  25.516  25.976  1.00  0.00     0.156 C 
BRANCH   8   9
ATOM      9  C   UNL A   1      32.234  26.924  26.087  1.00  0.00    -0.029 A 
ATOM     10  C   UNL A   1      34.067  30.446  27.553  1.00  0.00     0.044 C 
ATOM     11  C   UNL A   1      33.371  29.306  26.883  1.00  0.00    -0.051 A 
ATOM     12  C   UNL A   1      32.049  29.017  27.238  1.00  0.00     0.004 A 
ATOM     13  C   UNL A   1      34.067  28.464  26.009  1.00  0.00     0.004 A 
ATOM     14  C   UNL A   1      31.469  27.835  26.820  1.00  0.00     0.006 A 
ATOM     15  C   UNL A   1      33.495  27.271  25.601  1.00  0.00     0.006 A 
ENDBRANCH   8   9
ENDBRANCH   7   8
BRANCH   7  16
ATOM     16  C   UNL A   1      30.739  25.161  23.745  1.00  0.00     0.264 C 
ATOM     17  O   UNL A   1      30.304  24.192  23.126  1.00  0.00    -0.268 OA
BRANCH  16  18
ATOM     18  C   UNL A   1      30.243  26.501  23.478  1.00  0.00     0.093 A 
ATOM     19  C   UNL A   1      29.198  27.130  24.123  1.00  0.00     0.032 A 
ATOM     20  S   UNL A   1      31.002  27.652  22.448  1.00  0.00    -0.135 S 
ATOM     21  C   UNL A   1      28.624  28.072  23.256  1.00  0.00    -0.008 A 
ATOM     22  C   UNL A   1      29.681  28.710  22.654  1.00  0.00     0.013 A 
ATOM     23  C   UNL A   1      27.224  28.575  23.127  1.00  0.00     0.196 C 
ATOM     24  C   UNL A   1      29.553  30.137  22.255  1.00  0.00     0.075 C 
ATOM     25  O   UNL A   1      27.151  29.962  22.746  1.00  0.00    -0.376 OA
ATOM     26  C   UNL A   1      28.118  30.335  21.738  1.00  0.00     0.166 C 
ENDBRANCH  16  18
ENDBRANCH   7  16
ENDBRANCH   6   7
ENDBRANCH   4   6
ENDBRANCH   3   4
ENDBRANCH   2   3
ENDBRANCH   1   2
BRANCH   1  27
ATOM     27  O   UNL A   1      37.127  21.823  24.631  1.00  0.00    -0.374 OA
BRANCH  27  28
ATOM     28  C   UNL A   1      37.428  22.556  25.783  1.00  0.00     0.202 C 
BRANCH  28  29
ATOM     29  C   UNL A   1      38.879  22.218  26.048  1.00  0.00     0.261 C 
BRANCH  29  30
ATOM     30  O   UNL A   1      39.326  23.048  27.157  1.00  0.00    -0.460 OA
BRANCH  30  31
ATOM     31  C   UNL A   1      40.322  23.932  26.833  1.00  0.00     0.338 C 
ATOM     32  O   UNL A   1      41.442  23.594  26.481  1.00  0.00    -0.246 OA
BRANCH  31  33
ATOM     33  C   UNL A   1      39.948  25.348  27.186  1.00  0.00     0.060 A 
ATOM     34  C   UNL A   1      40.491  26.397  26.417  1.00  0.00     0.016 A 
ATOM     35  C   UNL A   1      39.406  25.631  28.443  1.00  0.00     0.016 A 
ATOM     36  C   UNL A   1      40.629  27.686  26.961  1.00  0.00     0.010 A 
ATOM     37  C   UNL A   1      39.633  26.882  29.008  1.00  0.00     0.010 A 
ATOM     38  C   UNL A   1      40.264  27.914  28.286  1.00  0.00    -0.014 A 
BRANCH  38  39
ATOM     39  C   UNL A   1      40.479  29.180  29.010  1.00  0.00     0.031 A 
ATOM     40  C   UNL A   1      39.386  30.178  28.989  1.00  0.00     0.074 A 
ATOM     41  C   UNL A   1      41.528  29.396  29.849  1.00  0.00     0.049 A 
ATOM     42  N   UNL A   1      39.545  31.401  29.361  1.00  0.00    -0.248 NA
ATOM     43  C   UNL A   1      38.024  29.917  28.518  1.00  0.00     0.031 C 
ATOM     44  C   UNL A   1      41.656  30.355  30.957  1.00  0.00     0.029 A 
ATOM     45  N   UNL A   1      42.733  28.696  29.986  1.00  0.00    -0.354 N 
ATOM     46  C   UNL A   1      38.294  31.908  29.597  1.00  0.00     0.074 A 
ATOM     47  C   UNL A   1      37.407  31.054  28.858  1.00  0.00     0.031 C 
ATOM     48  C   UNL A   1      42.942  30.411  31.370  1.00  0.00     0.029 A 
ATOM     49  C   UNL A   1      43.713  29.569  30.466  1.00  0.00     0.049 A 
ATOM     50  H   UNL A   1      42.869  27.744  29.777  1.00  0.00     0.167 HD
ATOM     51  C   UNL A   1      38.165  32.873  30.549  1.00  0.00     0.037 A 
ATOM     52  C   UNL A   1      44.816  29.875  29.732  1.00  0.00     0.037 A 
ATOM     53  C   UNL A   1      39.484  33.348  31.002  1.00  0.00     0.049 A 
ATOM     54  C   UNL A   1      44.750  31.341  29.460  1.00  0.00     0.074 A 
ATOM     55  C   UNL A   1      40.160  33.308  32.208  1.00  0.00     0.029 A 
ATOM     56  N   UNL A   1      40.433  33.729  30.043  1.00  0.00    -0.354 N 
ATOM     57  N   UNL A   1      43.608  31.972  29.462  1.00  0.00    -0.248 NA
ATOM     58  C   UNL A   1      45.893  32.229  29.320  1.00  0.00     0.031 C 
ATOM     59  C   UNL A   1      41.545  33.553  31.940  1.00  0.00     0.029 A 
ATOM     60  C   UNL A   1      41.706  33.788  30.581  1.00  0.00     0.049 A 
ATOM     61  H   UNL A   1      40.220  33.929  29.104  1.00  0.00     0.167 HD
ATOM     62  C   UNL A   1      43.842  33.301  29.527  1.00  0.00     0.074 A 
ATOM     63  C   UNL A   1      45.280  33.428  29.340  1.00  0.00     0.031 C 
ATOM     64  C   UNL A   1      42.846  34.198  29.759  1.00  0.00     0.037 A 
BRANCH  51  65
ATOM     65  C   UNL A   1      36.854  33.262  31.206  1.00  0.00     0.064 A 
ATOM     66  C   UNL A   1      35.885  33.980  30.475  1.00  0.00     0.173 A 
ATOM     67  C   UNL A   1      36.511  33.032  32.560  1.00  0.00     0.173 A 
ATOM     68  F   UNL A   1      36.098  34.314  29.194  1.00  0.00    -0.203 F 
ATOM     69  C   UNL A   1      34.670  34.393  31.036  1.00  0.00     0.198 A 
ATOM     70  C   UNL A   1      35.270  33.387  33.101  1.00  0.00     0.198 A 
ATOM     71  F   UNL A   1      37.378  32.520  33.440  1.00  0.00    -0.203 F 
ATOM     72  F   UNL A   1      33.809  35.113  30.304  1.00  0.00    -0.200 F 
ATOM     73  C   UNL A   1      34.351  34.072  32.340  1.00  0.00     0.200 A 
ATOM     74  F   UNL A   1      34.991  33.078  34.376  1.00  0.00    -0.200 F 
ATOM     75  F   UNL A   1      33.177  34.443  32.870  1.00  0.00    -0.200 F 
ENDBRANCH  51  65
BRANCH  52  76
ATOM     76  C   UNL A   1      45.268  28.761  28.850  1.00  0.00     0.064 A 
ATOM     77  C   UNL A   1      45.936  27.676  29.464  1.00  0.00     0.173 A 
ATOM     78  C   UNL A   1      44.707  28.525  27.588  1.00  0.00     0.173 A 
ATOM     79  F   UNL A   1      46.437  27.813  30.703  1.00  0.00    -0.203 F 
ATOM     80  C   UNL A   1      45.945  26.401  28.896  1.00  0.00     0.198 A 
ATOM     81  C   UNL A   1      44.716  27.242  27.021  1.00  0.00     0.198 A 
ATOM     82  F   UNL A   1      44.038  29.497  26.955  1.00  0.00    -0.203 F 
ATOM     83  F   UNL A   1      46.412  25.358  29.602  1.00  0.00    -0.200 F 
ATOM     84  C   UNL A   1      45.315  26.180  27.683  1.00  0.00     0.200 A 
ATOM     85  F   UNL A   1      44.043  27.008  25.885  1.00  0.00    -0.200 F 
ATOM     86  F   UNL A   1      45.183  24.929  27.219  1.00  0.00    -0.200 F 
ENDBRANCH  52  76
BRANCH  64  87
ATOM     87  C   UNL A   1      42.913  35.585  29.217  1.00  0.00     0.064 A 
ATOM     88  C   UNL A   1      42.216  35.974  28.059  1.00  0.00     0.173 A 
ATOM     89  C   UNL A   1      43.504  36.618  29.972  1.00  0.00     0.173 A 
ATOM     90  F   UNL A   1      41.502  35.098  27.338  1.00  0.00    -0.203 F 
ATOM     91  C   UNL A   1      42.181  37.297  27.640  1.00  0.00     0.198 A 
ATOM     92  C   UNL A   1      43.400  37.948  29.590  1.00  0.00     0.198 A 
ATOM     93  F   UNL A   1      44.154  36.369  31.118  1.00  0.00    -0.203 F 
ATOM     94  F   UNL A   1      41.551  37.613  26.501  1.00  0.00    -0.200 F 
ATOM     95  C   UNL A   1      42.760  38.286  28.413  1.00  0.00     0.200 A 
ATOM     96  F   UNL A   1      43.901  38.905  30.383  1.00  0.00    -0.200 F 
ATOM     97  F   UNL A   1      42.680  39.567  28.035  1.00  0.00    -0.200 F 
ENDBRANCH  64  87
ENDBRANCH  38  39
ENDBRANCH  31  33
ENDBRANCH  30  31
ENDBRANCH  29  30
ENDBRANCH  28  29
ENDBRANCH  27  28
ENDBRANCH   1  27
TORSDOF 19
ENDMDL
