MODEL 1
REMARK VINA RESULT:     -11.0      0.000      0.000
REMARK SMILES C[C@@]([NH2+]Cc1ccccc1Br)(C(=O)OCCOCCOC(=O)c1ccc(-c2c3nc(c(-c4c(F)c(F)c(F)c(F)c4F)c4ccc([nH]4)c(-c4c(F)c(F)c(F)c(F)c4F)c4nc(c(-c5c(F)c(F)c(F)c(F)c5F)c5ccc2[nH]5)C=C4)C=C3)cc1)C(F)(F)F
REMARK SMILES IDX 16 1 15 2 14 3 12 4 13 5 2 6 1 7 3 8 4 11 5 12 6 13 10 14
REMARK SMILES IDX 7 15 9 16 11 17 8 18 86 19 87 20 88 21 89 22 17 23 18 24
REMARK SMILES IDX 19 25 20 26 21 27 22 28 23 29 24 30 85 31 25 32 84 33 26 34
REMARK SMILES IDX 27 35 28 36 78 37 29 38 83 39 77 40 79 41 30 42 82 43 76 44
REMARK SMILES IDX 75 45 31 47 63 48 43 49 62 50 44 51 47 52 61 53 80 54 45 55
REMARK SMILES IDX 46 56 60 58 81 59 48 60 32 61 33 62 41 63 34 64 35 65 39 66
REMARK SMILES IDX 42 67 36 68 37 69 40 70 38 71 64 72 65 73 73 74 66 75 67 76
REMARK SMILES IDX 71 77 74 78 68 79 69 80 72 81 70 82 49 83 50 84 58 85 51 86
REMARK SMILES IDX 52 87 56 88 59 89 53 90 54 91 57 92 55 93
REMARK H PARENT 3 9 3 10 79 46 47 57
REMARK Flexibility Score: inf
ROOT
ATOM      1  C   UNL A   1      33.797  20.095  25.559  1.00  0.00     0.202 C 
ENDROOT
BRANCH   1   2
ATOM      2  C   UNL A   1      32.549  20.037  24.674  1.00  0.00     0.261 C 
BRANCH   2   3
ATOM      3  O   UNL A   1      31.744  21.227  24.717  1.00  0.00    -0.458 OA
BRANCH   3   4
ATOM      4  C   UNL A   1      32.277  22.291  24.048  1.00  0.00     0.377 C 
ATOM      5  O   UNL A   1      32.985  22.156  23.058  1.00  0.00    -0.244 OA
BRANCH   4   6
ATOM      6  C   UNL A   1      31.947  23.640  24.686  1.00  0.00     0.287 C 
ATOM      7  C   UNL A   1      31.194  23.460  26.026  1.00  0.00     0.103 C 
BRANCH   6   8
ATOM      8  N   UNL A   1      33.195  24.398  25.064  1.00  0.00    -0.321 N 
ATOM      9  H   UNL A   1      33.629  24.719  24.198  1.00  0.00     0.347 HD
ATOM     10  H   UNL A   1      33.739  23.734  25.614  1.00  0.00     0.347 HD
BRANCH   8  11
ATOM     11  C   UNL A   1      33.055  25.568  25.940  1.00  0.00     0.299 C 
BRANCH  11  12
ATOM     12  C   UNL A   1      33.130  26.907  25.250  1.00  0.00     0.020 A 
ATOM     13  C   UNL A   1      33.829  27.004  24.032  1.00  0.00     0.011 A 
ATOM     14  C   UNL A   1      32.534  28.073  25.755  1.00  0.00     0.026 A 
ATOM     15  C   UNL A   1      33.847  28.189  23.295  1.00  0.00     0.001 A 
ATOM     16  C   UNL A   1      32.579  29.270  25.031  1.00  0.00     0.016 A 
ATOM     17  Br  UNL A   1      31.644  28.109  27.434  1.00  0.00    -0.050 Br
ATOM     18  C   UNL A   1      33.215  29.321  23.792  1.00  0.00     0.001 A 
ENDBRANCH  11  12
ENDBRANCH   8  11
ENDBRANCH   6   8
BRANCH   6  19
ATOM     19  C   UNL A   1      30.936  24.320  23.724  1.00  0.00     0.455 C 
ATOM     20  F   UNL A   1      30.109  25.164  24.394  1.00  0.00    -0.164 F 
ATOM     21  F   UNL A   1      31.604  25.082  22.816  1.00  0.00    -0.164 F 
ATOM     22  F   UNL A   1      30.158  23.481  23.022  1.00  0.00    -0.164 F 
ENDBRANCH   6  19
ENDBRANCH   4   6
ENDBRANCH   3   4
ENDBRANCH   2   3
ENDBRANCH   1   2
BRANCH   1  23
ATOM     23  O   UNL A   1      35.068  19.907  24.947  1.00  0.00    -0.374 OA
BRANCH  23  24
ATOM     24  C   UNL A   1      36.050  20.934  25.084  1.00  0.00     0.202 C 
BRANCH  24  25
ATOM     25  C   UNL A   1      37.518  20.535  24.923  1.00  0.00     0.261 C 
BRANCH  25  26
ATOM     26  O   UNL A   1      38.396  21.646  25.181  1.00  0.00    -0.460 OA
BRANCH  26  27
ATOM     27  C   UNL A   1      39.412  21.364  26.025  1.00  0.00     0.338 C 
ATOM     28  O   UNL A   1      40.112  20.357  26.035  1.00  0.00    -0.246 OA
BRANCH  27  29
ATOM     29  C   UNL A   1      39.727  22.532  26.865  1.00  0.00     0.060 A 
ATOM     30  C   UNL A   1      38.992  23.699  26.626  1.00  0.00     0.016 A 
ATOM     31  C   UNL A   1      40.782  22.525  27.780  1.00  0.00     0.016 A 
ATOM     32  C   UNL A   1      39.374  24.895  27.222  1.00  0.00     0.010 A 
ATOM     33  C   UNL A   1      41.172  23.730  28.373  1.00  0.00     0.010 A 
ATOM     34  C   UNL A   1      40.508  24.926  28.043  1.00  0.00    -0.014 A 
BRANCH  34  35
ATOM     35  C   UNL A   1      41.125  26.241  28.335  1.00  0.00     0.031 A 
ATOM     36  C   UNL A   1      42.512  26.508  27.812  1.00  0.00     0.074 A 
ATOM     37  C   UNL A   1      40.441  27.206  28.969  1.00  0.00     0.049 A 
ATOM     38  N   UNL A   1      43.241  27.591  27.897  1.00  0.00    -0.248 NA
ATOM     39  C   UNL A   1      43.164  25.400  27.094  1.00  0.00     0.031 C 
ATOM     40  C   UNL A   1      39.074  27.081  29.470  1.00  0.00     0.029 A 
ATOM     41  N   UNL A   1      40.805  28.489  29.288  1.00  0.00    -0.354 N 
ATOM     42  C   UNL A   1      44.436  27.292  27.253  1.00  0.00     0.074 A 
ATOM     43  C   UNL A   1      44.348  25.917  26.811  1.00  0.00     0.031 C 
ATOM     44  C   UNL A   1      38.710  28.246  30.032  1.00  0.00     0.029 A 
ATOM     45  C   UNL A   1      39.827  29.188  29.949  1.00  0.00     0.049 A 
ATOM     46  H   UNL A   1      41.684  28.872  29.064  1.00  0.00     0.167 HD
ATOM     47  C   UNL A   1      45.505  28.093  27.038  1.00  0.00     0.037 A 
ATOM     48  C   UNL A   1      39.839  30.444  30.433  1.00  0.00     0.037 A 
ATOM     49  C   UNL A   1      45.585  29.463  27.470  1.00  0.00     0.049 A 
ATOM     50  C   UNL A   1      41.064  31.299  30.234  1.00  0.00     0.074 A 
ATOM     51  C   UNL A   1      46.615  30.368  27.290  1.00  0.00     0.029 A 
ATOM     52  N   UNL A   1      44.589  30.123  28.176  1.00  0.00    -0.354 N 
ATOM     53  N   UNL A   1      42.180  31.017  29.606  1.00  0.00    -0.248 NA
ATOM     54  C   UNL A   1      41.024  32.652  30.807  1.00  0.00     0.031 C 
ATOM     55  C   UNL A   1      46.263  31.562  27.930  1.00  0.00     0.029 A 
ATOM     56  C   UNL A   1      44.990  31.418  28.461  1.00  0.00     0.049 A 
ATOM     57  H   UNL A   1      43.725  29.729  28.437  1.00  0.00     0.167 HD
ATOM     58  C   UNL A   1      42.958  32.165  29.675  1.00  0.00     0.074 A 
ATOM     59  C   UNL A   1      42.184  33.150  30.402  1.00  0.00     0.031 C 
ATOM     60  C   UNL A   1      44.199  32.389  29.174  1.00  0.00     0.037 A 
BRANCH  47  61
ATOM     61  C   UNL A   1      46.687  27.490  26.337  1.00  0.00     0.064 A 
ATOM     62  C   UNL A   1      47.683  26.787  27.032  1.00  0.00     0.173 A 
ATOM     63  C   UNL A   1      46.824  27.617  24.947  1.00  0.00     0.173 A 
ATOM     64  F   UNL A   1      47.609  26.652  28.365  1.00  0.00    -0.203 F 
ATOM     65  C   UNL A   1      48.790  26.266  26.366  1.00  0.00     0.198 A 
ATOM     66  C   UNL A   1      47.916  27.069  24.279  1.00  0.00     0.198 A 
ATOM     67  F   UNL A   1      45.899  28.278  24.234  1.00  0.00    -0.203 F 
ATOM     68  F   UNL A   1      49.757  25.649  27.058  1.00  0.00    -0.200 F 
ATOM     69  C   UNL A   1      48.903  26.402  24.990  1.00  0.00     0.200 A 
ATOM     70  F   UNL A   1      48.018  27.193  22.949  1.00  0.00    -0.200 F 
ATOM     71  F   UNL A   1      49.968  25.902  24.351  1.00  0.00    -0.200 F 
ENDBRANCH  47  61
BRANCH  48  72
ATOM     72  C   UNL A   1      38.645  30.976  31.138  1.00  0.00     0.064 A 
ATOM     73  C   UNL A   1      37.584  31.553  30.427  1.00  0.00     0.173 A 
ATOM     74  C   UNL A   1      38.542  30.921  32.535  1.00  0.00     0.173 A 
ATOM     75  F   UNL A   1      37.649  31.649  29.091  1.00  0.00    -0.203 F 
ATOM     76  C   UNL A   1      36.470  32.066  31.088  1.00  0.00     0.198 A 
ATOM     77  C   UNL A   1      37.416  31.410  33.194  1.00  0.00     0.198 A 
ATOM     78  F   UNL A   1      39.530  30.379  33.261  1.00  0.00    -0.203 F 
ATOM     79  F   UNL A   1      35.487  32.647  30.387  1.00  0.00    -0.200 F 
ATOM     80  C   UNL A   1      36.384  31.989  32.469  1.00  0.00     0.200 A 
ATOM     81  F   UNL A   1      37.331  31.324  34.528  1.00  0.00    -0.200 F 
ATOM     82  F   UNL A   1      35.310  32.477  33.105  1.00  0.00    -0.200 F 
ENDBRANCH  48  72
BRANCH  60  83
ATOM     83  C   UNL A   1      44.777  33.763  29.350  1.00  0.00     0.064 A 
ATOM     84  C   UNL A   1      44.572  34.779  28.405  1.00  0.00     0.173 A 
ATOM     85  C   UNL A   1      45.516  34.075  30.502  1.00  0.00     0.173 A 
ATOM     86  F   UNL A   1      43.884  34.527  27.282  1.00  0.00    -0.203 F 
ATOM     87  C   UNL A   1      45.112  36.048  28.593  1.00  0.00     0.198 A 
ATOM     88  C   UNL A   1      46.028  35.354  30.701  1.00  0.00     0.198 A 
ATOM     89  F   UNL A   1      45.733  33.142  31.441  1.00  0.00    -0.203 F 
ATOM     90  F   UNL A   1      44.947  36.990  27.653  1.00  0.00    -0.200 F 
ATOM     91  C   UNL A   1      45.833  36.337  29.743  1.00  0.00     0.200 A 
ATOM     92  F   UNL A   1      46.713  35.634  31.818  1.00  0.00    -0.200 F 
ATOM     93  F   UNL A   1      46.348  37.561  29.923  1.00  0.00    -0.200 F 
ENDBRANCH  60  83
ENDBRANCH  34  35
ENDBRANCH  27  29
ENDBRANCH  26  27
ENDBRANCH  25  26
ENDBRANCH  24  25
ENDBRANCH  23  24
ENDBRANCH   1  23
TORSDOF 18
ENDMDL
MODEL 2
REMARK VINA RESULT:     -10.9      3.780      8.874
REMARK SMILES C[C@@]([NH2+]Cc1ccccc1Br)(C(=O)OCCOCCOC(=O)c1ccc(-c2c3nc(c(-c4c(F)c(F)c(F)c(F)c4F)c4ccc([nH]4)c(-c4c(F)c(F)c(F)c(F)c4F)c4nc(c(-c5c(F)c(F)c(F)c(F)c5F)c5ccc2[nH]5)C=C4)C=C3)cc1)C(F)(F)F
REMARK SMILES IDX 16 1 15 2 14 3 12 4 13 5 2 6 1 7 3 8 4 11 5 12 6 13 10 14
REMARK SMILES IDX 7 15 9 16 11 17 8 18 86 19 87 20 88 21 89 22 17 23 18 24
REMARK SMILES IDX 19 25 20 26 21 27 22 28 23 29 24 30 85 31 25 32 84 33 26 34
REMARK SMILES IDX 27 35 28 36 78 37 29 38 83 39 77 40 79 41 30 42 82 43 76 44
REMARK SMILES IDX 75 45 31 47 63 48 43 49 62 50 44 51 47 52 61 53 80 54 45 55
REMARK SMILES IDX 46 56 60 58 81 59 48 60 32 61 33 62 41 63 34 64 35 65 39 66
REMARK SMILES IDX 42 67 36 68 37 69 40 70 38 71 64 72 65 73 73 74 66 75 67 76
REMARK SMILES IDX 71 77 74 78 68 79 69 80 72 81 70 82 49 83 50 84 58 85 51 86
REMARK SMILES IDX 52 87 56 88 59 89 53 90 54 91 57 92 55 93
REMARK H PARENT 3 9 3 10 79 46 47 57
REMARK Flexibility Score: inf
ROOT
ATOM      1  C   UNL A   1      34.382  32.720  28.228  1.00  0.00     0.202 C 
ENDROOT
BRANCH   1   2
ATOM      2  C   UNL A   1      33.463  31.588  27.758  1.00  0.00     0.261 C 
BRANCH   2   3
ATOM      3  O   UNL A   1      34.033  30.757  26.734  1.00  0.00    -0.458 OA
BRANCH   3   4
ATOM      4  C   UNL A   1      34.054  29.427  27.036  1.00  0.00     0.377 C 
ATOM      5  O   UNL A   1      34.709  28.977  27.968  1.00  0.00    -0.244 OA
BRANCH   4   6
ATOM      6  C   UNL A   1      33.233  28.569  26.074  1.00  0.00     0.287 C 
ATOM      7  C   UNL A   1      33.393  29.052  24.612  1.00  0.00     0.103 C 
BRANCH   6   8
ATOM      8  N   UNL A   1      33.721  27.142  26.045  1.00  0.00    -0.321 N 
ATOM      9  H   UNL A   1      33.484  26.723  26.945  1.00  0.00     0.347 HD
ATOM     10  H   UNL A   1      34.717  27.217  25.838  1.00  0.00     0.347 HD
BRANCH   8  11
ATOM     11  C   UNL A   1      33.198  26.253  25.000  1.00  0.00     0.299 C 
BRANCH  11  12
ATOM     12  C   UNL A   1      34.125  25.145  24.569  1.00  0.00     0.020 A 
ATOM     13  C   UNL A   1      35.079  24.663  25.485  1.00  0.00     0.011 A 
ATOM     14  C   UNL A   1      34.088  24.558  23.294  1.00  0.00     0.026 A 
ATOM     15  C   UNL A   1      35.894  23.571  25.181  1.00  0.00     0.001 A 
ATOM     16  C   UNL A   1      34.929  23.483  22.979  1.00  0.00     0.016 A 
ATOM     17  Br  UNL A   1      32.919  25.174  21.928  1.00  0.00    -0.050 Br
ATOM     18  C   UNL A   1      35.813  22.977  23.929  1.00  0.00     0.001 A 
ENDBRANCH  11  12
ENDBRANCH   8  11
ENDBRANCH   6   8
BRANCH   6  19
ATOM     19  C   UNL A   1      31.749  28.832  26.443  1.00  0.00     0.455 C 
ATOM     20  F   UNL A   1      31.233  29.856  25.715  1.00  0.00    -0.164 F 
ATOM     21  F   UNL A   1      30.998  27.737  26.146  1.00  0.00    -0.164 F 
ATOM     22  F   UNL A   1      31.519  29.114  27.736  1.00  0.00    -0.164 F 
ENDBRANCH   6  19
ENDBRANCH   4   6
ENDBRANCH   3   4
ENDBRANCH   2   3
ENDBRANCH   1   2
BRANCH   1  23
ATOM     23  O   UNL A   1      33.923  33.574  29.271  1.00  0.00    -0.374 OA
BRANCH  23  24
ATOM     24  C   UNL A   1      34.877  34.102  30.190  1.00  0.00     0.202 C 
BRANCH  24  25
ATOM     25  C   UNL A   1      34.684  33.781  31.673  1.00  0.00     0.261 C 
BRANCH  25  26
ATOM     26  O   UNL A   1      34.763  32.365  31.920  1.00  0.00    -0.460 OA
BRANCH  26  27
ATOM     27  C   UNL A   1      35.807  31.995  32.693  1.00  0.00     0.338 C 
ATOM     28  O   UNL A   1      35.972  32.235  33.884  1.00  0.00    -0.246 OA
BRANCH  27  29
ATOM     29  C   UNL A   1      36.690  31.071  31.962  1.00  0.00     0.060 A 
ATOM     30  C   UNL A   1      37.815  30.597  32.648  1.00  0.00     0.016 A 
ATOM     31  C   UNL A   1      36.492  30.764  30.614  1.00  0.00     0.016 A 
ATOM     32  C   UNL A   1      38.804  29.901  31.964  1.00  0.00     0.010 A 
ATOM     33  C   UNL A   1      37.490  30.071  29.924  1.00  0.00     0.010 A 
ATOM     34  C   UNL A   1      38.676  29.697  30.584  1.00  0.00    -0.014 A 
BRANCH  34  35
ATOM     35  C   UNL A   1      39.887  29.325  29.816  1.00  0.00     0.031 A 
ATOM     36  C   UNL A   1      40.980  30.350  29.669  1.00  0.00     0.074 A 
ATOM     37  C   UNL A   1      40.052  28.082  29.337  1.00  0.00     0.049 A 
ATOM     38  N   UNL A   1      42.147  30.248  29.086  1.00  0.00    -0.248 NA
ATOM     39  C   UNL A   1      40.720  31.671  30.264  1.00  0.00     0.031 C 
ATOM     40  C   UNL A   1      39.088  26.992  29.466  1.00  0.00     0.029 A 
ATOM     41  N   UNL A   1      41.104  27.527  28.653  1.00  0.00    -0.354 N 
ATOM     42  C   UNL A   1      42.752  31.489  29.237  1.00  0.00     0.074 A 
ATOM     43  C   UNL A   1      41.814  32.339  29.937  1.00  0.00     0.031 C 
ATOM     44  C   UNL A   1      39.596  25.892  28.883  1.00  0.00     0.029 A 
ATOM     45  C   UNL A   1      40.908  26.210  28.321  1.00  0.00     0.049 A 
ATOM     46  H   UNL A   1      41.921  28.026  28.422  1.00  0.00     0.167 HD
ATOM     47  C   UNL A   1      43.985  31.883  28.839  1.00  0.00     0.037 A 
ATOM     48  C   UNL A   1      41.702  25.364  27.638  1.00  0.00     0.037 A 
ATOM     49  C   UNL A   1      44.920  31.033  28.153  1.00  0.00     0.049 A 
ATOM     50  C   UNL A   1      43.045  25.843  27.152  1.00  0.00     0.074 A 
ATOM     51  C   UNL A   1      46.200  31.327  27.719  1.00  0.00     0.029 A 
ATOM     52  N   UNL A   1      44.668  29.716  27.795  1.00  0.00    -0.354 N 
ATOM     53  N   UNL A   1      43.620  27.010  27.317  1.00  0.00    -0.248 NA
ATOM     54  C   UNL A   1      43.853  24.880  26.392  1.00  0.00     0.031 C 
ATOM     55  C   UNL A   1      46.704  30.203  27.056  1.00  0.00     0.029 A 
ATOM     56  C   UNL A   1      45.760  29.191  27.125  1.00  0.00     0.049 A 
ATOM     57  H   UNL A   1      43.835  29.227  27.989  1.00  0.00     0.167 HD
ATOM     58  C   UNL A   1      44.868  26.910  26.716  1.00  0.00     0.074 A 
ATOM     59  C   UNL A   1      44.969  25.566  26.186  1.00  0.00     0.031 C 
ATOM     60  C   UNL A   1      45.847  27.845  26.617  1.00  0.00     0.037 A 
BRANCH  47  61
ATOM     61  C   UNL A   1      44.370  33.309  29.106  1.00  0.00     0.064 A 
ATOM     62  C   UNL A   1      44.110  34.334  28.183  1.00  0.00     0.173 A 
ATOM     63  C   UNL A   1      45.010  33.655  30.305  1.00  0.00     0.173 A 
ATOM     64  F   UNL A   1      43.516  34.054  27.013  1.00  0.00    -0.203 F 
ATOM     65  C   UNL A   1      44.508  35.644  28.436  1.00  0.00     0.198 A 
ATOM     66  C   UNL A   1      45.381  34.972  30.568  1.00  0.00     0.198 A 
ATOM     67  F   UNL A   1      45.282  32.714  31.223  1.00  0.00    -0.203 F 
ATOM     68  F   UNL A   1      44.301  36.595  27.515  1.00  0.00    -0.200 F 
ATOM     69  C   UNL A   1      45.138  35.963  29.630  1.00  0.00     0.200 A 
ATOM     70  F   UNL A   1      45.980  35.278  31.727  1.00  0.00    -0.200 F 
ATOM     71  F   UNL A   1      45.522  37.223  29.871  1.00  0.00    -0.200 F 
ENDBRANCH  47  61
BRANCH  48  72
ATOM     72  C   UNL A   1      41.253  23.971  27.386  1.00  0.00     0.064 A 
ATOM     73  C   UNL A   1      41.915  22.883  27.970  1.00  0.00     0.173 A 
ATOM     74  C   UNL A   1      40.156  23.699  26.556  1.00  0.00     0.173 A 
ATOM     75  F   UNL A   1      42.985  23.092  28.752  1.00  0.00    -0.203 F 
ATOM     76  C   UNL A   1      41.505  21.574  27.723  1.00  0.00     0.198 A 
ATOM     77  C   UNL A   1      39.730  22.392  26.331  1.00  0.00     0.198 A 
ATOM     78  F   UNL A   1      39.489  24.706  25.974  1.00  0.00    -0.203 F 
ATOM     79  F   UNL A   1      42.180  20.550  28.264  1.00  0.00    -0.200 F 
ATOM     80  C   UNL A   1      40.410  21.330  26.909  1.00  0.00     0.200 A 
ATOM     81  F   UNL A   1      38.664  22.161  25.553  1.00  0.00    -0.200 F 
ATOM     82  F   UNL A   1      40.011  20.072  26.677  1.00  0.00    -0.200 F 
ENDBRANCH  48  72
BRANCH  60  83
ATOM     83  C   UNL A   1      47.130  27.432  25.957  1.00  0.00     0.064 A 
ATOM     84  C   UNL A   1      48.185  26.858  26.681  1.00  0.00     0.173 A 
ATOM     85  C   UNL A   1      47.290  27.581  24.570  1.00  0.00     0.173 A 
ATOM     86  F   UNL A   1      48.086  26.706  28.010  1.00  0.00    -0.203 F 
ATOM     87  C   UNL A   1      49.363  26.476  26.046  1.00  0.00     0.198 A 
ATOM     88  C   UNL A   1      48.457  27.170  23.934  1.00  0.00     0.198 A 
ATOM     89  F   UNL A   1      46.308  28.116  23.829  1.00  0.00    -0.203 F 
ATOM     90  F   UNL A   1      50.378  25.976  26.766  1.00  0.00    -0.200 F 
ATOM     91  C   UNL A   1      49.496  26.626  24.673  1.00  0.00     0.200 A 
ATOM     92  F   UNL A   1      48.578  27.303  22.606  1.00  0.00    -0.200 F 
ATOM     93  F   UNL A   1      50.631  26.253  24.064  1.00  0.00    -0.200 F 
ENDBRANCH  60  83
ENDBRANCH  34  35
ENDBRANCH  27  29
ENDBRANCH  26  27
ENDBRANCH  25  26
ENDBRANCH  24  25
ENDBRANCH  23  24
ENDBRANCH   1  23
TORSDOF 18
ENDMDL
MODEL 3
REMARK VINA RESULT:     -10.8      3.761      8.302
REMARK SMILES C[C@@]([NH2+]Cc1ccccc1Br)(C(=O)OCCOCCOC(=O)c1ccc(-c2c3nc(c(-c4c(F)c(F)c(F)c(F)c4F)c4ccc([nH]4)c(-c4c(F)c(F)c(F)c(F)c4F)c4nc(c(-c5c(F)c(F)c(F)c(F)c5F)c5ccc2[nH]5)C=C4)C=C3)cc1)C(F)(F)F
REMARK SMILES IDX 16 1 15 2 14 3 12 4 13 5 2 6 1 7 3 8 4 11 5 12 6 13 10 14
REMARK SMILES IDX 7 15 9 16 11 17 8 18 86 19 87 20 88 21 89 22 17 23 18 24
REMARK SMILES IDX 19 25 20 26 21 27 22 28 23 29 24 30 85 31 25 32 84 33 26 34
REMARK SMILES IDX 27 35 28 36 78 37 29 38 83 39 77 40 79 41 30 42 82 43 76 44
REMARK SMILES IDX 75 45 31 47 63 48 43 49 62 50 44 51 47 52 61 53 80 54 45 55
REMARK SMILES IDX 46 56 60 58 81 59 48 60 32 61 33 62 41 63 34 64 35 65 39 66
REMARK SMILES IDX 42 67 36 68 37 69 40 70 38 71 64 72 65 73 73 74 66 75 67 76
REMARK SMILES IDX 71 77 74 78 68 79 69 80 72 81 70 82 49 83 50 84 58 85 51 86
REMARK SMILES IDX 52 87 56 88 59 89 53 90 54 91 57 92 55 93
REMARK H PARENT 3 9 3 10 79 46 47 57
REMARK Flexibility Score: inf
ROOT
ATOM      1  C   UNL A   1      34.480  32.856  27.890  1.00  0.00     0.202 C 
ENDROOT
BRANCH   1   2
ATOM      2  C   UNL A   1      34.013  31.403  28.026  1.00  0.00     0.261 C 
BRANCH   2   3
ATOM      3  O   UNL A   1      33.729  30.759  26.773  1.00  0.00    -0.458 OA
BRANCH   3   4
ATOM      4  C   UNL A   1      34.018  29.426  26.748  1.00  0.00     0.377 C 
ATOM      5  O   UNL A   1      34.917  28.936  27.421  1.00  0.00    -0.244 OA
BRANCH   4   6
ATOM      6  C   UNL A   1      33.151  28.632  25.771  1.00  0.00     0.287 C 
ATOM      7  C   UNL A   1      33.237  29.215  24.340  1.00  0.00     0.103 C 
BRANCH   6   8
ATOM      8  N   UNL A   1      33.639  27.212  25.620  1.00  0.00    -0.321 N 
ATOM      9  H   UNL A   1      33.078  26.631  26.243  1.00  0.00     0.347 HD
ATOM     10  H   UNL A   1      34.635  27.261  25.835  1.00  0.00     0.347 HD
BRANCH   8  11
ATOM     11  C   UNL A   1      33.584  26.601  24.286  1.00  0.00     0.299 C 
BRANCH  11  12
ATOM     12  C   UNL A   1      34.118  25.193  24.197  1.00  0.00     0.020 A 
ATOM     13  C   UNL A   1      34.903  24.696  25.255  1.00  0.00     0.011 A 
ATOM     14  C   UNL A   1      33.871  24.340  23.111  1.00  0.00     0.026 A 
ATOM     15  C   UNL A   1      35.338  23.371  25.279  1.00  0.00     0.001 A 
ATOM     16  C   UNL A   1      34.335  23.019  23.120  1.00  0.00     0.016 A 
ATOM     17  Br  UNL A   1      32.911  24.910  21.572  1.00  0.00    -0.050 Br
ATOM     18  C   UNL A   1      35.048  22.530  24.213  1.00  0.00     0.001 A 
ENDBRANCH  11  12
ENDBRANCH   8  11
ENDBRANCH   6   8
BRANCH   6  19
ATOM     19  C   UNL A   1      31.686  28.861  26.231  1.00  0.00     0.455 C 
ATOM     20  F   UNL A   1      31.111  29.888  25.553  1.00  0.00    -0.164 F 
ATOM     21  F   UNL A   1      30.938  27.758  25.957  1.00  0.00    -0.164 F 
ATOM     22  F   UNL A   1      31.528  29.116  27.539  1.00  0.00    -0.164 F 
ENDBRANCH   6  19
ENDBRANCH   4   6
ENDBRANCH   3   4
ENDBRANCH   2   3
ENDBRANCH   1   2
BRANCH   1  23
ATOM     23  O   UNL A   1      34.063  33.793  28.877  1.00  0.00    -0.374 OA
BRANCH  23  24
ATOM     24  C   UNL A   1      34.960  34.108  29.941  1.00  0.00     0.202 C 
BRANCH  24  25
ATOM     25  C   UNL A   1      34.596  33.613  31.342  1.00  0.00     0.261 C 
BRANCH  25  26
ATOM     26  O   UNL A   1      34.844  32.202  31.483  1.00  0.00    -0.460 OA
BRANCH  26  27
ATOM     27  C   UNL A   1      35.881  31.900  32.294  1.00  0.00     0.338 C 
ATOM     28  O   UNL A   1      35.989  32.155  33.488  1.00  0.00    -0.246 OA
BRANCH  27  29
ATOM     29  C   UNL A   1      36.844  31.028  31.600  1.00  0.00     0.060 A 
ATOM     30  C   UNL A   1      37.861  30.463  32.380  1.00  0.00     0.016 A 
ATOM     31  C   UNL A   1      36.826  30.855  30.215  1.00  0.00     0.016 A 
ATOM     32  C   UNL A   1      38.924  29.810  31.769  1.00  0.00     0.010 A 
ATOM     33  C   UNL A   1      37.899  30.206  29.598  1.00  0.00     0.010 A 
ATOM     34  C   UNL A   1      38.981  29.742  30.371  1.00  0.00    -0.014 A 
BRANCH  34  35
ATOM     35  C   UNL A   1      40.280  29.415  29.738  1.00  0.00     0.031 A 
ATOM     36  C   UNL A   1      40.450  28.049  29.129  1.00  0.00     0.074 A 
ATOM     37  C   UNL A   1      41.251  30.334  29.627  1.00  0.00     0.049 A 
ATOM     38  N   UNL A   1      41.470  27.545  28.481  1.00  0.00    -0.248 NA
ATOM     39  C   UNL A   1      39.313  27.124  29.268  1.00  0.00     0.031 C 
ATOM     40  C   UNL A   1      41.177  31.704  30.129  1.00  0.00     0.029 A 
ATOM     41  N   UNL A   1      42.489  30.252  29.042  1.00  0.00    -0.354 N 
ATOM     42  C   UNL A   1      41.100  26.249  28.146  1.00  0.00     0.074 A 
ATOM     43  C   UNL A   1      39.777  26.030  28.687  1.00  0.00     0.031 C 
ATOM     44  C   UNL A   1      42.322  32.340  29.826  1.00  0.00     0.029 A 
ATOM     45  C   UNL A   1      43.214  31.413  29.129  1.00  0.00     0.049 A 
ATOM     46  H   UNL A   1      42.824  29.438  28.601  1.00  0.00     0.167 HD
ATOM     47  C   UNL A   1      41.795  25.326  27.439  1.00  0.00     0.037 A 
ATOM     48  C   UNL A   1      44.459  31.688  28.697  1.00  0.00     0.037 A 
ATOM     49  C   UNL A   1      43.107  25.551  26.892  1.00  0.00     0.049 A 
ATOM     50  C   UNL A   1      45.237  30.626  27.965  1.00  0.00     0.074 A 
ATOM     51  C   UNL A   1      43.892  24.690  26.148  1.00  0.00     0.029 A 
ATOM     52  N   UNL A   1      43.828  26.727  27.040  1.00  0.00    -0.354 N 
ATOM     53  N   UNL A   1      44.874  29.411  27.632  1.00  0.00    -0.248 NA
ATOM     54  C   UNL A   1      46.599  30.981  27.541  1.00  0.00     0.031 C 
ATOM     55  C   UNL A   1      45.109  25.328  25.886  1.00  0.00     0.029 A 
ATOM     56  C   UNL A   1      45.060  26.606  26.419  1.00  0.00     0.049 A 
ATOM     57  H   UNL A   1      43.511  27.529  27.515  1.00  0.00     0.167 HD
ATOM     58  C   UNL A   1      45.942  28.871  26.929  1.00  0.00     0.074 A 
ATOM     59  C   UNL A   1      46.968  29.892  26.880  1.00  0.00     0.031 C 
ATOM     60  C   UNL A   1      46.063  27.641  26.369  1.00  0.00     0.037 A 
BRANCH  47  61
ATOM     61  C   UNL A   1      41.159  23.980  27.254  1.00  0.00     0.064 A 
ATOM     62  C   UNL A   1      41.622  22.841  27.931  1.00  0.00     0.173 A 
ATOM     63  C   UNL A   1      40.068  23.828  26.385  1.00  0.00     0.173 A 
ATOM     64  F   UNL A   1      42.673  22.929  28.759  1.00  0.00    -0.203 F 
ATOM     65  C   UNL A   1      41.039  21.594  27.717  1.00  0.00     0.198 A 
ATOM     66  C   UNL A   1      39.468  22.585  26.196  1.00  0.00     0.198 A 
ATOM     67  F   UNL A   1      39.585  24.884  25.714  1.00  0.00    -0.203 F 
ATOM     68  F   UNL A   1      41.535  20.510  28.330  1.00  0.00    -0.200 F 
ATOM     69  C   UNL A   1      39.960  21.468  26.855  1.00  0.00     0.200 A 
ATOM     70  F   UNL A   1      38.420  22.467  25.370  1.00  0.00    -0.200 F 
ATOM     71  F   UNL A   1      39.402  20.268  26.649  1.00  0.00    -0.200 F 
ENDBRANCH  47  61
BRANCH  48  72
ATOM     72  C   UNL A   1      45.042  33.034  28.931  1.00  0.00     0.064 A 
ATOM     73  C   UNL A   1      44.866  34.068  28.002  1.00  0.00     0.173 A 
ATOM     74  C   UNL A   1      45.787  33.313  30.086  1.00  0.00     0.173 A 
ATOM     75  F   UNL A   1      44.181  33.842  26.872  1.00  0.00    -0.203 F 
ATOM     76  C   UNL A   1      45.425  35.327  28.213  1.00  0.00     0.198 A 
ATOM     77  C   UNL A   1      46.323  34.580  30.309  1.00  0.00     0.198 A 
ATOM     78  F   UNL A   1      45.984  32.357  31.006  1.00  0.00    -0.203 F 
ATOM     79  F   UNL A   1      45.274  36.288  27.291  1.00  0.00    -0.200 F 
ATOM     80  C   UNL A   1      46.147  35.584  29.368  1.00  0.00     0.200 A 
ATOM     81  F   UNL A   1      47.011  34.827  31.431  1.00  0.00    -0.200 F 
ATOM     82  F   UNL A   1      46.678  36.796  29.574  1.00  0.00    -0.200 F 
ENDBRANCH  48  72
BRANCH  60  83
ATOM     83  C   UNL A   1      47.324  27.350  25.609  1.00  0.00     0.064 A 
ATOM     84  C   UNL A   1      47.449  27.637  24.242  1.00  0.00     0.173 A 
ATOM     85  C   UNL A   1      48.438  26.808  26.272  1.00  0.00     0.173 A 
ATOM     86  F   UNL A   1      46.410  28.142  23.562  1.00  0.00    -0.203 F 
ATOM     87  C   UNL A   1      48.632  27.365  23.561  1.00  0.00     0.198 A 
ATOM     88  C   UNL A   1      49.628  26.566  25.594  1.00  0.00     0.198 A 
ATOM     89  F   UNL A   1      48.373  26.524  27.581  1.00  0.00    -0.203 F 
ATOM     90  F   UNL A   1      48.712  27.600  22.243  1.00  0.00    -0.200 F 
ATOM     91  C   UNL A   1      49.722  26.836  24.237  1.00  0.00     0.200 A 
ATOM     92  F   UNL A   1      50.684  26.069  26.252  1.00  0.00    -0.200 F 
ATOM     93  F   UNL A   1      50.861  26.579  23.578  1.00  0.00    -0.200 F 
ENDBRANCH  60  83
ENDBRANCH  34  35
ENDBRANCH  27  29
ENDBRANCH  26  27
ENDBRANCH  25  26
ENDBRANCH  24  25
ENDBRANCH  23  24
ENDBRANCH   1  23
TORSDOF 18
ENDMDL
