MODEL 1
REMARK VINA RESULT:     -11.8      0.000      0.000
REMARK SMILES C[C@@H]1CN(C(=O)c2c(F)cc(Br)cc2F)C[C@H]1C(=O)OCCOCCOC(=O)c1ccc(-c2c3nc(c(-c4c(F)c(F)c(F)c(F)c4F)c4ccc([nH]4)c(-c4c(F)c(F)c(F)c(F)c4F)c4nc(c(-c5c(F)c(F)c(F)c(F)c5F)c5ccc2[nH]5)C=C4)C=C3)cc1
REMARK SMILES IDX 23 1 22 2 21 3 20 4 18 5 19 6 17 7 1 8 2 9 3 10 4 11 16 12
REMARK SMILES IDX 5 13 6 14 7 15 8 16 14 17 9 18 10 19 13 20 15 21 11 22 12 23
REMARK SMILES IDX 24 24 25 25 26 26 27 27 28 28 29 29 30 30 91 31 31 32 90 33
REMARK SMILES IDX 32 34 33 35 34 36 84 37 35 38 89 39 83 40 85 41 36 42 88 43
REMARK SMILES IDX 82 44 81 45 37 47 69 48 49 49 68 50 50 51 53 52 67 53 86 54
REMARK SMILES IDX 51 55 52 56 66 58 87 59 54 60 38 61 39 62 47 63 40 64 41 65
REMARK SMILES IDX 45 66 48 67 42 68 43 69 46 70 44 71 70 72 71 73 79 74 72 75
REMARK SMILES IDX 73 76 77 77 80 78 74 79 75 80 78 81 76 82 55 83 56 84 64 85
REMARK SMILES IDX 57 86 58 87 62 88 65 89 59 90 60 91 63 92 61 93
REMARK H PARENT 85 46 53 57
REMARK Flexibility Score: inf
ROOT
ATOM      1  O   UNL A   1      32.193  30.295  26.110  1.00  0.00    -0.374 OA
ENDROOT
BRANCH   1   2
ATOM      2  C   UNL A   1      32.202  29.469  27.273  1.00  0.00     0.202 C 
BRANCH   2   3
ATOM      3  C   UNL A   1      32.189  27.958  27.033  1.00  0.00     0.261 C 
BRANCH   3   4
ATOM      4  O   UNL A   1      31.735  27.634  25.708  1.00  0.00    -0.463 OA
BRANCH   4   5
ATOM      5  C   UNL A   1      30.875  26.586  25.608  1.00  0.00     0.311 C 
ATOM      6  O   UNL A   1      30.701  25.731  26.468  1.00  0.00    -0.252 OA
BRANCH   5   7
ATOM      7  C   UNL A   1      30.167  26.538  24.271  1.00  0.00     0.123 C 
ATOM      8  C   UNL A   1      28.894  28.463  23.166  1.00  0.00     0.010 C 
ATOM      9  C   UNL A   1      30.257  27.825  23.407  1.00  0.00     0.021 C 
ATOM     10  C   UNL A   1      30.935  27.381  22.106  1.00  0.00     0.124 C 
ATOM     11  N   UNL A   1      31.647  26.183  22.505  1.00  0.00    -0.337 N 
ATOM     12  C   UNL A   1      30.834  25.446  23.449  1.00  0.00     0.135 C 
BRANCH  11  13
ATOM     13  C   UNL A   1      32.950  25.809  22.253  1.00  0.00     0.259 C 
ATOM     14  O   UNL A   1      33.614  26.249  21.318  1.00  0.00    -0.269 OA
BRANCH  13  15
ATOM     15  C   UNL A   1      33.607  24.850  23.141  1.00  0.00     0.111 A 
ATOM     16  C   UNL A   1      34.167  25.239  24.353  1.00  0.00     0.140 A 
ATOM     17  C   UNL A   1      33.569  23.500  22.805  1.00  0.00     0.140 A 
ATOM     18  F   UNL A   1      34.191  26.530  24.720  1.00  0.00    -0.206 F 
ATOM     19  C   UNL A   1      34.730  24.294  25.207  1.00  0.00     0.056 A 
ATOM     20  C   UNL A   1      34.114  22.541  23.653  1.00  0.00     0.056 A 
ATOM     21  F   UNL A   1      33.021  23.096  21.650  1.00  0.00    -0.206 F 
ATOM     22  C   UNL A   1      34.697  22.945  24.853  1.00  0.00     0.023 A 
ATOM     23  Br  UNL A   1      35.448  21.655  26.010  1.00  0.00    -0.051 Br
ENDBRANCH  13  15
ENDBRANCH  11  13
ENDBRANCH   5   7
ENDBRANCH   4   5
ENDBRANCH   3   4
ENDBRANCH   2   3
ENDBRANCH   1   2
BRANCH   1  24
ATOM     24  C   UNL A   1      31.186  31.303  26.030  1.00  0.00     0.202 C 
BRANCH  24  25
ATOM     25  C   UNL A   1      31.459  32.597  26.807  1.00  0.00     0.261 C 
BRANCH  25  26
ATOM     26  O   UNL A   1      32.844  32.988  26.749  1.00  0.00    -0.460 OA
BRANCH  26  27
ATOM     27  C   UNL A   1      33.284  33.686  27.822  1.00  0.00     0.338 C 
ATOM     28  O   UNL A   1      32.719  34.609  28.393  1.00  0.00    -0.246 OA
BRANCH  27  29
ATOM     29  C   UNL A   1      34.518  33.083  28.353  1.00  0.00     0.060 A 
ATOM     30  C   UNL A   1      34.458  31.751  28.784  1.00  0.00     0.016 A 
ATOM     31  C   UNL A   1      35.688  33.828  28.513  1.00  0.00     0.016 A 
ATOM     32  C   UNL A   1      35.565  31.165  29.397  1.00  0.00     0.010 A 
ATOM     33  C   UNL A   1      36.791  33.241  29.143  1.00  0.00     0.010 A 
ATOM     34  C   UNL A   1      36.730  31.914  29.604  1.00  0.00    -0.014 A 
BRANCH  34  35
ATOM     35  C   UNL A   1      37.853  31.334  30.381  1.00  0.00     0.031 A 
ATOM     36  C   UNL A   1      38.771  30.340  29.729  1.00  0.00     0.074 A 
ATOM     37  C   UNL A   1      38.060  31.708  31.656  1.00  0.00     0.049 A 
ATOM     38  N   UNL A   1      39.784  29.686  30.239  1.00  0.00    -0.248 NA
ATOM     39  C   UNL A   1      38.514  30.041  28.312  1.00  0.00     0.031 C 
ATOM     40  C   UNL A   1      37.262  32.689  32.389  1.00  0.00     0.029 A 
ATOM     41  N   UNL A   1      39.006  31.297  32.563  1.00  0.00    -0.354 N 
ATOM     42  C   UNL A   1      40.281  28.897  29.211  1.00  0.00     0.074 A 
ATOM     43  C   UNL A   1      39.445  29.133  28.053  1.00  0.00     0.031 C 
ATOM     44  C   UNL A   1      37.746  32.798  33.637  1.00  0.00     0.029 A 
ATOM     45  C   UNL A   1      38.866  31.872  33.801  1.00  0.00     0.049 A 
ATOM     46  H   UNL A   1      39.717  30.651  32.345  1.00  0.00     0.167 HD
ATOM     47  C   UNL A   1      41.344  28.058  29.229  1.00  0.00     0.037 A 
ATOM     48  C   UNL A   1      39.551  31.658  34.942  1.00  0.00     0.037 A 
ATOM     49  C   UNL A   1      42.181  27.826  30.378  1.00  0.00     0.049 A 
ATOM     50  C   UNL A   1      40.684  30.667  34.953  1.00  0.00     0.074 A 
ATOM     51  C   UNL A   1      43.302  27.020  30.480  1.00  0.00     0.029 A 
ATOM     52  N   UNL A   1      41.984  28.396  31.626  1.00  0.00    -0.354 N 
ATOM     53  N   UNL A   1      41.166  29.947  33.968  1.00  0.00    -0.248 NA
ATOM     54  C   UNL A   1      41.366  30.452  36.238  1.00  0.00     0.031 C 
ATOM     55  C   UNL A   1      43.752  27.063  31.805  1.00  0.00     0.029 A 
ATOM     56  C   UNL A   1      42.941  27.932  32.515  1.00  0.00     0.049 A 
ATOM     57  H   UNL A   1      41.268  29.035  31.849  1.00  0.00     0.167 HD
ATOM     58  C   UNL A   1      42.214  29.213  34.508  1.00  0.00     0.074 A 
ATOM     59  C   UNL A   1      42.311  29.585  35.904  1.00  0.00     0.031 C 
ATOM     60  C   UNL A   1      43.022  28.308  33.903  1.00  0.00     0.037 A 
BRANCH  47  61
ATOM     61  C   UNL A   1      41.657  27.303  27.971  1.00  0.00     0.064 A 
ATOM     62  C   UNL A   1      42.551  27.806  27.016  1.00  0.00     0.173 A 
ATOM     63  C   UNL A   1      41.094  26.039  27.745  1.00  0.00     0.173 A 
ATOM     64  F   UNL A   1      43.106  29.016  27.180  1.00  0.00    -0.203 F 
ATOM     65  C   UNL A   1      42.858  27.075  25.870  1.00  0.00     0.198 A 
ATOM     66  C   UNL A   1      41.421  25.301  26.611  1.00  0.00     0.198 A 
ATOM     67  F   UNL A   1      40.236  25.512  28.633  1.00  0.00    -0.203 F 
ATOM     68  F   UNL A   1      43.690  27.589  24.952  1.00  0.00    -0.200 F 
ATOM     69  C   UNL A   1      42.299  25.821  25.673  1.00  0.00     0.200 A 
ATOM     70  F   UNL A   1      40.888  24.085  26.427  1.00  0.00    -0.200 F 
ATOM     71  F   UNL A   1      42.603  25.116  24.575  1.00  0.00    -0.200 F 
ENDBRANCH  47  61
BRANCH  48  72
ATOM     72  C   UNL A   1      39.165  32.379  36.182  1.00  0.00     0.064 A 
ATOM     73  C   UNL A   1      39.694  33.642  36.480  1.00  0.00     0.173 A 
ATOM     74  C   UNL A   1      38.279  31.808  37.107  1.00  0.00     0.173 A 
ATOM     75  F   UNL A   1      40.570  34.217  35.641  1.00  0.00    -0.203 F 
ATOM     76  C   UNL A   1      39.366  34.298  37.665  1.00  0.00     0.198 A 
ATOM     77  C   UNL A   1      37.931  32.475  38.278  1.00  0.00     0.198 A 
ATOM     78  F   UNL A   1      37.748  30.598  36.870  1.00  0.00    -0.203 F 
ATOM     79  F   UNL A   1      39.925  35.482  37.950  1.00  0.00    -0.200 F 
ATOM     80  C   UNL A   1      38.481  33.717  38.560  1.00  0.00     0.200 A 
ATOM     81  F   UNL A   1      37.071  31.911  39.138  1.00  0.00    -0.200 F 
ATOM     82  F   UNL A   1      38.168  34.345  39.701  1.00  0.00    -0.200 F 
ENDBRANCH  48  72
BRANCH  60  83
ATOM     83  C   UNL A   1      44.089  27.665  34.740  1.00  0.00     0.064 A 
ATOM     84  C   UNL A   1      43.881  26.428  35.367  1.00  0.00     0.173 A 
ATOM     85  C   UNL A   1      45.347  28.272  34.882  1.00  0.00     0.173 A 
ATOM     86  F   UNL A   1      42.691  25.816  35.273  1.00  0.00    -0.203 F 
ATOM     87  C   UNL A   1      44.887  25.831  36.122  1.00  0.00     0.198 A 
ATOM     88  C   UNL A   1      46.358  27.658  35.616  1.00  0.00     0.198 A 
ATOM     89  F   UNL A   1      45.599  29.452  34.297  1.00  0.00    -0.203 F 
ATOM     90  F   UNL A   1      44.652  24.668  36.747  1.00  0.00    -0.200 F 
ATOM     91  C   UNL A   1      46.126  26.442  36.240  1.00  0.00     0.200 A 
ATOM     92  F   UNL A   1      47.560  28.244  35.719  1.00  0.00    -0.200 F 
ATOM     93  F   UNL A   1      47.095  25.861  36.961  1.00  0.00    -0.200 F 
ENDBRANCH  60  83
ENDBRANCH  34  35
ENDBRANCH  27  29
ENDBRANCH  26  27
ENDBRANCH  25  26
ENDBRANCH  24  25
ENDBRANCH   1  24
TORSDOF 16
ENDMDL
MODEL 2
REMARK VINA RESULT:     -11.7      0.776      7.477
REMARK SMILES C[C@@H]1CN(C(=O)c2c(F)cc(Br)cc2F)C[C@H]1C(=O)OCCOCCOC(=O)c1ccc(-c2c3nc(c(-c4c(F)c(F)c(F)c(F)c4F)c4ccc([nH]4)c(-c4c(F)c(F)c(F)c(F)c4F)c4nc(c(-c5c(F)c(F)c(F)c(F)c5F)c5ccc2[nH]5)C=C4)C=C3)cc1
REMARK SMILES IDX 23 1 22 2 21 3 20 4 18 5 19 6 17 7 1 8 2 9 3 10 4 11 16 12
REMARK SMILES IDX 5 13 6 14 7 15 8 16 14 17 9 18 10 19 13 20 15 21 11 22 12 23
REMARK SMILES IDX 24 24 25 25 26 26 27 27 28 28 29 29 30 30 91 31 31 32 90 33
REMARK SMILES IDX 32 34 33 35 34 36 84 37 35 38 89 39 83 40 85 41 36 42 88 43
REMARK SMILES IDX 82 44 81 45 37 47 69 48 49 49 68 50 50 51 53 52 67 53 86 54
REMARK SMILES IDX 51 55 52 56 66 58 87 59 54 60 38 61 39 62 47 63 40 64 41 65
REMARK SMILES IDX 45 66 48 67 42 68 43 69 46 70 44 71 70 72 71 73 79 74 72 75
REMARK SMILES IDX 73 76 77 77 80 78 74 79 75 80 78 81 76 82 55 83 56 84 64 85
REMARK SMILES IDX 57 86 58 87 62 88 65 89 59 90 60 91 63 92 61 93
REMARK H PARENT 85 46 53 57
REMARK Flexibility Score: inf
ROOT
ATOM      1  O   UNL A   1      32.582  30.440  26.126  1.00  0.00    -0.374 OA
ENDROOT
BRANCH   1   2
ATOM      2  C   UNL A   1      32.913  29.410  27.056  1.00  0.00     0.202 C 
BRANCH   2   3
ATOM      3  C   UNL A   1      31.966  28.209  27.104  1.00  0.00     0.261 C 
BRANCH   3   4
ATOM      4  O   UNL A   1      31.355  27.962  25.827  1.00  0.00    -0.463 OA
BRANCH   4   5
ATOM      5  C   UNL A   1      30.800  26.733  25.655  1.00  0.00     0.311 C 
ATOM      6  O   UNL A   1      30.842  25.819  26.470  1.00  0.00    -0.252 OA
BRANCH   5   7
ATOM      7  C   UNL A   1      30.146  26.572  24.298  1.00  0.00     0.123 C 
ATOM      8  C   UNL A   1      28.831  28.366  23.034  1.00  0.00     0.010 C 
ATOM      9  C   UNL A   1      30.212  27.810  23.362  1.00  0.00     0.021 C 
ATOM     10  C   UNL A   1      30.958  27.322  22.116  1.00  0.00     0.124 C 
ATOM     11  N   UNL A   1      31.709  26.185  22.611  1.00  0.00    -0.337 N 
ATOM     12  C   UNL A   1      30.894  25.467  23.569  1.00  0.00     0.135 C 
BRANCH  11  13
ATOM     13  C   UNL A   1      33.036  25.859  22.430  1.00  0.00     0.259 C 
ATOM     14  O   UNL A   1      33.762  26.408  21.605  1.00  0.00    -0.269 OA
BRANCH  13  15
ATOM     15  C   UNL A   1      33.641  24.819  23.261  1.00  0.00     0.111 A 
ATOM     16  C   UNL A   1      33.784  23.511  22.809  1.00  0.00     0.140 A 
ATOM     17  C   UNL A   1      34.182  25.184  24.490  1.00  0.00     0.140 A 
ATOM     18  F   UNL A   1      33.301  23.137  21.615  1.00  0.00    -0.206 F 
ATOM     19  C   UNL A   1      34.422  22.557  23.599  1.00  0.00     0.056 A 
ATOM     20  C   UNL A   1      34.834  24.245  25.285  1.00  0.00     0.056 A 
ATOM     21  F   UNL A   1      34.072  26.441  24.943  1.00  0.00    -0.206 F 
ATOM     22  C   UNL A   1      34.948  22.932  24.835  1.00  0.00     0.023 A 
ATOM     23  Br  UNL A   1      35.823  21.647  25.907  1.00  0.00    -0.051 Br
ENDBRANCH  13  15
ENDBRANCH  11  13
ENDBRANCH   5   7
ENDBRANCH   4   5
ENDBRANCH   3   4
ENDBRANCH   2   3
ENDBRANCH   1   2
BRANCH   1  24
ATOM     24  C   UNL A   1      31.538  31.342  26.491  1.00  0.00     0.202 C 
BRANCH  24  25
ATOM     25  C   UNL A   1      31.974  32.762  26.875  1.00  0.00     0.261 C 
BRANCH  25  26
ATOM     26  O   UNL A   1      32.936  32.768  27.948  1.00  0.00    -0.460 OA
BRANCH  26  27
ATOM     27  C   UNL A   1      34.050  33.500  27.710  1.00  0.00     0.338 C 
ATOM     28  O   UNL A   1      34.112  34.642  27.276  1.00  0.00    -0.246 OA
BRANCH  27  29
ATOM     29  C   UNL A   1      35.242  32.789  28.200  1.00  0.00     0.060 A 
ATOM     30  C   UNL A   1      35.082  31.461  28.618  1.00  0.00     0.016 A 
ATOM     31  C   UNL A   1      36.475  33.431  28.336  1.00  0.00     0.016 A 
ATOM     32  C   UNL A   1      36.151  30.776  29.194  1.00  0.00     0.010 A 
ATOM     33  C   UNL A   1      37.541  32.746  28.929  1.00  0.00     0.010 A 
ATOM     34  C   UNL A   1      37.381  31.422  29.377  1.00  0.00    -0.014 A 
BRANCH  34  35
ATOM     35  C   UNL A   1      38.471  30.740  30.117  1.00  0.00     0.031 A 
ATOM     36  C   UNL A   1      38.698  31.064  31.566  1.00  0.00     0.074 A 
ATOM     37  C   UNL A   1      39.242  29.826  29.501  1.00  0.00     0.049 A 
ATOM     38  N   UNL A   1      39.617  30.615  32.383  1.00  0.00    -0.248 NA
ATOM     39  C   UNL A   1      37.765  32.023  32.178  1.00  0.00     0.031 C 
ATOM     40  C   UNL A   1      39.098  29.400  28.111  1.00  0.00     0.029 A 
ATOM     41  N   UNL A   1      40.305  29.096  29.971  1.00  0.00    -0.354 N 
ATOM     42  C   UNL A   1      39.378  31.237  33.601  1.00  0.00     0.074 A 
ATOM     43  C   UNL A   1      38.243  32.116  33.412  1.00  0.00     0.031 C 
ATOM     44  C   UNL A   1      40.046  28.489  27.836  1.00  0.00     0.029 A 
ATOM     45  C   UNL A   1      40.881  28.292  29.020  1.00  0.00     0.049 A 
ATOM     46  H   UNL A   1      40.625  29.145  30.901  1.00  0.00     0.167 HD
ATOM     47  C   UNL A   1      40.040  31.084  34.772  1.00  0.00     0.037 A 
ATOM     48  C   UNL A   1      41.972  27.504  29.092  1.00  0.00     0.037 A 
ATOM     49  C   UNL A   1      41.166  30.206  34.964  1.00  0.00     0.049 A 
ATOM     50  C   UNL A   1      42.733  27.405  30.388  1.00  0.00     0.074 A 
ATOM     51  C   UNL A   1      41.879  29.958  36.124  1.00  0.00     0.029 A 
ATOM     52  N   UNL A   1      41.746  29.437  33.967  1.00  0.00    -0.354 N 
ATOM     53  N   UNL A   1      42.482  27.975  31.542  1.00  0.00    -0.248 NA
ATOM     54  C   UNL A   1      43.934  26.557  30.390  1.00  0.00     0.031 C 
ATOM     55  C   UNL A   1      42.923  29.079  35.817  1.00  0.00     0.029 A 
ATOM     56  C   UNL A   1      42.830  28.742  34.477  1.00  0.00     0.049 A 
ATOM     57  H   UNL A   1      41.435  29.394  33.034  1.00  0.00     0.167 HD
ATOM     58  C   UNL A   1      43.478  27.542  32.407  1.00  0.00     0.074 A 
ATOM     59  C   UNL A   1      44.329  26.647  31.651  1.00  0.00     0.031 C 
ATOM     60  C   UNL A   1      43.672  27.859  33.711  1.00  0.00     0.037 A 
BRANCH  47  61
ATOM     61  C   UNL A   1      39.581  31.901  35.943  1.00  0.00     0.064 A 
ATOM     62  C   UNL A   1      38.524  31.481  36.763  1.00  0.00     0.173 A 
ATOM     63  C   UNL A   1      40.243  33.091  36.279  1.00  0.00     0.173 A 
ATOM     64  F   UNL A   1      37.852  30.356  36.476  1.00  0.00    -0.203 F 
ATOM     65  C   UNL A   1      38.135  32.234  37.868  1.00  0.00     0.198 A 
ATOM     66  C   UNL A   1      39.867  33.829  37.398  1.00  0.00     0.198 A 
ATOM     67  F   UNL A   1      41.264  33.532  35.529  1.00  0.00    -0.203 F 
ATOM     68  F   UNL A   1      37.099  31.833  38.620  1.00  0.00    -0.200 F 
ATOM     69  C   UNL A   1      38.811  33.402  38.189  1.00  0.00     0.200 A 
ATOM     70  F   UNL A   1      40.527  34.952  37.713  1.00  0.00    -0.200 F 
ATOM     71  F   UNL A   1      38.441  34.120  39.258  1.00  0.00    -0.200 F 
ENDBRANCH  47  61
BRANCH  48  72
ATOM     72  C   UNL A   1      42.430  26.762  27.888  1.00  0.00     0.064 A 
ATOM     73  C   UNL A   1      41.987  25.458  27.629  1.00  0.00     0.173 A 
ATOM     74  C   UNL A   1      43.340  27.335  26.988  1.00  0.00     0.173 A 
ATOM     75  F   UNL A   1      41.140  24.857  28.478  1.00  0.00    -0.203 F 
ATOM     76  C   UNL A   1      42.452  24.748  26.524  1.00  0.00     0.198 A 
ATOM     77  C   UNL A   1      43.783  26.634  25.869  1.00  0.00     0.198 A 
ATOM     78  F   UNL A   1      43.797  28.579  27.194  1.00  0.00    -0.203 F 
ATOM     79  F   UNL A   1      42.052  23.485  26.325  1.00  0.00    -0.200 F 
ATOM     80  C   UNL A   1      43.345  25.338  25.642  1.00  0.00     0.200 A 
ATOM     81  F   UNL A   1      44.643  27.211  25.017  1.00  0.00    -0.200 F 
ATOM     82  F   UNL A   1      43.794  24.654  24.581  1.00  0.00    -0.200 F 
ENDBRANCH  48  72
BRANCH  60  83
ATOM     83  C   UNL A   1      44.842  27.228  34.409  1.00  0.00     0.064 A 
ATOM     84  C   UNL A   1      46.084  27.876  34.484  1.00  0.00     0.173 A 
ATOM     85  C   UNL A   1      44.709  25.984  35.044  1.00  0.00     0.173 A 
ATOM     86  F   UNL A   1      46.266  29.059  33.880  1.00  0.00    -0.203 F 
ATOM     87  C   UNL A   1      47.156  27.291  35.154  1.00  0.00     0.198 A 
ATOM     88  C   UNL A   1      45.775  25.416  35.735  1.00  0.00     0.198 A 
ATOM     89  F   UNL A   1      43.540  25.327  35.007  1.00  0.00    -0.203 F 
ATOM     90  F   UNL A   1      48.346  27.908  35.179  1.00  0.00    -0.200 F 
ATOM     91  C   UNL A   1      46.999  26.066  35.785  1.00  0.00     0.200 A 
ATOM     92  F   UNL A   1      45.619  24.237  36.355  1.00  0.00    -0.200 F 
ATOM     93  F   UNL A   1      48.029  25.509  36.435  1.00  0.00    -0.200 F 
ENDBRANCH  60  83
ENDBRANCH  34  35
ENDBRANCH  27  29
ENDBRANCH  26  27
ENDBRANCH  25  26
ENDBRANCH  24  25
ENDBRANCH   1  24
TORSDOF 16
ENDMDL
MODEL 3
REMARK VINA RESULT:     -11.6      1.708      2.226
REMARK SMILES C[C@@H]1CN(C(=O)c2c(F)cc(Br)cc2F)C[C@H]1C(=O)OCCOCCOC(=O)c1ccc(-c2c3nc(c(-c4c(F)c(F)c(F)c(F)c4F)c4ccc([nH]4)c(-c4c(F)c(F)c(F)c(F)c4F)c4nc(c(-c5c(F)c(F)c(F)c(F)c5F)c5ccc2[nH]5)C=C4)C=C3)cc1
REMARK SMILES IDX 23 1 22 2 21 3 20 4 18 5 19 6 17 7 1 8 2 9 3 10 4 11 16 12
REMARK SMILES IDX 5 13 6 14 7 15 8 16 14 17 9 18 10 19 13 20 15 21 11 22 12 23
REMARK SMILES IDX 24 24 25 25 26 26 27 27 28 28 29 29 30 30 91 31 31 32 90 33
REMARK SMILES IDX 32 34 33 35 34 36 84 37 35 38 89 39 83 40 85 41 36 42 88 43
REMARK SMILES IDX 82 44 81 45 37 47 69 48 49 49 68 50 50 51 53 52 67 53 86 54
REMARK SMILES IDX 51 55 52 56 66 58 87 59 54 60 38 61 39 62 47 63 40 64 41 65
REMARK SMILES IDX 45 66 48 67 42 68 43 69 46 70 44 71 70 72 71 73 79 74 72 75
REMARK SMILES IDX 73 76 77 77 80 78 74 79 75 80 78 81 76 82 55 83 56 84 64 85
REMARK SMILES IDX 57 86 58 87 62 88 65 89 59 90 60 91 63 92 61 93
REMARK H PARENT 85 46 53 57
REMARK Flexibility Score: inf
ROOT
ATOM      1  O   UNL A   1      33.362  28.737  25.125  1.00  0.00    -0.374 OA
ENDROOT
BRANCH   1   2
ATOM      2  C   UNL A   1      33.733  27.588  24.365  1.00  0.00     0.202 C 
BRANCH   2   3
ATOM      3  C   UNL A   1      32.811  26.372  24.479  1.00  0.00     0.261 C 
BRANCH   3   4
ATOM      4  O   UNL A   1      32.866  25.783  25.789  1.00  0.00    -0.463 OA
BRANCH   4   5
ATOM      5  C   UNL A   1      31.671  25.478  26.360  1.00  0.00     0.311 C 
ATOM      6  O   UNL A   1      30.736  26.258  26.500  1.00  0.00    -0.252 OA
BRANCH   5   7
ATOM      7  C   UNL A   1      31.615  24.055  26.875  1.00  0.00     0.123 C 
ATOM      8  C   UNL A   1      29.527  22.584  27.022  1.00  0.00     0.010 C 
ATOM      9  C   UNL A   1      30.646  23.100  26.125  1.00  0.00     0.021 C 
ATOM     10  C   UNL A   1      31.538  21.973  25.593  1.00  0.00     0.124 C 
ATOM     11  N   UNL A   1      32.847  22.591  25.542  1.00  0.00    -0.337 N 
ATOM     12  C   UNL A   1      33.001  23.458  26.692  1.00  0.00     0.135 C 
BRANCH  11  13
ATOM     13  C   UNL A   1      33.784  22.589  24.530  1.00  0.00     0.259 C 
ATOM     14  O   UNL A   1      33.508  22.787  23.350  1.00  0.00    -0.269 OA
BRANCH  13  15
ATOM     15  C   UNL A   1      35.191  22.356  24.854  1.00  0.00     0.111 A 
ATOM     16  C   UNL A   1      36.064  23.405  25.122  1.00  0.00     0.140 A 
ATOM     17  C   UNL A   1      35.630  21.043  25.001  1.00  0.00     0.140 A 
ATOM     18  F   UNL A   1      35.662  24.681  25.020  1.00  0.00    -0.206 F 
ATOM     19  C   UNL A   1      37.383  23.149  25.490  1.00  0.00     0.056 A 
ATOM     20  C   UNL A   1      36.941  20.771  25.381  1.00  0.00     0.056 A 
ATOM     21  F   UNL A   1      34.805  20.013  24.764  1.00  0.00    -0.206 F 
ATOM     22  C   UNL A   1      37.814  21.830  25.621  1.00  0.00     0.023 A 
ATOM     23  Br  UNL A   1      39.599  21.475  26.129  1.00  0.00    -0.051 Br
ENDBRANCH  13  15
ENDBRANCH  11  13
ENDBRANCH   5   7
ENDBRANCH   4   5
ENDBRANCH   3   4
ENDBRANCH   2   3
ENDBRANCH   1   2
BRANCH   1  24
ATOM     24  C   UNL A   1      32.114  29.353  24.814  1.00  0.00     0.202 C 
BRANCH  24  25
ATOM     25  C   UNL A   1      31.665  30.484  25.748  1.00  0.00     0.261 C 
BRANCH  25  26
ATOM     26  O   UNL A   1      32.386  30.483  26.995  1.00  0.00    -0.460 OA
BRANCH  26  27
ATOM     27  C   UNL A   1      33.071  31.621  27.258  1.00  0.00     0.338 C 
ATOM     28  O   UNL A   1      32.664  32.772  27.176  1.00  0.00    -0.246 OA
BRANCH  27  29
ATOM     29  C   UNL A   1      34.390  31.302  27.830  1.00  0.00     0.060 A 
ATOM     30  C   UNL A   1      34.621  29.981  28.235  1.00  0.00     0.016 A 
ATOM     31  C   UNL A   1      35.351  32.290  28.052  1.00  0.00     0.016 A 
ATOM     32  C   UNL A   1      35.810  29.647  28.884  1.00  0.00     0.010 A 
ATOM     33  C   UNL A   1      36.535  31.955  28.719  1.00  0.00     0.010 A 
ATOM     34  C   UNL A   1      36.763  30.636  29.153  1.00  0.00    -0.014 A 
BRANCH  34  35
ATOM     35  C   UNL A   1      37.959  30.309  29.968  1.00  0.00     0.031 A 
ATOM     36  C   UNL A   1      39.031  29.429  29.389  1.00  0.00     0.074 A 
ATOM     37  C   UNL A   1      38.093  30.809  31.209  1.00  0.00     0.049 A 
ATOM     38  N   UNL A   1      40.133  28.990  29.944  1.00  0.00    -0.248 NA
ATOM     39  C   UNL A   1      38.837  28.984  28.001  1.00  0.00     0.031 C 
ATOM     40  C   UNL A   1      37.141  31.701  31.867  1.00  0.00     0.029 A 
ATOM     41  N   UNL A   1      39.087  30.628  32.139  1.00  0.00    -0.354 N 
ATOM     42  C   UNL A   1      40.760  28.215  28.978  1.00  0.00     0.074 A 
ATOM     43  C   UNL A   1      39.905  28.222  27.809  1.00  0.00     0.031 C 
ATOM     44  C   UNL A   1      37.592  31.983  33.101  1.00  0.00     0.029 A 
ATOM     45  C   UNL A   1      38.846  31.267  33.330  1.00  0.00     0.049 A 
ATOM     46  H   UNL A   1      39.895  30.092  31.969  1.00  0.00     0.167 HD
ATOM     47  C   UNL A   1      41.944  27.563  29.055  1.00  0.00     0.037 A 
ATOM     48  C   UNL A   1      39.547  31.256  34.481  1.00  0.00     0.037 A 
ATOM     49  C   UNL A   1      42.799  27.560  30.215  1.00  0.00     0.049 A 
ATOM     50  C   UNL A   1      40.826  30.465  34.563  1.00  0.00     0.074 A 
ATOM     51  C   UNL A   1      44.035  26.957  30.373  1.00  0.00     0.029 A 
ATOM     52  N   UNL A   1      42.502  28.185  31.416  1.00  0.00    -0.354 N 
ATOM     53  N   UNL A   1      41.426  29.759  33.635  1.00  0.00    -0.248 NA
ATOM     54  C   UNL A   1      41.525  30.465  35.857  1.00  0.00     0.031 C 
ATOM     55  C   UNL A   1      44.462  27.174  31.688  1.00  0.00     0.029 A 
ATOM     56  C   UNL A   1      43.515  27.953  32.333  1.00  0.00     0.049 A 
ATOM     57  H   UNL A   1      41.691  28.715  31.592  1.00  0.00     0.167 HD
ATOM     58  C   UNL A   1      42.575  29.249  34.225  1.00  0.00     0.074 A 
ATOM     59  C   UNL A   1      42.600  29.739  35.586  1.00  0.00     0.031 C 
ATOM     60  C   UNL A   1      43.524  28.443  33.687  1.00  0.00     0.037 A 
BRANCH  47  61
ATOM     61  C   UNL A   1      42.385  26.774  27.858  1.00  0.00     0.064 A 
ATOM     62  C   UNL A   1      43.204  27.336  26.869  1.00  0.00     0.173 A 
ATOM     63  C   UNL A   1      42.025  25.425  27.728  1.00  0.00     0.173 A 
ATOM     64  F   UNL A   1      43.564  28.626  26.942  1.00  0.00    -0.203 F 
ATOM     65  C   UNL A   1      43.634  26.578  25.782  1.00  0.00     0.198 A 
ATOM     66  C   UNL A   1      42.475  24.664  26.653  1.00  0.00     0.198 A 
ATOM     67  F   UNL A   1      41.246  24.840  28.651  1.00  0.00    -0.203 F 
ATOM     68  F   UNL A   1      44.388  27.144  24.829  1.00  0.00    -0.200 F 
ATOM     69  C   UNL A   1      43.275  25.242  25.679  1.00  0.00     0.200 A 
ATOM     70  F   UNL A   1      42.137  23.371  26.560  1.00  0.00    -0.200 F 
ATOM     71  F   UNL A   1      43.697  24.512  24.638  1.00  0.00    -0.200 F 
ENDBRANCH  47  61
BRANCH  48  72
ATOM     72  C   UNL A   1      39.040  31.999  35.663  1.00  0.00     0.064 A 
ATOM     73  C   UNL A   1      39.368  33.346  35.868  1.00  0.00     0.173 A 
ATOM     74  C   UNL A   1      38.239  31.368  36.626  1.00  0.00     0.173 A 
ATOM     75  F   UNL A   1      40.157  33.984  34.990  1.00  0.00    -0.203 F 
ATOM     76  C   UNL A   1      38.929  34.029  37.000  1.00  0.00     0.198 A 
ATOM     77  C   UNL A   1      37.779  32.059  37.744  1.00  0.00     0.198 A 
ATOM     78  F   UNL A   1      37.901  30.078  36.479  1.00  0.00    -0.203 F 
ATOM     79  F   UNL A   1      39.298  35.302  37.197  1.00  0.00    -0.200 F 
ATOM     80  C   UNL A   1      38.130  33.386  37.934  1.00  0.00     0.200 A 
ATOM     81  F   UNL A   1      37.003  31.434  38.642  1.00  0.00    -0.200 F 
ATOM     82  F   UNL A   1      37.710  34.042  39.025  1.00  0.00    -0.200 F 
ENDBRANCH  48  72
BRANCH  60  83
ATOM     83  C   UNL A   1      44.675  28.049  34.566  1.00  0.00     0.064 A 
ATOM     84  C   UNL A   1      44.647  26.867  35.321  1.00  0.00     0.173 A 
ATOM     85  C   UNL A   1      45.834  28.838  34.622  1.00  0.00     0.173 A 
ATOM     86  F   UNL A   1      43.556  26.087  35.313  1.00  0.00    -0.203 F 
ATOM     87  C   UNL A   1      45.730  26.500  36.116  1.00  0.00     0.198 A 
ATOM     88  C   UNL A   1      46.925  28.454  35.396  1.00  0.00     0.198 A 
ATOM     89  F   UNL A   1      45.914  29.974  33.913  1.00  0.00    -0.203 F 
ATOM     90  F   UNL A   1      45.666  25.388  36.861  1.00  0.00    -0.200 F 
ATOM     91  C   UNL A   1      46.871  27.289  36.147  1.00  0.00     0.200 A 
ATOM     92  F   UNL A   1      48.031  29.211  35.416  1.00  0.00    -0.200 F 
ATOM     93  F   UNL A   1      47.915  26.930  36.906  1.00  0.00    -0.200 F 
ENDBRANCH  60  83
ENDBRANCH  34  35
ENDBRANCH  27  29
ENDBRANCH  26  27
ENDBRANCH  25  26
ENDBRANCH  24  25
ENDBRANCH   1  24
TORSDOF 16
ENDMDL
