MODEL 1
REMARK VINA RESULT:     -11.2      0.000      0.000
REMARK SMILES C[C@H](Oc1ccccc1[N+](=O)[O-])C(=O)N1CCC[C@H](C(=O)OCCOCCOC(=O)c2ccc(-c3c4nc(c(-c5c(F)c(F)c(F)c(F)c5F)c5ccc([nH]5)c(-c5c(F)c(F)c(F)c(F)c5F)c5nc(c(-c6c(F)c(F)c(F)c(F)c6F)c6ccc3[nH]6)C=C5)C=C4)cc2)C1
REMARK SMILES IDX 23 1 22 2 20 3 21 4 19 5 15 6 16 7 94 8 17 9 18 10 13 11
REMARK SMILES IDX 14 12 2 13 1 14 3 15 4 16 5 17 9 18 6 19 8 20 7 21 10 22
REMARK SMILES IDX 11 23 12 24 24 25 25 26 26 27 27 28 28 29 29 30 30 31 31 32
REMARK SMILES IDX 32 33 93 34 33 35 92 36 34 37 35 38 36 39 86 40 37 41 91 42
REMARK SMILES IDX 85 43 87 44 38 45 90 46 84 47 83 48 39 50 71 51 51 52 70 53
REMARK SMILES IDX 52 54 55 55 69 56 88 57 53 58 54 59 68 61 89 62 56 63 40 64
REMARK SMILES IDX 41 65 49 66 42 67 43 68 47 69 50 70 44 71 45 72 48 73 46 74
REMARK SMILES IDX 72 75 73 76 81 77 74 78 75 79 79 80 82 81 76 82 77 83 80 84
REMARK SMILES IDX 78 85 57 86 58 87 66 88 59 89 60 90 64 91 67 92 61 93 62 94
REMARK SMILES IDX 65 95 63 96
REMARK H PARENT 87 49 55 60
REMARK Flexibility Score: inf
ROOT
ATOM      1  C   UNL A   1      34.140  30.156  27.031  1.00  0.00     0.261 C 
ENDROOT
BRANCH   1   2
ATOM      2  O   UNL A   1      33.006  29.328  26.699  1.00  0.00    -0.463 OA
BRANCH   2   3
ATOM      3  C   UNL A   1      32.668  29.217  25.392  1.00  0.00     0.310 C 
ATOM      4  O   UNL A   1      33.431  29.376  24.450  1.00  0.00    -0.252 OA
BRANCH   3   5
ATOM      5  C   UNL A   1      31.213  28.829  25.198  1.00  0.00     0.119 C 
ATOM      6  N   UNL A   1      31.477  26.585  24.222  1.00  0.00    -0.339 N 
ATOM      7  C   UNL A   1      30.825  26.957  22.970  1.00  0.00     0.119 C 
ATOM      8  C   UNL A   1      31.029  27.329  25.398  1.00  0.00     0.134 C 
ATOM      9  C   UNL A   1      30.964  28.445  22.670  1.00  0.00     0.022 C 
ATOM     10  C   UNL A   1      30.593  29.309  23.878  1.00  0.00     0.019 C 
BRANCH   6  11
ATOM     11  C   UNL A   1      32.504  25.639  24.210  1.00  0.00     0.263 C 
ATOM     12  O   UNL A   1      33.644  25.927  23.834  1.00  0.00    -0.271 OA
BRANCH  11  13
ATOM     13  C   UNL A   1      32.128  24.152  24.467  1.00  0.00     0.259 C 
ATOM     14  C   UNL A   1      32.370  23.940  25.971  1.00  0.00     0.064 C 
BRANCH  13  15
ATOM     15  O   UNL A   1      32.806  23.291  23.548  1.00  0.00    -0.474 OA
BRANCH  15  16
ATOM     16  C   UNL A   1      33.289  22.059  23.884  1.00  0.00     0.197 A 
ATOM     17  C   UNL A   1      32.527  20.893  23.946  1.00  0.00     0.054 A 
ATOM     18  C   UNL A   1      34.641  21.957  24.260  1.00  0.00     0.310 A 
ATOM     19  C   UNL A   1      33.037  19.723  24.526  1.00  0.00     0.004 A 
ATOM     20  C   UNL A   1      35.166  20.787  24.837  1.00  0.00     0.090 A 
ATOM     21  C   UNL A   1      34.344  19.678  25.001  1.00  0.00     0.007 A 
BRANCH  18  22
ATOM     22  N   UNL A   1      35.576  23.049  24.011  1.00  0.00     0.066 N 
ATOM     23  O   UNL A   1      35.990  23.173  22.850  1.00  0.00    -0.258 OA
ATOM     24  O   UNL A   1      35.823  23.821  24.949  1.00  0.00    -0.258 OA
ENDBRANCH  18  22
ENDBRANCH  15  16
ENDBRANCH  13  15
ENDBRANCH  11  13
ENDBRANCH   6  11
ENDBRANCH   3   5
ENDBRANCH   2   3
ENDBRANCH   1   2
BRANCH   1  25
ATOM     25  C   UNL A   1      33.676  31.473  27.663  1.00  0.00     0.202 C 
BRANCH  25  26
ATOM     26  O   UNL A   1      34.712  32.283  28.226  1.00  0.00    -0.374 OA
BRANCH  26  27
ATOM     27  C   UNL A   1      34.300  33.333  29.097  1.00  0.00     0.202 C 
BRANCH  27  28
ATOM     28  C   UNL A   1      34.826  33.235  30.532  1.00  0.00     0.261 C 
BRANCH  28  29
ATOM     29  O   UNL A   1      34.877  31.873  30.992  1.00  0.00    -0.460 OA
BRANCH  29  30
ATOM     30  C   UNL A   1      35.875  31.628  31.872  1.00  0.00     0.338 C 
ATOM     31  O   UNL A   1      35.900  31.917  33.063  1.00  0.00    -0.246 OA
BRANCH  30  32
ATOM     32  C   UNL A   1      36.947  30.830  31.252  1.00  0.00     0.060 A 
ATOM     33  C   UNL A   1      38.065  30.554  32.046  1.00  0.00     0.016 A 
ATOM     34  C   UNL A   1      36.927  30.459  29.903  1.00  0.00     0.016 A 
ATOM     35  C   UNL A   1      39.198  29.979  31.478  1.00  0.00     0.010 A 
ATOM     36  C   UNL A   1      38.068  29.878  29.334  1.00  0.00     0.010 A 
ATOM     37  C   UNL A   1      39.226  29.683  30.108  1.00  0.00    -0.014 A 
BRANCH  37  38
ATOM     38  C   UNL A   1      40.529  29.319  29.497  1.00  0.00     0.031 A 
ATOM     39  C   UNL A   1      40.712  27.939  28.921  1.00  0.00     0.074 A 
ATOM     40  C   UNL A   1      41.500  30.237  29.358  1.00  0.00     0.049 A 
ATOM     41  N   UNL A   1      41.713  27.452  28.231  1.00  0.00    -0.248 NA
ATOM     42  C   UNL A   1      39.619  26.981  29.152  1.00  0.00     0.031 C 
ATOM     43  C   UNL A   1      41.437  31.611  29.853  1.00  0.00     0.029 A 
ATOM     44  N   UNL A   1      42.722  30.157  28.737  1.00  0.00    -0.354 N 
ATOM     45  C   UNL A   1      41.366  26.139  27.938  1.00  0.00     0.074 A 
ATOM     46  C   UNL A   1      40.085  25.890  28.561  1.00  0.00     0.031 C 
ATOM     47  C   UNL A   1      42.566  32.251  29.504  1.00  0.00     0.029 A 
ATOM     48  C   UNL A   1      43.433  31.330  28.772  1.00  0.00     0.049 A 
ATOM     49  H   UNL A   1      43.055  29.336  28.308  1.00  0.00     0.167 HD
ATOM     50  C   UNL A   1      42.046  25.228  27.200  1.00  0.00     0.037 A 
ATOM     51  C   UNL A   1      44.645  31.627  28.265  1.00  0.00     0.037 A 
ATOM     52  C   UNL A   1      43.319  25.473  26.575  1.00  0.00     0.049 A 
ATOM     53  C   UNL A   1      45.396  30.585  27.477  1.00  0.00     0.074 A 
ATOM     54  C   UNL A   1      44.078  24.618  25.794  1.00  0.00     0.029 A 
ATOM     55  N   UNL A   1      44.026  26.663  26.664  1.00  0.00    -0.354 N 
ATOM     56  N   UNL A   1      45.041  29.361  27.171  1.00  0.00    -0.248 NA
ATOM     57  C   UNL A   1      46.712  30.976  26.951  1.00  0.00     0.031 C 
ATOM     58  C   UNL A   1      45.263  25.276  25.447  1.00  0.00     0.029 A 
ATOM     59  C   UNL A   1      45.221  26.558  25.970  1.00  0.00     0.049 A 
ATOM     60  H   UNL A   1      43.723  27.465  27.149  1.00  0.00     0.167 HD
ATOM     61  C   UNL A   1      46.074  28.846  26.398  1.00  0.00     0.074 A 
ATOM     62  C   UNL A   1      47.061  29.897  26.267  1.00  0.00     0.031 C 
ATOM     63  C   UNL A   1      46.195  27.612  25.847  1.00  0.00     0.037 A 
BRANCH  50  64
ATOM     64  C   UNL A   1      41.428  23.870  27.040  1.00  0.00     0.064 A 
ATOM     65  C   UNL A   1      41.996  22.730  27.630  1.00  0.00     0.173 A 
ATOM     66  C   UNL A   1      40.237  23.712  26.317  1.00  0.00     0.173 A 
ATOM     67  F   UNL A   1      43.143  22.827  28.320  1.00  0.00    -0.203 F 
ATOM     68  C   UNL A   1      41.404  21.478  27.483  1.00  0.00     0.198 A 
ATOM     69  C   UNL A   1      39.634  22.462  26.194  1.00  0.00     0.198 A 
ATOM     70  F   UNL A   1      39.652  24.770  25.736  1.00  0.00    -0.203 F 
ATOM     71  F   UNL A   1      41.986  20.397  28.021  1.00  0.00    -0.200 F 
ATOM     72  C   UNL A   1      40.221  21.346  26.772  1.00  0.00     0.200 A 
ATOM     73  F   UNL A   1      38.485  22.338  25.515  1.00  0.00    -0.200 F 
ATOM     74  F   UNL A   1      39.650  20.141  26.636  1.00  0.00    -0.200 F 
ENDBRANCH  50  64
BRANCH  51  75
ATOM     75  C   UNL A   1      45.220  32.980  28.470  1.00  0.00     0.064 A 
ATOM     76  C   UNL A   1      44.935  34.033  27.589  1.00  0.00     0.173 A 
ATOM     77  C   UNL A   1      46.082  33.244  29.544  1.00  0.00     0.173 A 
ATOM     78  F   UNL A   1      44.138  33.821  26.531  1.00  0.00    -0.203 F 
ATOM     79  C   UNL A   1      45.504  35.291  27.764  1.00  0.00     0.198 A 
ATOM     80  C   UNL A   1      46.630  34.510  29.734  1.00  0.00     0.198 A 
ATOM     81  F   UNL A   1      46.391  32.269  30.412  1.00  0.00    -0.203 F 
ATOM     82  F   UNL A   1      45.254  36.267  26.879  1.00  0.00    -0.200 F 
ATOM     83  C   UNL A   1      46.347  35.531  28.839  1.00  0.00     0.200 A 
ATOM     84  F   UNL A   1      47.438  34.739  30.778  1.00  0.00    -0.200 F 
ATOM     85  F   UNL A   1      46.895  36.742  29.007  1.00  0.00    -0.200 F 
ENDBRANCH  51  75
BRANCH  63  86
ATOM     86  C   UNL A   1      47.426  27.343  25.032  1.00  0.00     0.064 A 
ATOM     87  C   UNL A   1      47.505  27.698  23.677  1.00  0.00     0.173 A 
ATOM     88  C   UNL A   1      48.548  26.735  25.617  1.00  0.00     0.173 A 
ATOM     89  F   UNL A   1      46.453  28.268  23.068  1.00  0.00    -0.203 F 
ATOM     90  C   UNL A   1      48.647  27.425  22.930  1.00  0.00     0.198 A 
ATOM     91  C   UNL A   1      49.700  26.492  24.874  1.00  0.00     0.198 A 
ATOM     92  F   UNL A   1      48.530  26.384  26.912  1.00  0.00    -0.203 F 
ATOM     93  F   UNL A   1      48.678  27.724  21.623  1.00  0.00    -0.200 F 
ATOM     94  C   UNL A   1      49.746  26.827  23.530  1.00  0.00     0.200 A 
ATOM     95  F   UNL A   1      50.765  25.924  25.458  1.00  0.00    -0.200 F 
ATOM     96  F   UNL A   1      50.844  26.563  22.809  1.00  0.00    -0.200 F 
ENDBRANCH  63  86
ENDBRANCH  37  38
ENDBRANCH  30  32
ENDBRANCH  29  30
ENDBRANCH  28  29
ENDBRANCH  27  28
ENDBRANCH  26  27
ENDBRANCH  25  26
ENDBRANCH   1  25
TORSDOF 19
ENDMDL
MODEL 2
REMARK VINA RESULT:     -11.0      1.045      2.080
REMARK SMILES C[C@H](Oc1ccccc1[N+](=O)[O-])C(=O)N1CCC[C@H](C(=O)OCCOCCOC(=O)c2ccc(-c3c4nc(c(-c5c(F)c(F)c(F)c(F)c5F)c5ccc([nH]5)c(-c5c(F)c(F)c(F)c(F)c5F)c5nc(c(-c6c(F)c(F)c(F)c(F)c6F)c6ccc3[nH]6)C=C5)C=C4)cc2)C1
REMARK SMILES IDX 23 1 22 2 20 3 21 4 19 5 15 6 16 7 94 8 17 9 18 10 13 11
REMARK SMILES IDX 14 12 2 13 1 14 3 15 4 16 5 17 9 18 6 19 8 20 7 21 10 22
REMARK SMILES IDX 11 23 12 24 24 25 25 26 26 27 27 28 28 29 29 30 30 31 31 32
REMARK SMILES IDX 32 33 93 34 33 35 92 36 34 37 35 38 36 39 86 40 37 41 91 42
REMARK SMILES IDX 85 43 87 44 38 45 90 46 84 47 83 48 39 50 71 51 51 52 70 53
REMARK SMILES IDX 52 54 55 55 69 56 88 57 53 58 54 59 68 61 89 62 56 63 40 64
REMARK SMILES IDX 41 65 49 66 42 67 43 68 47 69 50 70 44 71 45 72 48 73 46 74
REMARK SMILES IDX 72 75 73 76 81 77 74 78 75 79 79 80 82 81 76 82 77 83 80 84
REMARK SMILES IDX 78 85 57 86 58 87 66 88 59 89 60 90 64 91 67 92 61 93 62 94
REMARK SMILES IDX 65 95 63 96
REMARK H PARENT 87 49 55 60
REMARK Flexibility Score: inf
ROOT
ATOM      1  C   UNL A   1      33.916  30.402  26.875  1.00  0.00     0.261 C 
ENDROOT
BRANCH   1   2
ATOM      2  O   UNL A   1      32.826  30.114  25.975  1.00  0.00    -0.463 OA
BRANCH   2   3
ATOM      3  C   UNL A   1      33.036  29.190  25.006  1.00  0.00     0.310 C 
ATOM      4  O   UNL A   1      34.082  28.586  24.824  1.00  0.00    -0.252 OA
BRANCH   3   5
ATOM      5  C   UNL A   1      31.799  28.940  24.162  1.00  0.00     0.119 C 
ATOM      6  N   UNL A   1      31.242  26.646  24.856  1.00  0.00    -0.339 N 
ATOM      7  C   UNL A   1      31.421  26.103  23.513  1.00  0.00     0.119 C 
ATOM      8  C   UNL A   1      30.816  28.044  24.906  1.00  0.00     0.134 C 
ATOM      9  C   UNL A   1      32.403  26.926  22.687  1.00  0.00     0.022 C 
ATOM     10  C   UNL A   1      32.085  28.422  22.745  1.00  0.00     0.019 C 
BRANCH   6  11
ATOM     11  C   UNL A   1      31.552  25.857  25.966  1.00  0.00     0.263 C 
ATOM     12  O   UNL A   1      31.726  26.354  27.083  1.00  0.00    -0.271 OA
BRANCH  11  13
ATOM     13  C   UNL A   1      31.895  24.361  25.723  1.00  0.00     0.259 C 
ATOM     14  C   UNL A   1      30.645  23.591  26.183  1.00  0.00     0.064 C 
BRANCH  13  15
ATOM     15  O   UNL A   1      33.150  24.024  26.322  1.00  0.00    -0.474 OA
BRANCH  15  16
ATOM     16  C   UNL A   1      34.212  23.529  25.621  1.00  0.00     0.197 A 
ATOM     17  C   UNL A   1      35.173  24.306  24.975  1.00  0.00     0.054 A 
ATOM     18  C   UNL A   1      34.320  22.135  25.479  1.00  0.00     0.310 A 
ATOM     19  C   UNL A   1      36.090  23.732  24.083  1.00  0.00     0.004 A 
ATOM     20  C   UNL A   1      35.240  21.546  24.592  1.00  0.00     0.090 A 
ATOM     21  C   UNL A   1      36.104  22.358  23.866  1.00  0.00     0.007 A 
BRANCH  18  22
ATOM     22  N   UNL A   1      33.517  21.230  26.295  1.00  0.00     0.066 N 
ATOM     23  O   UNL A   1      33.761  21.211  27.509  1.00  0.00    -0.258 OA
ATOM     24  O   UNL A   1      32.599  20.613  25.737  1.00  0.00    -0.258 OA
ENDBRANCH  18  22
ENDBRANCH  15  16
ENDBRANCH  13  15
ENDBRANCH  11  13
ENDBRANCH   6  11
ENDBRANCH   3   5
ENDBRANCH   2   3
ENDBRANCH   1   2
BRANCH   1  25
ATOM     25  C   UNL A   1      33.515  31.499  27.868  1.00  0.00     0.202 C 
BRANCH  25  26
ATOM     26  O   UNL A   1      34.532  31.889  28.796  1.00  0.00    -0.374 OA
BRANCH  26  27
ATOM     27  C   UNL A   1      34.328  33.118  29.487  1.00  0.00     0.202 C 
BRANCH  27  28
ATOM     28  C   UNL A   1      34.821  33.140  30.937  1.00  0.00     0.261 C 
BRANCH  28  29
ATOM     29  O   UNL A   1      34.970  31.813  31.473  1.00  0.00    -0.460 OA
BRANCH  29  30
ATOM     30  C   UNL A   1      36.081  31.648  32.228  1.00  0.00     0.338 C 
ATOM     31  O   UNL A   1      36.236  31.977  33.398  1.00  0.00    -0.246 OA
BRANCH  30  32
ATOM     32  C   UNL A   1      37.110  30.886  31.501  1.00  0.00     0.060 A 
ATOM     33  C   UNL A   1      38.144  30.336  32.266  1.00  0.00     0.016 A 
ATOM     34  C   UNL A   1      37.143  30.804  30.104  1.00  0.00     0.016 A 
ATOM     35  C   UNL A   1      39.252  29.774  31.640  1.00  0.00     0.010 A 
ATOM     36  C   UNL A   1      38.258  30.235  29.475  1.00  0.00     0.010 A 
ATOM     37  C   UNL A   1      39.340  29.764  30.241  1.00  0.00    -0.014 A 
BRANCH  37  38
ATOM     38  C   UNL A   1      40.640  29.397  29.623  1.00  0.00     0.031 A 
ATOM     39  C   UNL A   1      40.825  28.010  29.068  1.00  0.00     0.074 A 
ATOM     40  C   UNL A   1      41.604  30.319  29.461  1.00  0.00     0.049 A 
ATOM     41  N   UNL A   1      41.823  27.518  28.376  1.00  0.00    -0.248 NA
ATOM     42  C   UNL A   1      39.741  27.049  29.323  1.00  0.00     0.031 C 
ATOM     43  C   UNL A   1      41.537  31.700  29.936  1.00  0.00     0.029 A 
ATOM     44  N   UNL A   1      42.821  30.236  28.831  1.00  0.00    -0.354 N 
ATOM     45  C   UNL A   1      41.481  26.198  28.106  1.00  0.00     0.074 A 
ATOM     46  C   UNL A   1      40.207  25.952  28.745  1.00  0.00     0.031 C 
ATOM     47  C   UNL A   1      42.660  32.341  29.567  1.00  0.00     0.029 A 
ATOM     48  C   UNL A   1      43.526  31.414  28.841  1.00  0.00     0.049 A 
ATOM     49  H   UNL A   1      43.155  29.410  28.411  1.00  0.00     0.167 HD
ATOM     50  C   UNL A   1      42.159  25.280  27.376  1.00  0.00     0.037 A 
ATOM     51  C   UNL A   1      44.731  31.709  28.318  1.00  0.00     0.037 A 
ATOM     52  C   UNL A   1      43.426  25.522  26.736  1.00  0.00     0.049 A 
ATOM     53  C   UNL A   1      45.481  30.659  27.540  1.00  0.00     0.074 A 
ATOM     54  C   UNL A   1      44.182  24.659  25.962  1.00  0.00     0.029 A 
ATOM     55  N   UNL A   1      44.126  26.718  26.801  1.00  0.00    -0.354 N 
ATOM     56  N   UNL A   1      45.130  29.429  27.256  1.00  0.00    -0.248 NA
ATOM     57  C   UNL A   1      46.790  31.049  26.996  1.00  0.00     0.031 C 
ATOM     58  C   UNL A   1      45.360  25.319  25.594  1.00  0.00     0.029 A 
ATOM     59  C   UNL A   1      45.316  26.608  26.097  1.00  0.00     0.049 A 
ATOM     60  H   UNL A   1      43.823  27.525  27.275  1.00  0.00     0.167 HD
ATOM     61  C   UNL A   1      46.160  28.907  26.482  1.00  0.00     0.074 A 
ATOM     62  C   UNL A   1      47.139  29.962  26.326  1.00  0.00     0.031 C 
ATOM     63  C   UNL A   1      46.282  27.666  25.950  1.00  0.00     0.037 A 
BRANCH  50  64
ATOM     64  C   UNL A   1      41.548  23.916  27.243  1.00  0.00     0.064 A 
ATOM     65  C   UNL A   1      40.373  23.706  26.506  1.00  0.00     0.173 A 
ATOM     66  C   UNL A   1      42.164  22.801  27.831  1.00  0.00     0.173 A 
ATOM     67  F   UNL A   1      39.739  24.742  25.936  1.00  0.00    -0.203 F 
ATOM     68  C   UNL A   1      39.825  22.432  26.380  1.00  0.00     0.198 A 
ATOM     69  C   UNL A   1      41.627  21.525  27.682  1.00  0.00     0.198 A 
ATOM     70  F   UNL A   1      43.291  22.948  28.543  1.00  0.00    -0.203 F 
ATOM     71  F   UNL A   1      38.679  22.261  25.706  1.00  0.00    -0.200 F 
ATOM     72  C   UNL A   1      40.455  21.343  26.962  1.00  0.00     0.200 A 
ATOM     73  F   UNL A   1      42.242  20.471  28.236  1.00  0.00    -0.200 F 
ATOM     74  F   UNL A   1      39.929  20.117  26.836  1.00  0.00    -0.200 F 
ENDBRANCH  50  64
BRANCH  51  75
ATOM     75  C   UNL A   1      45.300  33.069  28.498  1.00  0.00     0.064 A 
ATOM     76  C   UNL A   1      46.138  33.368  29.581  1.00  0.00     0.173 A 
ATOM     77  C   UNL A   1      45.002  34.102  27.598  1.00  0.00     0.173 A 
ATOM     78  F   UNL A   1      46.429  32.420  30.484  1.00  0.00    -0.203 F 
ATOM     79  C   UNL A   1      46.642  34.654  29.766  1.00  0.00     0.198 A 
ATOM     80  C   UNL A   1      45.528  35.380  27.769  1.00  0.00     0.198 A 
ATOM     81  F   UNL A   1      44.200  33.868  26.549  1.00  0.00    -0.203 F 
ATOM     82  F   UNL A   1      47.402  34.925  30.837  1.00  0.00    -0.200 F 
ATOM     83  C   UNL A   1      46.341  35.657  28.857  1.00  0.00     0.200 A 
ATOM     84  F   UNL A   1      45.240  36.345  26.885  1.00  0.00    -0.200 F 
ATOM     85  F   UNL A   1      46.825  36.894  29.036  1.00  0.00    -0.200 F 
ENDBRANCH  51  75
BRANCH  63  86
ATOM     86  C   UNL A   1      47.508  27.391  25.127  1.00  0.00     0.064 A 
ATOM     87  C   UNL A   1      47.577  27.738  23.770  1.00  0.00     0.173 A 
ATOM     88  C   UNL A   1      48.634  26.787  25.708  1.00  0.00     0.173 A 
ATOM     89  F   UNL A   1      46.522  28.305  23.164  1.00  0.00    -0.203 F 
ATOM     90  C   UNL A   1      48.714  27.460  23.016  1.00  0.00     0.198 A 
ATOM     91  C   UNL A   1      49.780  26.538  24.959  1.00  0.00     0.198 A 
ATOM     92  F   UNL A   1      48.624  26.443  27.005  1.00  0.00    -0.203 F 
ATOM     93  F   UNL A   1      48.736  27.750  21.708  1.00  0.00    -0.200 F 
ATOM     94  C   UNL A   1      49.816  26.864  23.612  1.00  0.00     0.200 A 
ATOM     95  F   UNL A   1      50.849  25.973  25.539  1.00  0.00    -0.200 F 
ATOM     96  F   UNL A   1      50.909  26.596  22.885  1.00  0.00    -0.200 F 
ENDBRANCH  63  86
ENDBRANCH  37  38
ENDBRANCH  30  32
ENDBRANCH  29  30
ENDBRANCH  28  29
ENDBRANCH  27  28
ENDBRANCH  26  27
ENDBRANCH  25  26
ENDBRANCH   1  25
TORSDOF 19
ENDMDL
MODEL 3
REMARK VINA RESULT:     -11.0      4.785      7.357
REMARK SMILES C[C@H](Oc1ccccc1[N+](=O)[O-])C(=O)N1CCC[C@H](C(=O)OCCOCCOC(=O)c2ccc(-c3c4nc(c(-c5c(F)c(F)c(F)c(F)c5F)c5ccc([nH]5)c(-c5c(F)c(F)c(F)c(F)c5F)c5nc(c(-c6c(F)c(F)c(F)c(F)c6F)c6ccc3[nH]6)C=C5)C=C4)cc2)C1
REMARK SMILES IDX 23 1 22 2 20 3 21 4 19 5 15 6 16 7 94 8 17 9 18 10 13 11
REMARK SMILES IDX 14 12 2 13 1 14 3 15 4 16 5 17 9 18 6 19 8 20 7 21 10 22
REMARK SMILES IDX 11 23 12 24 24 25 25 26 26 27 27 28 28 29 29 30 30 31 31 32
REMARK SMILES IDX 32 33 93 34 33 35 92 36 34 37 35 38 36 39 86 40 37 41 91 42
REMARK SMILES IDX 85 43 87 44 38 45 90 46 84 47 83 48 39 50 71 51 51 52 70 53
REMARK SMILES IDX 52 54 55 55 69 56 88 57 53 58 54 59 68 61 89 62 56 63 40 64
REMARK SMILES IDX 41 65 49 66 42 67 43 68 47 69 50 70 44 71 45 72 48 73 46 74
REMARK SMILES IDX 72 75 73 76 81 77 74 78 75 79 79 80 82 81 76 82 77 83 80 84
REMARK SMILES IDX 78 85 57 86 58 87 66 88 59 89 60 90 64 91 67 92 61 93 62 94
REMARK SMILES IDX 65 95 63 96
REMARK H PARENT 87 49 55 60
REMARK Flexibility Score: inf
ROOT
ATOM      1  C   UNL A   1      34.065  28.946  27.327  1.00  0.00     0.261 C 
ENDROOT
BRANCH   1   2
ATOM      2  O   UNL A   1      34.079  28.136  26.134  1.00  0.00    -0.463 OA
BRANCH   2   3
ATOM      3  C   UNL A   1      33.290  28.519  25.101  1.00  0.00     0.310 C 
ATOM      4  O   UNL A   1      33.668  28.693  23.952  1.00  0.00    -0.252 OA
BRANCH   3   5
ATOM      5  C   UNL A   1      31.837  28.683  25.509  1.00  0.00     0.119 C 
ATOM      6  N   UNL A   1      30.829  26.763  24.347  1.00  0.00    -0.339 N 
ATOM      7  C   UNL A   1      29.970  27.603  23.518  1.00  0.00     0.119 C 
ATOM      8  C   UNL A   1      31.166  27.322  25.655  1.00  0.00     0.134 C 
ATOM      9  C   UNL A   1      30.563  28.991  23.300  1.00  0.00     0.022 C 
ATOM     10  C   UNL A   1      31.023  29.628  24.613  1.00  0.00     0.019 C 
BRANCH   6  11
ATOM     11  C   UNL A   1      31.322  25.562  23.832  1.00  0.00     0.263 C 
ATOM     12  O   UNL A   1      30.617  24.816  23.144  1.00  0.00    -0.271 OA
BRANCH  11  13
ATOM     13  C   UNL A   1      32.711  25.071  24.329  1.00  0.00     0.259 C 
ATOM     14  C   UNL A   1      33.627  25.173  23.098  1.00  0.00     0.064 C 
BRANCH  13  15
ATOM     15  O   UNL A   1      32.598  23.804  24.981  1.00  0.00    -0.474 OA
BRANCH  15  16
ATOM     16  C   UNL A   1      33.672  23.040  25.338  1.00  0.00     0.197 A 
ATOM     17  C   UNL A   1      34.770  23.498  26.065  1.00  0.00     0.054 A 
ATOM     18  C   UNL A   1      33.715  21.708  24.891  1.00  0.00     0.310 A 
ATOM     19  C   UNL A   1      35.934  22.725  26.186  1.00  0.00     0.004 A 
ATOM     20  C   UNL A   1      34.874  20.920  25.011  1.00  0.00     0.090 A 
ATOM     21  C   UNL A   1      35.999  21.450  25.632  1.00  0.00     0.007 A 
BRANCH  18  22
ATOM     22  N   UNL A   1      32.532  21.062  24.331  1.00  0.00     0.066 N 
ATOM     23  O   UNL A   1      32.054  20.120  24.978  1.00  0.00    -0.258 OA
ATOM     24  O   UNL A   1      32.041  21.550  23.303  1.00  0.00    -0.258 OA
ENDBRANCH  18  22
ENDBRANCH  15  16
ENDBRANCH  13  15
ENDBRANCH  11  13
ENDBRANCH   6  11
ENDBRANCH   3   5
ENDBRANCH   2   3
ENDBRANCH   1   2
BRANCH   1  25
ATOM     25  C   UNL A   1      35.040  30.121  27.189  1.00  0.00     0.202 C 
BRANCH  25  26
ATOM     26  O   UNL A   1      34.512  31.403  27.542  1.00  0.00    -0.374 OA
BRANCH  26  27
ATOM     27  C   UNL A   1      33.098  31.491  27.693  1.00  0.00     0.202 C 
BRANCH  27  28
ATOM     28  C   UNL A   1      32.493  32.863  27.380  1.00  0.00     0.261 C 
BRANCH  28  29
ATOM     29  O   UNL A   1      33.471  33.914  27.471  1.00  0.00    -0.460 OA
BRANCH  29  30
ATOM     30  C   UNL A   1      33.377  34.656  28.598  1.00  0.00     0.338 C 
ATOM     31  O   UNL A   1      32.505  35.471  28.877  1.00  0.00    -0.246 OA
BRANCH  30  32
ATOM     32  C   UNL A   1      34.421  34.286  29.569  1.00  0.00     0.060 A 
ATOM     33  C   UNL A   1      35.747  34.380  29.132  1.00  0.00     0.016 A 
ATOM     34  C   UNL A   1      34.126  33.749  30.827  1.00  0.00     0.016 A 
ATOM     35  C   UNL A   1      36.776  33.865  29.914  1.00  0.00     0.010 A 
ATOM     36  C   UNL A   1      35.165  33.234  31.614  1.00  0.00     0.010 A 
ATOM     37  C   UNL A   1      36.488  33.244  31.138  1.00  0.00    -0.014 A 
BRANCH  37  38
ATOM     38  C   UNL A   1      37.572  32.485  31.811  1.00  0.00     0.031 A 
ATOM     39  C   UNL A   1      38.208  31.321  31.098  1.00  0.00     0.074 A 
ATOM     40  C   UNL A   1      38.058  32.892  32.996  1.00  0.00     0.049 A 
ATOM     41  N   UNL A   1      39.249  30.603  31.441  1.00  0.00    -0.248 NA
ATOM     42  C   UNL A   1      37.591  30.913  29.826  1.00  0.00     0.031 C 
ATOM     43  C   UNL A   1      37.542  34.015  33.776  1.00  0.00     0.029 A 
ATOM     44  N   UNL A   1      39.111  32.419  33.739  1.00  0.00    -0.354 N 
ATOM     45  C   UNL A   1      39.415  29.669  30.426  1.00  0.00     0.074 A 
ATOM     46  C   UNL A   1      38.345  29.881  29.476  1.00  0.00     0.031 C 
ATOM     47  C   UNL A   1      38.291  34.154  34.884  1.00  0.00     0.029 A 
ATOM     48  C   UNL A   1      39.328  33.124  34.895  1.00  0.00     0.049 A 
ATOM     49  H   UNL A   1      39.658  31.645  33.466  1.00  0.00     0.167 HD
ATOM     50  C   UNL A   1      40.384  28.732  30.287  1.00  0.00     0.037 A 
ATOM     51  C   UNL A   1      40.264  32.961  35.850  1.00  0.00     0.037 A 
ATOM     52  C   UNL A   1      41.453  28.521  31.228  1.00  0.00     0.049 A 
ATOM     53  C   UNL A   1      41.309  31.888  35.689  1.00  0.00     0.074 A 
ATOM     54  C   UNL A   1      42.491  27.607  31.167  1.00  0.00     0.029 A 
ATOM     55  N   UNL A   1      41.618  29.233  32.407  1.00  0.00    -0.354 N 
ATOM     56  N   UNL A   1      41.483  31.039  34.707  1.00  0.00    -0.248 NA
ATOM     57  C   UNL A   1      42.301  31.765  36.768  1.00  0.00     0.031 C 
ATOM     58  C   UNL A   1      43.259  27.737  32.329  1.00  0.00     0.029 A 
ATOM     59  C   UNL A   1      42.729  28.765  33.092  1.00  0.00     0.049 A 
ATOM     60  H   UNL A   1      41.033  29.964  32.712  1.00  0.00     0.167 HD
ATOM     61  C   UNL A   1      42.613  30.300  35.035  1.00  0.00     0.074 A 
ATOM     62  C   UNL A   1      43.094  30.814  36.299  1.00  0.00     0.031 C 
ATOM     63  C   UNL A   1      43.198  29.286  34.350  1.00  0.00     0.037 A 
BRANCH  50  64
ATOM     64  C   UNL A   1      40.323  27.850  29.076  1.00  0.00     0.064 A 
ATOM     65  C   UNL A   1      41.028  28.161  27.903  1.00  0.00     0.173 A 
ATOM     66  C   UNL A   1      39.579  26.661  29.099  1.00  0.00     0.173 A 
ATOM     67  F   UNL A   1      41.744  29.294  27.827  1.00  0.00    -0.203 F 
ATOM     68  C   UNL A   1      40.973  27.325  26.790  1.00  0.00     0.198 A 
ATOM     69  C   UNL A   1      39.546  25.815  27.993  1.00  0.00     0.198 A 
ATOM     70  F   UNL A   1      38.889  26.316  30.197  1.00  0.00    -0.203 F 
ATOM     71  F   UNL A   1      41.621  27.664  25.667  1.00  0.00    -0.200 F 
ATOM     72  C   UNL A   1      40.237  26.151  26.839  1.00  0.00     0.200 A 
ATOM     73  F   UNL A   1      38.843  24.675  28.045  1.00  0.00    -0.200 F 
ATOM     74  F   UNL A   1      40.189  25.345  25.769  1.00  0.00    -0.200 F 
ENDBRANCH  50  64
BRANCH  51  75
ATOM     75  C   UNL A   1      40.266  33.848  37.040  1.00  0.00     0.064 A 
ATOM     76  C   UNL A   1      39.481  33.557  38.165  1.00  0.00     0.173 A 
ATOM     77  C   UNL A   1      41.041  35.016  37.070  1.00  0.00     0.173 A 
ATOM     78  F   UNL A   1      38.701  32.467  38.172  1.00  0.00    -0.203 F 
ATOM     79  C   UNL A   1      39.458  34.410  39.265  1.00  0.00     0.198 A 
ATOM     80  C   UNL A   1      41.038  35.855  38.182  1.00  0.00     0.198 A 
ATOM     81  F   UNL A   1      41.805  35.342  36.016  1.00  0.00    -0.203 F 
ATOM     82  F   UNL A   1      38.662  34.134  40.308  1.00  0.00    -0.200 F 
ATOM     83  C   UNL A   1      40.241  35.555  39.276  1.00  0.00     0.200 A 
ATOM     84  F   UNL A   1      41.801  36.956  38.191  1.00  0.00    -0.200 F 
ATOM     85  F   UNL A   1      40.218  36.376  40.335  1.00  0.00    -0.200 F 
ENDBRANCH  51  75
BRANCH  63  86
ATOM     86  C   UNL A   1      44.438  28.684  34.943  1.00  0.00     0.064 A 
ATOM     87  C   UNL A   1      44.387  27.542  35.756  1.00  0.00     0.173 A 
ATOM     88  C   UNL A   1      45.698  29.247  34.683  1.00  0.00     0.173 A 
ATOM     89  F   UNL A   1      43.206  26.974  36.046  1.00  0.00    -0.203 F 
ATOM     90  C   UNL A   1      45.545  27.006  36.314  1.00  0.00     0.198 A 
ATOM     91  C   UNL A   1      46.856  28.691  35.217  1.00  0.00     0.198 A 
ATOM     92  F   UNL A   1      45.805  30.335  33.905  1.00  0.00    -0.203 F 
ATOM     93  F   UNL A   1      45.464  25.947  37.132  1.00  0.00    -0.200 F 
ATOM     94  C   UNL A   1      46.779  27.578  36.040  1.00  0.00     0.200 A 
ATOM     95  F   UNL A   1      48.049  29.237  34.943  1.00  0.00    -0.200 F 
ATOM     96  F   UNL A   1      47.892  27.062  36.579  1.00  0.00    -0.200 F 
ENDBRANCH  63  86
ENDBRANCH  37  38
ENDBRANCH  30  32
ENDBRANCH  29  30
ENDBRANCH  28  29
ENDBRANCH  27  28
ENDBRANCH  26  27
ENDBRANCH  25  26
ENDBRANCH   1  25
TORSDOF 19
ENDMDL
