MODEL 1
REMARK VINA RESULT:     -11.5      0.000      0.000
REMARK SMILES C[C@H](Oc1ccnc2c(F)cc(F)cc12)C(=O)OCCOCCOC(=O)c1ccc(-c2c3nc(c(-c4c(F)c(F)c(F)c(F)c4F)c4ccc([nH]4)c(-c4c(F)c(F)c(F)c(F)c4F)c4nc(c(-c5c(F)c(F)c(F)c(F)c5F)c5ccc2[nH]5)C=C4)C=C3)cc1
REMARK SMILES IDX 21 1 20 2 19 3 18 4 16 5 17 6 2 7 1 8 3 9 4 10 5 11 15 12
REMARK SMILES IDX 6 13 8 14 14 15 7 16 9 17 12 18 10 19 11 20 13 21 22 22
REMARK SMILES IDX 23 23 24 24 25 25 26 26 27 27 28 28 89 29 29 30 88 31 30 32
REMARK SMILES IDX 31 33 32 34 82 35 33 36 87 37 81 38 83 39 34 40 86 41 80 42
REMARK SMILES IDX 79 43 35 45 67 46 47 47 66 48 48 49 51 50 65 51 84 52 49 53
REMARK SMILES IDX 50 54 64 56 85 57 52 58 36 59 37 60 45 61 38 62 39 63 43 64
REMARK SMILES IDX 46 65 40 66 41 67 44 68 42 69 68 70 69 71 77 72 70 73 71 74
REMARK SMILES IDX 75 75 78 76 72 77 73 78 76 79 74 80 53 81 54 82 62 83 55 84
REMARK SMILES IDX 56 85 60 86 63 87 57 88 58 89 61 90 59 91
REMARK H PARENT 83 44 51 55
REMARK Flexibility Score: inf
ROOT
ATOM      1  O   UNL A   1      31.164  29.359  24.232  1.00  0.00    -0.374 OA
ENDROOT
BRANCH   1   2
ATOM      2  C   UNL A   1      31.117  28.053  23.660  1.00  0.00     0.202 C 
BRANCH   2   3
ATOM      3  C   UNL A   1      30.445  26.974  24.513  1.00  0.00     0.261 C 
BRANCH   3   4
ATOM      4  O   UNL A   1      31.250  25.786  24.556  1.00  0.00    -0.461 OA
BRANCH   4   5
ATOM      5  C   UNL A   1      31.864  25.533  25.744  1.00  0.00     0.347 C 
ATOM      6  O   UNL A   1      31.286  25.390  26.815  1.00  0.00    -0.248 OA
BRANCH   5   7
ATOM      7  C   UNL A   1      33.375  25.322  25.567  1.00  0.00     0.279 C 
ATOM      8  C   UNL A   1      33.757  25.310  24.087  1.00  0.00     0.066 C 
BRANCH   7   9
ATOM      9  O   UNL A   1      33.981  24.344  26.415  1.00  0.00    -0.478 OA
BRANCH   9  10
ATOM     10  C   UNL A   1      34.282  23.077  26.009  1.00  0.00     0.131 A 
ATOM     11  C   UNL A   1      33.336  22.088  25.791  1.00  0.00     0.067 A 
ATOM     12  C   UNL A   1      35.658  22.780  25.859  1.00  0.00     0.048 A 
ATOM     13  C   UNL A   1      33.779  20.868  25.319  1.00  0.00     0.115 A 
ATOM     14  C   UNL A   1      36.010  21.499  25.380  1.00  0.00     0.110 A 
ATOM     15  C   UNL A   1      36.682  23.706  26.170  1.00  0.00     0.053 A 
ATOM     16  N   UNL A   1      35.074  20.571  25.097  1.00  0.00    -0.253 NA
ATOM     17  C   UNL A   1      37.371  21.215  25.215  1.00  0.00     0.152 A 
ATOM     18  C   UNL A   1      38.019  23.367  26.009  1.00  0.00     0.127 A 
ATOM     19  F   UNL A   1      37.748  20.012  24.747  1.00  0.00    -0.204 F 
ATOM     20  C   UNL A   1      38.377  22.125  25.525  1.00  0.00     0.080 A 
ATOM     21  F   UNL A   1      38.969  24.253  26.332  1.00  0.00    -0.207 F 
ENDBRANCH   9  10
ENDBRANCH   7   9
ENDBRANCH   5   7
ENDBRANCH   4   5
ENDBRANCH   3   4
ENDBRANCH   2   3
ENDBRANCH   1   2
BRANCH   1  22
ATOM     22  C   UNL A   1      32.066  29.574  25.322  1.00  0.00     0.202 C 
BRANCH  22  23
ATOM     23  C   UNL A   1      31.834  30.833  26.165  1.00  0.00     0.261 C 
BRANCH  23  24
ATOM     24  O   UNL A   1      32.634  30.823  27.364  1.00  0.00    -0.460 OA
BRANCH  24  25
ATOM     25  C   UNL A   1      33.464  31.880  27.502  1.00  0.00     0.338 C 
ATOM     26  O   UNL A   1      33.171  33.066  27.513  1.00  0.00    -0.246 OA
BRANCH  25  27
ATOM     27  C   UNL A   1      34.823  31.415  27.820  1.00  0.00     0.060 A 
ATOM     28  C   UNL A   1      34.989  30.062  28.149  1.00  0.00     0.016 A 
ATOM     29  C   UNL A   1      35.877  32.319  27.953  1.00  0.00     0.016 A 
ATOM     30  C   UNL A   1      36.201  29.618  28.669  1.00  0.00     0.010 A 
ATOM     31  C   UNL A   1      37.086  31.876  28.500  1.00  0.00     0.010 A 
ATOM     32  C   UNL A   1      37.232  30.536  28.904  1.00  0.00    -0.014 A 
BRANCH  32  33
ATOM     33  C   UNL A   1      38.358  30.145  29.785  1.00  0.00     0.031 A 
ATOM     34  C   UNL A   1      39.370  29.167  29.252  1.00  0.00     0.074 A 
ATOM     35  C   UNL A   1      38.505  30.676  31.009  1.00  0.00     0.049 A 
ATOM     36  N   UNL A   1      40.414  28.645  29.844  1.00  0.00    -0.248 NA
ATOM     37  C   UNL A   1      39.186  28.725  27.859  1.00  0.00     0.031 C 
ATOM     38  C   UNL A   1      37.632  31.686  31.603  1.00  0.00     0.029 A 
ATOM     39  N   UNL A   1      39.451  30.434  31.973  1.00  0.00    -0.354 N 
ATOM     40  C   UNL A   1      41.014  27.829  28.894  1.00  0.00     0.074 A 
ATOM     41  C   UNL A   1      40.209  27.901  27.695  1.00  0.00     0.031 C 
ATOM     42  C   UNL A   1      38.078  31.971  32.840  1.00  0.00     0.029 A 
ATOM     43  C   UNL A   1      39.246  31.139  33.132  1.00  0.00     0.049 A 
ATOM     44  H   UNL A   1      40.205  29.814  31.845  1.00  0.00     0.167 HD
ATOM     45  C   UNL A   1      42.142  27.091  29.010  1.00  0.00     0.037 A 
ATOM     46  C   UNL A   1      39.915  31.096  34.301  1.00  0.00     0.037 A 
ATOM     47  C   UNL A   1      42.929  26.998  30.208  1.00  0.00     0.049 A 
ATOM     48  C   UNL A   1      41.093  30.166  34.445  1.00  0.00     0.074 A 
ATOM     49  C   UNL A   1      44.075  26.257  30.434  1.00  0.00     0.029 A 
ATOM     50  N   UNL A   1      42.643  27.665  31.389  1.00  0.00    -0.354 N 
ATOM     51  N   UNL A   1      41.649  29.387  33.548  1.00  0.00    -0.248 NA
ATOM     52  C   UNL A   1      41.730  30.103  35.768  1.00  0.00     0.031 C 
ATOM     53  C   UNL A   1      44.460  26.444  31.766  1.00  0.00     0.029 A 
ATOM     54  C   UNL A   1      43.577  27.335  32.356  1.00  0.00     0.049 A 
ATOM     55  H   UNL A   1      41.888  28.283  31.521  1.00  0.00     0.167 HD
ATOM     56  C   UNL A   1      42.704  28.756  34.191  1.00  0.00     0.074 A 
ATOM     57  C   UNL A   1      42.726  29.257  35.550  1.00  0.00     0.031 C 
ATOM     58  C   UNL A   1      43.577  27.840  33.704  1.00  0.00     0.037 A 
BRANCH  45  59
ATOM     59  C   UNL A   1      42.582  26.308  27.811  1.00  0.00     0.064 A 
ATOM     60  C   UNL A   1      42.039  25.046  27.526  1.00  0.00     0.173 A 
ATOM     61  C   UNL A   1      43.518  26.842  26.914  1.00  0.00     0.173 A 
ATOM     62  F   UNL A   1      41.153  24.487  28.363  1.00  0.00    -0.203 F 
ATOM     63  C   UNL A   1      42.426  24.344  26.388  1.00  0.00     0.198 A 
ATOM     64  C   UNL A   1      43.886  26.146  25.767  1.00  0.00     0.198 A 
ATOM     65  F   UNL A   1      44.066  28.044  27.146  1.00  0.00    -0.203 F 
ATOM     66  F   UNL A   1      41.916  23.127  26.147  1.00  0.00    -0.200 F 
ATOM     67  C   UNL A   1      43.343  24.897  25.506  1.00  0.00     0.200 A 
ATOM     68  F   UNL A   1      44.767  26.685  24.911  1.00  0.00    -0.200 F 
ATOM     69  F   UNL A   1      43.706  24.224  24.405  1.00  0.00    -0.200 F 
ENDBRANCH  45  59
BRANCH  46  70
ATOM     70  C   UNL A   1      39.476  31.939  35.442  1.00  0.00     0.064 A 
ATOM     71  C   UNL A   1      38.561  31.453  36.386  1.00  0.00     0.173 A 
ATOM     72  C   UNL A   1      39.940  33.252  35.599  1.00  0.00     0.173 A 
ATOM     73  F   UNL A   1      38.065  30.213  36.261  1.00  0.00    -0.203 F 
ATOM     74  C   UNL A   1      38.117  32.254  37.436  1.00  0.00     0.198 A 
ATOM     75  C   UNL A   1      39.515  34.044  36.664  1.00  0.00     0.198 A 
ATOM     76  F   UNL A   1      40.811  33.767  34.718  1.00  0.00    -0.203 F 
ATOM     77  F   UNL A   1      37.210  31.779  38.301  1.00  0.00    -0.200 F 
ATOM     78  C   UNL A   1      38.599  33.547  37.577  1.00  0.00     0.200 A 
ATOM     79  F   UNL A   1      39.989  35.290  36.800  1.00  0.00    -0.200 F 
ATOM     80  F   UNL A   1      38.173  34.316  38.588  1.00  0.00    -0.200 F 
ENDBRANCH  46  70
BRANCH  58  81
ATOM     81  C   UNL A   1      44.633  27.325  34.638  1.00  0.00     0.064 A 
ATOM     82  C   UNL A   1      44.432  26.161  35.394  1.00  0.00     0.173 A 
ATOM     83  C   UNL A   1      45.877  27.967  34.733  1.00  0.00     0.173 A 
ATOM     84  F   UNL A   1      43.254  25.520  35.347  1.00  0.00    -0.203 F 
ATOM     85  C   UNL A   1      45.433  25.669  36.227  1.00  0.00     0.198 A 
ATOM     86  C   UNL A   1      46.884  27.457  35.547  1.00  0.00     0.198 A 
ATOM     87  F   UNL A   1      46.120  29.078  34.023  1.00  0.00    -0.203 F 
ATOM     88  F   UNL A   1      45.207  24.577  36.971  1.00  0.00    -0.200 F 
ATOM     89  C   UNL A   1      46.660  26.312  36.296  1.00  0.00     0.200 A 
ATOM     90  F   UNL A   1      48.074  28.072  35.602  1.00  0.00    -0.200 F 
ATOM     91  F   UNL A   1      47.627  25.830  37.091  1.00  0.00    -0.200 F 
ENDBRANCH  58  81
ENDBRANCH  32  33
ENDBRANCH  25  27
ENDBRANCH  24  25
ENDBRANCH  23  24
ENDBRANCH  22  23
ENDBRANCH   1  22
TORSDOF 16
ENDMDL
MODEL 2
REMARK VINA RESULT:     -11.2      1.293      2.530
REMARK SMILES C[C@H](Oc1ccnc2c(F)cc(F)cc12)C(=O)OCCOCCOC(=O)c1ccc(-c2c3nc(c(-c4c(F)c(F)c(F)c(F)c4F)c4ccc([nH]4)c(-c4c(F)c(F)c(F)c(F)c4F)c4nc(c(-c5c(F)c(F)c(F)c(F)c5F)c5ccc2[nH]5)C=C4)C=C3)cc1
REMARK SMILES IDX 21 1 20 2 19 3 18 4 16 5 17 6 2 7 1 8 3 9 4 10 5 11 15 12
REMARK SMILES IDX 6 13 8 14 14 15 7 16 9 17 12 18 10 19 11 20 13 21 22 22
REMARK SMILES IDX 23 23 24 24 25 25 26 26 27 27 28 28 89 29 29 30 88 31 30 32
REMARK SMILES IDX 31 33 32 34 82 35 33 36 87 37 81 38 83 39 34 40 86 41 80 42
REMARK SMILES IDX 79 43 35 45 67 46 47 47 66 48 48 49 51 50 65 51 84 52 49 53
REMARK SMILES IDX 50 54 64 56 85 57 52 58 36 59 37 60 45 61 38 62 39 63 43 64
REMARK SMILES IDX 46 65 40 66 41 67 44 68 42 69 68 70 69 71 77 72 70 73 71 74
REMARK SMILES IDX 75 75 78 76 72 77 73 78 76 79 74 80 53 81 54 82 62 83 55 84
REMARK SMILES IDX 56 85 60 86 63 87 57 88 58 89 61 90 59 91
REMARK H PARENT 83 44 51 55
REMARK Flexibility Score: inf
ROOT
ATOM      1  O   UNL A   1      30.890  29.419  24.303  1.00  0.00    -0.374 OA
ENDROOT
BRANCH   1   2
ATOM      2  C   UNL A   1      30.557  28.123  23.810  1.00  0.00     0.202 C 
BRANCH   2   3
ATOM      3  C   UNL A   1      30.892  26.950  24.735  1.00  0.00     0.261 C 
BRANCH   3   4
ATOM      4  O   UNL A   1      31.704  25.982  24.056  1.00  0.00    -0.461 OA
BRANCH   4   5
ATOM      5  C   UNL A   1      33.012  26.323  23.888  1.00  0.00     0.347 C 
ATOM      6  O   UNL A   1      33.703  26.884  24.730  1.00  0.00    -0.248 OA
BRANCH   5   7
ATOM      7  C   UNL A   1      33.564  25.810  22.550  1.00  0.00     0.279 C 
ATOM      8  C   UNL A   1      32.473  25.785  21.479  1.00  0.00     0.066 C 
BRANCH   7   9
ATOM      9  O   UNL A   1      34.448  24.689  22.620  1.00  0.00    -0.478 OA
BRANCH   9  10
ATOM     10  C   UNL A   1      34.598  23.914  23.733  1.00  0.00     0.131 A 
ATOM     11  C   UNL A   1      35.474  24.204  24.767  1.00  0.00     0.067 A 
ATOM     12  C   UNL A   1      33.828  22.727  23.776  1.00  0.00     0.048 A 
ATOM     13  C   UNL A   1      35.474  23.367  25.864  1.00  0.00     0.115 A 
ATOM     14  C   UNL A   1      33.906  21.930  24.939  1.00  0.00     0.110 A 
ATOM     15  C   UNL A   1      32.996  22.313  22.709  1.00  0.00     0.053 A 
ATOM     16  N   UNL A   1      34.705  22.265  25.971  1.00  0.00    -0.253 NA
ATOM     17  C   UNL A   1      33.129  20.766  24.986  1.00  0.00     0.152 A 
ATOM     18  C   UNL A   1      32.262  21.137  22.796  1.00  0.00     0.127 A 
ATOM     19  F   UNL A   1      33.163  19.987  26.080  1.00  0.00    -0.204 F 
ATOM     20  C   UNL A   1      32.315  20.358  23.933  1.00  0.00     0.080 A 
ATOM     21  F   UNL A   1      31.500  20.755  21.764  1.00  0.00    -0.207 F 
ENDBRANCH   9  10
ENDBRANCH   7   9
ENDBRANCH   5   7
ENDBRANCH   4   5
ENDBRANCH   3   4
ENDBRANCH   2   3
ENDBRANCH   1   2
BRANCH   1  22
ATOM     22  C   UNL A   1      31.571  29.496  25.560  1.00  0.00     0.202 C 
BRANCH  22  23
ATOM     23  C   UNL A   1      31.797  30.900  26.131  1.00  0.00     0.261 C 
BRANCH  23  24
ATOM     24  O   UNL A   1      32.597  30.863  27.330  1.00  0.00    -0.460 OA
BRANCH  24  25
ATOM     25  C   UNL A   1      33.407  31.930  27.506  1.00  0.00     0.338 C 
ATOM     26  O   UNL A   1      33.093  33.110  27.539  1.00  0.00    -0.246 OA
BRANCH  25  27
ATOM     27  C   UNL A   1      34.769  31.481  27.834  1.00  0.00     0.060 A 
ATOM     28  C   UNL A   1      34.954  30.124  28.133  1.00  0.00     0.016 A 
ATOM     29  C   UNL A   1      35.805  32.399  28.005  1.00  0.00     0.016 A 
ATOM     30  C   UNL A   1      36.165  29.688  28.661  1.00  0.00     0.010 A 
ATOM     31  C   UNL A   1      37.012  31.964  28.559  1.00  0.00     0.010 A 
ATOM     32  C   UNL A   1      37.176  30.618  28.934  1.00  0.00    -0.014 A 
BRANCH  32  33
ATOM     33  C   UNL A   1      38.294  30.224  29.823  1.00  0.00     0.031 A 
ATOM     34  C   UNL A   1      39.316  29.256  29.292  1.00  0.00     0.074 A 
ATOM     35  C   UNL A   1      38.426  30.747  31.053  1.00  0.00     0.049 A 
ATOM     36  N   UNL A   1      40.357  28.734  29.890  1.00  0.00    -0.248 NA
ATOM     37  C   UNL A   1      39.149  28.825  27.894  1.00  0.00     0.031 C 
ATOM     38  C   UNL A   1      37.543  31.747  31.646  1.00  0.00     0.029 A 
ATOM     39  N   UNL A   1      39.364  30.501  32.024  1.00  0.00    -0.354 N 
ATOM     40  C   UNL A   1      40.971  27.929  28.940  1.00  0.00     0.074 A 
ATOM     41  C   UNL A   1      40.177  28.006  27.734  1.00  0.00     0.031 C 
ATOM     42  C   UNL A   1      37.975  32.024  32.889  1.00  0.00     0.029 A 
ATOM     43  C   UNL A   1      39.144  31.195  33.187  1.00  0.00     0.049 A 
ATOM     44  H   UNL A   1      40.122  29.885  31.899  1.00  0.00     0.167 HD
ATOM     45  C   UNL A   1      42.101  27.195  29.061  1.00  0.00     0.037 A 
ATOM     46  C   UNL A   1      39.801  31.146  34.362  1.00  0.00     0.037 A 
ATOM     47  C   UNL A   1      42.877  27.096  30.267  1.00  0.00     0.049 A 
ATOM     48  C   UNL A   1      40.982  30.220  34.510  1.00  0.00     0.074 A 
ATOM     49  C   UNL A   1      44.024  26.358  30.498  1.00  0.00     0.029 A 
ATOM     50  N   UNL A   1      42.576  27.752  31.450  1.00  0.00    -0.354 N 
ATOM     51  N   UNL A   1      41.551  29.451  33.612  1.00  0.00    -0.248 NA
ATOM     52  C   UNL A   1      41.606  30.150  35.839  1.00  0.00     0.031 C 
ATOM     53  C   UNL A   1      44.394  26.537  31.835  1.00  0.00     0.029 A 
ATOM     54  C   UNL A   1      43.502  27.418  32.423  1.00  0.00     0.049 A 
ATOM     55  H   UNL A   1      41.816  28.365  31.579  1.00  0.00     0.167 HD
ATOM     56  C   UNL A   1      42.603  28.820  34.261  1.00  0.00     0.074 A 
ATOM     57  C   UNL A   1      42.609  29.310  35.624  1.00  0.00     0.031 C 
ATOM     58  C   UNL A   1      43.486  27.913  33.775  1.00  0.00     0.037 A 
BRANCH  45  59
ATOM     59  C   UNL A   1      42.557  26.424  27.860  1.00  0.00     0.064 A 
ATOM     60  C   UNL A   1      42.079  25.131  27.601  1.00  0.00     0.173 A 
ATOM     61  C   UNL A   1      43.442  26.999  26.937  1.00  0.00     0.173 A 
ATOM     62  F   UNL A   1      41.245  24.533  28.464  1.00  0.00    -0.203 F 
ATOM     63  C   UNL A   1      42.479  24.438  26.461  1.00  0.00     0.198 A 
ATOM     64  C   UNL A   1      43.822  26.311  25.788  1.00  0.00     0.198 A 
ATOM     65  F   UNL A   1      43.927  28.232  27.143  1.00  0.00    -0.203 F 
ATOM     66  F   UNL A   1      42.031  23.193  26.245  1.00  0.00    -0.200 F 
ATOM     67  C   UNL A   1      43.343  25.032  25.552  1.00  0.00     0.200 A 
ATOM     68  F   UNL A   1      44.652  26.888  24.907  1.00  0.00    -0.200 F 
ATOM     69  F   UNL A   1      43.718  24.367  24.450  1.00  0.00    -0.200 F 
ENDBRANCH  45  59
BRANCH  46  70
ATOM     70  C   UNL A   1      39.347  31.977  35.505  1.00  0.00     0.064 A 
ATOM     71  C   UNL A   1      39.835  33.277  35.689  1.00  0.00     0.173 A 
ATOM     72  C   UNL A   1      38.438  31.480  36.450  1.00  0.00     0.173 A 
ATOM     73  F   UNL A   1      40.729  33.785  34.828  1.00  0.00    -0.203 F 
ATOM     74  C   UNL A   1      39.440  34.045  36.783  1.00  0.00     0.198 A 
ATOM     75  C   UNL A   1      38.025  32.259  37.530  1.00  0.00     0.198 A 
ATOM     76  F   UNL A   1      37.948  30.238  36.324  1.00  0.00    -0.203 F 
ATOM     77  F   UNL A   1      39.954  35.272  36.958  1.00  0.00    -0.200 F 
ATOM     78  C   UNL A   1      38.531  33.538  37.699  1.00  0.00     0.200 A 
ATOM     79  F   UNL A   1      37.141  31.766  38.409  1.00  0.00    -0.200 F 
ATOM     80  F   UNL A   1      38.151  34.277  38.749  1.00  0.00    -0.200 F 
ENDBRANCH  46  70
BRANCH  58  81
ATOM     81  C   UNL A   1      44.534  27.395  34.716  1.00  0.00     0.064 A 
ATOM     82  C   UNL A   1      45.743  28.078  34.908  1.00  0.00     0.173 A 
ATOM     83  C   UNL A   1      44.302  26.238  35.476  1.00  0.00     0.173 A 
ATOM     84  F   UNL A   1      46.015  29.181  34.195  1.00  0.00    -0.203 F 
ATOM     85  C   UNL A   1      46.692  27.610  35.814  1.00  0.00     0.198 A 
ATOM     86  C   UNL A   1      45.241  25.788  36.399  1.00  0.00     0.198 A 
ATOM     87  F   UNL A   1      43.157  25.554  35.335  1.00  0.00    -0.203 F 
ATOM     88  F   UNL A   1      47.857  28.257  35.954  1.00  0.00    -0.200 F 
ATOM     89  C   UNL A   1      46.437  26.473  36.564  1.00  0.00     0.200 A 
ATOM     90  F   UNL A   1      44.987  24.696  37.134  1.00  0.00    -0.200 F 
ATOM     91  F   UNL A   1      47.347  26.030  37.443  1.00  0.00    -0.200 F 
ENDBRANCH  58  81
ENDBRANCH  32  33
ENDBRANCH  25  27
ENDBRANCH  24  25
ENDBRANCH  23  24
ENDBRANCH  22  23
ENDBRANCH   1  22
TORSDOF 16
ENDMDL
MODEL 3
REMARK VINA RESULT:     -11.0      0.744      2.105
REMARK SMILES C[C@H](Oc1ccnc2c(F)cc(F)cc12)C(=O)OCCOCCOC(=O)c1ccc(-c2c3nc(c(-c4c(F)c(F)c(F)c(F)c4F)c4ccc([nH]4)c(-c4c(F)c(F)c(F)c(F)c4F)c4nc(c(-c5c(F)c(F)c(F)c(F)c5F)c5ccc2[nH]5)C=C4)C=C3)cc1
REMARK SMILES IDX 21 1 20 2 19 3 18 4 16 5 17 6 2 7 1 8 3 9 4 10 5 11 15 12
REMARK SMILES IDX 6 13 8 14 14 15 7 16 9 17 12 18 10 19 11 20 13 21 22 22
REMARK SMILES IDX 23 23 24 24 25 25 26 26 27 27 28 28 89 29 29 30 88 31 30 32
REMARK SMILES IDX 31 33 32 34 82 35 33 36 87 37 81 38 83 39 34 40 86 41 80 42
REMARK SMILES IDX 79 43 35 45 67 46 47 47 66 48 48 49 51 50 65 51 84 52 49 53
REMARK SMILES IDX 50 54 64 56 85 57 52 58 36 59 37 60 45 61 38 62 39 63 43 64
REMARK SMILES IDX 46 65 40 66 41 67 44 68 42 69 68 70 69 71 77 72 70 73 71 74
REMARK SMILES IDX 75 75 78 76 72 77 73 78 76 79 74 80 53 81 54 82 62 83 55 84
REMARK SMILES IDX 56 85 60 86 63 87 57 88 58 89 61 90 59 91
REMARK H PARENT 83 44 51 55
REMARK Flexibility Score: inf
ROOT
ATOM      1  O   UNL A   1      31.798  29.369  27.029  1.00  0.00    -0.374 OA
ENDROOT
BRANCH   1   2
ATOM      2  C   UNL A   1      31.749  28.012  26.591  1.00  0.00     0.202 C 
BRANCH   2   3
ATOM      3  C   UNL A   1      32.557  27.687  25.332  1.00  0.00     0.261 C 
BRANCH   3   4
ATOM      4  O   UNL A   1      31.864  26.730  24.517  1.00  0.00    -0.461 OA
BRANCH   4   5
ATOM      5  C   UNL A   1      31.888  25.445  24.966  1.00  0.00     0.347 C 
ATOM      6  O   UNL A   1      30.909  24.822  25.359  1.00  0.00    -0.248 OA
BRANCH   5   7
ATOM      7  C   UNL A   1      33.280  24.816  24.807  1.00  0.00     0.279 C 
ATOM      8  C   UNL A   1      33.554  24.449  23.349  1.00  0.00     0.066 C 
BRANCH   7   9
ATOM      9  O   UNL A   1      33.666  23.875  25.811  1.00  0.00    -0.478 OA
BRANCH   9  10
ATOM     10  C   UNL A   1      34.204  22.652  25.531  1.00  0.00     0.131 A 
ATOM     11  C   UNL A   1      33.453  21.521  25.254  1.00  0.00     0.067 A 
ATOM     12  C   UNL A   1      35.615  22.564  25.584  1.00  0.00     0.048 A 
ATOM     13  C   UNL A   1      34.131  20.365  24.924  1.00  0.00     0.115 A 
ATOM     14  C   UNL A   1      36.215  21.333  25.239  1.00  0.00     0.110 A 
ATOM     15  C   UNL A   1      36.439  23.649  25.967  1.00  0.00     0.053 A 
ATOM     16  N   UNL A   1      35.474  20.260  24.895  1.00  0.00    -0.253 NA
ATOM     17  C   UNL A   1      37.612  21.254  25.274  1.00  0.00     0.152 A 
ATOM     18  C   UNL A   1      37.820  23.514  26.007  1.00  0.00     0.127 A 
ATOM     19  F   UNL A   1      38.223  20.105  24.939  1.00  0.00    -0.204 F 
ATOM     20  C   UNL A   1      38.420  22.322  25.655  1.00  0.00     0.080 A 
ATOM     21  F   UNL A   1      38.576  24.549  26.395  1.00  0.00    -0.207 F 
ENDBRANCH   9  10
ENDBRANCH   7   9
ENDBRANCH   5   7
ENDBRANCH   4   5
ENDBRANCH   3   4
ENDBRANCH   2   3
ENDBRANCH   1   2
BRANCH   1  22
ATOM     22  C   UNL A   1      31.870  30.387  26.026  1.00  0.00     0.202 C 
BRANCH  22  23
ATOM     23  C   UNL A   1      31.787  31.837  26.516  1.00  0.00     0.261 C 
BRANCH  23  24
ATOM     24  O   UNL A   1      32.507  32.021  27.751  1.00  0.00    -0.460 OA
BRANCH  24  25
ATOM     25  C   UNL A   1      33.488  32.950  27.704  1.00  0.00     0.338 C 
ATOM     26  O   UNL A   1      33.369  34.159  27.574  1.00  0.00    -0.246 OA
BRANCH  25  27
ATOM     27  C   UNL A   1      34.786  32.327  28.007  1.00  0.00     0.060 A 
ATOM     28  C   UNL A   1      34.790  30.980  28.392  1.00  0.00     0.016 A 
ATOM     29  C   UNL A   1      35.951  33.093  28.070  1.00  0.00     0.016 A 
ATOM     30  C   UNL A   1      35.951  30.406  28.900  1.00  0.00     0.010 A 
ATOM     31  C   UNL A   1      37.110  32.522  28.604  1.00  0.00     0.010 A 
ATOM     32  C   UNL A   1      37.097  31.193  29.065  1.00  0.00    -0.014 A 
BRANCH  32  33
ATOM     33  C   UNL A   1      38.192  30.697  29.933  1.00  0.00     0.031 A 
ATOM     34  C   UNL A   1      39.158  29.698  29.356  1.00  0.00     0.074 A 
ATOM     35  C   UNL A   1      38.352  31.154  31.185  1.00  0.00     0.049 A 
ATOM     36  N   UNL A   1      40.168  29.092  29.927  1.00  0.00    -0.248 NA
ATOM     37  C   UNL A   1      38.967  29.342  27.940  1.00  0.00     0.031 C 
ATOM     38  C   UNL A   1      37.526  32.174  31.826  1.00  0.00     0.029 A 
ATOM     39  N   UNL A   1      39.274  30.812  32.142  1.00  0.00    -0.354 N 
ATOM     40  C   UNL A   1      40.736  28.298  28.940  1.00  0.00     0.074 A 
ATOM     41  C   UNL A   1      39.948  28.475  27.740  1.00  0.00     0.031 C 
ATOM     42  C   UNL A   1      37.973  32.369  33.079  1.00  0.00     0.029 A 
ATOM     43  C   UNL A   1      39.093  31.463  33.336  1.00  0.00     0.049 A 
ATOM     44  H   UNL A   1      39.997  30.161  31.987  1.00  0.00     0.167 HD
ATOM     45  C   UNL A   1      41.824  27.497  29.025  1.00  0.00     0.037 A 
ATOM     46  C   UNL A   1      39.746  31.323  34.506  1.00  0.00     0.037 A 
ATOM     47  C   UNL A   1      42.591  27.300  30.223  1.00  0.00     0.049 A 
ATOM     48  C   UNL A   1      40.873  30.327  34.609  1.00  0.00     0.074 A 
ATOM     49  C   UNL A   1      43.696  26.490  30.418  1.00  0.00     0.029 A 
ATOM     50  N   UNL A   1      42.327  27.917  31.436  1.00  0.00    -0.354 N 
ATOM     51  N   UNL A   1      41.398  29.570  33.676  1.00  0.00    -0.248 NA
ATOM     52  C   UNL A   1      41.491  30.161  35.932  1.00  0.00     0.031 C 
ATOM     53  C   UNL A   1      44.075  26.585  31.761  1.00  0.00     0.029 A 
ATOM     54  C   UNL A   1      43.233  27.487  32.391  1.00  0.00     0.049 A 
ATOM     55  H   UNL A   1      41.603  28.565  31.594  1.00  0.00     0.167 HD
ATOM     56  C   UNL A   1      42.413  28.851  34.293  1.00  0.00     0.074 A 
ATOM     57  C   UNL A   1      42.445  29.277  35.677  1.00  0.00     0.031 C 
ATOM     58  C   UNL A   1      43.243  27.919  33.764  1.00  0.00     0.037 A 
BRANCH  45  59
ATOM     59  C   UNL A   1      42.236  26.758  27.789  1.00  0.00     0.064 A 
ATOM     60  C   UNL A   1      43.187  27.289  26.906  1.00  0.00     0.173 A 
ATOM     61  C   UNL A   1      41.711  25.488  27.509  1.00  0.00     0.173 A 
ATOM     62  F   UNL A   1      43.704  28.507  27.123  1.00  0.00    -0.203 F 
ATOM     63  C   UNL A   1      43.592  26.576  25.781  1.00  0.00     0.198 A 
ATOM     64  C   UNL A   1      42.135  24.770  26.395  1.00  0.00     0.198 A 
ATOM     65  F   UNL A   1      40.798  24.939  28.324  1.00  0.00    -0.203 F 
ATOM     66  F   UNL A   1      44.483  27.113  24.934  1.00  0.00    -0.200 F 
ATOM     67  C   UNL A   1      43.072  25.315  25.530  1.00  0.00     0.200 A 
ATOM     68  F   UNL A   1      41.636  23.548  26.157  1.00  0.00    -0.200 F 
ATOM     69  F   UNL A   1      43.472  24.626  24.452  1.00  0.00    -0.200 F 
ENDBRANCH  45  59
BRANCH  46  70
ATOM     70  C   UNL A   1      39.338  32.125  35.687  1.00  0.00     0.064 A 
ATOM     71  C   UNL A   1      39.887  33.393  35.922  1.00  0.00     0.173 A 
ATOM     72  C   UNL A   1      38.413  31.631  36.618  1.00  0.00     0.173 A 
ATOM     73  F   UNL A   1      40.799  33.894  35.075  1.00  0.00    -0.203 F 
ATOM     74  C   UNL A   1      39.536  34.131  37.050  1.00  0.00     0.198 A 
ATOM     75  C   UNL A   1      38.043  32.381  37.733  1.00  0.00     0.198 A 
ATOM     76  F   UNL A   1      37.865  30.420  36.444  1.00  0.00    -0.203 F 
ATOM     77  F   UNL A   1      40.107  35.324  37.272  1.00  0.00    -0.200 F 
ATOM     78  C   UNL A   1      38.610  33.627  37.952  1.00  0.00     0.200 A 
ATOM     79  F   UNL A   1      37.143  31.894  38.598  1.00  0.00    -0.200 F 
ATOM     80  F   UNL A   1      38.272  34.338  39.035  1.00  0.00    -0.200 F 
ENDBRANCH  46  70
BRANCH  58  81
ATOM     81  C   UNL A   1      44.261  27.301  34.678  1.00  0.00     0.064 A 
ATOM     82  C   UNL A   1      45.495  27.919  34.920  1.00  0.00     0.173 A 
ATOM     83  C   UNL A   1      43.974  26.110  35.363  1.00  0.00     0.173 A 
ATOM     84  F   UNL A   1      45.820  29.052  34.278  1.00  0.00    -0.203 F 
ATOM     85  C   UNL A   1      46.415  27.357  35.801  1.00  0.00     0.198 A 
ATOM     86  C   UNL A   1      44.885  25.566  36.263  1.00  0.00     0.198 A 
ATOM     87  F   UNL A   1      42.802  25.486  35.173  1.00  0.00    -0.203 F 
ATOM     88  F   UNL A   1      47.605  27.945  35.988  1.00  0.00    -0.200 F 
ATOM     89  C   UNL A   1      46.106  26.188  36.478  1.00  0.00     0.200 A 
ATOM     90  F   UNL A   1      44.579  24.442  36.927  1.00  0.00    -0.200 F 
ATOM     91  F   UNL A   1      46.989  25.653  37.334  1.00  0.00    -0.200 F 
ENDBRANCH  58  81
ENDBRANCH  32  33
ENDBRANCH  25  27
ENDBRANCH  24  25
ENDBRANCH  23  24
ENDBRANCH  22  23
ENDBRANCH   1  22
TORSDOF 16
ENDMDL
