MODEL 1
REMARK VINA RESULT:     -11.2      0.000      0.000
REMARK SMILES CC(=O)NCCc1c[nH]c2ccc(C(=O)OCCOCCOC(=O)c3ccc(-c4c5nc(c(-c6c(F)c(F)c(F)c(F)c6F)c6ccc([nH]6)c(-c6c(F)c(F)c(F)c(F)c6F)c6nc(c(-c7c(F)c(F)c(F)c(F)c7F)c7ccc4[nH]7)C=C6)C=C5)cc3)cc12
REMARK SMILES IDX 18 1 17 2 16 3 14 4 15 5 13 6 7 7 8 8 89 9 9 10 10 11 88 12
REMARK SMILES IDX 11 14 12 15 6 16 5 17 4 18 1 19 2 20 3 21 19 23 20 24 21 25
REMARK SMILES IDX 22 26 23 27 24 28 25 29 26 30 87 31 27 32 86 33 28 34 29 35
REMARK SMILES IDX 30 36 80 37 31 38 85 39 79 40 81 41 32 42 84 43 78 44 77 45
REMARK SMILES IDX 33 47 65 48 45 49 64 50 46 51 49 52 63 53 82 54 47 55 48 56
REMARK SMILES IDX 62 58 83 59 50 60 34 61 35 62 43 63 36 64 37 65 41 66 44 67
REMARK SMILES IDX 38 68 39 69 42 70 40 71 66 72 67 73 75 74 68 75 69 76 73 77
REMARK SMILES IDX 76 78 70 79 71 80 74 81 72 82 51 83 52 84 60 85 53 86 54 87
REMARK SMILES IDX 58 88 61 89 55 90 56 91 59 92 57 93
REMARK H PARENT 9 13 4 22 81 46 49 57
REMARK Flexibility Score: inf
ROOT
ATOM      1  C   UNL A   1      33.797  30.377  27.180  1.00  0.00     0.202 C 
ENDROOT
BRANCH   1   2
ATOM      2  C   UNL A   1      34.287  28.932  27.306  1.00  0.00     0.261 C 
BRANCH   2   3
ATOM      3  O   UNL A   1      33.199  27.996  27.240  1.00  0.00    -0.460 OA
BRANCH   3   4
ATOM      4  C   UNL A   1      33.275  27.121  26.207  1.00  0.00     0.338 C 
ATOM      5  O   UNL A   1      34.248  26.456  25.884  1.00  0.00    -0.246 OA
BRANCH   4   6
ATOM      6  C   UNL A   1      31.949  26.939  25.578  1.00  0.00     0.060 A 
ATOM      7  C   UNL A   1      29.678  28.565  22.970  1.00  0.00    -0.021 A 
ATOM      8  C   UNL A   1      28.396  28.061  22.862  1.00  0.00     0.087 A 
ATOM      9  C   UNL A   1      30.331  27.801  23.987  1.00  0.00     0.003 A 
ATOM     10  N   UNL A   1      28.276  26.996  23.714  1.00  0.00    -0.361 N 
ATOM     11  C   UNL A   1      29.453  26.799  24.399  1.00  0.00     0.046 A 
ATOM     12  C   UNL A   1      31.598  27.871  24.590  1.00  0.00     0.026 A 
ATOM     13  H   UNL A   1      27.464  26.449  23.821  1.00  0.00     0.166 HD
ATOM     14  C   UNL A   1      29.801  25.828  25.349  1.00  0.00     0.027 A 
ATOM     15  C   UNL A   1      31.074  25.910  25.932  1.00  0.00     0.018 A 
BRANCH   7  16
ATOM     16  C   UNL A   1      30.273  29.690  22.173  1.00  0.00     0.059 C 
BRANCH  16  17
ATOM     17  C   UNL A   1      29.210  30.486  21.402  1.00  0.00     0.120 C 
BRANCH  17  18
ATOM     18  N   UNL A   1      29.204  31.892  21.779  1.00  0.00    -0.356 N 
ATOM     19  C   UNL A   1      27.681  31.669  23.699  1.00  0.00     0.114 C 
ATOM     20  C   UNL A   1      28.507  32.514  22.770  1.00  0.00     0.216 C 
ATOM     21  O   UNL A   1      28.577  33.735  22.888  1.00  0.00    -0.275 OA
ATOM     22  H   UNL A   1      29.784  32.477  21.240  1.00  0.00     0.163 HD
ENDBRANCH  17  18
ENDBRANCH  16  17
ENDBRANCH   7  16
ENDBRANCH   4   6
ENDBRANCH   3   4
ENDBRANCH   2   3
ENDBRANCH   1   2
BRANCH   1  23
ATOM     23  O   UNL A   1      32.388  30.579  27.251  1.00  0.00    -0.374 OA
BRANCH  23  24
ATOM     24  C   UNL A   1      31.848  31.678  26.512  1.00  0.00     0.202 C 
BRANCH  24  25
ATOM     25  C   UNL A   1      31.763  33.019  27.252  1.00  0.00     0.261 C 
BRANCH  25  26
ATOM     26  O   UNL A   1      33.027  33.709  27.257  1.00  0.00    -0.460 OA
BRANCH  26  27
ATOM     27  C   UNL A   1      33.268  34.467  28.352  1.00  0.00     0.338 C 
ATOM     28  O   UNL A   1      32.618  35.421  28.758  1.00  0.00    -0.246 OA
BRANCH  27  29
ATOM     29  C   UNL A   1      34.357  33.859  29.137  1.00  0.00     0.060 A 
ATOM     30  C   UNL A   1      35.676  34.177  28.783  1.00  0.00     0.016 A 
ATOM     31  C   UNL A   1      34.097  32.959  30.171  1.00  0.00     0.016 A 
ATOM     32  C   UNL A   1      36.742  33.577  29.450  1.00  0.00     0.010 A 
ATOM     33  C   UNL A   1      35.168  32.346  30.829  1.00  0.00     0.010 A 
ATOM     34  C   UNL A   1      36.494  32.636  30.457  1.00  0.00    -0.014 A 
BRANCH  34  35
ATOM     35  C   UNL A   1      37.614  31.868  31.050  1.00  0.00     0.031 A 
ATOM     36  C   UNL A   1      38.080  32.206  32.438  1.00  0.00     0.074 A 
ATOM     37  C   UNL A   1      38.212  30.884  30.356  1.00  0.00     0.049 A 
ATOM     38  N   UNL A   1      39.091  31.727  33.115  1.00  0.00    -0.248 NA
ATOM     39  C   UNL A   1      37.300  33.224  33.158  1.00  0.00     0.031 C 
ATOM     40  C   UNL A   1      37.822  30.436  29.022  1.00  0.00     0.029 A 
ATOM     41  N   UNL A   1      39.287  30.094  30.678  1.00  0.00    -0.354 N 
ATOM     42  C   UNL A   1      39.074  32.388  34.336  1.00  0.00     0.074 A 
ATOM     43  C   UNL A   1      37.968  33.320  34.298  1.00  0.00     0.031 C 
ATOM     44  C   UNL A   1      38.658  29.461  28.628  1.00  0.00     0.029 A 
ATOM     45  C   UNL A   1      39.664  29.244  29.667  1.00  0.00     0.049 A 
ATOM     46  H   UNL A   1      39.745  30.132  31.549  1.00  0.00     0.167 HD
ATOM     47  C   UNL A   1      39.903  32.225  35.394  1.00  0.00     0.037 A 
ATOM     48  C   UNL A   1      40.721  28.412  29.581  1.00  0.00     0.037 A 
ATOM     49  C   UNL A   1      41.003  31.297  35.427  1.00  0.00     0.049 A 
ATOM     50  C   UNL A   1      41.683  28.316  30.737  1.00  0.00     0.074 A 
ATOM     51  C   UNL A   1      41.884  31.038  36.462  1.00  0.00     0.029 A 
ATOM     52  N   UNL A   1      41.379  30.481  34.370  1.00  0.00    -0.354 N 
ATOM     53  N   UNL A   1      41.646  28.923  31.897  1.00  0.00    -0.248 NA
ATOM     54  C   UNL A   1      42.836  27.420  30.567  1.00  0.00     0.031 C 
ATOM     55  C   UNL A   1      42.826  30.106  36.013  1.00  0.00     0.029 A 
ATOM     56  C   UNL A   1      42.499  29.745  34.715  1.00  0.00     0.049 A 
ATOM     57  H   UNL A   1      40.917  30.434  33.501  1.00  0.00     0.167 HD
ATOM     58  C   UNL A   1      42.752  28.469  32.603  1.00  0.00     0.074 A 
ATOM     59  C   UNL A   1      43.435  27.524  31.746  1.00  0.00     0.031 C 
ATOM     60  C   UNL A   1      43.166  28.805  33.850  1.00  0.00     0.037 A 
BRANCH  47  61
ATOM     61  C   UNL A   1      39.672  33.091  36.596  1.00  0.00     0.064 A 
ATOM     62  C   UNL A   1      38.777  32.719  37.612  1.00  0.00     0.173 A 
ATOM     63  C   UNL A   1      40.381  34.292  36.753  1.00  0.00     0.173 A 
ATOM     64  F   UNL A   1      38.065  31.587  37.503  1.00  0.00    -0.203 F 
ATOM     65  C   UNL A   1      38.584  33.530  38.727  1.00  0.00     0.198 A 
ATOM     66  C   UNL A   1      40.205  35.086  37.883  1.00  0.00     0.198 A 
ATOM     67  F   UNL A   1      41.250  34.691  35.814  1.00  0.00    -0.203 F 
ATOM     68  F   UNL A   1      37.692  33.177  39.663  1.00  0.00    -0.200 F 
ATOM     69  C   UNL A   1      39.303  34.708  38.866  1.00  0.00     0.200 A 
ATOM     70  F   UNL A   1      40.909  36.218  38.020  1.00  0.00    -0.200 F 
ATOM     71  F   UNL A   1      39.120  35.484  39.944  1.00  0.00    -0.200 F 
ENDBRANCH  47  61
BRANCH  48  72
ATOM     72  C   UNL A   1      40.942  27.621  28.342  1.00  0.00     0.064 A 
ATOM     73  C   UNL A   1      40.370  26.351  28.185  1.00  0.00     0.173 A 
ATOM     74  C   UNL A   1      41.743  28.110  27.300  1.00  0.00     0.173 A 
ATOM     75  F   UNL A   1      39.618  25.829  29.165  1.00  0.00    -0.203 F 
ATOM     76  C   UNL A   1      40.604  25.594  27.038  1.00  0.00     0.198 A 
ATOM     77  C   UNL A   1      41.954  27.364  26.143  1.00  0.00     0.198 A 
ATOM     78  F   UNL A   1      42.318  29.318  27.404  1.00  0.00    -0.203 F 
ATOM     79  F   UNL A   1      40.082  24.365  26.932  1.00  0.00    -0.200 F 
ATOM     80  C   UNL A   1      41.391  26.104  26.016  1.00  0.00     0.200 A 
ATOM     81  F   UNL A   1      42.706  27.865  25.153  1.00  0.00    -0.200 F 
ATOM     82  F   UNL A   1      41.612  25.376  24.912  1.00  0.00    -0.200 F 
ENDBRANCH  48  72
BRANCH  60  83
ATOM     83  C   UNL A   1      44.400  28.130  34.375  1.00  0.00     0.064 A 
ATOM     84  C   UNL A   1      45.667  28.720  34.255  1.00  0.00     0.173 A 
ATOM     85  C   UNL A   1      44.307  26.906  35.055  1.00  0.00     0.173 A 
ATOM     86  F   UNL A   1      45.810  29.882  33.600  1.00  0.00    -0.203 F 
ATOM     87  C   UNL A   1      46.798  28.100  34.781  1.00  0.00     0.198 A 
ATOM     88  C   UNL A   1      45.435  26.303  35.604  1.00  0.00     0.198 A 
ATOM     89  F   UNL A   1      43.118  26.304  35.202  1.00  0.00    -0.203 F 
ATOM     90  F   UNL A   1      48.003  28.662  34.620  1.00  0.00    -0.200 F 
ATOM     91  C   UNL A   1      46.679  26.898  35.462  1.00  0.00     0.200 A 
ATOM     92  F   UNL A   1      45.317  25.148  36.274  1.00  0.00    -0.200 F 
ATOM     93  F   UNL A   1      47.767  26.309  35.979  1.00  0.00    -0.200 F 
ENDBRANCH  60  83
ENDBRANCH  34  35
ENDBRANCH  27  29
ENDBRANCH  26  27
ENDBRANCH  25  26
ENDBRANCH  24  25
ENDBRANCH  23  24
ENDBRANCH   1  23
TORSDOF 17
ENDMDL
MODEL 2
REMARK VINA RESULT:     -11.0      5.124     10.475
REMARK SMILES CC(=O)NCCc1c[nH]c2ccc(C(=O)OCCOCCOC(=O)c3ccc(-c4c5nc(c(-c6c(F)c(F)c(F)c(F)c6F)c6ccc([nH]6)c(-c6c(F)c(F)c(F)c(F)c6F)c6nc(c(-c7c(F)c(F)c(F)c(F)c7F)c7ccc4[nH]7)C=C6)C=C5)cc3)cc12
REMARK SMILES IDX 18 1 17 2 16 3 14 4 15 5 13 6 7 7 8 8 89 9 9 10 10 11 88 12
REMARK SMILES IDX 11 14 12 15 6 16 5 17 4 18 1 19 2 20 3 21 19 23 20 24 21 25
REMARK SMILES IDX 22 26 23 27 24 28 25 29 26 30 87 31 27 32 86 33 28 34 29 35
REMARK SMILES IDX 30 36 80 37 31 38 85 39 79 40 81 41 32 42 84 43 78 44 77 45
REMARK SMILES IDX 33 47 65 48 45 49 64 50 46 51 49 52 63 53 82 54 47 55 48 56
REMARK SMILES IDX 62 58 83 59 50 60 34 61 35 62 43 63 36 64 37 65 41 66 44 67
REMARK SMILES IDX 38 68 39 69 42 70 40 71 66 72 67 73 75 74 68 75 69 76 73 77
REMARK SMILES IDX 76 78 70 79 71 80 74 81 72 82 51 83 52 84 60 85 53 86 54 87
REMARK SMILES IDX 58 88 61 89 55 90 56 91 59 92 57 93
REMARK H PARENT 9 13 4 22 81 46 49 57
REMARK Flexibility Score: inf
ROOT
ATOM      1  C   UNL A   1      45.489  19.992  24.440  1.00  0.00     0.202 C 
ENDROOT
BRANCH   1   2
ATOM      2  C   UNL A   1      44.648  18.923  25.141  1.00  0.00     0.261 C 
BRANCH   2   3
ATOM      3  O   UNL A   1      43.243  19.118  24.910  1.00  0.00    -0.460 OA
BRANCH   3   4
ATOM      4  C   UNL A   1      42.470  18.970  26.013  1.00  0.00     0.338 C 
ATOM      5  O   UNL A   1      42.545  18.076  26.842  1.00  0.00    -0.246 OA
BRANCH   4   6
ATOM      6  C   UNL A   1      41.584  20.141  26.191  1.00  0.00     0.060 A 
ATOM      7  C   UNL A   1      37.990  21.247  25.510  1.00  0.00    -0.021 A 
ATOM      8  C   UNL A   1      37.695  22.578  25.739  1.00  0.00     0.087 A 
ATOM      9  C   UNL A   1      39.370  21.073  25.842  1.00  0.00     0.003 A 
ATOM     10  N   UNL A   1      38.810  23.186  26.253  1.00  0.00    -0.361 N 
ATOM     11  C   UNL A   1      39.843  22.282  26.349  1.00  0.00     0.046 A 
ATOM     12  C   UNL A   1      40.257  19.987  25.761  1.00  0.00     0.026 A 
ATOM     13  H   UNL A   1      38.863  24.133  26.517  1.00  0.00     0.166 HD
ATOM     14  C   UNL A   1      41.151  22.444  26.830  1.00  0.00     0.027 A 
ATOM     15  C   UNL A   1      42.018  21.346  26.749  1.00  0.00     0.018 A 
BRANCH   7  16
ATOM     16  C   UNL A   1      37.047  20.189  25.015  1.00  0.00     0.059 C 
BRANCH  16  17
ATOM     17  C   UNL A   1      35.589  20.669  24.994  1.00  0.00     0.120 C 
BRANCH  17  18
ATOM     18  N   UNL A   1      34.649  19.558  25.001  1.00  0.00    -0.356 N 
ATOM     19  C   UNL A   1      32.604  20.911  25.209  1.00  0.00     0.114 C 
ATOM     20  C   UNL A   1      33.295  19.578  25.141  1.00  0.00     0.216 C 
ATOM     21  O   UNL A   1      32.673  18.518  25.196  1.00  0.00    -0.275 OA
ATOM     22  H   UNL A   1      35.049  18.666  24.890  1.00  0.00     0.163 HD
ENDBRANCH  17  18
ENDBRANCH  16  17
ENDBRANCH   7  16
ENDBRANCH   4   6
ENDBRANCH   3   4
ENDBRANCH   2   3
ENDBRANCH   1   2
BRANCH   1  23
ATOM     23  O   UNL A   1      46.153  20.932  25.282  1.00  0.00    -0.374 OA
BRANCH  23  24
ATOM     24  C   UNL A   1      45.486  22.173  25.527  1.00  0.00     0.202 C 
BRANCH  24  25
ATOM     25  C   UNL A   1      44.920  22.896  24.298  1.00  0.00     0.261 C 
BRANCH  25  26
ATOM     26  O   UNL A   1      44.104  24.024  24.669  1.00  0.00    -0.460 OA
BRANCH  26  27
ATOM     27  C   UNL A   1      44.782  25.107  25.116  1.00  0.00     0.338 C 
ATOM     28  O   UNL A   1      45.791  25.607  24.636  1.00  0.00    -0.246 OA
BRANCH  27  29
ATOM     29  C   UNL A   1      44.014  25.754  26.194  1.00  0.00     0.060 A 
ATOM     30  C   UNL A   1      44.168  27.136  26.370  1.00  0.00     0.016 A 
ATOM     31  C   UNL A   1      43.192  25.017  27.048  1.00  0.00     0.016 A 
ATOM     32  C   UNL A   1      43.516  27.784  27.419  1.00  0.00     0.010 A 
ATOM     33  C   UNL A   1      42.551  25.666  28.107  1.00  0.00     0.010 A 
ATOM     34  C   UNL A   1      42.727  27.047  28.310  1.00  0.00    -0.014 A 
BRANCH  34  35
ATOM     35  C   UNL A   1      42.172  27.695  29.522  1.00  0.00     0.031 A 
ATOM     36  C   UNL A   1      40.883  28.459  29.419  1.00  0.00     0.074 A 
ATOM     37  C   UNL A   1      42.814  27.606  30.700  1.00  0.00     0.049 A 
ATOM     38  N   UNL A   1      40.265  29.172  30.324  1.00  0.00    -0.248 NA
ATOM     39  C   UNL A   1      40.200  28.414  28.116  1.00  0.00     0.031 C 
ATOM     40  C   UNL A   1      44.047  26.858  30.934  1.00  0.00     0.029 A 
ATOM     41  N   UNL A   1      42.521  28.165  31.918  1.00  0.00    -0.354 N 
ATOM     42  C   UNL A   1      39.127  29.667  29.702  1.00  0.00     0.074 A 
ATOM     43  C   UNL A   1      39.151  29.193  28.335  1.00  0.00     0.031 C 
ATOM     44  C   UNL A   1      44.417  27.019  32.216  1.00  0.00     0.029 A 
ATOM     45  C   UNL A   1      43.469  27.912  32.880  1.00  0.00     0.049 A 
ATOM     46  H   UNL A   1      41.710  28.698  32.088  1.00  0.00     0.167 HD
ATOM     47  C   UNL A   1      38.147  30.439  30.228  1.00  0.00     0.037 A 
ATOM     48  C   UNL A   1      43.573  28.376  34.140  1.00  0.00     0.037 A 
ATOM     49  C   UNL A   1      38.127  30.909  31.588  1.00  0.00     0.049 A 
ATOM     50  C   UNL A   1      42.517  29.310  34.674  1.00  0.00     0.074 A 
ATOM     51  C   UNL A   1      37.165  31.674  32.224  1.00  0.00     0.029 A 
ATOM     52  N   UNL A   1      39.124  30.665  32.522  1.00  0.00    -0.354 N 
ATOM     53  N   UNL A   1      41.430  29.752  34.090  1.00  0.00    -0.248 NA
ATOM     54  C   UNL A   1      42.706  29.813  36.043  1.00  0.00     0.031 C 
ATOM     55  C   UNL A   1      37.606  31.939  33.525  1.00  0.00     0.029 A 
ATOM     56  C   UNL A   1      38.817  31.294  33.717  1.00  0.00     0.049 A 
ATOM     57  H   UNL A   1      39.931  30.125  32.358  1.00  0.00     0.167 HD
ATOM     58  C   UNL A   1      40.796  30.563  35.021  1.00  0.00     0.074 A 
ATOM     59  C   UNL A   1      41.613  30.542  36.217  1.00  0.00     0.031 C 
ATOM     60  C   UNL A   1      39.641  31.261  34.899  1.00  0.00     0.037 A 
BRANCH  47  61
ATOM     61  C   UNL A   1      37.027  30.852  29.320  1.00  0.00     0.064 A 
ATOM     62  C   UNL A   1      36.018  29.954  28.938  1.00  0.00     0.173 A 
ATOM     63  C   UNL A   1      36.941  32.173  28.854  1.00  0.00     0.173 A 
ATOM     64  F   UNL A   1      36.061  28.677  29.346  1.00  0.00    -0.203 F 
ATOM     65  C   UNL A   1      34.978  30.359  28.105  1.00  0.00     0.198 A 
ATOM     66  C   UNL A   1      35.885  32.580  28.043  1.00  0.00     0.198 A 
ATOM     67  F   UNL A   1      37.878  33.071  29.192  1.00  0.00    -0.203 F 
ATOM     68  F   UNL A   1      34.050  29.473  27.717  1.00  0.00    -0.200 F 
ATOM     69  C   UNL A   1      34.909  31.672  27.664  1.00  0.00     0.200 A 
ATOM     70  F   UNL A   1      35.813  33.852  27.628  1.00  0.00    -0.200 F 
ATOM     71  F   UNL A   1      33.903  32.060  26.867  1.00  0.00    -0.200 F 
ENDBRANCH  47  61
BRANCH  48  72
ATOM     72  C   UNL A   1      44.735  27.988  34.980  1.00  0.00     0.064 A 
ATOM     73  C   UNL A   1      44.676  26.869  35.824  1.00  0.00     0.173 A 
ATOM     74  C   UNL A   1      45.922  28.735  34.970  1.00  0.00     0.173 A 
ATOM     75  F   UNL A   1      43.553  26.139  35.888  1.00  0.00    -0.203 F 
ATOM     76  C   UNL A   1      45.753  26.524  36.636  1.00  0.00     0.198 A 
ATOM     77  C   UNL A   1      47.008  28.372  35.762  1.00  0.00     0.198 A 
ATOM     78  F   UNL A   1      46.029  29.817  34.184  1.00  0.00    -0.203 F 
ATOM     79  F   UNL A   1      45.654  25.477  37.467  1.00  0.00    -0.200 F 
ATOM     80  C   UNL A   1      46.921  27.272  36.600  1.00  0.00     0.200 A 
ATOM     81  F   UNL A   1      48.139  29.091  35.716  1.00  0.00    -0.200 F 
ATOM     82  F   UNL A   1      47.958  26.936  37.380  1.00  0.00    -0.200 F 
ENDBRANCH  48  72
BRANCH  60  83
ATOM     83  C   UNL A   1      39.175  32.044  36.093  1.00  0.00     0.064 A 
ATOM     84  C   UNL A   1      39.614  33.355  36.328  1.00  0.00     0.173 A 
ATOM     85  C   UNL A   1      38.236  31.496  36.980  1.00  0.00     0.173 A 
ATOM     86  F   UNL A   1      40.522  33.918  35.518  1.00  0.00    -0.203 F 
ATOM     87  C   UNL A   1      39.143  34.082  37.420  1.00  0.00     0.198 A 
ATOM     88  C   UNL A   1      37.746  32.235  38.053  1.00  0.00     0.198 A 
ATOM     89  F   UNL A   1      37.780  30.247  36.796  1.00  0.00    -0.203 F 
ATOM     90  F   UNL A   1      39.606  35.318  37.648  1.00  0.00    -0.200 F 
ATOM     91  C   UNL A   1      38.204  33.525  38.274  1.00  0.00     0.200 A 
ATOM     92  F   UNL A   1      36.829  31.700  38.871  1.00  0.00    -0.200 F 
ATOM     93  F   UNL A   1      37.743  34.231  39.317  1.00  0.00    -0.200 F 
ENDBRANCH  60  83
ENDBRANCH  34  35
ENDBRANCH  27  29
ENDBRANCH  26  27
ENDBRANCH  25  26
ENDBRANCH  24  25
ENDBRANCH  23  24
ENDBRANCH   1  23
TORSDOF 17
ENDMDL
MODEL 3
REMARK VINA RESULT:     -10.9      0.687      7.426
REMARK SMILES CC(=O)NCCc1c[nH]c2ccc(C(=O)OCCOCCOC(=O)c3ccc(-c4c5nc(c(-c6c(F)c(F)c(F)c(F)c6F)c6ccc([nH]6)c(-c6c(F)c(F)c(F)c(F)c6F)c6nc(c(-c7c(F)c(F)c(F)c(F)c7F)c7ccc4[nH]7)C=C6)C=C5)cc3)cc12
REMARK SMILES IDX 18 1 17 2 16 3 14 4 15 5 13 6 7 7 8 8 89 9 9 10 10 11 88 12
REMARK SMILES IDX 11 14 12 15 6 16 5 17 4 18 1 19 2 20 3 21 19 23 20 24 21 25
REMARK SMILES IDX 22 26 23 27 24 28 25 29 26 30 87 31 27 32 86 33 28 34 29 35
REMARK SMILES IDX 30 36 80 37 31 38 85 39 79 40 81 41 32 42 84 43 78 44 77 45
REMARK SMILES IDX 33 47 65 48 45 49 64 50 46 51 49 52 63 53 82 54 47 55 48 56
REMARK SMILES IDX 62 58 83 59 50 60 34 61 35 62 43 63 36 64 37 65 41 66 44 67
REMARK SMILES IDX 38 68 39 69 42 70 40 71 66 72 67 73 75 74 68 75 69 76 73 77
REMARK SMILES IDX 76 78 70 79 71 80 74 81 72 82 51 83 52 84 60 85 53 86 54 87
REMARK SMILES IDX 58 88 61 89 55 90 56 91 59 92 57 93
REMARK H PARENT 9 13 4 22 81 46 49 57
REMARK Flexibility Score: inf
ROOT
ATOM      1  C   UNL A   1      33.948  30.364  27.241  1.00  0.00     0.202 C 
ENDROOT
BRANCH   1   2
ATOM      2  C   UNL A   1      34.600  28.987  27.087  1.00  0.00     0.261 C 
BRANCH   2   3
ATOM      3  O   UNL A   1      33.620  27.959  26.866  1.00  0.00    -0.460 OA
BRANCH   3   4
ATOM      4  C   UNL A   1      33.529  27.540  25.580  1.00  0.00     0.338 C 
ATOM      5  O   UNL A   1      34.440  27.466  24.771  1.00  0.00    -0.246 OA
BRANCH   4   6
ATOM      6  C   UNL A   1      32.175  27.016  25.297  1.00  0.00     0.060 A 
ATOM      7  C   UNL A   1      29.017  27.918  23.343  1.00  0.00    -0.021 A 
ATOM      8  C   UNL A   1      27.908  27.120  23.551  1.00  0.00     0.087 A 
ATOM      9  C   UNL A   1      30.062  27.385  24.161  1.00  0.00     0.003 A 
ATOM     10  N   UNL A   1      28.260  26.103  24.398  1.00  0.00    -0.361 N 
ATOM     11  C   UNL A   1      29.579  26.227  24.769  1.00  0.00     0.046 A 
ATOM     12  C   UNL A   1      31.381  27.785  24.433  1.00  0.00     0.026 A 
ATOM     13  H   UNL A   1      27.655  25.386  24.698  1.00  0.00     0.166 HD
ATOM     14  C   UNL A   1      30.371  25.417  25.596  1.00  0.00     0.027 A 
ATOM     15  C   UNL A   1      31.688  25.829  25.848  1.00  0.00     0.018 A 
BRANCH   7  16
ATOM     16  C   UNL A   1      29.110  29.109  22.433  1.00  0.00     0.059 C 
BRANCH  16  17
ATOM     17  C   UNL A   1      28.593  30.393  23.095  1.00  0.00     0.120 C 
BRANCH  17  18
ATOM     18  N   UNL A   1      28.069  31.337  22.119  1.00  0.00    -0.356 N 
ATOM     19  C   UNL A   1      29.092  33.354  23.087  1.00  0.00     0.114 C 
ATOM     20  C   UNL A   1      28.208  32.690  22.069  1.00  0.00     0.216 C 
ATOM     21  O   UNL A   1      27.623  33.330  21.198  1.00  0.00    -0.275 OA
ATOM     22  H   UNL A   1      27.537  30.940  21.391  1.00  0.00     0.163 HD
ENDBRANCH  17  18
ENDBRANCH  16  17
ENDBRANCH   7  16
ENDBRANCH   4   6
ENDBRANCH   3   4
ENDBRANCH   2   3
ENDBRANCH   1   2
BRANCH   1  23
ATOM     23  O   UNL A   1      32.527  30.386  27.355  1.00  0.00    -0.374 OA
BRANCH  23  24
ATOM     24  C   UNL A   1      31.822  31.326  26.541  1.00  0.00     0.202 C 
BRANCH  24  25
ATOM     25  C   UNL A   1      31.717  32.756  27.087  1.00  0.00     0.261 C 
BRANCH  25  26
ATOM     26  O   UNL A   1      33.009  33.385  27.192  1.00  0.00    -0.460 OA
BRANCH  26  27
ATOM     27  C   UNL A   1      33.151  34.245  28.227  1.00  0.00     0.338 C 
ATOM     28  O   UNL A   1      32.402  35.158  28.548  1.00  0.00    -0.246 OA
BRANCH  27  29
ATOM     29  C   UNL A   1      34.278  33.812  29.072  1.00  0.00     0.060 A 
ATOM     30  C   UNL A   1      35.550  34.326  28.782  1.00  0.00     0.016 A 
ATOM     31  C   UNL A   1      34.105  32.885  30.100  1.00  0.00     0.016 A 
ATOM     32  C   UNL A   1      36.659  33.896  29.507  1.00  0.00     0.010 A 
ATOM     33  C   UNL A   1      35.222  32.444  30.817  1.00  0.00     0.010 A 
ATOM     34  C   UNL A   1      36.506  32.931  30.510  1.00  0.00    -0.014 A 
BRANCH  34  35
ATOM     35  C   UNL A   1      37.698  32.343  31.166  1.00  0.00     0.031 A 
ATOM     36  C   UNL A   1      38.459  31.255  30.462  1.00  0.00     0.074 A 
ATOM     37  C   UNL A   1      38.094  32.773  32.376  1.00  0.00     0.049 A 
ATOM     38  N   UNL A   1      39.472  30.544  30.884  1.00  0.00    -0.248 NA
ATOM     39  C   UNL A   1      38.014  30.924  29.100  1.00  0.00     0.031 C 
ATOM     40  C   UNL A   1      37.465  33.850  33.137  1.00  0.00     0.029 A 
ATOM     41  N   UNL A   1      39.116  32.341  33.184  1.00  0.00    -0.354 N 
ATOM     42  C   UNL A   1      39.782  29.677  29.845  1.00  0.00     0.074 A 
ATOM     43  C   UNL A   1      38.834  29.933  28.782  1.00  0.00     0.031 C 
ATOM     44  C   UNL A   1      38.103  33.984  34.311  1.00  0.00     0.029 A 
ATOM     45  C   UNL A   1      39.159  32.977  34.400  1.00  0.00     0.049 A 
ATOM     46  H   UNL A   1      39.757  31.642  32.918  1.00  0.00     0.167 HD
ATOM     47  C   UNL A   1      40.772  28.756  29.783  1.00  0.00     0.037 A 
ATOM     48  C   UNL A   1      39.942  32.748  35.473  1.00  0.00     0.037 A 
ATOM     49  C   UNL A   1      41.712  28.503  30.843  1.00  0.00     0.049 A 
ATOM     50  C   UNL A   1      40.977  31.655  35.412  1.00  0.00     0.074 A 
ATOM     51  C   UNL A   1      42.769  27.611  30.866  1.00  0.00     0.029 A 
ATOM     52  N   UNL A   1      41.700  29.140  32.076  1.00  0.00    -0.354 N 
ATOM     53  N   UNL A   1      41.283  30.857  34.418  1.00  0.00    -0.248 NA
ATOM     54  C   UNL A   1      41.774  31.428  36.627  1.00  0.00     0.031 C 
ATOM     55  C   UNL A   1      43.363  27.668  32.132  1.00  0.00     0.029 A 
ATOM     56  C   UNL A   1      42.709  28.635  32.879  1.00  0.00     0.049 A 
ATOM     57  H   UNL A   1      41.067  29.846  32.341  1.00  0.00     0.167 HD
ATOM     58  C   UNL A   1      42.318  30.052  34.876  1.00  0.00     0.074 A 
ATOM     59  C   UNL A   1      42.599  30.466  36.235  1.00  0.00     0.031 C 
ATOM     60  C   UNL A   1      42.977  29.060  34.230  1.00  0.00     0.037 A 
BRANCH  47  61
ATOM     61  C   UNL A   1      40.873  27.929  28.535  1.00  0.00     0.064 A 
ATOM     62  C   UNL A   1      40.186  26.713  28.399  1.00  0.00     0.173 A 
ATOM     63  C   UNL A   1      41.638  28.377  27.447  1.00  0.00     0.173 A 
ATOM     64  F   UNL A   1      39.452  26.235  29.415  1.00  0.00    -0.203 F 
ATOM     65  C   UNL A   1      40.281  25.965  27.228  1.00  0.00     0.198 A 
ATOM     66  C   UNL A   1      41.708  27.640  26.268  1.00  0.00     0.198 A 
ATOM     67  F   UNL A   1      42.311  29.534  27.525  1.00  0.00    -0.203 F 
ATOM     68  F   UNL A   1      39.652  24.785  27.137  1.00  0.00    -0.200 F 
ATOM     69  C   UNL A   1      41.036  26.432  26.162  1.00  0.00     0.200 A 
ATOM     70  F   UNL A   1      42.428  28.098  25.235  1.00  0.00    -0.200 F 
ATOM     71  F   UNL A   1      41.120  25.713  25.034  1.00  0.00    -0.200 F 
ENDBRANCH  47  61
BRANCH  48  72
ATOM     72  C   UNL A   1      39.761  33.553  36.709  1.00  0.00     0.064 A 
ATOM     73  C   UNL A   1      40.534  34.698  36.945  1.00  0.00     0.173 A 
ATOM     74  C   UNL A   1      38.824  33.185  37.685  1.00  0.00     0.173 A 
ATOM     75  F   UNL A   1      41.462  35.075  36.054  1.00  0.00    -0.203 F 
ATOM     76  C   UNL A   1      40.388  35.434  38.119  1.00  0.00     0.198 A 
ATOM     77  C   UNL A   1      38.660  33.937  38.846  1.00  0.00     0.198 A 
ATOM     78  F   UNL A   1      38.061  32.095  37.509  1.00  0.00    -0.203 F 
ATOM     79  F   UNL A   1      41.172  36.498  38.342  1.00  0.00    -0.200 F 
ATOM     80  C   UNL A   1      39.446  35.057  39.065  1.00  0.00     0.200 A 
ATOM     81  F   UNL A   1      37.740  33.576  39.752  1.00  0.00    -0.200 F 
ATOM     82  F   UNL A   1      39.305  35.768  40.193  1.00  0.00    -0.200 F 
ENDBRANCH  48  72
BRANCH  60  83
ATOM     83  C   UNL A   1      44.083  28.365  34.971  1.00  0.00     0.064 A 
ATOM     84  C   UNL A   1      43.835  27.245  35.778  1.00  0.00     0.173 A 
ATOM     85  C   UNL A   1      45.412  28.791  34.828  1.00  0.00     0.173 A 
ATOM     86  F   UNL A   1      42.580  26.809  35.959  1.00  0.00    -0.203 F 
ATOM     87  C   UNL A   1      44.877  26.588  36.430  1.00  0.00     0.198 A 
ATOM     88  C   UNL A   1      46.454  28.116  35.458  1.00  0.00     0.198 A 
ATOM     89  F   UNL A   1      45.702  29.854  34.063  1.00  0.00    -0.203 F 
ATOM     90  F   UNL A   1      44.613  25.544  37.227  1.00  0.00    -0.200 F 
ATOM     91  C   UNL A   1      46.184  27.018  36.261  1.00  0.00     0.200 A 
ATOM     92  F   UNL A   1      47.718  28.524  35.283  1.00  0.00    -0.200 F 
ATOM     93  F   UNL A   1      47.187  26.377  36.879  1.00  0.00    -0.200 F 
ENDBRANCH  60  83
ENDBRANCH  34  35
ENDBRANCH  27  29
ENDBRANCH  26  27
ENDBRANCH  25  26
ENDBRANCH  24  25
ENDBRANCH  23  24
ENDBRANCH   1  23
TORSDOF 17
ENDMDL
