MODEL 1
REMARK VINA RESULT:     -12.5      0.000      0.000
REMARK SMILES C[C@@H](C(=O)OCCOCCOC(=O)c1ccc(-c2c3nc(c(-c4c(F)c(F)c(F)c(F)c4F)c4ccc([nH]4)c(-c4c(F)c(F)c(F)c(F)c4F)c4nc(c(-c5c(F)c(F)c(F)c(F)c5F)c5ccc2[nH]5)C=C4)C=C3)cc1)c1ccc(-c2cccc(OC(=O)Nc3ccccc3)c2)c(F)c1
REMARK SMILES IDX 6 1 5 2 3 3 4 4 2 5 1 6 77 7 78 8 99 9 79 10 97 11 80 12
REMARK SMILES IDX 98 13 81 14 82 15 96 16 83 17 85 18 84 19 86 20 87 21 88 22
REMARK SMILES IDX 89 23 90 25 91 26 95 27 92 28 94 29 93 30 7 31 8 32 9 33
REMARK SMILES IDX 10 34 11 35 12 36 13 37 14 38 15 39 76 40 16 41 75 42 17 43
REMARK SMILES IDX 18 44 19 45 69 46 20 47 74 48 68 49 70 50 21 51 73 52 67 53
REMARK SMILES IDX 66 54 22 56 54 57 34 58 53 59 35 60 38 61 52 62 71 63 36 64
REMARK SMILES IDX 37 65 51 67 72 68 39 69 23 70 24 71 32 72 25 73 26 74 30 75
REMARK SMILES IDX 33 76 27 77 28 78 31 79 29 80 55 81 56 82 64 83 57 84 58 85
REMARK SMILES IDX 62 86 65 87 59 88 60 89 63 90 61 91 40 92 41 93 49 94 42 95
REMARK SMILES IDX 43 96 47 97 50 98 44 99 45 100 48 101 46 102
REMARK H PARENT 89 24 70 55 38 66
REMARK Flexibility Score: inf
ROOT
ATOM      1  C   UNL A   1      42.742  18.868  25.698  1.00  0.00     0.261 C 
ENDROOT
BRANCH   1   2
ATOM      2  O   UNL A   1      42.723  19.058  27.129  1.00  0.00    -0.463 OA
BRANCH   2   3
ATOM      3  C   UNL A   1      41.665  19.758  27.622  1.00  0.00     0.313 C 
ATOM      4  O   UNL A   1      40.815  19.280  28.367  1.00  0.00    -0.252 OA
BRANCH   3   5
ATOM      5  C   UNL A   1      41.648  21.222  27.158  1.00  0.00     0.126 C 
ATOM      6  C   UNL A   1      42.129  22.246  28.191  1.00  0.00     0.025 C 
BRANCH   5   7
ATOM      7  C   UNL A   1      40.269  21.586  26.620  1.00  0.00    -0.031 A 
ATOM      8  C   UNL A   1      39.750  22.877  26.784  1.00  0.00     0.005 A 
ATOM      9  C   UNL A   1      39.513  20.668  25.882  1.00  0.00     0.044 A 
ATOM     10  C   UNL A   1      38.520  23.237  26.211  1.00  0.00     0.012 A 
ATOM     11  C   UNL A   1      38.310  21.037  25.293  1.00  0.00     0.131 A 
ATOM     12  C   UNL A   1      37.777  22.322  25.447  1.00  0.00     0.018 A 
ATOM     13  F   UNL A   1      37.673  20.113  24.557  1.00  0.00    -0.206 F 
BRANCH  12  14
ATOM     14  C   UNL A   1      36.468  22.669  24.869  1.00  0.00    -0.012 A 
ATOM     15  C   UNL A   1      36.301  22.949  23.503  1.00  0.00     0.009 A 
ATOM     16  C   UNL A   1      35.335  22.726  25.701  1.00  0.00     0.056 A 
ATOM     17  C   UNL A   1      35.041  23.273  22.989  1.00  0.00     0.004 A 
ATOM     18  C   UNL A   1      34.084  23.046  25.190  1.00  0.00     0.133 A 
ATOM     19  C   UNL A   1      33.932  23.322  23.832  1.00  0.00     0.047 A 
BRANCH  18  20
ATOM     20  O   UNL A   1      32.910  23.153  25.977  1.00  0.00    -0.410 OA
BRANCH  20  21
ATOM     21  C   UNL A   1      31.643  22.669  25.643  1.00  0.00     0.417 C 
ATOM     22  O   UNL A   1      31.309  21.488  25.605  1.00  0.00    -0.224 OA
ATOM     23  N   UNL A   1      30.691  23.637  25.460  1.00  0.00    -0.291 N 
ATOM     24  H   UNL A   1      29.767  23.302  25.401  1.00  0.00     0.173 HD
BRANCH  23  25
ATOM     25  C   UNL A   1      30.822  25.026  25.342  1.00  0.00     0.044 A 
ATOM     26  C   UNL A   1      31.494  25.690  26.374  1.00  0.00     0.026 A 
ATOM     27  C   UNL A   1      30.288  25.767  24.287  1.00  0.00     0.026 A 
ATOM     28  C   UNL A   1      31.673  27.073  26.328  1.00  0.00     0.002 A 
ATOM     29  C   UNL A   1      30.448  27.156  24.252  1.00  0.00     0.002 A 
ATOM     30  C   UNL A   1      31.149  27.806  25.266  1.00  0.00     0.000 A 
ENDBRANCH  23  25
ENDBRANCH  20  21
ENDBRANCH  18  20
ENDBRANCH  12  14
ENDBRANCH   5   7
ENDBRANCH   3   5
ENDBRANCH   2   3
ENDBRANCH   1   2
BRANCH   1  31
ATOM     31  C   UNL A   1      44.147  19.118  25.139  1.00  0.00     0.202 C 
BRANCH  31  32
ATOM     32  O   UNL A   1      44.297  20.225  24.246  1.00  0.00    -0.374 OA
BRANCH  32  33
ATOM     33  C   UNL A   1      44.576  21.491  24.831  1.00  0.00     0.202 C 
BRANCH  33  34
ATOM     34  C   UNL A   1      44.347  22.731  23.960  1.00  0.00     0.261 C 
BRANCH  34  35
ATOM     35  O   UNL A   1      43.558  23.725  24.630  1.00  0.00    -0.460 OA
BRANCH  35  36
ATOM     36  C   UNL A   1      44.266  24.802  25.041  1.00  0.00     0.338 C 
ATOM     37  O   UNL A   1      45.355  25.182  24.629  1.00  0.00    -0.246 OA
BRANCH  36  38
ATOM     38  C   UNL A   1      43.457  25.608  25.967  1.00  0.00     0.060 A 
ATOM     39  C   UNL A   1      43.885  26.921  26.207  1.00  0.00     0.016 A 
ATOM     40  C   UNL A   1      42.349  25.084  26.634  1.00  0.00     0.016 A 
ATOM     41  C   UNL A   1      43.237  27.699  27.161  1.00  0.00     0.010 A 
ATOM     42  C   UNL A   1      41.704  25.864  27.599  1.00  0.00     0.010 A 
ATOM     43  C   UNL A   1      42.172  27.159  27.892  1.00  0.00    -0.014 A 
BRANCH  43  44
ATOM     44  C   UNL A   1      41.667  27.895  29.073  1.00  0.00     0.031 A 
ATOM     45  C   UNL A   1      42.408  27.771  30.375  1.00  0.00     0.074 A 
ATOM     46  C   UNL A   1      40.596  28.702  28.973  1.00  0.00     0.049 A 
ATOM     47  N   UNL A   1      42.147  28.314  31.537  1.00  0.00    -0.248 NA
ATOM     48  C   UNL A   1      43.608  26.919  30.365  1.00  0.00     0.031 C 
ATOM     49  C   UNL A   1      39.830  28.937  27.752  1.00  0.00     0.029 A 
ATOM     50  N   UNL A   1      39.971  29.473  29.920  1.00  0.00    -0.354 N 
ATOM     51  C   UNL A   1      43.142  27.864  32.394  1.00  0.00     0.074 A 
ATOM     52  C   UNL A   1      43.995  26.980  31.631  1.00  0.00     0.031 C 
ATOM     53  C   UNL A   1      38.832  29.795  28.023  1.00  0.00     0.029 A 
ATOM     54  C   UNL A   1      38.870  30.140  29.444  1.00  0.00     0.049 A 
ATOM     55  H   UNL A   1      40.283  29.542  30.851  1.00  0.00     0.167 HD
ATOM     56  C   UNL A   1      43.330  28.168  33.701  1.00  0.00     0.037 A 
ATOM     57  C   UNL A   1      37.985  30.923  30.090  1.00  0.00     0.037 A 
ATOM     58  C   UNL A   1      42.481  29.054  34.452  1.00  0.00     0.049 A 
ATOM     59  C   UNL A   1      38.175  31.186  31.562  1.00  0.00     0.074 A 
ATOM     60  C   UNL A   1      42.598  29.448  35.774  1.00  0.00     0.029 A 
ATOM     61  N   UNL A   1      41.348  29.677  33.948  1.00  0.00    -0.354 N 
ATOM     62  N   UNL A   1      39.132  30.779  32.361  1.00  0.00    -0.248 NA
ATOM     63  C   UNL A   1      37.160  32.021  32.221  1.00  0.00     0.031 C 
ATOM     64  C   UNL A   1      41.505  30.262  36.085  1.00  0.00     0.029 A 
ATOM     65  C   UNL A   1      40.739  30.427  34.941  1.00  0.00     0.049 A 
ATOM     66  H   UNL A   1      41.025  29.598  33.021  1.00  0.00     0.167 HD
ATOM     67  C   UNL A   1      38.854  31.332  33.605  1.00  0.00     0.074 A 
ATOM     68  C   UNL A   1      37.645  32.114  33.451  1.00  0.00     0.031 C 
ATOM     69  C   UNL A   1      39.539  31.207  34.769  1.00  0.00     0.037 A 
BRANCH  56  70
ATOM     70  C   UNL A   1      44.480  27.513  34.409  1.00  0.00     0.064 A 
ATOM     71  C   UNL A   1      44.326  26.316  35.124  1.00  0.00     0.173 A 
ATOM     72  C   UNL A   1      45.763  28.078  34.344  1.00  0.00     0.173 A 
ATOM     73  F   UNL A   1      43.119  25.743  35.230  1.00  0.00    -0.203 F 
ATOM     74  C   UNL A   1      45.410  25.723  35.769  1.00  0.00     0.198 A 
ATOM     75  C   UNL A   1      46.849  27.466  34.965  1.00  0.00     0.198 A 
ATOM     76  F   UNL A   1      45.965  29.221  33.672  1.00  0.00    -0.203 F 
ATOM     77  F   UNL A   1      45.231  24.605  36.486  1.00  0.00    -0.200 F 
ATOM     78  C   UNL A   1      46.671  26.293  35.682  1.00  0.00     0.200 A 
ATOM     79  F   UNL A   1      48.069  28.014  34.867  1.00  0.00    -0.200 F 
ATOM     80  F   UNL A   1      47.714  25.717  36.295  1.00  0.00    -0.200 F 
ENDBRANCH  56  70
BRANCH  57  81
ATOM     81  C   UNL A   1      36.833  31.507  29.355  1.00  0.00     0.064 A 
ATOM     82  C   UNL A   1      36.776  32.878  29.070  1.00  0.00     0.173 A 
ATOM     83  C   UNL A   1      35.756  30.710  28.939  1.00  0.00     0.173 A 
ATOM     84  F   UNL A   1      37.769  33.688  29.469  1.00  0.00    -0.203 F 
ATOM     85  C   UNL A   1      35.677  33.433  28.417  1.00  0.00     0.198 A 
ATOM     86  C   UNL A   1      34.672  31.261  28.259  1.00  0.00     0.198 A 
ATOM     87  F   UNL A   1      35.759  29.392  29.188  1.00  0.00    -0.203 F 
ATOM     88  F   UNL A   1      35.626  34.755  28.201  1.00  0.00    -0.200 F 
ATOM     89  C   UNL A   1      34.629  32.623  28.005  1.00  0.00     0.200 A 
ATOM     90  F   UNL A   1      33.667  30.472  27.853  1.00  0.00    -0.200 F 
ATOM     91  F   UNL A   1      33.575  33.156  27.374  1.00  0.00    -0.200 F 
ENDBRANCH  57  81
BRANCH  69  92
ATOM     92  C   UNL A   1      39.023  31.963  35.959  1.00  0.00     0.064 A 
ATOM     93  C   UNL A   1      39.374  33.301  36.194  1.00  0.00     0.173 A 
ATOM     94  C   UNL A   1      38.130  31.353  36.854  1.00  0.00     0.173 A 
ATOM     95  F   UNL A   1      40.236  33.927  35.376  1.00  0.00    -0.203 F 
ATOM     96  C   UNL A   1      38.873  33.989  37.296  1.00  0.00     0.198 A 
ATOM     97  C   UNL A   1      37.606  32.055  37.935  1.00  0.00     0.198 A 
ATOM     98  F   UNL A   1      37.755  30.079  36.671  1.00  0.00    -0.203 F 
ATOM     99  F   UNL A   1      39.263  35.251  37.529  1.00  0.00    -0.200 F 
ATOM    100  C   UNL A   1      37.984  33.369  38.160  1.00  0.00     0.200 A 
ATOM    101  F   UNL A   1      36.733  31.459  38.760  1.00  0.00    -0.200 F 
ATOM    102  F   UNL A   1      37.496  34.037  39.214  1.00  0.00    -0.200 F 
ENDBRANCH  69  92
ENDBRANCH  43  44
ENDBRANCH  36  38
ENDBRANCH  35  36
ENDBRANCH  34  35
ENDBRANCH  33  34
ENDBRANCH  32  33
ENDBRANCH  31  32
ENDBRANCH   1  31
TORSDOF 19
ENDMDL
MODEL 2
REMARK VINA RESULT:     -12.4      1.472      2.868
REMARK SMILES C[C@@H](C(=O)OCCOCCOC(=O)c1ccc(-c2c3nc(c(-c4c(F)c(F)c(F)c(F)c4F)c4ccc([nH]4)c(-c4c(F)c(F)c(F)c(F)c4F)c4nc(c(-c5c(F)c(F)c(F)c(F)c5F)c5ccc2[nH]5)C=C4)C=C3)cc1)c1ccc(-c2cccc(OC(=O)Nc3ccccc3)c2)c(F)c1
REMARK SMILES IDX 6 1 5 2 3 3 4 4 2 5 1 6 77 7 78 8 99 9 79 10 97 11 80 12
REMARK SMILES IDX 98 13 81 14 82 15 96 16 83 17 85 18 84 19 86 20 87 21 88 22
REMARK SMILES IDX 89 23 90 25 91 26 95 27 92 28 94 29 93 30 7 31 8 32 9 33
REMARK SMILES IDX 10 34 11 35 12 36 13 37 14 38 15 39 76 40 16 41 75 42 17 43
REMARK SMILES IDX 18 44 19 45 69 46 20 47 74 48 68 49 70 50 21 51 73 52 67 53
REMARK SMILES IDX 66 54 22 56 54 57 34 58 53 59 35 60 38 61 52 62 71 63 36 64
REMARK SMILES IDX 37 65 51 67 72 68 39 69 23 70 24 71 32 72 25 73 26 74 30 75
REMARK SMILES IDX 33 76 27 77 28 78 31 79 29 80 55 81 56 82 64 83 57 84 58 85
REMARK SMILES IDX 62 86 65 87 59 88 60 89 63 90 61 91 40 92 41 93 49 94 42 95
REMARK SMILES IDX 43 96 47 97 50 98 44 99 45 100 48 101 46 102
REMARK H PARENT 89 24 70 55 38 66
REMARK Flexibility Score: inf
ROOT
ATOM      1  C   UNL A   1      43.211  18.813  25.290  1.00  0.00     0.261 C 
ENDROOT
BRANCH   1   2
ATOM      2  O   UNL A   1      43.307  18.695  26.726  1.00  0.00    -0.463 OA
BRANCH   2   3
ATOM      3  C   UNL A   1      42.349  19.348  27.441  1.00  0.00     0.313 C 
ATOM      4  O   UNL A   1      41.675  18.823  28.321  1.00  0.00    -0.252 OA
BRANCH   3   5
ATOM      5  C   UNL A   1      42.205  20.823  27.038  1.00  0.00     0.126 C 
ATOM      6  C   UNL A   1      42.667  21.840  28.088  1.00  0.00     0.025 C 
BRANCH   5   7
ATOM      7  C   UNL A   1      40.777  21.107  26.585  1.00  0.00    -0.031 A 
ATOM      8  C   UNL A   1      40.196  22.366  26.783  1.00  0.00     0.005 A 
ATOM      9  C   UNL A   1      40.033  20.146  25.892  1.00  0.00     0.044 A 
ATOM     10  C   UNL A   1      38.915  22.653  26.286  1.00  0.00     0.012 A 
ATOM     11  C   UNL A   1      38.778  20.444  25.377  1.00  0.00     0.131 A 
ATOM     12  C   UNL A   1      38.181  21.696  25.566  1.00  0.00     0.018 A 
ATOM     13  F   UNL A   1      38.151  19.484  24.679  1.00  0.00    -0.206 F 
BRANCH  12  14
ATOM     14  C   UNL A   1      36.822  21.966  25.068  1.00  0.00    -0.012 A 
ATOM     15  C   UNL A   1      36.582  22.752  23.931  1.00  0.00     0.009 A 
ATOM     16  C   UNL A   1      35.715  21.425  25.746  1.00  0.00     0.056 A 
ATOM     17  C   UNL A   1      35.276  22.987  23.486  1.00  0.00     0.004 A 
ATOM     18  C   UNL A   1      34.418  21.655  25.304  1.00  0.00     0.133 A 
ATOM     19  C   UNL A   1      34.194  22.438  24.172  1.00  0.00     0.047 A 
BRANCH  18  20
ATOM     20  O   UNL A   1      33.259  21.168  25.957  1.00  0.00    -0.410 OA
BRANCH  20  21
ATOM     21  C   UNL A   1      32.018  20.923  25.367  1.00  0.00     0.417 C 
ATOM     22  O   UNL A   1      31.080  21.712  25.306  1.00  0.00    -0.224 OA
ATOM     23  N   UNL A   1      31.923  19.723  24.711  1.00  0.00    -0.291 N 
ATOM     24  H   UNL A   1      31.122  19.622  24.149  1.00  0.00     0.173 HD
BRANCH  23  25
ATOM     25  C   UNL A   1      32.783  18.618  24.715  1.00  0.00     0.044 A 
ATOM     26  C   UNL A   1      32.564  17.647  25.698  1.00  0.00     0.026 A 
ATOM     27  C   UNL A   1      33.851  18.465  23.829  1.00  0.00     0.026 A 
ATOM     28  C   UNL A   1      33.374  16.512  25.765  1.00  0.00     0.002 A 
ATOM     29  C   UNL A   1      34.675  17.339  23.911  1.00  0.00     0.002 A 
ATOM     30  C   UNL A   1      34.430  16.359  24.870  1.00  0.00     0.000 A 
ENDBRANCH  23  25
ENDBRANCH  20  21
ENDBRANCH  18  20
ENDBRANCH  12  14
ENDBRANCH   5   7
ENDBRANCH   3   5
ENDBRANCH   2   3
ENDBRANCH   1   2
BRANCH   1  31
ATOM     31  C   UNL A   1      44.576  19.165  24.686  1.00  0.00     0.202 C 
BRANCH  31  32
ATOM     32  O   UNL A   1      44.651  20.374  23.926  1.00  0.00    -0.374 OA
BRANCH  32  33
ATOM     33  C   UNL A   1      44.747  21.590  24.659  1.00  0.00     0.202 C 
BRANCH  33  34
ATOM     34  C   UNL A   1      44.502  22.892  23.889  1.00  0.00     0.261 C 
BRANCH  34  35
ATOM     35  O   UNL A   1      43.690  23.814  24.630  1.00  0.00    -0.460 OA
BRANCH  35  36
ATOM     36  C   UNL A   1      44.352  24.917  25.047  1.00  0.00     0.338 C 
ATOM     37  O   UNL A   1      45.417  25.352  24.626  1.00  0.00    -0.246 OA
BRANCH  36  38
ATOM     38  C   UNL A   1      43.520  25.672  25.995  1.00  0.00     0.060 A 
ATOM     39  C   UNL A   1      43.804  27.036  26.144  1.00  0.00     0.016 A 
ATOM     40  C   UNL A   1      42.531  25.059  26.766  1.00  0.00     0.016 A 
ATOM     41  C   UNL A   1      43.136  27.784  27.108  1.00  0.00     0.010 A 
ATOM     42  C   UNL A   1      41.867  25.809  27.741  1.00  0.00     0.010 A 
ATOM     43  C   UNL A   1      42.196  27.163  27.941  1.00  0.00    -0.014 A 
BRANCH  43  44
ATOM     44  C   UNL A   1      41.690  27.896  29.123  1.00  0.00     0.031 A 
ATOM     45  C   UNL A   1      42.441  27.784  30.420  1.00  0.00     0.074 A 
ATOM     46  C   UNL A   1      40.610  28.692  29.027  1.00  0.00     0.049 A 
ATOM     47  N   UNL A   1      42.181  28.328  31.582  1.00  0.00    -0.248 NA
ATOM     48  C   UNL A   1      43.650  26.945  30.406  1.00  0.00     0.031 C 
ATOM     49  C   UNL A   1      39.834  28.916  27.810  1.00  0.00     0.029 A 
ATOM     50  N   UNL A   1      39.983  29.459  29.976  1.00  0.00    -0.354 N 
ATOM     51  C   UNL A   1      43.186  27.891  32.435  1.00  0.00     0.074 A 
ATOM     52  C   UNL A   1      44.044  27.014  31.669  1.00  0.00     0.031 C 
ATOM     53  C   UNL A   1      38.829  29.764  28.085  1.00  0.00     0.029 A 
ATOM     54  C   UNL A   1      38.872  30.112  29.505  1.00  0.00     0.049 A 
ATOM     55  H   UNL A   1      40.300  29.534  30.904  1.00  0.00     0.167 HD
ATOM     56  C   UNL A   1      43.379  28.200  33.739  1.00  0.00     0.037 A 
ATOM     57  C   UNL A   1      37.983  30.888  30.154  1.00  0.00     0.037 A 
ATOM     58  C   UNL A   1      42.525  29.080  34.493  1.00  0.00     0.049 A 
ATOM     59  C   UNL A   1      38.179  31.157  31.624  1.00  0.00     0.074 A 
ATOM     60  C   UNL A   1      42.646  29.479  35.813  1.00  0.00     0.029 A 
ATOM     61  N   UNL A   1      41.382  29.689  33.994  1.00  0.00    -0.354 N 
ATOM     62  N   UNL A   1      39.145  30.763  32.418  1.00  0.00    -0.248 NA
ATOM     63  C   UNL A   1      37.160  31.983  32.287  1.00  0.00     0.031 C 
ATOM     64  C   UNL A   1      41.546  30.282  36.129  1.00  0.00     0.029 A 
ATOM     65  C   UNL A   1      40.771  30.435  34.990  1.00  0.00     0.049 A 
ATOM     66  H   UNL A   1      41.054  29.604  33.070  1.00  0.00     0.167 HD
ATOM     67  C   UNL A   1      38.869  31.316  33.662  1.00  0.00     0.074 A 
ATOM     68  C   UNL A   1      37.651  32.085  33.514  1.00  0.00     0.031 C 
ATOM     69  C   UNL A   1      39.562  31.201  34.822  1.00  0.00     0.037 A 
BRANCH  56  70
ATOM     70  C   UNL A   1      44.540  27.559  34.442  1.00  0.00     0.064 A 
ATOM     71  C   UNL A   1      45.792  28.185  34.529  1.00  0.00     0.173 A 
ATOM     72  C   UNL A   1      44.385  26.312  35.066  1.00  0.00     0.173 A 
ATOM     73  F   UNL A   1      45.998  29.370  33.937  1.00  0.00    -0.203 F 
ATOM     74  C   UNL A   1      46.854  27.573  35.193  1.00  0.00     0.198 A 
ATOM     75  C   UNL A   1      45.440  25.717  35.755  1.00  0.00     0.198 A 
ATOM     76  F   UNL A   1      43.207  25.671  35.015  1.00  0.00    -0.203 F 
ATOM     77  F   UNL A   1      48.055  28.167  35.223  1.00  0.00    -0.200 F 
ATOM     78  C   UNL A   1      46.675  26.345  35.812  1.00  0.00     0.200 A 
ATOM     79  F   UNL A   1      45.259  24.536  36.363  1.00  0.00    -0.200 F 
ATOM     80  F   UNL A   1      47.694  25.762  36.457  1.00  0.00    -0.200 F 
ENDBRANCH  56  70
BRANCH  57  81
ATOM     81  C   UNL A   1      36.820  31.458  29.425  1.00  0.00     0.064 A 
ATOM     82  C   UNL A   1      35.752  30.647  29.018  1.00  0.00     0.173 A 
ATOM     83  C   UNL A   1      36.762  32.822  29.102  1.00  0.00     0.173 A 
ATOM     84  F   UNL A   1      35.772  29.331  29.280  1.00  0.00    -0.203 F 
ATOM     85  C   UNL A   1      34.681  31.174  28.298  1.00  0.00     0.198 A 
ATOM     86  C   UNL A   1      35.676  33.353  28.409  1.00  0.00     0.198 A 
ATOM     87  F   UNL A   1      37.759  33.642  29.465  1.00  0.00    -0.203 F 
ATOM     88  F   UNL A   1      33.697  30.367  27.879  1.00  0.00    -0.200 F 
ATOM     89  C   UNL A   1      34.641  32.528  28.001  1.00  0.00     0.200 A 
ATOM     90  F   UNL A   1      35.636  34.665  28.134  1.00  0.00    -0.200 F 
ATOM     91  F   UNL A   1      33.609  33.034  27.312  1.00  0.00    -0.200 F 
ENDBRANCH  57  81
BRANCH  69  92
ATOM     92  C   UNL A   1      39.046  31.956  36.014  1.00  0.00     0.064 A 
ATOM     93  C   UNL A   1      39.396  33.293  36.251  1.00  0.00     0.173 A 
ATOM     94  C   UNL A   1      38.153  31.343  36.908  1.00  0.00     0.173 A 
ATOM     95  F   UNL A   1      40.256  33.921  35.434  1.00  0.00    -0.203 F 
ATOM     96  C   UNL A   1      38.894  33.980  37.354  1.00  0.00     0.198 A 
ATOM     97  C   UNL A   1      37.628  32.044  37.990  1.00  0.00     0.198 A 
ATOM     98  F   UNL A   1      37.779  30.069  36.723  1.00  0.00    -0.203 F 
ATOM     99  F   UNL A   1      39.283  35.241  37.588  1.00  0.00    -0.200 F 
ATOM    100  C   UNL A   1      38.005  33.358  38.217  1.00  0.00     0.200 A 
ATOM    101  F   UNL A   1      36.756  31.445  38.814  1.00  0.00    -0.200 F 
ATOM    102  F   UNL A   1      37.516  34.023  39.272  1.00  0.00    -0.200 F 
ENDBRANCH  69  92
ENDBRANCH  43  44
ENDBRANCH  36  38
ENDBRANCH  35  36
ENDBRANCH  34  35
ENDBRANCH  33  34
ENDBRANCH  32  33
ENDBRANCH  31  32
ENDBRANCH   1  31
TORSDOF 19
ENDMDL
MODEL 3
REMARK VINA RESULT:     -12.1      4.499     10.194
REMARK SMILES C[C@@H](C(=O)OCCOCCOC(=O)c1ccc(-c2c3nc(c(-c4c(F)c(F)c(F)c(F)c4F)c4ccc([nH]4)c(-c4c(F)c(F)c(F)c(F)c4F)c4nc(c(-c5c(F)c(F)c(F)c(F)c5F)c5ccc2[nH]5)C=C4)C=C3)cc1)c1ccc(-c2cccc(OC(=O)Nc3ccccc3)c2)c(F)c1
REMARK SMILES IDX 6 1 5 2 3 3 4 4 2 5 1 6 77 7 78 8 99 9 79 10 97 11 80 12
REMARK SMILES IDX 98 13 81 14 82 15 96 16 83 17 85 18 84 19 86 20 87 21 88 22
REMARK SMILES IDX 89 23 90 25 91 26 95 27 92 28 94 29 93 30 7 31 8 32 9 33
REMARK SMILES IDX 10 34 11 35 12 36 13 37 14 38 15 39 76 40 16 41 75 42 17 43
REMARK SMILES IDX 18 44 19 45 69 46 20 47 74 48 68 49 70 50 21 51 73 52 67 53
REMARK SMILES IDX 66 54 22 56 54 57 34 58 53 59 35 60 38 61 52 62 71 63 36 64
REMARK SMILES IDX 37 65 51 67 72 68 39 69 23 70 24 71 32 72 25 73 26 74 30 75
REMARK SMILES IDX 33 76 27 77 28 78 31 79 29 80 55 81 56 82 64 83 57 84 58 85
REMARK SMILES IDX 62 86 65 87 59 88 60 89 63 90 61 91 40 92 41 93 49 94 42 95
REMARK SMILES IDX 43 96 47 97 50 98 44 99 45 100 48 101 46 102
REMARK H PARENT 89 24 70 55 38 66
REMARK Flexibility Score: inf
ROOT
ATOM      1  C   UNL A   1      35.769  23.092  25.718  1.00  0.00     0.261 C 
ENDROOT
BRANCH   1   2
ATOM      2  O   UNL A   1      35.324  24.278  25.024  1.00  0.00    -0.463 OA
BRANCH   2   3
ATOM      3  C   UNL A   1      34.755  24.075  23.804  1.00  0.00     0.313 C 
ATOM      4  O   UNL A   1      35.328  23.537  22.862  1.00  0.00    -0.252 OA
BRANCH   3   5
ATOM      5  C   UNL A   1      33.308  24.582  23.728  1.00  0.00     0.126 C 
ATOM      6  C   UNL A   1      32.685  24.590  22.328  1.00  0.00     0.025 C 
BRANCH   5   7
ATOM      7  C   UNL A   1      33.196  25.952  24.389  1.00  0.00    -0.031 A 
ATOM      8  C   UNL A   1      33.682  27.101  23.753  1.00  0.00     0.005 A 
ATOM      9  C   UNL A   1      32.538  26.113  25.614  1.00  0.00     0.044 A 
ATOM     10  C   UNL A   1      33.498  28.371  24.322  1.00  0.00     0.012 A 
ATOM     11  C   UNL A   1      32.333  27.374  26.158  1.00  0.00     0.131 A 
ATOM     12  C   UNL A   1      32.812  28.533  25.537  1.00  0.00     0.018 A 
ATOM     13  F   UNL A   1      31.647  27.447  27.310  1.00  0.00    -0.206 F 
BRANCH  12  14
ATOM     14  C   UNL A   1      32.641  29.852  26.167  1.00  0.00    -0.012 A 
ATOM     15  C   UNL A   1      31.555  30.691  25.871  1.00  0.00     0.009 A 
ATOM     16  C   UNL A   1      33.591  30.303  27.101  1.00  0.00     0.056 A 
ATOM     17  C   UNL A   1      31.424  31.938  26.491  1.00  0.00     0.004 A 
ATOM     18  C   UNL A   1      33.461  31.540  27.719  1.00  0.00     0.133 A 
ATOM     19  C   UNL A   1      32.378  32.364  27.416  1.00  0.00     0.047 A 
BRANCH  18  20
ATOM     20  O   UNL A   1      34.397  32.068  28.643  1.00  0.00    -0.410 OA
BRANCH  20  21
ATOM     21  C   UNL A   1      35.262  33.143  28.422  1.00  0.00     0.417 C 
ATOM     22  O   UNL A   1      35.742  33.473  27.342  1.00  0.00    -0.224 OA
ATOM     23  N   UNL A   1      35.476  33.938  29.518  1.00  0.00    -0.291 N 
ATOM     24  H   UNL A   1      35.936  34.788  29.328  1.00  0.00     0.173 HD
BRANCH  23  25
ATOM     25  C   UNL A   1      35.146  33.736  30.863  1.00  0.00     0.044 A 
ATOM     26  C   UNL A   1      34.230  34.626  31.433  1.00  0.00     0.026 A 
ATOM     27  C   UNL A   1      35.710  32.734  31.656  1.00  0.00     0.026 A 
ATOM     28  C   UNL A   1      33.844  34.488  32.767  1.00  0.00     0.002 A 
ATOM     29  C   UNL A   1      35.340  32.610  32.999  1.00  0.00     0.002 A 
ATOM     30  C   UNL A   1      34.400  33.479  33.550  1.00  0.00     0.000 A 
ENDBRANCH  23  25
ENDBRANCH  20  21
ENDBRANCH  18  20
ENDBRANCH  12  14
ENDBRANCH   5   7
ENDBRANCH   3   5
ENDBRANCH   2   3
ENDBRANCH   1   2
BRANCH   1  31
ATOM     31  C   UNL A   1      37.292  22.950  25.620  1.00  0.00     0.202 C 
BRANCH  31  32
ATOM     32  O   UNL A   1      37.789  21.969  24.706  1.00  0.00    -0.374 OA
BRANCH  32  33
ATOM     33  C   UNL A   1      37.615  20.604  25.070  1.00  0.00     0.202 C 
BRANCH  33  34
ATOM     34  C   UNL A   1      38.877  19.739  25.169  1.00  0.00     0.261 C 
BRANCH  34  35
ATOM     35  O   UNL A   1      39.692  20.097  26.294  1.00  0.00    -0.460 OA
BRANCH  35  36
ATOM     36  C   UNL A   1      41.001  19.795  26.141  1.00  0.00     0.338 C 
ATOM     37  O   UNL A   1      41.482  18.768  25.677  1.00  0.00    -0.246 OA
BRANCH  36  38
ATOM     38  C   UNL A   1      41.826  20.973  26.450  1.00  0.00     0.060 A 
ATOM     39  C   UNL A   1      42.000  21.291  27.803  1.00  0.00     0.016 A 
ATOM     40  C   UNL A   1      42.363  21.784  25.450  1.00  0.00     0.016 A 
ATOM     41  C   UNL A   1      42.667  22.456  28.163  1.00  0.00     0.010 A 
ATOM     42  C   UNL A   1      43.027  22.961  25.812  1.00  0.00     0.010 A 
ATOM     43  C   UNL A   1      43.145  23.319  27.168  1.00  0.00    -0.014 A 
BRANCH  43  44
ATOM     44  C   UNL A   1      43.614  24.669  27.555  1.00  0.00     0.031 A 
ATOM     45  C   UNL A   1      42.597  25.703  27.951  1.00  0.00     0.074 A 
ATOM     46  C   UNL A   1      44.928  24.951  27.603  1.00  0.00     0.049 A 
ATOM     47  N   UNL A   1      42.774  26.947  28.317  1.00  0.00    -0.248 NA
ATOM     48  C   UNL A   1      41.190  25.276  27.933  1.00  0.00     0.031 C 
ATOM     49  C   UNL A   1      46.003  24.014  27.289  1.00  0.00     0.029 A 
ATOM     50  N   UNL A   1      45.576  26.113  27.936  1.00  0.00    -0.354 N 
ATOM     51  C   UNL A   1      41.504  27.451  28.563  1.00  0.00     0.074 A 
ATOM     52  C   UNL A   1      40.562  26.391  28.277  1.00  0.00     0.031 C 
ATOM     53  C   UNL A   1      47.183  24.639  27.442  1.00  0.00     0.029 A 
ATOM     54  C   UNL A   1      46.942  26.028  27.830  1.00  0.00     0.049 A 
ATOM     55  H   UNL A   1      45.108  26.929  28.225  1.00  0.00     0.167 HD
ATOM     56  C   UNL A   1      41.156  28.686  28.996  1.00  0.00     0.037 A 
ATOM     57  C   UNL A   1      47.885  26.973  28.008  1.00  0.00     0.037 A 
ATOM     58  C   UNL A   1      42.100  29.734  29.285  1.00  0.00     0.049 A 
ATOM     59  C   UNL A   1      47.466  28.361  28.418  1.00  0.00     0.074 A 
ATOM     60  C   UNL A   1      41.853  31.013  29.753  1.00  0.00     0.029 A 
ATOM     61  N   UNL A   1      43.473  29.625  29.123  1.00  0.00    -0.354 N 
ATOM     62  N   UNL A   1      46.266  28.824  28.675  1.00  0.00    -0.248 NA
ATOM     63  C   UNL A   1      48.536  29.358  28.565  1.00  0.00     0.031 C 
ATOM     64  C   UNL A   1      43.071  31.696  29.818  1.00  0.00     0.029 A 
ATOM     65  C   UNL A   1      44.085  30.825  29.450  1.00  0.00     0.049 A 
ATOM     66  H   UNL A   1      43.944  28.815  28.820  1.00  0.00     0.167 HD
ATOM     67  C   UNL A   1      46.438  30.152  29.044  1.00  0.00     0.074 A 
ATOM     68  C   UNL A   1      47.861  30.418  28.990  1.00  0.00     0.031 C 
ATOM     69  C   UNL A   1      45.504  31.069  29.399  1.00  0.00     0.037 A 
BRANCH  56  70
ATOM     70  C   UNL A   1      39.693  28.982  29.153  1.00  0.00     0.064 A 
ATOM     71  C   UNL A   1      38.907  29.428  28.081  1.00  0.00     0.173 A 
ATOM     72  C   UNL A   1      39.063  28.786  30.392  1.00  0.00     0.173 A 
ATOM     73  F   UNL A   1      39.463  29.646  26.880  1.00  0.00    -0.203 F 
ATOM     74  C   UNL A   1      37.548  29.691  28.249  1.00  0.00     0.198 A 
ATOM     75  C   UNL A   1      37.699  29.020  30.548  1.00  0.00     0.198 A 
ATOM     76  F   UNL A   1      39.768  28.358  31.450  1.00  0.00    -0.203 F 
ATOM     77  F   UNL A   1      36.826  30.161  27.223  1.00  0.00    -0.200 F 
ATOM     78  C   UNL A   1      36.944  29.478  29.480  1.00  0.00     0.200 A 
ATOM     79  F   UNL A   1      37.116  28.802  31.735  1.00  0.00    -0.200 F 
ATOM     80  F   UNL A   1      35.636  29.723  29.637  1.00  0.00    -0.200 F 
ENDBRANCH  56  70
BRANCH  57  81
ATOM     81  C   UNL A   1      49.319  26.644  27.790  1.00  0.00     0.064 A 
ATOM     82  C   UNL A   1      49.850  26.544  26.497  1.00  0.00     0.173 A 
ATOM     83  C   UNL A   1      50.182  26.403  28.869  1.00  0.00     0.173 A 
ATOM     84  F   UNL A   1      49.059  26.740  25.430  1.00  0.00    -0.203 F 
ATOM     85  C   UNL A   1      51.183  26.196  26.291  1.00  0.00     0.198 A 
ATOM     86  C   UNL A   1      51.522  26.085  28.663  1.00  0.00     0.198 A 
ATOM     87  F   UNL A   1      49.723  26.483  30.127  1.00  0.00    -0.203 F 
ATOM     88  F   UNL A   1      51.653  26.059  25.043  1.00  0.00    -0.200 F 
ATOM     89  C   UNL A   1      52.020  25.973  27.375  1.00  0.00     0.200 A 
ATOM     90  F   UNL A   1      52.330  25.882  29.714  1.00  0.00    -0.200 F 
ATOM     91  F   UNL A   1      53.303  25.642  27.176  1.00  0.00    -0.200 F 
ENDBRANCH  57  81
BRANCH  69  92
ATOM     92  C   UNL A   1      45.990  32.433  29.796  1.00  0.00     0.064 A 
ATOM     93  C   UNL A   1      46.096  33.480  28.869  1.00  0.00     0.173 A 
ATOM     94  C   UNL A   1      46.315  32.707  31.135  1.00  0.00     0.173 A 
ATOM     95  F   UNL A   1      45.812  33.267  27.575  1.00  0.00    -0.203 F 
ATOM     96  C   UNL A   1      46.536  34.742  29.261  1.00  0.00     0.198 A 
ATOM     97  C   UNL A   1      46.721  33.979  31.528  1.00  0.00     0.198 A 
ATOM     98  F   UNL A   1      46.223  31.745  32.064  1.00  0.00    -0.203 F 
ATOM     99  F   UNL A   1      46.679  35.713  28.348  1.00  0.00    -0.200 F 
ATOM    100  C   UNL A   1      46.840  34.992  30.590  1.00  0.00     0.200 A 
ATOM    101  F   UNL A   1      46.999  34.223  32.817  1.00  0.00    -0.200 F 
ATOM    102  F   UNL A   1      47.253  36.210  30.967  1.00  0.00    -0.200 F 
ENDBRANCH  69  92
ENDBRANCH  43  44
ENDBRANCH  36  38
ENDBRANCH  35  36
ENDBRANCH  34  35
ENDBRANCH  33  34
ENDBRANCH  32  33
ENDBRANCH  31  32
ENDBRANCH   1  31
TORSDOF 19
ENDMDL
