MODEL 1
REMARK VINA RESULT:     -11.4      0.000      0.000
REMARK SMILES CCOc1cnc(C(=O)c2[nH]c3cc(Cl)ccc3c2CC(=O)OCCOCCOC(=O)c2ccc(-c3c4nc(c(-c5c(F)c(F)c(F)c(F)c5F)c5ccc([nH]5)c(-c5c(F)c(F)c(F)c(F)c5F)c5nc(c(-c6c(F)c(F)c(F)c(F)c6F)c6ccc3[nH]6)C=C5)C=C4)cc2)cc1CC
REMARK SMILES IDX 24 1 23 2 21 3 22 4 20 5 19 6 10 7 11 8 12 9 18 11 13 12
REMARK SMILES IDX 17 13 14 14 16 15 15 16 8 17 9 18 7 19 4 20 5 21 96 22 6 23
REMARK SMILES IDX 95 24 3 25 2 26 1 27 97 28 98 29 25 30 26 31 27 32 28 33
REMARK SMILES IDX 29 34 30 35 31 36 32 37 33 38 94 39 34 40 93 41 35 42 36 43
REMARK SMILES IDX 37 44 87 45 38 46 92 47 86 48 88 49 39 50 91 51 85 52 84 53
REMARK SMILES IDX 40 55 72 56 52 57 71 58 53 59 56 60 70 61 89 62 54 63 55 64
REMARK SMILES IDX 69 66 90 67 57 68 41 69 42 70 50 71 43 72 44 73 48 74 51 75
REMARK SMILES IDX 45 76 46 77 49 78 47 79 73 80 74 81 82 82 75 83 76 84 80 85
REMARK SMILES IDX 83 86 77 87 78 88 81 89 79 90 58 91 59 92 67 93 60 94 61 95
REMARK SMILES IDX 65 96 68 97 62 98 63 99 66 100 64 101
REMARK H PARENT 11 10 88 54 56 65
REMARK Flexibility Score: inf
ROOT
ATOM      1  C   UNL A   1      33.315  26.016  23.606  1.00  0.00     0.261 C 
ENDROOT
BRANCH   1   2
ATOM      2  O   UNL A   1      33.998  25.131  22.688  1.00  0.00    -0.463 OA
BRANCH   2   3
ATOM      3  C   UNL A   1      33.448  23.892  22.568  1.00  0.00     0.310 C 
ATOM      4  O   UNL A   1      33.400  23.268  21.509  1.00  0.00    -0.252 OA
BRANCH   3   5
ATOM      5  C   UNL A   1      32.812  23.338  23.823  1.00  0.00     0.161 C 
BRANCH   5   6
ATOM      6  C   UNL A   1      33.418  22.120  24.472  1.00  0.00     0.000 A 
ATOM      7  C   UNL A   1      34.527  22.074  25.323  1.00  0.00     0.093 A 
ATOM      8  N   UNL A   1      34.673  20.756  25.704  1.00  0.00    -0.351 N 
ATOM      9  C   UNL A   1      33.958  19.937  24.866  1.00  0.00     0.048 A 
ATOM     10  H   UNL A   1      35.212  20.448  26.467  1.00  0.00     0.167 HD
ATOM     11  C   UNL A   1      33.121  20.760  24.116  1.00  0.00     0.004 A 
ATOM     12  C   UNL A   1      34.003  18.545  24.708  1.00  0.00     0.047 A 
ATOM     13  C   UNL A   1      32.266  20.159  23.168  1.00  0.00     0.012 A 
ATOM     14  C   UNL A   1      33.180  17.986  23.727  1.00  0.00     0.043 A 
ATOM     15  C   UNL A   1      32.317  18.773  22.971  1.00  0.00     0.021 A 
ATOM     16  Cl  UNL A   1      33.254  16.289  23.436  1.00  0.00    -0.084 Cl
BRANCH   7  17
ATOM     17  C   UNL A   1      35.378  23.180  25.754  1.00  0.00     0.227 C 
ATOM     18  O   UNL A   1      34.914  24.294  25.987  1.00  0.00    -0.285 OA
BRANCH  17  19
ATOM     19  C   UNL A   1      36.868  23.000  25.862  1.00  0.00     0.113 A 
ATOM     20  C   UNL A   1      39.519  22.428  26.256  1.00  0.00     0.140 A 
ATOM     21  C   UNL A   1      38.660  21.573  25.574  1.00  0.00     0.158 A 
ATOM     22  C   UNL A   1      39.047  23.677  26.666  1.00  0.00    -0.002 A 
ATOM     23  N   UNL A   1      37.353  21.838  25.355  1.00  0.00    -0.249 NA
ATOM     24  C   UNL A   1      37.677  23.933  26.514  1.00  0.00     0.040 A 
BRANCH  20  25
ATOM     25  O   UNL A   1      40.809  22.053  26.506  1.00  0.00    -0.492 OA
BRANCH  25  26
ATOM     26  C   UNL A   1      40.930  20.621  26.576  1.00  0.00     0.226 C 
ATOM     27  C   UNL A   1      42.318  20.230  27.058  1.00  0.00     0.049 C 
ENDBRANCH  25  26
ENDBRANCH  20  25
BRANCH  22  28
ATOM     28  C   UNL A   1      39.947  24.706  27.307  1.00  0.00     0.036 C 
ATOM     29  C   UNL A   1      39.325  25.361  28.535  1.00  0.00     0.009 C 
ENDBRANCH  22  28
ENDBRANCH  17  19
ENDBRANCH   7  17
ENDBRANCH   5   6
ENDBRANCH   3   5
ENDBRANCH   2   3
ENDBRANCH   1   2
BRANCH   1  30
ATOM     30  C   UNL A   1      33.160  27.428  23.032  1.00  0.00     0.202 C 
BRANCH  30  31
ATOM     31  O   UNL A   1      33.740  28.491  23.792  1.00  0.00    -0.374 OA
BRANCH  31  32
ATOM     32  C   UNL A   1      33.401  28.537  25.178  1.00  0.00     0.202 C 
BRANCH  32  33
ATOM     33  C   UNL A   1      32.849  29.878  25.678  1.00  0.00     0.261 C 
BRANCH  33  34
ATOM     34  O   UNL A   1      33.033  30.051  27.094  1.00  0.00    -0.460 OA
BRANCH  34  35
ATOM     35  C   UNL A   1      33.621  31.219  27.439  1.00  0.00     0.338 C 
ATOM     36  O   UNL A   1      33.088  32.315  27.567  1.00  0.00    -0.246 OA
BRANCH  35  37
ATOM     37  C   UNL A   1      35.027  30.996  27.811  1.00  0.00     0.060 A 
ATOM     38  C   UNL A   1      35.410  29.679  28.099  1.00  0.00     0.016 A 
ATOM     39  C   UNL A   1      35.935  32.048  27.955  1.00  0.00     0.016 A 
ATOM     40  C   UNL A   1      36.686  29.417  28.589  1.00  0.00     0.010 A 
ATOM     41  C   UNL A   1      37.215  31.784  28.455  1.00  0.00     0.010 A 
ATOM     42  C   UNL A   1      37.579  30.472  28.811  1.00  0.00    -0.014 A 
BRANCH  42  43
ATOM     43  C   UNL A   1      38.831  30.207  29.559  1.00  0.00     0.031 A 
ATOM     44  C   UNL A   1      38.964  30.734  30.961  1.00  0.00     0.074 A 
ATOM     45  C   UNL A   1      39.809  29.461  29.015  1.00  0.00     0.049 A 
ATOM     46  N   UNL A   1      39.952  30.604  31.809  1.00  0.00    -0.248 NA
ATOM     47  C   UNL A   1      37.827  31.514  31.477  1.00  0.00     0.031 C 
ATOM     48  C   UNL A   1      39.772  28.873  27.678  1.00  0.00     0.029 A 
ATOM     49  N   UNL A   1      41.021  29.071  29.525  1.00  0.00    -0.354 N 
ATOM     50  C   UNL A   1      39.555  31.281  32.955  1.00  0.00     0.074 A 
ATOM     51  C   UNL A   1      38.253  31.850  32.685  1.00  0.00     0.031 C 
ATOM     52  C   UNL A   1      40.914  28.196  27.471  1.00  0.00     0.029 A 
ATOM     53  C   UNL A   1      41.769  28.324  28.649  1.00  0.00     0.049 A 
ATOM     54  H   UNL A   1      41.325  29.303  30.432  1.00  0.00     0.167 HD
ATOM     55  C   UNL A   1      40.214  31.404  34.132  1.00  0.00     0.037 A 
ATOM     56  C   UNL A   1      43.008  27.814  28.785  1.00  0.00     0.037 A 
ATOM     57  C   UNL A   1      41.510  30.835  34.393  1.00  0.00     0.049 A 
ATOM     58  C   UNL A   1      43.746  28.016  30.083  1.00  0.00     0.074 A 
ATOM     59  C   UNL A   1      42.259  30.888  35.556  1.00  0.00     0.029 A 
ATOM     60  N   UNL A   1      42.251  30.111  33.471  1.00  0.00    -0.354 N 
ATOM     61  N   UNL A   1      43.351  28.629  31.174  1.00  0.00    -0.248 NA
ATOM     62  C   UNL A   1      45.098  27.448  30.174  1.00  0.00     0.031 C 
ATOM     63  C   UNL A   1      43.476  30.238  35.320  1.00  0.00     0.029 A 
ATOM     64  C   UNL A   1      43.463  29.735  34.029  1.00  0.00     0.049 A 
ATOM     65  H   UNL A   1      41.961  29.898  32.555  1.00  0.00     0.167 HD
ATOM     66  C   UNL A   1      44.391  28.500  32.084  1.00  0.00     0.074 A 
ATOM     67  C   UNL A   1      45.430  27.736  31.424  1.00  0.00     0.031 C 
ATOM     68  C   UNL A   1      44.480  28.969  33.354  1.00  0.00     0.037 A 
BRANCH  55  69
ATOM     69  C   UNL A   1      39.553  32.204  35.217  1.00  0.00     0.064 A 
ATOM     70  C   UNL A   1      38.738  31.600  36.186  1.00  0.00     0.173 A 
ATOM     71  C   UNL A   1      39.759  33.589  35.304  1.00  0.00     0.173 A 
ATOM     72  F   UNL A   1      38.497  30.281  36.139  1.00  0.00    -0.203 F 
ATOM     73  C   UNL A   1      38.133  32.357  37.186  1.00  0.00     0.198 A 
ATOM     74  C   UNL A   1      39.175  34.338  36.321  1.00  0.00     0.198 A 
ATOM     75  F   UNL A   1      40.532  34.215  34.405  1.00  0.00    -0.203 F 
ATOM     76  F   UNL A   1      37.321  31.766  38.075  1.00  0.00    -0.200 F 
ATOM     77  C   UNL A   1      38.357  33.724  37.257  1.00  0.00     0.200 A 
ATOM     78  F   UNL A   1      39.400  35.657  36.395  1.00  0.00    -0.200 F 
ATOM     79  F   UNL A   1      37.778  34.450  38.223  1.00  0.00    -0.200 F 
ENDBRANCH  55  69
BRANCH  56  80
ATOM     80  C   UNL A   1      43.630  27.067  27.661  1.00  0.00     0.064 A 
ATOM     81  C   UNL A   1      44.302  27.735  26.628  1.00  0.00     0.173 A 
ATOM     82  C   UNL A   1      43.556  25.668  27.591  1.00  0.00     0.173 A 
ATOM     83  F   UNL A   1      44.377  29.074  26.635  1.00  0.00    -0.203 F 
ATOM     84  C   UNL A   1      44.863  27.034  25.562  1.00  0.00     0.198 A 
ATOM     85  C   UNL A   1      44.141  24.966  26.540  1.00  0.00     0.198 A 
ATOM     86  F   UNL A   1      42.922  24.980  28.553  1.00  0.00    -0.203 F 
ATOM     87  F   UNL A   1      45.463  27.700  24.565  1.00  0.00    -0.200 F 
ATOM     88  C   UNL A   1      44.788  25.649  25.523  1.00  0.00     0.200 A 
ATOM     89  F   UNL A   1      44.076  23.627  26.513  1.00  0.00    -0.200 F 
ATOM     90  F   UNL A   1      45.332  24.975  24.500  1.00  0.00    -0.200 F 
ENDBRANCH  56  80
BRANCH  68  91
ATOM     91  C   UNL A   1      45.729  28.646  34.120  1.00  0.00     0.064 A 
ATOM     92  C   UNL A   1      45.879  27.431  34.803  1.00  0.00     0.173 A 
ATOM     93  C   UNL A   1      46.806  29.545  34.133  1.00  0.00     0.173 A 
ATOM     94  F   UNL A   1      44.872  26.544  34.833  1.00  0.00    -0.203 F 
ATOM     95  C   UNL A   1      47.054  27.138  35.491  1.00  0.00     0.198 A 
ATOM     96  C   UNL A   1      47.989  29.237  34.796  1.00  0.00     0.198 A 
ATOM     97  F   UNL A   1      46.715  30.718  33.487  1.00  0.00    -0.203 F 
ATOM     98  F   UNL A   1      47.159  25.990  36.175  1.00  0.00    -0.200 F 
ATOM     99  C   UNL A   1      48.110  28.037  35.481  1.00  0.00     0.200 A 
ATOM    100  F   UNL A   1      49.014  30.100  34.773  1.00  0.00    -0.200 F 
ATOM    101  F   UNL A   1      49.243  27.750  36.137  1.00  0.00    -0.200 F 
ENDBRANCH  68  91
ENDBRANCH  42  43
ENDBRANCH  35  37
ENDBRANCH  34  35
ENDBRANCH  33  34
ENDBRANCH  32  33
ENDBRANCH  31  32
ENDBRANCH  30  31
ENDBRANCH   1  30
TORSDOF 20
ENDMDL
MODEL 2
REMARK VINA RESULT:     -11.3      0.488      7.154
REMARK SMILES CCOc1cnc(C(=O)c2[nH]c3cc(Cl)ccc3c2CC(=O)OCCOCCOC(=O)c2ccc(-c3c4nc(c(-c5c(F)c(F)c(F)c(F)c5F)c5ccc([nH]5)c(-c5c(F)c(F)c(F)c(F)c5F)c5nc(c(-c6c(F)c(F)c(F)c(F)c6F)c6ccc3[nH]6)C=C5)C=C4)cc2)cc1CC
REMARK SMILES IDX 24 1 23 2 21 3 22 4 20 5 19 6 10 7 11 8 12 9 18 11 13 12
REMARK SMILES IDX 17 13 14 14 16 15 15 16 8 17 9 18 7 19 4 20 5 21 96 22 6 23
REMARK SMILES IDX 95 24 3 25 2 26 1 27 97 28 98 29 25 30 26 31 27 32 28 33
REMARK SMILES IDX 29 34 30 35 31 36 32 37 33 38 94 39 34 40 93 41 35 42 36 43
REMARK SMILES IDX 37 44 87 45 38 46 92 47 86 48 88 49 39 50 91 51 85 52 84 53
REMARK SMILES IDX 40 55 72 56 52 57 71 58 53 59 56 60 70 61 89 62 54 63 55 64
REMARK SMILES IDX 69 66 90 67 57 68 41 69 42 70 50 71 43 72 44 73 48 74 51 75
REMARK SMILES IDX 45 76 46 77 49 78 47 79 73 80 74 81 82 82 75 83 76 84 80 85
REMARK SMILES IDX 83 86 77 87 78 88 81 89 79 90 58 91 59 92 67 93 60 94 61 95
REMARK SMILES IDX 65 96 68 97 62 98 63 99 66 100 64 101
REMARK H PARENT 11 10 88 54 56 65
REMARK Flexibility Score: inf
ROOT
ATOM      1  C   UNL A   1      32.627  25.855  24.249  1.00  0.00     0.261 C 
ENDROOT
BRANCH   1   2
ATOM      2  O   UNL A   1      33.584  25.400  23.265  1.00  0.00    -0.463 OA
BRANCH   2   3
ATOM      3  C   UNL A   1      33.510  24.076  22.959  1.00  0.00     0.310 C 
ATOM      4  O   UNL A   1      34.024  23.579  21.959  1.00  0.00    -0.252 OA
BRANCH   3   5
ATOM      5  C   UNL A   1      32.673  23.237  23.898  1.00  0.00     0.161 C 
BRANCH   5   6
ATOM      6  C   UNL A   1      33.291  22.020  24.536  1.00  0.00     0.000 A 
ATOM      7  C   UNL A   1      34.367  21.983  25.430  1.00  0.00     0.093 A 
ATOM      8  N   UNL A   1      34.539  20.660  25.779  1.00  0.00    -0.351 N 
ATOM      9  C   UNL A   1      33.885  19.844  24.890  1.00  0.00     0.048 A 
ATOM     10  H   UNL A   1      35.057  20.346  26.555  1.00  0.00     0.167 HD
ATOM     11  C   UNL A   1      33.053  20.662  24.130  1.00  0.00     0.004 A 
ATOM     12  C   UNL A   1      33.981  18.460  24.695  1.00  0.00     0.047 A 
ATOM     13  C   UNL A   1      32.255  20.063  23.132  1.00  0.00     0.012 A 
ATOM     14  C   UNL A   1      33.215  17.904  23.666  1.00  0.00     0.043 A 
ATOM     15  C   UNL A   1      32.359  18.686  22.898  1.00  0.00     0.021 A 
ATOM     16  Cl  UNL A   1      33.356  16.220  23.330  1.00  0.00    -0.084 Cl
BRANCH   7  17
ATOM     17  C   UNL A   1      35.164  23.102  25.927  1.00  0.00     0.227 C 
ATOM     18  O   UNL A   1      34.640  24.155  26.284  1.00  0.00    -0.285 OA
BRANCH  17  19
ATOM     19  C   UNL A   1      36.666  23.017  25.952  1.00  0.00     0.113 A 
ATOM     20  C   UNL A   1      39.366  22.632  26.215  1.00  0.00     0.140 A 
ATOM     21  C   UNL A   1      38.523  21.677  25.659  1.00  0.00     0.158 A 
ATOM     22  C   UNL A   1      38.843  23.882  26.556  1.00  0.00    -0.002 A 
ATOM     23  N   UNL A   1      37.191  21.847  25.506  1.00  0.00    -0.249 NA
ATOM     24  C   UNL A   1      37.452  24.045  26.475  1.00  0.00     0.040 A 
BRANCH  20  25
ATOM     25  O   UNL A   1      40.690  22.355  26.409  1.00  0.00    -0.492 OA
BRANCH  25  26
ATOM     26  C   UNL A   1      40.865  21.072  27.038  1.00  0.00     0.226 C 
ATOM     27  C   UNL A   1      42.012  20.315  26.386  1.00  0.00     0.049 C 
ENDBRANCH  25  26
ENDBRANCH  20  25
BRANCH  22  28
ATOM     28  C   UNL A   1      39.713  25.010  27.056  1.00  0.00     0.036 C 
ATOM     29  C   UNL A   1      39.440  25.377  28.510  1.00  0.00     0.009 C 
ENDBRANCH  22  28
ENDBRANCH  17  19
ENDBRANCH   7  17
ENDBRANCH   5   6
ENDBRANCH   3   5
ENDBRANCH   2   3
ENDBRANCH   1   2
BRANCH   1  30
ATOM     30  C   UNL A   1      31.837  27.073  23.760  1.00  0.00     0.202 C 
BRANCH  30  31
ATOM     31  O   UNL A   1      32.562  28.301  23.657  1.00  0.00    -0.374 OA
BRANCH  31  32
ATOM     32  C   UNL A   1      33.241  28.737  24.835  1.00  0.00     0.202 C 
BRANCH  32  33
ATOM     33  C   UNL A   1      32.578  29.897  25.588  1.00  0.00     0.261 C 
BRANCH  33  34
ATOM     34  O   UNL A   1      33.015  29.983  26.955  1.00  0.00    -0.460 OA
BRANCH  34  35
ATOM     35  C   UNL A   1      33.563  31.173  27.290  1.00  0.00     0.338 C 
ATOM     36  O   UNL A   1      33.012  32.268  27.319  1.00  0.00    -0.246 OA
BRANCH  35  37
ATOM     37  C   UNL A   1      34.935  30.986  27.786  1.00  0.00     0.060 A 
ATOM     38  C   UNL A   1      35.322  29.681  28.119  1.00  0.00     0.016 A 
ATOM     39  C   UNL A   1      35.802  32.061  28.000  1.00  0.00     0.016 A 
ATOM     40  C   UNL A   1      36.555  29.452  28.722  1.00  0.00     0.010 A 
ATOM     41  C   UNL A   1      37.038  31.830  28.614  1.00  0.00     0.010 A 
ATOM     42  C   UNL A   1      37.400  30.530  29.013  1.00  0.00    -0.014 A 
BRANCH  42  43
ATOM     43  C   UNL A   1      38.586  30.300  29.871  1.00  0.00     0.031 A 
ATOM     44  C   UNL A   1      39.743  29.518  29.316  1.00  0.00     0.074 A 
ATOM     45  C   UNL A   1      38.650  30.829  31.106  1.00  0.00     0.049 A 
ATOM     46  N   UNL A   1      40.889  29.217  29.873  1.00  0.00    -0.248 NA
ATOM     47  C   UNL A   1      39.589  29.007  27.944  1.00  0.00     0.031 C 
ATOM     48  C   UNL A   1      37.602  31.631  31.732  1.00  0.00     0.029 A 
ATOM     49  N   UNL A   1      39.643  30.771  32.051  1.00  0.00    -0.354 N 
ATOM     50  C   UNL A   1      41.589  28.486  28.922  1.00  0.00     0.074 A 
ATOM     51  C   UNL A   1      40.729  28.358  27.765  1.00  0.00     0.031 C 
ATOM     52  C   UNL A   1      38.006  31.990  32.963  1.00  0.00     0.029 A 
ATOM     53  C   UNL A   1      39.329  31.422  33.217  1.00  0.00     0.049 A 
ATOM     54  H   UNL A   1      40.499  30.307  31.906  1.00  0.00     0.167 HD
ATOM     55  C   UNL A   1      42.842  27.978  29.003  1.00  0.00     0.037 A 
ATOM     56  C   UNL A   1      40.029  31.535  34.362  1.00  0.00     0.037 A 
ATOM     57  C   UNL A   1      43.691  28.109  30.157  1.00  0.00     0.049 A 
ATOM     58  C   UNL A   1      41.398  30.911  34.449  1.00  0.00     0.074 A 
ATOM     59  C   UNL A   1      44.983  27.646  30.338  1.00  0.00     0.029 A 
ATOM     60  N   UNL A   1      43.326  28.749  31.333  1.00  0.00    -0.354 N 
ATOM     61  N   UNL A   1      42.066  30.249  33.534  1.00  0.00    -0.248 NA
ATOM     62  C   UNL A   1      42.114  31.055  35.724  1.00  0.00     0.031 C 
ATOM     63  C   UNL A   1      45.380  27.963  31.642  1.00  0.00     0.029 A 
ATOM     64  C   UNL A   1      44.358  28.669  32.254  1.00  0.00     0.049 A 
ATOM     65  H   UNL A   1      42.462  29.193  31.490  1.00  0.00     0.167 HD
ATOM     66  C   UNL A   1      43.285  29.921  34.111  1.00  0.00     0.074 A 
ATOM     67  C   UNL A   1      43.272  30.470  35.452  1.00  0.00     0.031 C 
ATOM     68  C   UNL A   1      44.324  29.229  33.582  1.00  0.00     0.037 A 
BRANCH  55  69
ATOM     69  C   UNL A   1      43.359  27.215  27.818  1.00  0.00     0.064 A 
ATOM     70  C   UNL A   1      44.007  27.858  26.753  1.00  0.00     0.173 A 
ATOM     71  C   UNL A   1      43.229  25.819  27.761  1.00  0.00     0.173 A 
ATOM     72  F   UNL A   1      44.144  29.192  26.752  1.00  0.00    -0.203 F 
ATOM     73  C   UNL A   1      44.482  27.135  25.661  1.00  0.00     0.198 A 
ATOM     74  C   UNL A   1      43.730  25.096  26.681  1.00  0.00     0.198 A 
ATOM     75  F   UNL A   1      42.622  25.155  28.755  1.00  0.00    -0.203 F 
ATOM     76  F   UNL A   1      45.056  27.774  24.633  1.00  0.00    -0.200 F 
ATOM     77  C   UNL A   1      44.349  25.754  25.630  1.00  0.00     0.200 A 
ATOM     78  F   UNL A   1      43.610  23.762  26.657  1.00  0.00    -0.200 F 
ATOM     79  F   UNL A   1      44.811  25.059  24.581  1.00  0.00    -0.200 F 
ENDBRANCH  55  69
BRANCH  56  80
ATOM     80  C   UNL A   1      39.448  32.267  35.518  1.00  0.00     0.064 A 
ATOM     81  C   UNL A   1      38.614  31.621  36.441  1.00  0.00     0.173 A 
ATOM     82  C   UNL A   1      39.709  33.630  35.718  1.00  0.00     0.173 A 
ATOM     83  F   UNL A   1      38.314  30.325  36.279  1.00  0.00    -0.203 F 
ATOM     84  C   UNL A   1      38.050  32.315  37.510  1.00  0.00     0.198 A 
ATOM     85  C   UNL A   1      39.167  34.316  36.803  1.00  0.00     0.198 A 
ATOM     86  F   UNL A   1      40.499  34.296  34.862  1.00  0.00    -0.203 F 
ATOM     87  F   UNL A   1      37.221  31.684  38.354  1.00  0.00    -0.200 F 
ATOM     88  C   UNL A   1      38.333  33.661  37.694  1.00  0.00     0.200 A 
ATOM     89  F   UNL A   1      39.453  35.614  36.983  1.00  0.00    -0.200 F 
ATOM     90  F   UNL A   1      37.795  34.326  38.725  1.00  0.00    -0.200 F 
ENDBRANCH  56  80
BRANCH  68  91
ATOM     91  C   UNL A   1      45.541  29.051  34.441  1.00  0.00     0.064 A 
ATOM     92  C   UNL A   1      46.575  29.998  34.457  1.00  0.00     0.173 A 
ATOM     93  C   UNL A   1      45.652  27.942  35.294  1.00  0.00     0.173 A 
ATOM     94  F   UNL A   1      46.523  31.069  33.649  1.00  0.00    -0.203 F 
ATOM     95  C   UNL A   1      47.688  29.828  35.277  1.00  0.00     0.198 A 
ATOM     96  C   UNL A   1      46.751  27.790  36.134  1.00  0.00     0.198 A 
ATOM     97  F   UNL A   1      44.686  27.012  35.322  1.00  0.00    -0.203 F 
ATOM     98  F   UNL A   1      48.686  30.723  35.242  1.00  0.00    -0.200 F 
ATOM     99  C   UNL A   1      47.771  28.730  36.120  1.00  0.00     0.200 A 
ATOM    100  F   UNL A   1      46.823  26.736  36.958  1.00  0.00    -0.200 F 
ATOM    101  F   UNL A   1      48.839  28.573  36.915  1.00  0.00    -0.200 F 
ENDBRANCH  68  91
ENDBRANCH  42  43
ENDBRANCH  35  37
ENDBRANCH  34  35
ENDBRANCH  33  34
ENDBRANCH  32  33
ENDBRANCH  31  32
ENDBRANCH  30  31
ENDBRANCH   1  30
TORSDOF 20
ENDMDL
MODEL 3
REMARK VINA RESULT:     -11.2      2.523      8.397
REMARK SMILES CCOc1cnc(C(=O)c2[nH]c3cc(Cl)ccc3c2CC(=O)OCCOCCOC(=O)c2ccc(-c3c4nc(c(-c5c(F)c(F)c(F)c(F)c5F)c5ccc([nH]5)c(-c5c(F)c(F)c(F)c(F)c5F)c5nc(c(-c6c(F)c(F)c(F)c(F)c6F)c6ccc3[nH]6)C=C5)C=C4)cc2)cc1CC
REMARK SMILES IDX 24 1 23 2 21 3 22 4 20 5 19 6 10 7 11 8 12 9 18 11 13 12
REMARK SMILES IDX 17 13 14 14 16 15 15 16 8 17 9 18 7 19 4 20 5 21 96 22 6 23
REMARK SMILES IDX 95 24 3 25 2 26 1 27 97 28 98 29 25 30 26 31 27 32 28 33
REMARK SMILES IDX 29 34 30 35 31 36 32 37 33 38 94 39 34 40 93 41 35 42 36 43
REMARK SMILES IDX 37 44 87 45 38 46 92 47 86 48 88 49 39 50 91 51 85 52 84 53
REMARK SMILES IDX 40 55 72 56 52 57 71 58 53 59 56 60 70 61 89 62 54 63 55 64
REMARK SMILES IDX 69 66 90 67 57 68 41 69 42 70 50 71 43 72 44 73 48 74 51 75
REMARK SMILES IDX 45 76 46 77 49 78 47 79 73 80 74 81 82 82 75 83 76 84 80 85
REMARK SMILES IDX 83 86 77 87 78 88 81 89 79 90 58 91 59 92 67 93 60 94 61 95
REMARK SMILES IDX 65 96 68 97 62 98 63 99 66 100 64 101
REMARK H PARENT 11 10 88 54 56 65
REMARK Flexibility Score: inf
ROOT
ATOM      1  C   UNL A   1      39.492  21.168  25.868  1.00  0.00     0.261 C 
ENDROOT
BRANCH   1   2
ATOM      2  O   UNL A   1      38.164  20.717  25.517  1.00  0.00    -0.463 OA
BRANCH   2   3
ATOM      3  C   UNL A   1      37.231  21.701  25.413  1.00  0.00     0.310 C 
ATOM      4  O   UNL A   1      37.220  22.707  26.120  1.00  0.00    -0.252 OA
BRANCH   3   5
ATOM      5  C   UNL A   1      36.131  21.451  24.405  1.00  0.00     0.161 C 
BRANCH   5   6
ATOM      6  C   UNL A   1      34.819  20.884  24.883  1.00  0.00     0.000 A 
ATOM      7  C   UNL A   1      33.878  21.503  25.712  1.00  0.00     0.093 A 
ATOM      8  N   UNL A   1      32.822  20.624  25.829  1.00  0.00    -0.351 N 
ATOM      9  C   UNL A   1      33.202  19.367  25.429  1.00  0.00     0.048 A 
ATOM     10  H   UNL A   1      31.924  20.863  26.153  1.00  0.00     0.167 HD
ATOM     11  C   UNL A   1      34.429  19.505  24.783  1.00  0.00     0.004 A 
ATOM     12  C   UNL A   1      32.565  18.131  25.604  1.00  0.00     0.047 A 
ATOM     13  C   UNL A   1      35.046  18.346  24.265  1.00  0.00     0.012 A 
ATOM     14  C   UNL A   1      33.226  16.997  25.123  1.00  0.00     0.043 A 
ATOM     15  C   UNL A   1      34.443  17.097  24.457  1.00  0.00     0.021 A 
ATOM     16  Cl  UNL A   1      32.526  15.445  25.383  1.00  0.00    -0.084 Cl
BRANCH   7  17
ATOM     17  C   UNL A   1      33.957  22.821  26.337  1.00  0.00     0.227 C 
ATOM     18  O   UNL A   1      34.213  22.950  27.533  1.00  0.00    -0.285 OA
BRANCH  17  19
ATOM     19  C   UNL A   1      33.661  24.063  25.541  1.00  0.00     0.113 A 
ATOM     20  C   UNL A   1      32.919  26.404  24.326  1.00  0.00     0.140 A 
ATOM     21  C   UNL A   1      33.647  26.372  25.510  1.00  0.00     0.158 A 
ATOM     22  C   UNL A   1      32.644  25.204  23.666  1.00  0.00    -0.002 A 
ATOM     23  N   UNL A   1      34.036  25.231  26.122  1.00  0.00    -0.249 NA
ATOM     24  C   UNL A   1      32.974  24.012  24.327  1.00  0.00     0.040 A 
BRANCH  20  25
ATOM     25  O   UNL A   1      32.494  27.596  23.810  1.00  0.00    -0.492 OA
BRANCH  25  26
ATOM     26  C   UNL A   1      31.458  28.174  24.624  1.00  0.00     0.226 C 
ATOM     27  C   UNL A   1      31.971  29.418  25.331  1.00  0.00     0.049 C 
ENDBRANCH  25  26
ENDBRANCH  20  25
BRANCH  22  28
ATOM     28  C   UNL A   1      31.961  25.164  22.320  1.00  0.00     0.036 C 
ATOM     29  C   UNL A   1      32.896  24.754  21.188  1.00  0.00     0.009 C 
ENDBRANCH  22  28
ENDBRANCH  17  19
ENDBRANCH   7  17
ENDBRANCH   5   6
ENDBRANCH   3   5
ENDBRANCH   2   3
ENDBRANCH   1   2
BRANCH   1  30
ATOM     30  C   UNL A   1      40.444  19.998  26.135  1.00  0.00     0.202 C 
BRANCH  30  31
ATOM     31  O   UNL A   1      41.653  19.975  25.374  1.00  0.00    -0.374 OA
BRANCH  31  32
ATOM     32  C   UNL A   1      42.855  20.274  26.085  1.00  0.00     0.202 C 
BRANCH  32  33
ATOM     33  C   UNL A   1      43.649  21.478  25.563  1.00  0.00     0.261 C 
BRANCH  33  34
ATOM     34  O   UNL A   1      42.794  22.529  25.079  1.00  0.00    -0.460 OA
BRANCH  34  35
ATOM     35  C   UNL A   1      43.385  23.744  25.020  1.00  0.00     0.338 C 
ATOM     36  O   UNL A   1      44.283  24.102  24.267  1.00  0.00    -0.246 OA
BRANCH  35  37
ATOM     37  C   UNL A   1      42.698  24.694  25.909  1.00  0.00     0.060 A 
ATOM     38  C   UNL A   1      43.236  25.984  26.003  1.00  0.00     0.016 A 
ATOM     39  C   UNL A   1      41.605  24.320  26.695  1.00  0.00     0.016 A 
ATOM     40  C   UNL A   1      42.720  26.888  26.927  1.00  0.00     0.010 A 
ATOM     41  C   UNL A   1      41.093  25.227  27.629  1.00  0.00     0.010 A 
ATOM     42  C   UNL A   1      41.675  26.499  27.775  1.00  0.00    -0.014 A 
BRANCH  42  43
ATOM     43  C   UNL A   1      41.307  27.379  28.910  1.00  0.00     0.031 A 
ATOM     44  C   UNL A   1      42.140  27.336  30.160  1.00  0.00     0.074 A 
ATOM     45  C   UNL A   1      40.281  28.241  28.803  1.00  0.00     0.049 A 
ATOM     46  N   UNL A   1      42.022  28.029  31.264  1.00  0.00    -0.248 NA
ATOM     47  C   UNL A   1      43.260  26.380  30.168  1.00  0.00     0.031 C 
ATOM     48  C   UNL A   1      39.428  28.391  27.626  1.00  0.00     0.029 A 
ATOM     49  N   UNL A   1      39.786  29.154  29.699  1.00  0.00    -0.354 N 
ATOM     50  C   UNL A   1      43.049  27.597  32.092  1.00  0.00     0.074 A 
ATOM     51  C   UNL A   1      43.761  26.558  31.381  1.00  0.00     0.031 C 
ATOM     52  C   UNL A   1      38.510  29.341  27.873  1.00  0.00     0.029 A 
ATOM     53  C   UNL A   1      38.697  29.846  29.232  1.00  0.00     0.049 A 
ATOM     54  H   UNL A   1      40.176  29.300  30.591  1.00  0.00     0.167 HD
ATOM     55  C   UNL A   1      43.377  28.038  33.330  1.00  0.00     0.037 A 
ATOM     56  C   UNL A   1      37.933  30.774  29.841  1.00  0.00     0.037 A 
ATOM     57  C   UNL A   1      42.664  29.073  34.031  1.00  0.00     0.049 A 
ATOM     58  C   UNL A   1      38.282  31.205  31.242  1.00  0.00     0.074 A 
ATOM     59  C   UNL A   1      42.921  29.605  35.283  1.00  0.00     0.029 A 
ATOM     60  N   UNL A   1      41.545  29.729  33.539  1.00  0.00    -0.354 N 
ATOM     61  N   UNL A   1      39.275  30.815  32.006  1.00  0.00    -0.248 NA
ATOM     62  C   UNL A   1      37.410  32.213  31.863  1.00  0.00     0.031 C 
ATOM     63  C   UNL A   1      41.928  30.549  35.568  1.00  0.00     0.029 A 
ATOM     64  C   UNL A   1      41.083  30.642  34.473  1.00  0.00     0.049 A 
ATOM     65  H   UNL A   1      41.138  29.569  32.657  1.00  0.00     0.167 HD
ATOM     66  C   UNL A   1      39.162  31.543  33.183  1.00  0.00     0.074 A 
ATOM     67  C   UNL A   1      38.013  32.412  33.027  1.00  0.00     0.031 C 
ATOM     68  C   UNL A   1      39.939  31.500  34.293  1.00  0.00     0.037 A 
BRANCH  55  69
ATOM     69  C   UNL A   1      44.544  27.386  34.013  1.00  0.00     0.064 A 
ATOM     70  C   UNL A   1      45.843  27.904  33.907  1.00  0.00     0.173 A 
ATOM     71  C   UNL A   1      44.355  26.244  34.805  1.00  0.00     0.173 A 
ATOM     72  F   UNL A   1      46.080  28.985  33.149  1.00  0.00    -0.203 F 
ATOM     73  C   UNL A   1      46.915  27.287  34.547  1.00  0.00     0.198 A 
ATOM     74  C   UNL A   1      45.425  25.646  35.466  1.00  0.00     0.198 A 
ATOM     75  F   UNL A   1      43.133  25.711  34.942  1.00  0.00    -0.203 F 
ATOM     76  F   UNL A   1      48.156  27.771  34.395  1.00  0.00    -0.200 F 
ATOM     77  C   UNL A   1      46.704  26.163  35.332  1.00  0.00     0.200 A 
ATOM     78  F   UNL A   1      45.217  24.565  36.232  1.00  0.00    -0.200 F 
ATOM     79  F   UNL A   1      47.736  25.573  35.952  1.00  0.00    -0.200 F 
ENDBRANCH  55  69
BRANCH  56  80
ATOM     80  C   UNL A   1      36.764  31.354  29.131  1.00  0.00     0.064 A 
ATOM     81  C   UNL A   1      36.780  32.676  28.664  1.00  0.00     0.173 A 
ATOM     82  C   UNL A   1      35.600  30.601  28.914  1.00  0.00     0.173 A 
ATOM     83  F   UNL A   1      37.859  33.445  28.871  1.00  0.00    -0.203 F 
ATOM     84  C   UNL A   1      35.673  33.226  28.021  1.00  0.00     0.198 A 
ATOM     85  C   UNL A   1      34.505  31.143  28.246  1.00  0.00     0.198 A 
ATOM     86  F   UNL A   1      35.532  29.332  29.343  1.00  0.00    -0.203 F 
ATOM     87  F   UNL A   1      35.699  34.506  27.623  1.00  0.00    -0.200 F 
ATOM     88  C   UNL A   1      34.539  32.457  27.806  1.00  0.00     0.200 A 
ATOM     89  F   UNL A   1      33.415  30.392  28.031  1.00  0.00    -0.200 F 
ATOM     90  F   UNL A   1      33.476  32.985  27.184  1.00  0.00    -0.200 F 
ENDBRANCH  56  80
BRANCH  68  91
ATOM     91  C   UNL A   1      39.591  32.436  35.414  1.00  0.00     0.064 A 
ATOM     92  C   UNL A   1      40.170  33.708  35.517  1.00  0.00     0.173 A 
ATOM     93  C   UNL A   1      38.630  32.071  36.369  1.00  0.00     0.173 A 
ATOM     94  F   UNL A   1      41.104  34.099  34.636  1.00  0.00    -0.203 F 
ATOM     95  C   UNL A   1      39.818  34.572  36.550  1.00  0.00     0.198 A 
ATOM     96  C   UNL A   1      38.259  32.948  37.384  1.00  0.00     0.198 A 
ATOM     97  F   UNL A   1      38.040  30.868  36.310  1.00  0.00    -0.203 F 
ATOM     98  F   UNL A   1      40.418  35.767  36.656  1.00  0.00    -0.200 F 
ATOM     99  C   UNL A   1      38.858  34.196  37.477  1.00  0.00     0.200 A 
ATOM    100  F   UNL A   1      37.321  32.588  38.270  1.00  0.00    -0.200 F 
ATOM    101  F   UNL A   1      38.515  35.032  38.467  1.00  0.00    -0.200 F 
ENDBRANCH  68  91
ENDBRANCH  42  43
ENDBRANCH  35  37
ENDBRANCH  34  35
ENDBRANCH  33  34
ENDBRANCH  32  33
ENDBRANCH  31  32
ENDBRANCH  30  31
ENDBRANCH   1  30
TORSDOF 20
ENDMDL
