MODEL 1
REMARK VINA RESULT:     -12.5      0.000      0.000
REMARK SMILES COC(=O)c1ccc(C)c(NC(=O)[C@H]2CC=CC[C@H]2C(=O)OCCOCCOC(=O)c2ccc(-c3c4nc(c(-c5c(F)c(F)c(F)c(F)c5F)c5ccc([nH]5)c(-c5c(F)c(F)c(F)c(F)c5F)c5nc(c(-c6c(F)c(F)c(F)c(F)c6F)c6ccc3[nH]6)C=C5)C=C4)cc2)c1
REMARK SMILES IDX 24 1 23 2 22 3 20 4 21 5 19 6 14 7 15 8 16 9 18 10 17 11
REMARK SMILES IDX 12 12 11 13 13 15 10 16 5 17 6 18 94 19 7 20 8 21 9 22 3 23
REMARK SMILES IDX 4 24 2 25 1 26 25 27 26 28 27 29 28 30 29 31 30 32 31 33
REMARK SMILES IDX 32 34 93 35 33 36 92 37 34 38 35 39 36 40 86 41 37 42 91 43
REMARK SMILES IDX 85 44 87 45 38 46 90 47 84 48 83 49 39 51 71 52 51 53 70 54
REMARK SMILES IDX 52 55 55 56 69 57 88 58 53 59 54 60 68 62 89 63 56 64 40 65
REMARK SMILES IDX 41 66 49 67 42 68 43 69 47 70 50 71 44 72 45 73 48 74 46 75
REMARK SMILES IDX 72 76 73 77 81 78 74 79 75 80 79 81 82 82 76 83 77 84 80 85
REMARK SMILES IDX 78 86 57 87 58 88 66 89 59 90 60 91 64 92 67 93 61 94 62 95
REMARK SMILES IDX 65 96 63 97
REMARK H PARENT 11 14 87 50 55 61
REMARK Flexibility Score: inf
ROOT
ATOM      1  C   UNL A   1      37.490  21.668  24.968  1.00  0.00     0.202 C 
ENDROOT
BRANCH   1   2
ATOM      2  C   UNL A   1      36.106  22.031  25.448  1.00  0.00     0.261 C 
BRANCH   2   3
ATOM      3  O   UNL A   1      35.640  23.346  25.144  1.00  0.00    -0.463 OA
BRANCH   3   4
ATOM      4  C   UNL A   1      34.844  23.559  24.079  1.00  0.00     0.310 C 
ATOM      5  O   UNL A   1      35.043  23.165  22.930  1.00  0.00    -0.252 OA
BRANCH   4   6
ATOM      6  C   UNL A   1      33.698  24.450  24.427  1.00  0.00     0.116 C 
ATOM      7  C   UNL A   1      32.372  23.723  24.768  1.00  0.00     0.097 C 
ATOM      8  C   UNL A   1      31.326  24.720  25.315  1.00  0.00     0.041 C 
ATOM      9  C   UNL A   1      31.860  25.940  26.011  1.00  0.00    -0.030 C 
ATOM     10  C   UNL A   1      34.230  25.468  25.433  1.00  0.00     0.043 C 
ATOM     11  C   UNL A   1      33.153  26.274  26.071  1.00  0.00    -0.030 C 
BRANCH   7  12
ATOM     12  C   UNL A   1      32.420  22.499  25.682  1.00  0.00     0.228 C 
ATOM     13  N   UNL A   1      32.430  21.176  25.337  1.00  0.00    -0.326 N 
ATOM     14  H   UNL A   1      32.500  20.654  26.168  1.00  0.00     0.169 HD
ATOM     15  O   UNL A   1      32.516  22.691  26.906  1.00  0.00    -0.274 OA
BRANCH  13  16
ATOM     16  C   UNL A   1      32.381  20.249  24.251  1.00  0.00     0.044 A 
ATOM     17  C   UNL A   1      32.787  17.816  23.752  1.00  0.00     0.062 A 
ATOM     18  C   UNL A   1      32.451  18.067  22.423  1.00  0.00     0.016 A 
ATOM     19  C   UNL A   1      32.687  18.897  24.655  1.00  0.00     0.042 A 
ATOM     20  C   UNL A   1      32.163  19.360  21.999  1.00  0.00     0.006 A 
ATOM     21  C   UNL A   1      32.160  20.468  22.882  1.00  0.00    -0.027 A 
ATOM     22  C   UNL A   1      31.978  21.785  22.196  1.00  0.00     0.046 C 
BRANCH  17  23
ATOM     23  C   UNL A   1      33.532  16.523  23.977  1.00  0.00     0.337 C 
ATOM     24  O   UNL A   1      34.228  16.107  23.049  1.00  0.00    -0.246 OA
BRANCH  23  25
ATOM     25  O   UNL A   1      33.556  15.855  25.146  1.00  0.00    -0.465 OA
ATOM     26  C   UNL A   1      32.599  14.900  25.593  1.00  0.00     0.282 C 
ENDBRANCH  23  25
ENDBRANCH  17  23
ENDBRANCH  13  16
ENDBRANCH   7  12
ENDBRANCH   4   6
ENDBRANCH   3   4
ENDBRANCH   2   3
ENDBRANCH   1   2
BRANCH   1  27
ATOM     27  O   UNL A   1      38.603  21.920  25.787  1.00  0.00    -0.374 OA
BRANCH  27  28
ATOM     28  C   UNL A   1      39.583  20.925  25.979  1.00  0.00     0.202 C 
BRANCH  28  29
ATOM     29  C   UNL A   1      40.920  21.291  26.633  1.00  0.00     0.261 C 
BRANCH  29  30
ATOM     30  O   UNL A   1      41.383  22.606  26.301  1.00  0.00    -0.460 OA
BRANCH  30  31
ATOM     31  C   UNL A   1      41.338  23.548  27.296  1.00  0.00     0.338 C 
ATOM     32  O   UNL A   1      41.516  23.344  28.485  1.00  0.00    -0.246 OA
BRANCH  31  33
ATOM     33  C   UNL A   1      40.523  24.705  26.778  1.00  0.00     0.060 A 
ATOM     34  C   UNL A   1      41.256  25.831  26.372  1.00  0.00     0.016 A 
ATOM     35  C   UNL A   1      39.276  24.893  27.363  1.00  0.00     0.016 A 
ATOM     36  C   UNL A   1      40.959  27.083  26.930  1.00  0.00     0.010 A 
ATOM     37  C   UNL A   1      39.018  26.126  27.948  1.00  0.00     0.010 A 
ATOM     38  C   UNL A   1      39.948  27.185  27.885  1.00  0.00    -0.014 A 
BRANCH  38  39
ATOM     39  C   UNL A   1      39.965  28.198  28.982  1.00  0.00     0.031 A 
ATOM     40  C   UNL A   1      38.948  29.255  28.984  1.00  0.00     0.074 A 
ATOM     41  C   UNL A   1      40.732  28.175  30.103  1.00  0.00     0.049 A 
ATOM     42  N   UNL A   1      39.181  30.496  28.697  1.00  0.00    -0.248 NA
ATOM     43  C   UNL A   1      37.546  28.932  29.262  1.00  0.00     0.031 C 
ATOM     44  C   UNL A   1      40.527  28.970  31.316  1.00  0.00     0.029 A 
ATOM     45  N   UNL A   1      41.814  27.358  30.433  1.00  0.00    -0.354 N 
ATOM     46  C   UNL A   1      37.986  31.131  28.959  1.00  0.00     0.074 A 
ATOM     47  C   UNL A   1      36.975  30.088  28.926  1.00  0.00     0.031 C 
ATOM     48  C   UNL A   1      41.550  28.771  32.163  1.00  0.00     0.029 A 
ATOM     49  C   UNL A   1      42.523  27.914  31.513  1.00  0.00     0.049 A 
ATOM     50  H   UNL A   1      42.048  26.517  29.978  1.00  0.00     0.167 HD
ATOM     51  C   UNL A   1      37.903  32.223  29.779  1.00  0.00     0.037 A 
ATOM     52  C   UNL A   1      43.863  28.131  31.385  1.00  0.00     0.037 A 
ATOM     53  C   UNL A   1      39.100  32.389  30.616  1.00  0.00     0.049 A 
ATOM     54  C   UNL A   1      44.110  29.589  31.091  1.00  0.00     0.074 A 
ATOM     55  C   UNL A   1      39.341  32.305  31.981  1.00  0.00     0.029 A 
ATOM     56  N   UNL A   1      40.356  32.423  30.040  1.00  0.00    -0.354 N 
ATOM     57  N   UNL A   1      43.224  30.518  31.312  1.00  0.00    -0.248 NA
ATOM     58  C   UNL A   1      45.307  30.111  30.438  1.00  0.00     0.031 C 
ATOM     59  C   UNL A   1      40.747  32.402  32.203  1.00  0.00     0.029 A 
ATOM     60  C   UNL A   1      41.366  32.543  30.975  1.00  0.00     0.049 A 
ATOM     61  H   UNL A   1      40.514  32.370  29.069  1.00  0.00     0.167 HD
ATOM     62  C   UNL A   1      43.594  31.660  30.670  1.00  0.00     0.074 A 
ATOM     63  C   UNL A   1      44.940  31.383  30.196  1.00  0.00     0.031 C 
ATOM     64  C   UNL A   1      42.736  32.710  30.508  1.00  0.00     0.037 A 
BRANCH  51  65
ATOM     65  C   UNL A   1      36.577  32.914  30.050  1.00  0.00     0.064 A 
ATOM     66  C   UNL A   1      35.937  33.686  29.062  1.00  0.00     0.173 A 
ATOM     67  C   UNL A   1      35.846  32.785  31.254  1.00  0.00     0.173 A 
ATOM     68  F   UNL A   1      36.416  33.760  27.814  1.00  0.00    -0.203 F 
ATOM     69  C   UNL A   1      34.746  34.377  29.303  1.00  0.00     0.198 A 
ATOM     70  C   UNL A   1      34.690  33.525  31.520  1.00  0.00     0.198 A 
ATOM     71  F   UNL A   1      36.197  31.894  32.194  1.00  0.00    -0.203 F 
ATOM     72  F   UNL A   1      34.179  35.082  28.315  1.00  0.00    -0.200 F 
ATOM     73  C   UNL A   1      34.142  34.328  30.544  1.00  0.00     0.200 A 
ATOM     74  F   UNL A   1      34.104  33.437  32.722  1.00  0.00    -0.200 F 
ATOM     75  F   UNL A   1      33.014  35.009  30.779  1.00  0.00    -0.200 F 
ENDBRANCH  51  65
BRANCH  52  76
ATOM     76  C   UNL A   1      44.535  26.932  30.797  1.00  0.00     0.064 A 
ATOM     77  C   UNL A   1      44.703  25.826  31.658  1.00  0.00     0.173 A 
ATOM     78  C   UNL A   1      44.501  26.671  29.420  1.00  0.00     0.173 A 
ATOM     79  F   UNL A   1      44.766  26.020  32.984  1.00  0.00    -0.203 F 
ATOM     80  C   UNL A   1      44.671  24.517  31.177  1.00  0.00     0.198 A 
ATOM     81  C   UNL A   1      44.448  25.356  28.944  1.00  0.00     0.198 A 
ATOM     82  F   UNL A   1      44.333  27.675  28.547  1.00  0.00    -0.203 F 
ATOM     83  F   UNL A   1      44.715  23.481  32.027  1.00  0.00    -0.200 F 
ATOM     84  C   UNL A   1      44.492  24.284  29.824  1.00  0.00     0.200 A 
ATOM     85  F   UNL A   1      44.243  25.126  27.639  1.00  0.00    -0.200 F 
ATOM     86  F   UNL A   1      44.305  23.032  29.378  1.00  0.00    -0.200 F 
ENDBRANCH  52  76
BRANCH  64  87
ATOM     87  C   UNL A   1      43.143  33.986  29.830  1.00  0.00     0.064 A 
ATOM     88  C   UNL A   1      43.132  35.212  30.511  1.00  0.00     0.173 A 
ATOM     89  C   UNL A   1      43.461  34.045  28.455  1.00  0.00     0.173 A 
ATOM     90  F   UNL A   1      42.735  35.284  31.791  1.00  0.00    -0.203 F 
ATOM     91  C   UNL A   1      43.515  36.398  29.888  1.00  0.00     0.198 A 
ATOM     92  C   UNL A   1      43.779  35.240  27.819  1.00  0.00     0.198 A 
ATOM     93  F   UNL A   1      43.504  32.950  27.685  1.00  0.00    -0.203 F 
ATOM     94  F   UNL A   1      43.574  37.531  30.600  1.00  0.00    -0.200 F 
ATOM     95  C   UNL A   1      43.835  36.413  28.542  1.00  0.00     0.200 A 
ATOM     96  F   UNL A   1      44.043  35.241  26.506  1.00  0.00    -0.200 F 
ATOM     97  F   UNL A   1      44.199  37.553  27.942  1.00  0.00    -0.200 F 
ENDBRANCH  64  87
ENDBRANCH  38  39
ENDBRANCH  31  33
ENDBRANCH  30  31
ENDBRANCH  29  30
ENDBRANCH  28  29
ENDBRANCH  27  28
ENDBRANCH   1  27
TORSDOF 18
ENDMDL
MODEL 2
REMARK VINA RESULT:     -12.2      2.869      9.089
REMARK SMILES COC(=O)c1ccc(C)c(NC(=O)[C@H]2CC=CC[C@H]2C(=O)OCCOCCOC(=O)c2ccc(-c3c4nc(c(-c5c(F)c(F)c(F)c(F)c5F)c5ccc([nH]5)c(-c5c(F)c(F)c(F)c(F)c5F)c5nc(c(-c6c(F)c(F)c(F)c(F)c6F)c6ccc3[nH]6)C=C5)C=C4)cc2)c1
REMARK SMILES IDX 24 1 23 2 22 3 20 4 21 5 19 6 14 7 15 8 16 9 18 10 17 11
REMARK SMILES IDX 12 12 11 13 13 15 10 16 5 17 6 18 94 19 7 20 8 21 9 22 3 23
REMARK SMILES IDX 4 24 2 25 1 26 25 27 26 28 27 29 28 30 29 31 30 32 31 33
REMARK SMILES IDX 32 34 93 35 33 36 92 37 34 38 35 39 36 40 86 41 37 42 91 43
REMARK SMILES IDX 85 44 87 45 38 46 90 47 84 48 83 49 39 51 71 52 51 53 70 54
REMARK SMILES IDX 52 55 55 56 69 57 88 58 53 59 54 60 68 62 89 63 56 64 40 65
REMARK SMILES IDX 41 66 49 67 42 68 43 69 47 70 50 71 44 72 45 73 48 74 46 75
REMARK SMILES IDX 72 76 73 77 81 78 74 79 75 80 79 81 82 82 76 83 77 84 80 85
REMARK SMILES IDX 78 86 57 87 58 88 66 89 59 90 60 91 64 92 67 93 61 94 62 95
REMARK SMILES IDX 65 96 63 97
REMARK H PARENT 11 14 87 50 55 61
REMARK Flexibility Score: inf
ROOT
ATOM      1  C   UNL A   1      33.185  29.368  26.612  1.00  0.00     0.202 C 
ENDROOT
BRANCH   1   2
ATOM      2  C   UNL A   1      32.871  29.703  25.175  1.00  0.00     0.261 C 
BRANCH   2   3
ATOM      3  O   UNL A   1      32.300  28.665  24.378  1.00  0.00    -0.463 OA
BRANCH   3   4
ATOM      4  C   UNL A   1      32.856  27.438  24.355  1.00  0.00     0.310 C 
ATOM      5  O   UNL A   1      34.027  27.174  24.083  1.00  0.00    -0.252 OA
BRANCH   4   6
ATOM      6  C   UNL A   1      31.838  26.375  24.602  1.00  0.00     0.116 C 
ATOM      7  C   UNL A   1      31.496  25.485  23.380  1.00  0.00     0.097 C 
ATOM      8  C   UNL A   1      30.603  24.297  23.799  1.00  0.00     0.041 C 
ATOM      9  C   UNL A   1      30.741  23.820  25.218  1.00  0.00    -0.030 C 
ATOM     10  C   UNL A   1      32.246  25.676  25.898  1.00  0.00     0.043 C 
ATOM     11  C   UNL A   1      31.477  24.429  26.155  1.00  0.00    -0.030 C 
BRANCH   7  12
ATOM     12  C   UNL A   1      32.639  24.967  22.508  1.00  0.00     0.228 C 
ATOM     13  N   UNL A   1      33.600  24.045  22.819  1.00  0.00    -0.326 N 
ATOM     14  H   UNL A   1      34.158  23.918  22.019  1.00  0.00     0.169 HD
ATOM     15  O   UNL A   1      32.707  25.374  21.336  1.00  0.00    -0.274 OA
BRANCH  13  16
ATOM     16  C   UNL A   1      34.116  23.193  23.842  1.00  0.00     0.044 A 
ATOM     17  C   UNL A   1      36.027  23.052  25.474  1.00  0.00     0.062 A 
ATOM     18  C   UNL A   1      35.519  21.831  25.914  1.00  0.00     0.016 A 
ATOM     19  C   UNL A   1      35.285  23.741  24.490  1.00  0.00     0.042 A 
ATOM     20  C   UNL A   1      34.403  21.270  25.301  1.00  0.00     0.006 A 
ATOM     21  C   UNL A   1      33.711  21.911  24.244  1.00  0.00    -0.027 A 
ATOM     22  C   UNL A   1      32.638  21.069  23.629  1.00  0.00     0.046 C 
BRANCH  17  23
ATOM     23  C   UNL A   1      37.465  23.307  25.858  1.00  0.00     0.337 C 
ATOM     24  O   UNL A   1      37.674  24.167  26.715  1.00  0.00    -0.246 OA
BRANCH  23  25
ATOM     25  O   UNL A   1      38.511  22.595  25.395  1.00  0.00    -0.465 OA
ATOM     26  C   UNL A   1      39.316  21.693  26.146  1.00  0.00     0.282 C 
ENDBRANCH  23  25
ENDBRANCH  17  23
ENDBRANCH  13  16
ENDBRANCH   7  12
ENDBRANCH   4   6
ENDBRANCH   3   4
ENDBRANCH   2   3
ENDBRANCH   1   2
BRANCH   1  27
ATOM     27  O   UNL A   1      32.976  30.328  27.616  1.00  0.00    -0.374 OA
BRANCH  27  28
ATOM     28  C   UNL A   1      33.154  31.698  27.336  1.00  0.00     0.202 C 
BRANCH  28  29
ATOM     29  C   UNL A   1      34.308  32.465  27.992  1.00  0.00     0.261 C 
BRANCH  29  30
ATOM     30  O   UNL A   1      34.854  31.808  29.143  1.00  0.00    -0.460 OA
BRANCH  30  31
ATOM     31  C   UNL A   1      36.202  31.556  29.130  1.00  0.00     0.338 C 
ATOM     32  O   UNL A   1      37.073  32.332  28.773  1.00  0.00    -0.246 OA
BRANCH  31  33
ATOM     33  C   UNL A   1      36.375  30.060  29.097  1.00  0.00     0.060 A 
ATOM     34  C   UNL A   1      36.896  29.482  30.266  1.00  0.00     0.016 A 
ATOM     35  C   UNL A   1      36.714  29.505  27.868  1.00  0.00     0.016 A 
ATOM     36  C   UNL A   1      38.044  28.681  30.185  1.00  0.00     0.010 A 
ATOM     37  C   UNL A   1      37.878  28.750  27.801  1.00  0.00     0.010 A 
ATOM     38  C   UNL A   1      38.654  28.480  28.947  1.00  0.00    -0.014 A 
BRANCH  38  39
ATOM     39  C   UNL A   1      40.122  28.260  28.791  1.00  0.00     0.031 A 
ATOM     40  C   UNL A   1      40.592  26.980  28.250  1.00  0.00     0.074 A 
ATOM     41  C   UNL A   1      41.108  29.183  28.944  1.00  0.00     0.049 A 
ATOM     42  N   UNL A   1      41.173  26.058  28.950  1.00  0.00    -0.248 NA
ATOM     43  C   UNL A   1      40.359  26.641  26.843  1.00  0.00     0.031 C 
ATOM     44  C   UNL A   1      42.492  29.064  28.482  1.00  0.00     0.029 A 
ATOM     45  N   UNL A   1      41.053  30.475  29.467  1.00  0.00    -0.354 N 
ATOM     46  C   UNL A   1      41.552  25.117  28.017  1.00  0.00     0.074 A 
ATOM     47  C   UNL A   1      40.708  25.355  26.859  1.00  0.00     0.031 C 
ATOM     48  C   UNL A   1      43.204  30.117  28.918  1.00  0.00     0.029 A 
ATOM     49  C   UNL A   1      42.351  30.928  29.765  1.00  0.00     0.049 A 
ATOM     50  H   UNL A   1      40.229  30.994  29.608  1.00  0.00     0.167 HD
ATOM     51  C   UNL A   1      42.838  24.661  27.921  1.00  0.00     0.037 A 
ATOM     52  C   UNL A   1      42.623  31.382  31.021  1.00  0.00     0.037 A 
ATOM     53  C   UNL A   1      43.796  25.529  28.619  1.00  0.00     0.049 A 
ATOM     54  C   UNL A   1      43.333  30.307  31.802  1.00  0.00     0.074 A 
ATOM     55  C   UNL A   1      44.838  26.346  28.201  1.00  0.00     0.029 A 
ATOM     56  N   UNL A   1      43.596  25.867  29.945  1.00  0.00    -0.354 N 
ATOM     57  N   UNL A   1      43.916  29.287  31.237  1.00  0.00    -0.248 NA
ATOM     58  C   UNL A   1      43.362  30.223  33.259  1.00  0.00     0.031 C 
ATOM     59  C   UNL A   1      45.318  27.084  29.324  1.00  0.00     0.029 A 
ATOM     60  C   UNL A   1      44.568  26.721  30.428  1.00  0.00     0.049 A 
ATOM     61  H   UNL A   1      42.844  25.533  30.486  1.00  0.00     0.167 HD
ATOM     62  C   UNL A   1      44.187  28.341  32.179  1.00  0.00     0.074 A 
ATOM     63  C   UNL A   1      43.890  28.999  33.441  1.00  0.00     0.031 C 
ATOM     64  C   UNL A   1      44.553  27.069  31.843  1.00  0.00     0.037 A 
BRANCH  51  65
ATOM     65  C   UNL A   1      43.235  23.616  26.890  1.00  0.00     0.064 A 
ATOM     66  C   UNL A   1      42.918  22.256  27.064  1.00  0.00     0.173 A 
ATOM     67  C   UNL A   1      43.868  23.915  25.661  1.00  0.00     0.173 A 
ATOM     68  F   UNL A   1      42.166  21.840  28.091  1.00  0.00    -0.203 F 
ATOM     69  C   UNL A   1      43.321  21.270  26.159  1.00  0.00     0.198 A 
ATOM     70  C   UNL A   1      44.329  22.927  24.787  1.00  0.00     0.198 A 
ATOM     71  F   UNL A   1      44.015  25.181  25.238  1.00  0.00    -0.203 F 
ATOM     72  F   UNL A   1      42.973  19.994  26.374  1.00  0.00    -0.200 F 
ATOM     73  C   UNL A   1      44.059  21.600  25.040  1.00  0.00     0.200 A 
ATOM     74  F   UNL A   1      45.017  23.273  23.690  1.00  0.00    -0.200 F 
ATOM     75  F   UNL A   1      44.463  20.650  24.187  1.00  0.00    -0.200 F 
ENDBRANCH  51  65
BRANCH  52  76
ATOM     76  C   UNL A   1      41.554  32.321  31.482  1.00  0.00     0.064 A 
ATOM     77  C   UNL A   1      41.532  33.592  30.868  1.00  0.00     0.173 A 
ATOM     78  C   UNL A   1      40.350  31.854  32.027  1.00  0.00     0.173 A 
ATOM     79  F   UNL A   1      42.661  34.099  30.350  1.00  0.00    -0.203 F 
ATOM     80  C   UNL A   1      40.337  34.282  30.664  1.00  0.00     0.198 A 
ATOM     81  C   UNL A   1      39.150  32.539  31.803  1.00  0.00     0.198 A 
ATOM     82  F   UNL A   1      40.298  30.649  32.615  1.00  0.00    -0.203 F 
ATOM     83  F   UNL A   1      40.328  35.432  29.976  1.00  0.00    -0.200 F 
ATOM     84  C   UNL A   1      39.141  33.729  31.088  1.00  0.00     0.200 A 
ATOM     85  F   UNL A   1      37.987  31.992  32.183  1.00  0.00    -0.200 F 
ATOM     86  F   UNL A   1      37.978  34.312  30.758  1.00  0.00    -0.200 F 
ENDBRANCH  52  76
BRANCH  64  87
ATOM     87  C   UNL A   1      44.885  26.028  32.871  1.00  0.00     0.064 A 
ATOM     88  C   UNL A   1      46.156  25.437  32.930  1.00  0.00     0.173 A 
ATOM     89  C   UNL A   1      43.922  25.514  33.766  1.00  0.00     0.173 A 
ATOM     90  F   UNL A   1      47.111  25.772  32.049  1.00  0.00    -0.203 F 
ATOM     91  C   UNL A   1      46.471  24.474  33.887  1.00  0.00     0.198 A 
ATOM     92  C   UNL A   1      44.220  24.505  34.676  1.00  0.00     0.198 A 
ATOM     93  F   UNL A   1      42.669  25.984  33.813  1.00  0.00    -0.203 F 
ATOM     94  F   UNL A   1      47.722  24.000  33.963  1.00  0.00    -0.200 F 
ATOM     95  C   UNL A   1      45.503  24.007  34.758  1.00  0.00     0.200 A 
ATOM     96  F   UNL A   1      43.258  24.035  35.481  1.00  0.00    -0.200 F 
ATOM     97  F   UNL A   1      45.804  23.079  35.674  1.00  0.00    -0.200 F 
ENDBRANCH  64  87
ENDBRANCH  38  39
ENDBRANCH  31  33
ENDBRANCH  30  31
ENDBRANCH  29  30
ENDBRANCH  28  29
ENDBRANCH  27  28
ENDBRANCH   1  27
TORSDOF 18
ENDMDL
MODEL 3
REMARK VINA RESULT:     -12.1      1.754      3.968
REMARK SMILES COC(=O)c1ccc(C)c(NC(=O)[C@H]2CC=CC[C@H]2C(=O)OCCOCCOC(=O)c2ccc(-c3c4nc(c(-c5c(F)c(F)c(F)c(F)c5F)c5ccc([nH]5)c(-c5c(F)c(F)c(F)c(F)c5F)c5nc(c(-c6c(F)c(F)c(F)c(F)c6F)c6ccc3[nH]6)C=C5)C=C4)cc2)c1
REMARK SMILES IDX 24 1 23 2 22 3 20 4 21 5 19 6 14 7 15 8 16 9 18 10 17 11
REMARK SMILES IDX 12 12 11 13 13 15 10 16 5 17 6 18 94 19 7 20 8 21 9 22 3 23
REMARK SMILES IDX 4 24 2 25 1 26 25 27 26 28 27 29 28 30 29 31 30 32 31 33
REMARK SMILES IDX 32 34 93 35 33 36 92 37 34 38 35 39 36 40 86 41 37 42 91 43
REMARK SMILES IDX 85 44 87 45 38 46 90 47 84 48 83 49 39 51 71 52 51 53 70 54
REMARK SMILES IDX 52 55 55 56 69 57 88 58 53 59 54 60 68 62 89 63 56 64 40 65
REMARK SMILES IDX 41 66 49 67 42 68 43 69 47 70 50 71 44 72 45 73 48 74 46 75
REMARK SMILES IDX 72 76 73 77 81 78 74 79 75 80 79 81 82 82 76 83 77 84 80 85
REMARK SMILES IDX 78 86 57 87 58 88 66 89 59 90 60 91 64 92 67 93 61 94 62 95
REMARK SMILES IDX 65 96 63 97
REMARK H PARENT 11 14 87 50 55 61
REMARK Flexibility Score: inf
ROOT
ATOM      1  C   UNL A   1      36.448  21.069  25.013  1.00  0.00     0.202 C 
ENDROOT
BRANCH   1   2
ATOM      2  C   UNL A   1      35.448  21.421  26.086  1.00  0.00     0.261 C 
BRANCH   2   3
ATOM      3  O   UNL A   1      34.296  22.161  25.679  1.00  0.00    -0.463 OA
BRANCH   3   4
ATOM      4  C   UNL A   1      33.165  21.522  25.324  1.00  0.00     0.310 C 
ATOM      5  O   UNL A   1      32.795  20.419  25.725  1.00  0.00    -0.252 OA
BRANCH   4   6
ATOM      6  C   UNL A   1      32.424  22.273  24.269  1.00  0.00     0.116 C 
ATOM      7  C   UNL A   1      31.123  22.971  24.740  1.00  0.00     0.097 C 
ATOM      8  C   UNL A   1      30.559  23.886  23.631  1.00  0.00     0.041 C 
ATOM      9  C   UNL A   1      31.553  24.454  22.657  1.00  0.00    -0.030 C 
ATOM     10  C   UNL A   1      33.459  23.122  23.533  1.00  0.00     0.043 C 
ATOM     11  C   UNL A   1      32.848  24.120  22.614  1.00  0.00    -0.030 C 
BRANCH   7  12
ATOM     12  C   UNL A   1      31.139  23.740  26.060  1.00  0.00     0.228 C 
ATOM     13  N   UNL A   1      31.521  25.033  26.290  1.00  0.00    -0.326 N 
ATOM     14  H   UNL A   1      31.375  25.219  27.246  1.00  0.00     0.169 HD
ATOM     15  O   UNL A   1      30.708  23.166  27.074  1.00  0.00    -0.274 OA
BRANCH  13  16
ATOM     16  C   UNL A   1      32.047  26.221  25.697  1.00  0.00     0.044 A 
ATOM     17  C   UNL A   1      31.276  28.352  24.603  1.00  0.00     0.062 A 
ATOM     18  C   UNL A   1      32.613  28.707  24.426  1.00  0.00     0.016 A 
ATOM     19  C   UNL A   1      31.016  27.146  25.289  1.00  0.00     0.042 A 
ATOM     20  C   UNL A   1      33.630  27.832  24.796  1.00  0.00     0.006 A 
ATOM     21  C   UNL A   1      33.372  26.574  25.396  1.00  0.00    -0.027 A 
ATOM     22  C   UNL A   1      34.594  25.730  25.572  1.00  0.00     0.046 C 
BRANCH  17  23
ATOM     23  C   UNL A   1      30.304  29.127  23.745  1.00  0.00     0.337 C 
ATOM     24  O   UNL A   1      29.758  28.517  22.824  1.00  0.00    -0.246 OA
BRANCH  23  25
ATOM     25  O   UNL A   1      29.933  30.400  23.981  1.00  0.00    -0.465 OA
ATOM     26  C   UNL A   1      28.896  31.114  23.315  1.00  0.00     0.282 C 
ENDBRANCH  23  25
ENDBRANCH  17  23
ENDBRANCH  13  16
ENDBRANCH   7  12
ENDBRANCH   4   6
ENDBRANCH   3   4
ENDBRANCH   2   3
ENDBRANCH   1   2
BRANCH   1  27
ATOM     27  O   UNL A   1      37.791  20.841  25.357  1.00  0.00    -0.374 OA
BRANCH  27  28
ATOM     28  C   UNL A   1      38.633  21.922  25.688  1.00  0.00     0.202 C 
BRANCH  28  29
ATOM     29  C   UNL A   1      39.967  21.659  26.394  1.00  0.00     0.261 C 
BRANCH  29  30
ATOM     30  O   UNL A   1      40.936  22.698  26.199  1.00  0.00    -0.460 OA
BRANCH  30  31
ATOM     31  C   UNL A   1      41.049  23.634  27.195  1.00  0.00     0.338 C 
ATOM     32  O   UNL A   1      41.300  23.408  28.367  1.00  0.00    -0.246 OA
BRANCH  31  33
ATOM     33  C   UNL A   1      40.298  24.859  26.741  1.00  0.00     0.060 A 
ATOM     34  C   UNL A   1      41.092  25.967  26.402  1.00  0.00     0.016 A 
ATOM     35  C   UNL A   1      39.059  25.079  27.332  1.00  0.00     0.016 A 
ATOM     36  C   UNL A   1      40.856  27.199  27.030  1.00  0.00     0.010 A 
ATOM     37  C   UNL A   1      38.863  26.288  27.986  1.00  0.00     0.010 A 
ATOM     38  C   UNL A   1      39.847  27.300  27.985  1.00  0.00    -0.014 A 
BRANCH  38  39
ATOM     39  C   UNL A   1      39.910  28.246  29.138  1.00  0.00     0.031 A 
ATOM     40  C   UNL A   1      38.897  29.303  29.243  1.00  0.00     0.074 A 
ATOM     41  C   UNL A   1      40.720  28.157  30.225  1.00  0.00     0.049 A 
ATOM     42  N   UNL A   1      39.124  30.558  29.020  1.00  0.00    -0.248 NA
ATOM     43  C   UNL A   1      37.506  28.966  29.555  1.00  0.00     0.031 C 
ATOM     44  C   UNL A   1      40.565  28.880  31.490  1.00  0.00     0.029 A 
ATOM     45  N   UNL A   1      41.811  27.320  30.465  1.00  0.00    -0.354 N 
ATOM     46  C   UNL A   1      37.943  31.178  29.365  1.00  0.00     0.074 A 
ATOM     47  C   UNL A   1      36.927  30.140  29.310  1.00  0.00     0.031 C 
ATOM     48  C   UNL A   1      41.619  28.630  32.283  1.00  0.00     0.029 A 
ATOM     49  C   UNL A   1      42.564  27.811  31.547  1.00  0.00     0.049 A 
ATOM     50  H   UNL A   1      42.024  26.507  29.953  1.00  0.00     0.167 HD
ATOM     51  C   UNL A   1      37.895  32.220  30.250  1.00  0.00     0.037 A 
ATOM     52  C   UNL A   1      43.898  28.034  31.380  1.00  0.00     0.037 A 
ATOM     53  C   UNL A   1      39.124  32.335  31.048  1.00  0.00     0.049 A 
ATOM     54  C   UNL A   1      44.139  29.505  31.162  1.00  0.00     0.074 A 
ATOM     55  C   UNL A   1      39.417  32.171  32.395  1.00  0.00     0.029 A 
ATOM     56  N   UNL A   1      40.357  32.402  30.426  1.00  0.00    -0.354 N 
ATOM     57  N   UNL A   1      43.265  30.422  31.472  1.00  0.00    -0.248 NA
ATOM     58  C   UNL A   1      45.311  30.063  30.495  1.00  0.00     0.031 C 
ATOM     59  C   UNL A   1      40.831  32.253  32.567  1.00  0.00     0.029 A 
ATOM     60  C   UNL A   1      41.403  32.465  31.327  1.00  0.00     0.049 A 
ATOM     61  H   UNL A   1      40.477  32.405  29.448  1.00  0.00     0.167 HD
ATOM     62  C   UNL A   1      43.614  31.599  30.884  1.00  0.00     0.074 A 
ATOM     63  C   UNL A   1      44.940  31.348  30.342  1.00  0.00     0.031 C 
ATOM     64  C   UNL A   1      42.754  32.657  30.817  1.00  0.00     0.037 A 
BRANCH  51  65
ATOM     65  C   UNL A   1      36.582  32.896  30.612  1.00  0.00     0.064 A 
ATOM     66  C   UNL A   1      35.957  33.801  29.734  1.00  0.00     0.173 A 
ATOM     67  C   UNL A   1      35.851  32.627  31.793  1.00  0.00     0.173 A 
ATOM     68  F   UNL A   1      36.435  34.024  28.504  1.00  0.00    -0.203 F 
ATOM     69  C   UNL A   1      34.780  34.477  30.067  1.00  0.00     0.198 A 
ATOM     70  C   UNL A   1      34.710  33.349  32.156  1.00  0.00     0.198 A 
ATOM     71  F   UNL A   1      36.186  31.617  32.610  1.00  0.00    -0.203 F 
ATOM     72  F   UNL A   1      34.225  35.314  29.179  1.00  0.00    -0.200 F 
ATOM     73  C   UNL A   1      34.177  34.280  31.293  1.00  0.00     0.200 A 
ATOM     74  F   UNL A   1      34.124  33.118  33.339  1.00  0.00    -0.200 F 
ATOM     75  F   UNL A   1      33.062  34.947  31.618  1.00  0.00    -0.200 F 
ENDBRANCH  51  65
BRANCH  52  76
ATOM     76  C   UNL A   1      44.542  26.870  30.697  1.00  0.00     0.064 A 
ATOM     77  C   UNL A   1      44.728  25.711  31.481  1.00  0.00     0.173 A 
ATOM     78  C   UNL A   1      44.464  26.697  29.308  1.00  0.00     0.173 A 
ATOM     79  F   UNL A   1      44.832  25.819  32.814  1.00  0.00    -0.203 F 
ATOM     80  C   UNL A   1      44.670  24.435  30.919  1.00  0.00     0.198 A 
ATOM     81  C   UNL A   1      44.387  25.415  28.751  1.00  0.00     0.198 A 
ATOM     82  F   UNL A   1      44.278  27.755  28.506  1.00  0.00    -0.203 F 
ATOM     83  F   UNL A   1      44.732  23.347  31.700  1.00  0.00    -0.200 F 
ATOM     84  C   UNL A   1      44.449  24.289  29.560  1.00  0.00     0.200 A 
ATOM     85  F   UNL A   1      44.140  25.270  27.441  1.00  0.00    -0.200 F 
ATOM     86  F   UNL A   1      44.238  23.070  29.042  1.00  0.00    -0.200 F 
ENDBRANCH  52  76
BRANCH  64  87
ATOM     87  C   UNL A   1      43.140  33.970  30.200  1.00  0.00     0.064 A 
ATOM     88  C   UNL A   1      43.202  35.146  30.962  1.00  0.00     0.173 A 
ATOM     89  C   UNL A   1      43.362  34.119  28.813  1.00  0.00     0.173 A 
ATOM     90  F   UNL A   1      42.896  35.136  32.268  1.00  0.00    -0.203 F 
ATOM     91  C   UNL A   1      43.565  36.366  30.394  1.00  0.00     0.198 A 
ATOM     92  C   UNL A   1      43.658  35.350  28.239  1.00  0.00     0.198 A 
ATOM     93  F   UNL A   1      43.328  33.079  27.970  1.00  0.00    -0.203 F 
ATOM     94  F   UNL A   1      43.697  37.447  31.175  1.00  0.00    -0.200 F 
ATOM     95  C   UNL A   1      43.790  36.469  29.033  1.00  0.00     0.200 A 
ATOM     96  F   UNL A   1      43.830  35.437  26.912  1.00  0.00    -0.200 F 
ATOM     97  F   UNL A   1      44.134  37.641  28.487  1.00  0.00    -0.200 F 
ENDBRANCH  64  87
ENDBRANCH  38  39
ENDBRANCH  31  33
ENDBRANCH  30  31
ENDBRANCH  29  30
ENDBRANCH  28  29
ENDBRANCH  27  28
ENDBRANCH   1  27
TORSDOF 18
ENDMDL
