MODEL 1
REMARK VINA RESULT:     -11.0      0.000      0.000
REMARK SMILES Cc1ccc([N+](=O)[O-])c(N[C@@H]2C=C[C@@H](C(=O)OCCOCCOC(=O)c3ccc(-c4c5nc(c(-c6c(F)c(F)c(F)c(F)c6F)c6ccc([nH]6)c(-c6c(F)c(F)c(F)c(F)c6F)c6nc(c(-c7c(F)c(F)c(F)c(F)c7F)c7ccc4[nH]7)C=C6)C=C5)cc3)C2)c1
REMARK SMILES IDX 19 1 18 2 17 3 15 4 16 5 14 6 11 7 12 8 89 9 13 10 10 11
REMARK SMILES IDX 9 13 1 14 2 15 3 16 90 17 4 18 5 19 6 20 7 21 8 22 20 23
REMARK SMILES IDX 21 24 22 25 23 26 24 27 25 28 26 29 27 30 88 31 28 32 87 33
REMARK SMILES IDX 29 34 30 35 31 36 81 37 32 38 86 39 80 40 82 41 33 42 85 43
REMARK SMILES IDX 79 44 78 45 34 47 66 48 46 49 65 50 47 51 50 52 64 53 83 54
REMARK SMILES IDX 48 55 49 56 63 58 84 59 51 60 35 61 36 62 44 63 37 64 38 65
REMARK SMILES IDX 42 66 45 67 39 68 40 69 43 70 41 71 67 72 68 73 76 74 69 75
REMARK SMILES IDX 70 76 74 77 77 78 71 79 72 80 75 81 73 82 52 83 53 84 61 85
REMARK SMILES IDX 54 86 55 87 59 88 62 89 56 90 57 91 60 92 58 93
REMARK H PARENT 10 12 82 46 50 57
REMARK Flexibility Score: inf
ROOT
ATOM      1  C   UNL A   1      33.722  36.658  28.415  1.00  0.00     0.202 C 
ENDROOT
BRANCH   1   2
ATOM      2  C   UNL A   1      32.947  35.899  29.454  1.00  0.00     0.261 C 
BRANCH   2   3
ATOM      3  O   UNL A   1      32.543  36.774  30.506  1.00  0.00    -0.463 OA
BRANCH   3   4
ATOM      4  C   UNL A   1      32.474  36.208  31.750  1.00  0.00     0.312 C 
ATOM      5  O   UNL A   1      31.522  36.227  32.503  1.00  0.00    -0.252 OA
BRANCH   4   6
ATOM      6  C   UNL A   1      33.775  35.571  32.091  1.00  0.00     0.124 C 
ATOM      7  C   UNL A   1      35.010  34.832  34.010  1.00  0.00     0.103 C 
ATOM      8  C   UNL A   1      34.244  33.709  33.421  1.00  0.00    -0.006 C 
ATOM      9  C   UNL A   1      34.402  36.079  33.387  1.00  0.00     0.048 C 
ATOM     10  C   UNL A   1      33.567  34.109  32.341  1.00  0.00    -0.014 C 
BRANCH   7  11
ATOM     11  N   UNL A   1      36.428  34.650  33.765  1.00  0.00    -0.373 N 
ATOM     12  H   UNL A   1      36.982  35.217  34.348  1.00  0.00     0.161 HD
BRANCH  11  13
ATOM     13  C   UNL A   1      37.188  33.876  32.911  1.00  0.00     0.114 A 
ATOM     14  C   UNL A   1      39.432  34.862  29.976  1.00  0.00     0.044 C 
ATOM     15  C   UNL A   1      38.561  34.015  30.853  1.00  0.00    -0.049 A 
ATOM     16  C   UNL A   1      38.584  32.630  30.731  1.00  0.00     0.010 A 
ATOM     17  C   UNL A   1      37.810  34.608  31.879  1.00  0.00     0.036 A 
ATOM     18  C   UNL A   1      38.008  31.861  31.729  1.00  0.00     0.088 A 
ATOM     19  C   UNL A   1      37.417  32.486  32.850  1.00  0.00     0.292 A 
BRANCH  19  20
ATOM     20  N   UNL A   1      37.489  31.641  34.040  1.00  0.00     0.064 N 
ATOM     21  O   UNL A   1      37.941  30.492  33.892  1.00  0.00    -0.258 OA
ATOM     22  O   UNL A   1      37.235  32.165  35.134  1.00  0.00    -0.258 OA
ENDBRANCH  19  20
ENDBRANCH  11  13
ENDBRANCH   7  11
ENDBRANCH   4   6
ENDBRANCH   3   4
ENDBRANCH   2   3
ENDBRANCH   1   2
BRANCH   1  23
ATOM     23  O   UNL A   1      34.700  35.748  27.938  1.00  0.00    -0.374 OA
BRANCH  23  24
ATOM     24  C   UNL A   1      34.525  34.387  28.268  1.00  0.00     0.202 C 
BRANCH  24  25
ATOM     25  C   UNL A   1      35.853  33.635  28.400  1.00  0.00     0.261 C 
BRANCH  25  26
ATOM     26  O   UNL A   1      35.658  32.234  28.098  1.00  0.00    -0.460 OA
BRANCH  26  27
ATOM     27  C   UNL A   1      35.505  31.390  29.156  1.00  0.00     0.338 C 
ATOM     28  O   UNL A   1      34.879  31.648  30.180  1.00  0.00    -0.246 OA
BRANCH  27  29
ATOM     29  C   UNL A   1      36.439  30.232  29.027  1.00  0.00     0.060 A 
ATOM     30  C   UNL A   1      36.651  29.346  30.107  1.00  0.00     0.016 A 
ATOM     31  C   UNL A   1      37.341  30.255  27.971  1.00  0.00     0.016 A 
ATOM     32  C   UNL A   1      37.840  28.595  30.191  1.00  0.00     0.010 A 
ATOM     33  C   UNL A   1      38.557  29.634  28.135  1.00  0.00     0.010 A 
ATOM     34  C   UNL A   1      38.833  28.804  29.236  1.00  0.00    -0.014 A 
BRANCH  34  35
ATOM     35  C   UNL A   1      40.224  28.335  29.284  1.00  0.00     0.031 A 
ATOM     36  C   UNL A   1      40.494  26.919  28.934  1.00  0.00     0.074 A 
ATOM     37  C   UNL A   1      41.267  29.205  29.291  1.00  0.00     0.049 A 
ATOM     38  N   UNL A   1      41.629  26.343  29.120  1.00  0.00    -0.248 NA
ATOM     39  C   UNL A   1      39.506  26.017  28.346  1.00  0.00     0.031 C 
ATOM     40  C   UNL A   1      42.606  28.994  28.732  1.00  0.00     0.029 A 
ATOM     41  N   UNL A   1      41.335  30.526  29.757  1.00  0.00    -0.354 N 
ATOM     42  C   UNL A   1      41.643  25.195  28.365  1.00  0.00     0.074 A 
ATOM     43  C   UNL A   1      40.269  24.986  27.979  1.00  0.00     0.031 C 
ATOM     44  C   UNL A   1      43.418  29.996  29.107  1.00  0.00     0.029 A 
ATOM     45  C   UNL A   1      42.682  30.829  30.033  1.00  0.00     0.049 A 
ATOM     46  H   UNL A   1      40.571  31.138  29.871  1.00  0.00     0.167 HD
ATOM     47  C   UNL A   1      42.845  24.638  28.039  1.00  0.00     0.037 A 
ATOM     48  C   UNL A   1      43.048  31.212  31.286  1.00  0.00     0.037 A 
ATOM     49  C   UNL A   1      43.960  25.455  28.555  1.00  0.00     0.049 A 
ATOM     50  C   UNL A   1      43.863  30.121  31.932  1.00  0.00     0.074 A 
ATOM     51  C   UNL A   1      44.905  26.294  27.984  1.00  0.00     0.029 A 
ATOM     52  N   UNL A   1      44.000  25.748  29.913  1.00  0.00    -0.354 N 
ATOM     53  N   UNL A   1      44.205  29.035  31.294  1.00  0.00    -0.248 NA
ATOM     54  C   UNL A   1      44.319  30.098  33.314  1.00  0.00     0.031 C 
ATOM     55  C   UNL A   1      45.548  27.031  29.028  1.00  0.00     0.029 A 
ATOM     56  C   UNL A   1      45.009  26.634  30.239  1.00  0.00     0.049 A 
ATOM     57  H   UNL A   1      43.377  25.367  30.571  1.00  0.00     0.167 HD
ATOM     58  C   UNL A   1      44.842  28.162  32.113  1.00  0.00     0.074 A 
ATOM     59  C   UNL A   1      44.871  28.869  33.388  1.00  0.00     0.031 C 
ATOM     60  C   UNL A   1      45.252  26.940  31.649  1.00  0.00     0.037 A 
BRANCH  47  61
ATOM     61  C   UNL A   1      43.013  23.482  27.068  1.00  0.00     0.064 A 
ATOM     62  C   UNL A   1      42.593  22.179  27.412  1.00  0.00     0.173 A 
ATOM     63  C   UNL A   1      43.570  23.585  25.775  1.00  0.00     0.173 A 
ATOM     64  F   UNL A   1      41.938  21.932  28.552  1.00  0.00    -0.203 F 
ATOM     65  C   UNL A   1      42.809  21.071  26.584  1.00  0.00     0.198 A 
ATOM     66  C   UNL A   1      43.842  22.470  24.972  1.00  0.00     0.198 A 
ATOM     67  F   UNL A   1      43.791  24.770  25.195  1.00  0.00    -0.203 F 
ATOM     68  F   UNL A   1      42.370  19.863  26.964  1.00  0.00    -0.200 F 
ATOM     69  C   UNL A   1      43.465  21.210  25.379  1.00  0.00     0.200 A 
ATOM     70  F   UNL A   1      44.454  22.635  23.789  1.00  0.00    -0.200 F 
ATOM     71  F   UNL A   1      43.693  20.146  24.598  1.00  0.00    -0.200 F 
ENDBRANCH  47  61
BRANCH  48  72
ATOM     72  C   UNL A   1      42.029  32.144  31.864  1.00  0.00     0.064 A 
ATOM     73  C   UNL A   1      41.306  31.659  32.982  1.00  0.00     0.173 A 
ATOM     74  C   UNL A   1      42.164  33.536  31.749  1.00  0.00     0.173 A 
ATOM     75  F   UNL A   1      41.179  30.335  33.174  1.00  0.00    -0.203 F 
ATOM     76  C   UNL A   1      40.871  32.510  33.998  1.00  0.00     0.198 A 
ATOM     77  C   UNL A   1      41.734  34.384  32.778  1.00  0.00     0.198 A 
ATOM     78  F   UNL A   1      42.861  34.062  30.734  1.00  0.00    -0.203 F 
ATOM     79  F   UNL A   1      40.363  32.000  35.131  1.00  0.00    -0.200 F 
ATOM     80  C   UNL A   1      41.118  33.870  33.911  1.00  0.00     0.200 A 
ATOM     81  F   UNL A   1      42.034  35.691  32.735  1.00  0.00    -0.200 F 
ATOM     82  F   UNL A   1      40.871  34.662  34.965  1.00  0.00    -0.200 F 
ENDBRANCH  48  72
BRANCH  60  83
ATOM     83  C   UNL A   1      45.885  25.883  32.513  1.00  0.00     0.064 A 
ATOM     84  C   UNL A   1      47.262  25.633  32.522  1.00  0.00     0.173 A 
ATOM     85  C   UNL A   1      45.112  25.040  33.350  1.00  0.00     0.173 A 
ATOM     86  F   UNL A   1      48.075  26.210  31.626  1.00  0.00    -0.203 F 
ATOM     87  C   UNL A   1      47.839  24.746  33.431  1.00  0.00     0.198 A 
ATOM     88  C   UNL A   1      45.683  24.114  34.212  1.00  0.00     0.198 A 
ATOM     89  F   UNL A   1      43.775  25.082  33.384  1.00  0.00    -0.203 F 
ATOM     90  F   UNL A   1      49.172  24.620  33.475  1.00  0.00    -0.200 F 
ATOM     91  C   UNL A   1      47.050  23.999  34.286  1.00  0.00     0.200 A 
ATOM     92  F   UNL A   1      44.891  23.352  34.981  1.00  0.00    -0.200 F 
ATOM     93  F   UNL A   1      47.606  23.160  35.169  1.00  0.00    -0.200 F 
ENDBRANCH  60  83
ENDBRANCH  34  35
ENDBRANCH  27  29
ENDBRANCH  26  27
ENDBRANCH  25  26
ENDBRANCH  24  25
ENDBRANCH  23  24
ENDBRANCH   1  23
TORSDOF 17
ENDMDL
MODEL 2
REMARK VINA RESULT:     -10.4      4.150      7.089
REMARK SMILES Cc1ccc([N+](=O)[O-])c(N[C@@H]2C=C[C@@H](C(=O)OCCOCCOC(=O)c3ccc(-c4c5nc(c(-c6c(F)c(F)c(F)c(F)c6F)c6ccc([nH]6)c(-c6c(F)c(F)c(F)c(F)c6F)c6nc(c(-c7c(F)c(F)c(F)c(F)c7F)c7ccc4[nH]7)C=C6)C=C5)cc3)C2)c1
REMARK SMILES IDX 19 1 18 2 17 3 15 4 16 5 14 6 11 7 12 8 89 9 13 10 10 11
REMARK SMILES IDX 9 13 1 14 2 15 3 16 90 17 4 18 5 19 6 20 7 21 8 22 20 23
REMARK SMILES IDX 21 24 22 25 23 26 24 27 25 28 26 29 27 30 88 31 28 32 87 33
REMARK SMILES IDX 29 34 30 35 31 36 81 37 32 38 86 39 80 40 82 41 33 42 85 43
REMARK SMILES IDX 79 44 78 45 34 47 66 48 46 49 65 50 47 51 50 52 64 53 83 54
REMARK SMILES IDX 48 55 49 56 63 58 84 59 51 60 35 61 36 62 44 63 37 64 38 65
REMARK SMILES IDX 42 66 45 67 39 68 40 69 43 70 41 71 67 72 68 73 76 74 69 75
REMARK SMILES IDX 70 76 74 77 77 78 71 79 72 80 75 81 73 82 52 83 53 84 61 85
REMARK SMILES IDX 54 86 55 87 59 88 62 89 56 90 57 91 60 92 58 93
REMARK H PARENT 10 12 82 46 50 57
REMARK Flexibility Score: inf
ROOT
ATOM      1  C   UNL A   1      32.123  29.285  24.847  1.00  0.00     0.202 C 
ENDROOT
BRANCH   1   2
ATOM      2  C   UNL A   1      31.171  28.124  24.801  1.00  0.00     0.261 C 
BRANCH   2   3
ATOM      3  O   UNL A   1      31.889  26.893  24.875  1.00  0.00    -0.463 OA
BRANCH   3   4
ATOM      4  C   UNL A   1      31.681  26.155  26.009  1.00  0.00     0.312 C 
ATOM      5  O   UNL A   1      30.851  26.367  26.869  1.00  0.00    -0.252 OA
BRANCH   4   6
ATOM      6  C   UNL A   1      32.661  25.038  26.075  1.00  0.00     0.124 C 
ATOM      7  C   UNL A   1      33.646  23.373  24.656  1.00  0.00     0.103 C 
ATOM      8  C   UNL A   1      34.515  24.571  24.732  1.00  0.00    -0.006 C 
ATOM      9  C   UNL A   1      32.305  23.837  25.202  1.00  0.00     0.048 C 
ATOM     10  C   UNL A   1      33.982  25.496  25.536  1.00  0.00    -0.014 C 
BRANCH   7  11
ATOM     11  N   UNL A   1      34.255  22.270  25.374  1.00  0.00    -0.373 N 
ATOM     12  H   UNL A   1      34.310  22.441  26.342  1.00  0.00     0.161 HD
BRANCH  11  13
ATOM     13  C   UNL A   1      34.776  21.039  25.030  1.00  0.00     0.114 A 
ATOM     14  C   UNL A   1      33.054  17.852  23.804  1.00  0.00     0.044 C 
ATOM     15  C   UNL A   1      34.097  18.735  24.417  1.00  0.00    -0.049 A 
ATOM     16  C   UNL A   1      35.396  18.269  24.585  1.00  0.00     0.010 A 
ATOM     17  C   UNL A   1      33.798  20.074  24.714  1.00  0.00     0.036 A 
ATOM     18  C   UNL A   1      36.401  19.178  24.874  1.00  0.00     0.088 A 
ATOM     19  C   UNL A   1      36.099  20.554  24.986  1.00  0.00     0.292 A 
BRANCH  19  20
ATOM     20  N   UNL A   1      37.238  21.389  24.612  1.00  0.00     0.064 N 
ATOM     21  O   UNL A   1      37.086  22.151  23.640  1.00  0.00    -0.258 OA
ATOM     22  O   UNL A   1      38.222  21.392  25.365  1.00  0.00    -0.258 OA
ENDBRANCH  19  20
ENDBRANCH  11  13
ENDBRANCH   7  11
ENDBRANCH   4   6
ENDBRANCH   3   4
ENDBRANCH   2   3
ENDBRANCH   1   2
BRANCH   1  23
ATOM     23  O   UNL A   1      31.391  30.346  25.437  1.00  0.00    -0.374 OA
BRANCH  23  24
ATOM     24  C   UNL A   1      31.978  30.991  26.546  1.00  0.00     0.202 C 
BRANCH  24  25
ATOM     25  C   UNL A   1      33.369  30.443  26.881  1.00  0.00     0.261 C 
BRANCH  25  26
ATOM     26  O   UNL A   1      33.885  31.098  28.064  1.00  0.00    -0.460 OA
BRANCH  26  27
ATOM     27  C   UNL A   1      35.183  31.508  28.025  1.00  0.00     0.338 C 
ATOM     28  O   UNL A   1      35.565  32.606  27.631  1.00  0.00    -0.246 OA
BRANCH  27  29
ATOM     29  C   UNL A   1      36.094  30.346  28.247  1.00  0.00     0.060 A 
ATOM     30  C   UNL A   1      36.217  29.752  29.523  1.00  0.00     0.016 A 
ATOM     31  C   UNL A   1      37.061  30.100  27.281  1.00  0.00     0.016 A 
ATOM     32  C   UNL A   1      37.379  29.036  29.869  1.00  0.00     0.010 A 
ATOM     33  C   UNL A   1      38.249  29.528  27.674  1.00  0.00     0.010 A 
ATOM     34  C   UNL A   1      38.434  28.994  28.960  1.00  0.00    -0.014 A 
BRANCH  34  35
ATOM     35  C   UNL A   1      39.808  28.539  29.215  1.00  0.00     0.031 A 
ATOM     36  C   UNL A   1      40.178  27.167  28.790  1.00  0.00     0.074 A 
ATOM     37  C   UNL A   1      40.807  29.418  29.492  1.00  0.00     0.049 A 
ATOM     38  N   UNL A   1      41.278  26.590  29.124  1.00  0.00    -0.248 NA
ATOM     39  C   UNL A   1      39.338  26.314  27.952  1.00  0.00     0.031 C 
ATOM     40  C   UNL A   1      42.230  29.278  29.166  1.00  0.00     0.029 A 
ATOM     41  N   UNL A   1      40.751  30.688  30.082  1.00  0.00    -0.354 N 
ATOM     42  C   UNL A   1      41.460  25.520  28.281  1.00  0.00     0.074 A 
ATOM     43  C   UNL A   1      40.184  25.333  27.636  1.00  0.00     0.031 C 
ATOM     44  C   UNL A   1      42.932  30.248  29.773  1.00  0.00     0.029 A 
ATOM     45  C   UNL A   1      42.018  30.980  30.624  1.00  0.00     0.049 A 
ATOM     46  H   UNL A   1      39.962  31.276  30.112  1.00  0.00     0.167 HD
ATOM     47  C   UNL A   1      42.717  25.012  28.128  1.00  0.00     0.037 A 
ATOM     48  C   UNL A   1      42.143  31.244  31.952  1.00  0.00     0.037 A 
ATOM     49  C   UNL A   1      43.697  25.789  28.910  1.00  0.00     0.049 A 
ATOM     50  C   UNL A   1      42.861  30.106  32.631  1.00  0.00     0.074 A 
ATOM     51  C   UNL A   1      44.704  26.691  28.600  1.00  0.00     0.029 A 
ATOM     52  N   UNL A   1      43.486  25.951  30.274  1.00  0.00    -0.354 N 
ATOM     53  N   UNL A   1      43.344  29.091  31.968  1.00  0.00    -0.248 NA
ATOM     54  C   UNL A   1      43.064  29.955  34.065  1.00  0.00     0.031 C 
ATOM     55  C   UNL A   1      45.128  27.332  29.807  1.00  0.00     0.029 A 
ATOM     56  C   UNL A   1      44.393  26.814  30.858  1.00  0.00     0.049 A 
ATOM     57  H   UNL A   1      42.766  25.500  30.770  1.00  0.00     0.167 HD
ATOM     58  C   UNL A   1      43.849  28.151  32.803  1.00  0.00     0.074 A 
ATOM     59  C   UNL A   1      43.629  28.732  34.123  1.00  0.00     0.031 C 
ATOM     60  C   UNL A   1      44.372  26.985  32.310  1.00  0.00     0.037 A 
BRANCH  47  61
ATOM     61  C   UNL A   1      43.090  23.957  27.101  1.00  0.00     0.064 A 
ATOM     62  C   UNL A   1      42.760  22.600  27.302  1.00  0.00     0.173 A 
ATOM     63  C   UNL A   1      43.763  24.212  25.886  1.00  0.00     0.173 A 
ATOM     64  F   UNL A   1      42.018  22.206  28.343  1.00  0.00    -0.203 F 
ATOM     65  C   UNL A   1      43.161  21.585  26.425  1.00  0.00     0.198 A 
ATOM     66  C   UNL A   1      44.219  23.193  25.040  1.00  0.00     0.198 A 
ATOM     67  F   UNL A   1      43.931  25.454  25.420  1.00  0.00    -0.203 F 
ATOM     68  F   UNL A   1      42.801  20.317  26.668  1.00  0.00    -0.200 F 
ATOM     69  C   UNL A   1      43.920  21.877  25.312  1.00  0.00     0.200 A 
ATOM     70  F   UNL A   1      44.930  23.505  23.945  1.00  0.00    -0.200 F 
ATOM     71  F   UNL A   1      44.325  20.902  24.485  1.00  0.00    -0.200 F 
ENDBRANCH  47  61
BRANCH  48  72
ATOM     72  C   UNL A   1      41.010  32.103  32.421  1.00  0.00     0.064 A 
ATOM     73  C   UNL A   1      40.917  33.387  31.829  1.00  0.00     0.173 A 
ATOM     74  C   UNL A   1      39.821  31.541  32.910  1.00  0.00     0.173 A 
ATOM     75  F   UNL A   1      42.011  33.962  31.301  1.00  0.00    -0.203 F 
ATOM     76  C   UNL A   1      39.685  34.005  31.611  1.00  0.00     0.198 A 
ATOM     77  C   UNL A   1      38.586  32.162  32.678  1.00  0.00     0.198 A 
ATOM     78  F   UNL A   1      39.830  30.317  33.454  1.00  0.00    -0.203 F 
ATOM     79  F   UNL A   1      39.618  35.128  30.877  1.00  0.00    -0.200 F 
ATOM     80  C   UNL A   1      38.518  33.374  32.005  1.00  0.00     0.200 A 
ATOM     81  F   UNL A   1      37.448  31.524  32.991  1.00  0.00    -0.200 F 
ATOM     82  F   UNL A   1      37.330  33.874  31.630  1.00  0.00    -0.200 F 
ENDBRANCH  48  72
BRANCH  60  83
ATOM     83  C   UNL A   1      44.871  25.857  33.174  1.00  0.00     0.064 A 
ATOM     84  C   UNL A   1      44.034  25.119  34.018  1.00  0.00     0.173 A 
ATOM     85  C   UNL A   1      46.241  25.498  33.214  1.00  0.00     0.173 A 
ATOM     86  F   UNL A   1      42.765  25.494  34.233  1.00  0.00    -0.203 F 
ATOM     87  C   UNL A   1      44.493  23.993  34.701  1.00  0.00     0.198 A 
ATOM     88  C   UNL A   1      46.709  24.412  33.942  1.00  0.00     0.198 A 
ATOM     89  F   UNL A   1      47.186  26.166  32.543  1.00  0.00    -0.203 F 
ATOM     90  F   UNL A   1      43.631  23.255  35.411  1.00  0.00    -0.200 F 
ATOM     91  C   UNL A   1      45.827  23.632  34.650  1.00  0.00     0.200 A 
ATOM     92  F   UNL A   1      48.018  24.125  33.931  1.00  0.00    -0.200 F 
ATOM     93  F   UNL A   1      46.263  22.542  35.293  1.00  0.00    -0.200 F 
ENDBRANCH  60  83
ENDBRANCH  34  35
ENDBRANCH  27  29
ENDBRANCH  26  27
ENDBRANCH  25  26
ENDBRANCH  24  25
ENDBRANCH  23  24
ENDBRANCH   1  23
TORSDOF 17
ENDMDL
MODEL 3
REMARK VINA RESULT:     -10.4      4.101      6.791
REMARK SMILES Cc1ccc([N+](=O)[O-])c(N[C@@H]2C=C[C@@H](C(=O)OCCOCCOC(=O)c3ccc(-c4c5nc(c(-c6c(F)c(F)c(F)c(F)c6F)c6ccc([nH]6)c(-c6c(F)c(F)c(F)c(F)c6F)c6nc(c(-c7c(F)c(F)c(F)c(F)c7F)c7ccc4[nH]7)C=C6)C=C5)cc3)C2)c1
REMARK SMILES IDX 19 1 18 2 17 3 15 4 16 5 14 6 11 7 12 8 89 9 13 10 10 11
REMARK SMILES IDX 9 13 1 14 2 15 3 16 90 17 4 18 5 19 6 20 7 21 8 22 20 23
REMARK SMILES IDX 21 24 22 25 23 26 24 27 25 28 26 29 27 30 88 31 28 32 87 33
REMARK SMILES IDX 29 34 30 35 31 36 81 37 32 38 86 39 80 40 82 41 33 42 85 43
REMARK SMILES IDX 79 44 78 45 34 47 66 48 46 49 65 50 47 51 50 52 64 53 83 54
REMARK SMILES IDX 48 55 49 56 63 58 84 59 51 60 35 61 36 62 44 63 37 64 38 65
REMARK SMILES IDX 42 66 45 67 39 68 40 69 43 70 41 71 67 72 68 73 76 74 69 75
REMARK SMILES IDX 70 76 74 77 77 78 71 79 72 80 75 81 73 82 52 83 53 84 61 85
REMARK SMILES IDX 54 86 55 87 59 88 62 89 56 90 57 91 60 92 58 93
REMARK H PARENT 10 12 82 46 50 57
REMARK Flexibility Score: inf
ROOT
ATOM      1  C   UNL A   1      33.449  34.127  28.356  1.00  0.00     0.202 C 
ENDROOT
BRANCH   1   2
ATOM      2  C   UNL A   1      32.550  33.458  27.355  1.00  0.00     0.261 C 
BRANCH   2   3
ATOM      3  O   UNL A   1      32.661  32.040  27.461  1.00  0.00    -0.463 OA
BRANCH   3   4
ATOM      4  C   UNL A   1      31.887  31.321  26.591  1.00  0.00     0.312 C 
ATOM      5  O   UNL A   1      30.952  31.738  25.938  1.00  0.00    -0.252 OA
BRANCH   4   6
ATOM      6  C   UNL A   1      32.331  29.900  26.571  1.00  0.00     0.124 C 
ATOM      7  C   UNL A   1      33.813  28.458  25.355  1.00  0.00     0.103 C 
ATOM      8  C   UNL A   1      34.482  28.990  26.565  1.00  0.00    -0.006 C 
ATOM      9  C   UNL A   1      32.590  29.344  25.173  1.00  0.00     0.048 C 
ATOM     10  C   UNL A   1      33.658  29.780  27.257  1.00  0.00    -0.014 C 
BRANCH   7  11
ATOM     11  N   UNL A   1      33.530  27.045  25.522  1.00  0.00    -0.373 N 
ATOM     12  H   UNL A   1      34.053  26.645  26.252  1.00  0.00     0.161 HD
BRANCH  11  13
ATOM     13  C   UNL A   1      32.705  26.126  24.904  1.00  0.00     0.114 A 
ATOM     14  C   UNL A   1      33.505  23.315  22.439  1.00  0.00     0.044 C 
ATOM     15  C   UNL A   1      32.713  24.352  23.173  1.00  0.00    -0.049 A 
ATOM     16  C   UNL A   1      31.323  24.310  23.159  1.00  0.00     0.010 A 
ATOM     17  C   UNL A   1      33.369  25.299  23.975  1.00  0.00     0.036 A 
ATOM     18  C   UNL A   1      30.621  25.085  24.067  1.00  0.00     0.088 A 
ATOM     19  C   UNL A   1      31.317  25.895  24.992  1.00  0.00     0.292 A 
BRANCH  19  20
ATOM     20  N   UNL A   1      30.561  26.076  26.229  1.00  0.00     0.064 N 
ATOM     21  O   UNL A   1      29.482  25.466  26.327  1.00  0.00    -0.258 OA
ATOM     22  O   UNL A   1      31.104  26.704  27.149  1.00  0.00    -0.258 OA
ENDBRANCH  19  20
ENDBRANCH  11  13
ENDBRANCH   7  11
ENDBRANCH   4   6
ENDBRANCH   3   4
ENDBRANCH   2   3
ENDBRANCH   1   2
BRANCH   1  23
ATOM     23  O   UNL A   1      32.617  35.036  29.058  1.00  0.00    -0.374 OA
BRANCH  23  24
ATOM     24  C   UNL A   1      33.095  36.354  29.213  1.00  0.00     0.202 C 
BRANCH  24  25
ATOM     25  C   UNL A   1      32.999  36.852  30.660  1.00  0.00     0.261 C 
BRANCH  25  26
ATOM     26  O   UNL A   1      32.851  35.728  31.558  1.00  0.00    -0.460 OA
BRANCH  26  27
ATOM     27  C   UNL A   1      33.772  35.608  32.554  1.00  0.00     0.338 C 
ATOM     28  O   UNL A   1      34.124  36.515  33.303  1.00  0.00    -0.246 OA
BRANCH  27  29
ATOM     29  C   UNL A   1      34.504  34.314  32.421  1.00  0.00     0.060 A 
ATOM     30  C   UNL A   1      34.731  33.488  33.545  1.00  0.00     0.016 A 
ATOM     31  C   UNL A   1      35.250  34.118  31.266  1.00  0.00     0.016 A 
ATOM     32  C   UNL A   1      35.800  32.572  33.554  1.00  0.00     0.010 A 
ATOM     33  C   UNL A   1      36.376  33.331  31.338  1.00  0.00     0.010 A 
ATOM     34  C   UNL A   1      36.675  32.553  32.470  1.00  0.00    -0.014 A 
BRANCH  34  35
ATOM     35  C   UNL A   1      37.978  31.880  32.392  1.00  0.00     0.031 A 
ATOM     36  C   UNL A   1      38.064  30.616  31.620  1.00  0.00     0.074 A 
ATOM     37  C   UNL A   1      39.133  32.531  32.690  1.00  0.00     0.049 A 
ATOM     38  N   UNL A   1      39.090  29.840  31.634  1.00  0.00    -0.248 NA
ATOM     39  C   UNL A   1      36.997  30.106  30.761  1.00  0.00     0.031 C 
ATOM     40  C   UNL A   1      40.461  32.294  32.115  1.00  0.00     0.029 A 
ATOM     41  N   UNL A   1      39.359  33.616  33.547  1.00  0.00    -0.354 N 
ATOM     42  C   UNL A   1      38.988  28.993  30.558  1.00  0.00     0.074 A 
ATOM     43  C   UNL A   1      37.627  29.131  30.103  1.00  0.00     0.031 C 
ATOM     44  C   UNL A   1      41.382  32.991  32.800  1.00  0.00     0.029 A 
ATOM     45  C   UNL A   1      40.715  33.604  33.928  1.00  0.00     0.049 A 
ATOM     46  H   UNL A   1      38.686  34.275  33.835  1.00  0.00     0.167 HD
ATOM     47  C   UNL A   1      40.116  28.381  30.094  1.00  0.00     0.037 A 
ATOM     48  C   UNL A   1      41.050  33.520  35.244  1.00  0.00     0.037 A 
ATOM     49  C   UNL A   1      41.301  28.815  30.860  1.00  0.00     0.049 A 
ATOM     50  C   UNL A   1      41.655  32.170  35.529  1.00  0.00     0.074 A 
ATOM     51  C   UNL A   1      42.392  29.629  30.597  1.00  0.00     0.029 A 
ATOM     52  N   UNL A   1      41.294  28.666  32.241  1.00  0.00    -0.354 N 
ATOM     53  N   UNL A   1      41.879  31.293  34.588  1.00  0.00    -0.248 NA
ATOM     54  C   UNL A   1      42.012  31.651  36.841  1.00  0.00     0.031 C 
ATOM     55  C   UNL A   1      43.065  29.899  31.831  1.00  0.00     0.029 A 
ATOM     56  C   UNL A   1      42.396  29.239  32.846  1.00  0.00     0.049 A 
ATOM     57  H   UNL A   1      40.581  28.203  32.735  1.00  0.00     0.167 HD
ATOM     58  C   UNL A   1      42.328  30.122  35.101  1.00  0.00     0.074 A 
ATOM     59  C   UNL A   1      42.376  30.389  36.534  1.00  0.00     0.031 C 
ATOM     60  C   UNL A   1      42.588  29.053  34.284  1.00  0.00     0.037 A 
BRANCH  47  61
ATOM     61  C   UNL A   1      40.179  27.569  28.812  1.00  0.00     0.064 A 
ATOM     62  C   UNL A   1      39.587  26.291  28.734  1.00  0.00     0.173 A 
ATOM     63  C   UNL A   1      40.797  27.991  27.615  1.00  0.00     0.173 A 
ATOM     64  F   UNL A   1      38.859  25.793  29.741  1.00  0.00    -0.203 F 
ATOM     65  C   UNL A   1      39.697  25.473  27.603  1.00  0.00     0.198 A 
ATOM     66  C   UNL A   1      40.962  27.152  26.506  1.00  0.00     0.198 A 
ATOM     67  F   UNL A   1      41.188  29.257  27.432  1.00  0.00    -0.203 F 
ATOM     68  F   UNL A   1      39.097  24.275  27.589  1.00  0.00    -0.200 F 
ATOM     69  C   UNL A   1      40.414  25.889  26.501  1.00  0.00     0.200 A 
ATOM     70  F   UNL A   1      41.638  27.591  25.433  1.00  0.00    -0.200 F 
ATOM     71  F   UNL A   1      40.541  25.096  25.428  1.00  0.00    -0.200 F 
ENDBRANCH  47  61
BRANCH  48  72
ATOM     72  C   UNL A   1      40.140  34.377  36.068  1.00  0.00     0.064 A 
ATOM     73  C   UNL A   1      39.159  33.692  36.827  1.00  0.00     0.173 A 
ATOM     74  C   UNL A   1      40.550  35.632  36.544  1.00  0.00     0.173 A 
ATOM     75  F   UNL A   1      38.755  32.467  36.449  1.00  0.00    -0.203 F 
ATOM     76  C   UNL A   1      38.724  34.170  38.063  1.00  0.00     0.198 A 
ATOM     77  C   UNL A   1      40.118  36.101  37.792  1.00  0.00     0.198 A 
ATOM     78  F   UNL A   1      41.497  36.321  35.893  1.00  0.00    -0.203 F 
ATOM     79  F   UNL A   1      37.944  33.404  38.843  1.00  0.00    -0.200 F 
ATOM     80  C   UNL A   1      39.232  35.358  38.560  1.00  0.00     0.200 A 
ATOM     81  F   UNL A   1      40.660  37.212  38.311  1.00  0.00    -0.200 F 
ATOM     82  F   UNL A   1      38.962  35.723  39.823  1.00  0.00    -0.200 F 
ENDBRANCH  48  72
BRANCH  60  83
ATOM     83  C   UNL A   1      43.005  27.696  34.784  1.00  0.00     0.064 A 
ATOM     84  C   UNL A   1      42.122  26.615  34.870  1.00  0.00     0.173 A 
ATOM     85  C   UNL A   1      44.322  27.441  35.240  1.00  0.00     0.173 A 
ATOM     86  F   UNL A   1      40.806  26.779  34.674  1.00  0.00    -0.203 F 
ATOM     87  C   UNL A   1      42.563  25.334  35.205  1.00  0.00     0.198 A 
ATOM     88  C   UNL A   1      44.747  26.178  35.630  1.00  0.00     0.198 A 
ATOM     89  F   UNL A   1      45.261  28.391  35.316  1.00  0.00    -0.203 F 
ATOM     90  F   UNL A   1      41.702  24.309  35.169  1.00  0.00    -0.200 F 
ATOM     91  C   UNL A   1      43.879  25.114  35.569  1.00  0.00     0.200 A 
ATOM     92  F   UNL A   1      46.010  26.005  36.046  1.00  0.00    -0.200 F 
ATOM     93  F   UNL A   1      44.305  23.882  35.874  1.00  0.00    -0.200 F 
ENDBRANCH  60  83
ENDBRANCH  34  35
ENDBRANCH  27  29
ENDBRANCH  26  27
ENDBRANCH  25  26
ENDBRANCH  24  25
ENDBRANCH  23  24
ENDBRANCH   1  23
TORSDOF 17
ENDMDL
