MODEL 1
REMARK VINA RESULT:     -13.4      0.000      0.000
REMARK SMILES O=C(OCCOCCOC(=O)c1ccc(-c2c3nc(c(-c4c(F)c(F)c(F)c(F)c4F)c4ccc([nH]4)c(-c4c(F)c(F)c(F)c(F)c4F)c4nc(c(-c5c(F)c(F)c(F)c(F)c5F)c5ccc2[nH]5)C=C4)C=C3)cc1)c1ccc(/[NH+]=C2\S[C@@H](Cc3ccc(F)cc3)C(=O)N2Cc2ccccc2)cc1
REMARK SMILES IDX 5 1 4 2 3 3 2 4 1 5 75 6 76 7 102 8 77 9 101 10 78 11 79 12
REMARK SMILES IDX 80 13 81 15 93 16 82 17 91 18 92 19 94 20 95 21 96 22 100 23
REMARK SMILES IDX 97 24 99 25 98 26 83 27 84 28 85 29 90 30 86 31 89 32 87 33
REMARK SMILES IDX 88 34 6 35 7 36 8 37 9 38 10 39 11 40 12 41 13 42 74 43
REMARK SMILES IDX 14 44 73 45 15 46 16 47 17 48 67 49 18 50 72 51 66 52 68 53
REMARK SMILES IDX 19 54 71 55 65 56 64 57 20 59 52 60 32 61 51 62 33 63 36 64
REMARK SMILES IDX 50 65 69 66 34 67 35 68 49 70 70 71 37 72 21 73 22 74 30 75
REMARK SMILES IDX 23 76 24 77 28 78 31 79 25 80 26 81 29 82 27 83 53 84 54 85
REMARK SMILES IDX 62 86 55 87 56 88 60 89 63 90 57 91 58 92 61 93 59 94 38 95
REMARK SMILES IDX 39 96 47 97 40 98 41 99 45 100 48 101 42 102 43 103 46 104
REMARK SMILES IDX 44 105
REMARK H PARENT 79 14 68 58 36 69
REMARK Flexibility Score: inf
ROOT
ATOM      1  C   UNL A   1      33.420  35.508  30.038  1.00  0.00     0.202 C 
ENDROOT
BRANCH   1   2
ATOM      2  C   UNL A   1      33.116  34.643  28.813  1.00  0.00     0.261 C 
BRANCH   2   3
ATOM      3  O   UNL A   1      33.752  33.358  28.952  1.00  0.00    -0.460 OA
BRANCH   3   4
ATOM      4  C   UNL A   1      34.665  32.778  28.138  1.00  0.00     0.338 C 
ATOM      5  O   UNL A   1      35.656  33.421  27.801  1.00  0.00    -0.246 OA
BRANCH   4   6
ATOM      6  C   UNL A   1      34.539  31.381  27.635  1.00  0.00     0.060 A 
ATOM      7  C   UNL A   1      35.588  30.464  27.609  1.00  0.00     0.020 A 
ATOM      8  C   UNL A   1      33.257  30.930  27.277  1.00  0.00     0.020 A 
ATOM      9  C   UNL A   1      35.389  29.161  27.181  1.00  0.00     0.052 A 
ATOM     10  C   UNL A   1      33.049  29.606  26.865  1.00  0.00     0.052 A 
ATOM     11  C   UNL A   1      34.127  28.729  26.788  1.00  0.00     0.125 A 
BRANCH  11  12
ATOM     12  N   UNL A   1      34.027  27.417  26.325  1.00  0.00    -0.235 N 
ATOM     13  C   UNL A   1      33.264  27.184  25.311  1.00  0.00     0.320 C 
ATOM     14  H   UNL A   1      34.526  26.688  26.760  1.00  0.00     0.313 HD
ATOM     15  S   UNL A   1      32.076  28.267  24.629  1.00  0.00    -0.022 SA
ATOM     16  N   UNL A   1      33.331  26.026  24.589  1.00  0.00    -0.186 N 
ATOM     17  C   UNL A   1      31.280  26.909  23.733  1.00  0.00     0.178 C 
ATOM     18  C   UNL A   1      32.378  25.861  23.603  1.00  0.00     0.324 C 
ATOM     19  O   UNL A   1      32.374  24.954  22.780  1.00  0.00    -0.245 OA
BRANCH  16  20
ATOM     20  C   UNL A   1      34.424  25.074  24.751  1.00  0.00     0.283 C 
BRANCH  20  21
ATOM     21  C   UNL A   1      34.093  23.949  25.718  1.00  0.00    -0.006 A 
ATOM     22  C   UNL A   1      34.976  22.878  25.910  1.00  0.00     0.008 A 
ATOM     23  C   UNL A   1      32.892  23.958  26.444  1.00  0.00     0.008 A 
ATOM     24  C   UNL A   1      34.663  21.849  26.805  1.00  0.00     0.000 A 
ATOM     25  C   UNL A   1      32.593  22.950  27.361  1.00  0.00     0.000 A 
ATOM     26  C   UNL A   1      33.477  21.891  27.538  1.00  0.00     0.000 A 
ENDBRANCH  20  21
ENDBRANCH  16  20
BRANCH  17  27
ATOM     27  C   UNL A   1      30.694  27.414  22.419  1.00  0.00     0.063 C 
BRANCH  27  28
ATOM     28  C   UNL A   1      29.692  28.529  22.614  1.00  0.00    -0.046 A 
ATOM     29  C   UNL A   1      28.407  28.236  23.094  1.00  0.00     0.007 A 
ATOM     30  C   UNL A   1      30.032  29.861  22.330  1.00  0.00     0.007 A 
ATOM     31  C   UNL A   1      27.490  29.262  23.318  1.00  0.00     0.039 A 
ATOM     32  C   UNL A   1      29.116  30.886  22.564  1.00  0.00     0.039 A 
ATOM     33  C   UNL A   1      27.856  30.577  23.060  1.00  0.00     0.123 A 
ATOM     34  F   UNL A   1      26.980  31.563  23.292  1.00  0.00    -0.207 F 
ENDBRANCH  27  28
ENDBRANCH  17  27
ENDBRANCH  11  12
ENDBRANCH   4   6
ENDBRANCH   3   4
ENDBRANCH   2   3
ENDBRANCH   1   2
BRANCH   1  35
ATOM     35  O   UNL A   1      33.037  34.912  31.278  1.00  0.00    -0.374 OA
BRANCH  35  36
ATOM     36  C   UNL A   1      34.104  34.648  32.200  1.00  0.00     0.202 C 
BRANCH  36  37
ATOM     37  C   UNL A   1      34.015  33.196  32.676  1.00  0.00     0.261 C 
BRANCH  37  38
ATOM     38  O   UNL A   1      35.088  32.468  32.063  1.00  0.00    -0.460 OA
BRANCH  38  39
ATOM     39  C   UNL A   1      36.118  32.186  32.899  1.00  0.00     0.338 C 
ATOM     40  O   UNL A   1      36.158  32.341  34.108  1.00  0.00    -0.246 OA
BRANCH  39  41
ATOM     41  C   UNL A   1      37.137  31.445  32.126  1.00  0.00     0.060 A 
ATOM     42  C   UNL A   1      38.016  30.604  32.824  1.00  0.00     0.016 A 
ATOM     43  C   UNL A   1      37.202  31.533  30.731  1.00  0.00     0.016 A 
ATOM     44  C   UNL A   1      38.992  29.888  32.135  1.00  0.00     0.010 A 
ATOM     45  C   UNL A   1      38.176  30.818  30.041  1.00  0.00     0.010 A 
ATOM     46  C   UNL A   1      39.098  30.028  30.746  1.00  0.00    -0.014 A 
BRANCH  46  47
ATOM     47  C   UNL A   1      40.303  29.550  30.039  1.00  0.00     0.031 A 
ATOM     48  C   UNL A   1      41.417  30.534  29.825  1.00  0.00     0.074 A 
ATOM     49  C   UNL A   1      40.386  28.293  29.576  1.00  0.00     0.049 A 
ATOM     50  N   UNL A   1      42.529  30.401  29.152  1.00  0.00    -0.248 NA
ATOM     51  C   UNL A   1      41.243  31.860  30.446  1.00  0.00     0.031 C 
ATOM     52  C   UNL A   1      39.370  27.258  29.751  1.00  0.00     0.029 A 
ATOM     53  N   UNL A   1      41.371  27.683  28.844  1.00  0.00    -0.354 N 
ATOM     54  C   UNL A   1      43.179  31.623  29.262  1.00  0.00     0.074 A 
ATOM     55  C   UNL A   1      42.325  32.498  30.033  1.00  0.00     0.031 C 
ATOM     56  C   UNL A   1      39.779  26.139  29.128  1.00  0.00     0.029 A 
ATOM     57  C   UNL A   1      41.069  26.392  28.488  1.00  0.00     0.049 A 
ATOM     58  H   UNL A   1      42.214  28.127  28.598  1.00  0.00     0.167 HD
ATOM     59  C   UNL A   1      44.389  31.977  28.772  1.00  0.00     0.037 A 
ATOM     60  C   UNL A   1      41.755  25.531  27.713  1.00  0.00     0.037 A 
ATOM     61  C   UNL A   1      45.225  31.099  28.001  1.00  0.00     0.049 A 
ATOM     62  C   UNL A   1      43.073  25.970  27.126  1.00  0.00     0.074 A 
ATOM     63  C   UNL A   1      46.473  31.345  27.461  1.00  0.00     0.029 A 
ATOM     64  N   UNL A   1      44.885  29.798  27.653  1.00  0.00    -0.354 N 
ATOM     65  N   UNL A   1      43.699  27.115  27.257  1.00  0.00    -0.248 NA
ATOM     66  C   UNL A   1      43.781  24.993  26.286  1.00  0.00     0.031 C 
ATOM     67  C   UNL A   1      46.869  30.209  26.749  1.00  0.00     0.029 A 
ATOM     68  C   UNL A   1      45.892  29.236  26.890  1.00  0.00     0.049 A 
ATOM     69  H   UNL A   1      44.050  29.345  27.912  1.00  0.00     0.167 HD
ATOM     70  C   UNL A   1      44.886  26.988  26.545  1.00  0.00     0.074 A 
ATOM     71  C   UNL A   1      44.895  25.649  25.993  1.00  0.00     0.031 C 
ATOM     72  C   UNL A   1      45.878  27.893  26.365  1.00  0.00     0.037 A 
BRANCH  59  73
ATOM     73  C   UNL A   1      44.860  33.376  29.041  1.00  0.00     0.064 A 
ATOM     74  C   UNL A   1      45.625  33.690  30.175  1.00  0.00     0.173 A 
ATOM     75  C   UNL A   1      44.550  34.414  28.151  1.00  0.00     0.173 A 
ATOM     76  F   UNL A   1      45.929  32.737  31.070  1.00  0.00    -0.203 F 
ATOM     77  C   UNL A   1      46.040  34.996  30.420  1.00  0.00     0.198 A 
ATOM     78  C   UNL A   1      44.993  35.714  28.384  1.00  0.00     0.198 A 
ATOM     79  F   UNL A   1      43.818  34.170  27.054  1.00  0.00    -0.203 F 
ATOM     80  F   UNL A   1      46.726  35.280  31.536  1.00  0.00    -0.200 F 
ATOM     81  C   UNL A   1      45.730  36.005  29.522  1.00  0.00     0.200 A 
ATOM     82  F   UNL A   1      44.698  36.687  27.510  1.00  0.00    -0.200 F 
ATOM     83  F   UNL A   1      46.135  37.261  29.757  1.00  0.00    -0.200 F 
ENDBRANCH  59  73
BRANCH  60  84
ATOM     84  C   UNL A   1      41.216  24.171  27.450  1.00  0.00     0.064 A 
ATOM     85  C   UNL A   1      41.819  23.037  28.011  1.00  0.00     0.173 A 
ATOM     86  C   UNL A   1      40.100  23.973  26.624  1.00  0.00     0.173 A 
ATOM     87  F   UNL A   1      42.904  23.171  28.789  1.00  0.00    -0.203 F 
ATOM     88  C   UNL A   1      41.336  21.757  27.744  1.00  0.00     0.198 A 
ATOM     89  C   UNL A   1      39.601  22.695  26.379  1.00  0.00     0.198 A 
ATOM     90  F   UNL A   1      39.486  25.024  26.061  1.00  0.00    -0.203 F 
ATOM     91  F   UNL A   1      41.960  20.688  28.259  1.00  0.00    -0.200 F 
ATOM     92  C   UNL A   1      40.225  21.587  26.932  1.00  0.00     0.200 A 
ATOM     93  F   UNL A   1      38.520  22.536  25.604  1.00  0.00    -0.200 F 
ATOM     94  F   UNL A   1      39.761  20.357  26.678  1.00  0.00    -0.200 F 
ENDBRANCH  60  84
BRANCH  72  95
ATOM     95  C   UNL A   1      47.076  27.453  25.575  1.00  0.00     0.064 A 
ATOM     96  C   UNL A   1      47.187  27.704  24.200  1.00  0.00     0.173 A 
ATOM     97  C   UNL A   1      48.149  26.815  26.217  1.00  0.00     0.173 A 
ATOM     98  F   UNL A   1      46.183  28.300  23.540  1.00  0.00    -0.203 F 
ATOM     99  C   UNL A   1      48.318  27.311  23.491  1.00  0.00     0.198 A 
ATOM    100  C   UNL A   1      49.291  26.451  25.511  1.00  0.00     0.198 A 
ATOM    101  F   UNL A   1      48.095  26.560  27.533  1.00  0.00    -0.203 F 
ATOM    102  F   UNL A   1      48.384  27.521  22.169  1.00  0.00    -0.200 F 
ATOM    103  C   UNL A   1      49.372  26.692  24.148  1.00  0.00     0.200 A 
ATOM    104  F   UNL A   1      50.315  25.868  26.150  1.00  0.00    -0.200 F 
ATOM    105  F   UNL A   1      50.465  26.323  23.466  1.00  0.00    -0.200 F 
ENDBRANCH  72  95
ENDBRANCH  46  47
ENDBRANCH  39  41
ENDBRANCH  38  39
ENDBRANCH  37  38
ENDBRANCH  36  37
ENDBRANCH  35  36
ENDBRANCH   1  35
TORSDOF 19
ENDMDL
MODEL 2
REMARK VINA RESULT:     -12.7      3.153      9.296
REMARK SMILES O=C(OCCOCCOC(=O)c1ccc(-c2c3nc(c(-c4c(F)c(F)c(F)c(F)c4F)c4ccc([nH]4)c(-c4c(F)c(F)c(F)c(F)c4F)c4nc(c(-c5c(F)c(F)c(F)c(F)c5F)c5ccc2[nH]5)C=C4)C=C3)cc1)c1ccc(/[NH+]=C2\S[C@@H](Cc3ccc(F)cc3)C(=O)N2Cc2ccccc2)cc1
REMARK SMILES IDX 5 1 4 2 3 3 2 4 1 5 75 6 76 7 102 8 77 9 101 10 78 11 79 12
REMARK SMILES IDX 80 13 81 15 93 16 82 17 91 18 92 19 94 20 95 21 96 22 100 23
REMARK SMILES IDX 97 24 99 25 98 26 83 27 84 28 85 29 90 30 86 31 89 32 87 33
REMARK SMILES IDX 88 34 6 35 7 36 8 37 9 38 10 39 11 40 12 41 13 42 74 43
REMARK SMILES IDX 14 44 73 45 15 46 16 47 17 48 67 49 18 50 72 51 66 52 68 53
REMARK SMILES IDX 19 54 71 55 65 56 64 57 20 59 52 60 32 61 51 62 33 63 36 64
REMARK SMILES IDX 50 65 69 66 34 67 35 68 49 70 70 71 37 72 21 73 22 74 30 75
REMARK SMILES IDX 23 76 24 77 28 78 31 79 25 80 26 81 29 82 27 83 53 84 54 85
REMARK SMILES IDX 62 86 55 87 56 88 60 89 63 90 57 91 58 92 61 93 59 94 38 95
REMARK SMILES IDX 39 96 47 97 40 98 41 99 45 100 48 101 42 102 43 103 46 104
REMARK SMILES IDX 44 105
REMARK H PARENT 79 14 68 58 36 69
REMARK Flexibility Score: inf
ROOT
ATOM      1  C   UNL A   1      35.960  20.856  25.344  1.00  0.00     0.202 C 
ENDROOT
BRANCH   1   2
ATOM      2  C   UNL A   1      35.264  19.570  24.892  1.00  0.00     0.261 C 
BRANCH   2   3
ATOM      3  O   UNL A   1      33.932  19.517  25.438  1.00  0.00    -0.460 OA
BRANCH   3   4
ATOM      4  C   UNL A   1      32.760  19.803  24.827  1.00  0.00     0.338 C 
ATOM      5  O   UNL A   1      31.998  18.882  24.539  1.00  0.00    -0.246 OA
BRANCH   4   6
ATOM      6  C   UNL A   1      32.330  21.190  24.491  1.00  0.00     0.060 A 
ATOM      7  C   UNL A   1      31.501  21.966  25.297  1.00  0.00     0.020 A 
ATOM      8  C   UNL A   1      32.894  21.789  23.352  1.00  0.00     0.020 A 
ATOM      9  C   UNL A   1      31.186  23.271  24.954  1.00  0.00     0.052 A 
ATOM     10  C   UNL A   1      32.595  23.116  23.014  1.00  0.00     0.052 A 
ATOM     11  C   UNL A   1      31.712  23.848  23.804  1.00  0.00     0.125 A 
BRANCH  11  12
ATOM     12  N   UNL A   1      31.304  25.148  23.509  1.00  0.00    -0.235 N 
ATOM     13  C   UNL A   1      31.951  26.129  24.045  1.00  0.00     0.320 C 
ATOM     14  H   UNL A   1      30.543  25.315  22.907  1.00  0.00     0.313 HD
ATOM     15  S   UNL A   1      33.091  26.027  25.363  1.00  0.00    -0.022 SA
ATOM     16  N   UNL A   1      31.848  27.414  23.594  1.00  0.00    -0.186 N 
ATOM     17  C   UNL A   1      32.975  27.809  25.665  1.00  0.00     0.178 C 
ATOM     18  C   UNL A   1      32.504  28.378  24.333  1.00  0.00     0.324 C 
ATOM     19  O   UNL A   1      32.629  29.550  23.998  1.00  0.00    -0.245 OA
BRANCH  16  20
ATOM     20  C   UNL A   1      31.199  27.741  22.329  1.00  0.00     0.283 C 
BRANCH  20  21
ATOM     21  C   UNL A   1      29.900  28.509  22.510  1.00  0.00    -0.006 A 
ATOM     22  C   UNL A   1      28.776  27.902  23.087  1.00  0.00     0.008 A 
ATOM     23  C   UNL A   1      29.797  29.849  22.104  1.00  0.00     0.008 A 
ATOM     24  C   UNL A   1      27.585  28.620  23.250  1.00  0.00     0.000 A 
ATOM     25  C   UNL A   1      28.622  30.575  22.298  1.00  0.00     0.000 A 
ATOM     26  C   UNL A   1      27.512  29.958  22.867  1.00  0.00     0.000 A 
ENDBRANCH  20  21
ENDBRANCH  16  20
BRANCH  17  27
ATOM     27  C   UNL A   1      34.307  28.348  26.175  1.00  0.00     0.063 C 
BRANCH  27  28
ATOM     28  C   UNL A   1      34.175  29.691  26.856  1.00  0.00    -0.046 A 
ATOM     29  C   UNL A   1      35.321  30.360  27.309  1.00  0.00     0.007 A 
ATOM     30  C   UNL A   1      32.916  30.288  27.033  1.00  0.00     0.007 A 
ATOM     31  C   UNL A   1      35.213  31.619  27.898  1.00  0.00     0.039 A 
ATOM     32  C   UNL A   1      32.813  31.552  27.613  1.00  0.00     0.039 A 
ATOM     33  C   UNL A   1      33.962  32.207  28.036  1.00  0.00     0.123 A 
ATOM     34  F   UNL A   1      33.863  33.423  28.587  1.00  0.00    -0.207 F 
ENDBRANCH  27  28
ENDBRANCH  17  27
ENDBRANCH  11  12
ENDBRANCH   4   6
ENDBRANCH   3   4
ENDBRANCH   2   3
ENDBRANCH   1   2
BRANCH   1  35
ATOM     35  O   UNL A   1      37.370  20.863  25.120  1.00  0.00    -0.374 OA
BRANCH  35  36
ATOM     36  C   UNL A   1      37.962  19.589  24.829  1.00  0.00     0.202 C 
BRANCH  36  37
ATOM     37  C   UNL A   1      39.264  19.443  25.621  1.00  0.00     0.261 C 
BRANCH  37  38
ATOM     38  O   UNL A   1      39.667  20.753  26.045  1.00  0.00    -0.460 OA
BRANCH  38  39
ATOM     39  C   UNL A   1      40.647  20.758  26.982  1.00  0.00     0.338 C 
ATOM     40  O   UNL A   1      41.337  19.819  27.340  1.00  0.00    -0.246 OA
BRANCH  39  41
ATOM     41  C   UNL A   1      40.898  22.163  27.366  1.00  0.00     0.060 A 
ATOM     42  C   UNL A   1      40.110  23.162  26.778  1.00  0.00     0.016 A 
ATOM     43  C   UNL A   1      41.860  22.495  28.326  1.00  0.00     0.016 A 
ATOM     44  C   UNL A   1      40.314  24.499  27.112  1.00  0.00     0.010 A 
ATOM     45  C   UNL A   1      42.066  23.830  28.661  1.00  0.00     0.010 A 
ATOM     46  C   UNL A   1      41.322  24.836  28.023  1.00  0.00    -0.014 A 
BRANCH  46  47
ATOM     47  C   UNL A   1      41.776  26.236  28.148  1.00  0.00     0.031 A 
ATOM     48  C   UNL A   1      43.116  26.584  27.569  1.00  0.00     0.074 A 
ATOM     49  C   UNL A   1      41.032  27.154  28.786  1.00  0.00     0.049 A 
ATOM     50  N   UNL A   1      43.786  27.704  27.631  1.00  0.00    -0.248 NA
ATOM     51  C   UNL A   1      43.803  25.511  26.826  1.00  0.00     0.031 C 
ATOM     52  C   UNL A   1      39.711  26.921  29.362  1.00  0.00     0.029 A 
ATOM     53  N   UNL A   1      41.301  28.468  29.068  1.00  0.00    -0.354 N 
ATOM     54  C   UNL A   1      44.971  27.468  26.947  1.00  0.00     0.074 A 
ATOM     55  C   UNL A   1      44.948  26.092  26.508  1.00  0.00     0.031 C 
ATOM     56  C   UNL A   1      39.286  28.055  29.947  1.00  0.00     0.029 A 
ATOM     57  C   UNL A   1      40.320  29.080  29.809  1.00  0.00     0.049 A 
ATOM     58  H   UNL A   1      42.117  28.928  28.769  1.00  0.00     0.167 HD
ATOM     59  C   UNL A   1      45.982  28.331  26.698  1.00  0.00     0.037 A 
ATOM     60  C   UNL A   1      40.284  30.321  30.329  1.00  0.00     0.037 A 
ATOM     61  C   UNL A   1      45.995  29.696  27.146  1.00  0.00     0.049 A 
ATOM     62  C   UNL A   1      41.451  31.245  30.089  1.00  0.00     0.074 A 
ATOM     63  C   UNL A   1      46.959  30.665  26.945  1.00  0.00     0.029 A 
ATOM     64  N   UNL A   1      44.986  30.282  27.900  1.00  0.00    -0.354 N 
ATOM     65  N   UNL A   1      42.556  31.029  29.416  1.00  0.00    -0.248 NA
ATOM     66  C   UNL A   1      41.363  32.589  30.680  1.00  0.00     0.031 C 
ATOM     67  C   UNL A   1      46.556  31.824  27.614  1.00  0.00     0.029 A 
ATOM     68  C   UNL A   1      45.315  31.595  28.187  1.00  0.00     0.049 A 
ATOM     69  H   UNL A   1      44.160  29.830  28.186  1.00  0.00     0.167 HD
ATOM     70  C   UNL A   1      43.280  32.214  29.475  1.00  0.00     0.074 A 
ATOM     71  C   UNL A   1      42.482  33.149  30.242  1.00  0.00     0.031 C 
ATOM     72  C   UNL A   1      44.492  32.506  28.943  1.00  0.00     0.037 A 
BRANCH  59  73
ATOM     73  C   UNL A   1      47.158  27.811  25.925  1.00  0.00     0.064 A 
ATOM     74  C   UNL A   1      47.166  27.788  24.522  1.00  0.00     0.173 A 
ATOM     75  C   UNL A   1      48.295  27.336  26.594  1.00  0.00     0.173 A 
ATOM     76  F   UNL A   1      46.093  28.209  23.834  1.00  0.00    -0.203 F 
ATOM     77  C   UNL A   1      48.258  27.287  23.819  1.00  0.00     0.198 A 
ATOM     78  C   UNL A   1      49.398  26.863  25.888  1.00  0.00     0.198 A 
ATOM     79  F   UNL A   1      48.339  27.332  27.935  1.00  0.00    -0.203 F 
ATOM     80  F   UNL A   1      48.220  27.228  22.480  1.00  0.00    -0.200 F 
ATOM     81  C   UNL A   1      49.375  26.831  24.501  1.00  0.00     0.200 A 
ATOM     82  F   UNL A   1      50.481  26.431  26.549  1.00  0.00    -0.200 F 
ATOM     83  F   UNL A   1      50.427  26.353  23.823  1.00  0.00    -0.200 F 
ENDBRANCH  59  73
BRANCH  60  84
ATOM     84  C   UNL A   1      39.107  30.765  31.120  1.00  0.00     0.064 A 
ATOM     85  C   UNL A   1      38.076  31.505  30.524  1.00  0.00     0.173 A 
ATOM     86  C   UNL A   1      38.992  30.473  32.487  1.00  0.00     0.173 A 
ATOM     87  F   UNL A   1      38.151  31.831  29.225  1.00  0.00    -0.203 F 
ATOM     88  C   UNL A   1      36.985  31.950  31.268  1.00  0.00     0.198 A 
ATOM     89  C   UNL A   1      37.887  30.895  33.224  1.00  0.00     0.198 A 
ATOM     90  F   UNL A   1      39.950  29.769  33.106  1.00  0.00    -0.203 F 
ATOM     91  F   UNL A   1      36.036  32.694  30.681  1.00  0.00    -0.200 F 
ATOM     92  C   UNL A   1      36.889  31.641  32.616  1.00  0.00     0.200 A 
ATOM     93  F   UNL A   1      37.791  30.583  34.524  1.00  0.00    -0.200 F 
ATOM     94  F   UNL A   1      35.838  32.066  33.329  1.00  0.00    -0.200 F 
ENDBRANCH  60  84
BRANCH  72  95
ATOM     95  C   UNL A   1      45.010  33.902  29.133  1.00  0.00     0.064 A 
ATOM     96  C   UNL A   1      45.838  34.241  30.212  1.00  0.00     0.173 A 
ATOM     97  C   UNL A   1      44.711  34.899  28.192  1.00  0.00     0.173 A 
ATOM     98  F   UNL A   1      46.141  33.325  31.144  1.00  0.00    -0.203 F 
ATOM     99  C   UNL A   1      46.329  35.535  30.356  1.00  0.00     0.198 A 
ATOM    100  C   UNL A   1      45.229  36.184  28.322  1.00  0.00     0.198 A 
ATOM    101  F   UNL A   1      43.930  34.622  27.138  1.00  0.00    -0.203 F 
ATOM    102  F   UNL A   1      47.082  35.850  31.419  1.00  0.00    -0.200 F 
ATOM    103  C   UNL A   1      46.031  36.503  29.407  1.00  0.00     0.200 A 
ATOM    104  F   UNL A   1      44.953  37.113  27.397  1.00  0.00    -0.200 F 
ATOM    105  F   UNL A   1      46.512  37.746  29.542  1.00  0.00    -0.200 F 
ENDBRANCH  72  95
ENDBRANCH  46  47
ENDBRANCH  39  41
ENDBRANCH  38  39
ENDBRANCH  37  38
ENDBRANCH  36  37
ENDBRANCH  35  36
ENDBRANCH   1  35
TORSDOF 19
ENDMDL
MODEL 3
REMARK VINA RESULT:     -11.9      1.111      2.014
REMARK SMILES O=C(OCCOCCOC(=O)c1ccc(-c2c3nc(c(-c4c(F)c(F)c(F)c(F)c4F)c4ccc([nH]4)c(-c4c(F)c(F)c(F)c(F)c4F)c4nc(c(-c5c(F)c(F)c(F)c(F)c5F)c5ccc2[nH]5)C=C4)C=C3)cc1)c1ccc(/[NH+]=C2\S[C@@H](Cc3ccc(F)cc3)C(=O)N2Cc2ccccc2)cc1
REMARK SMILES IDX 5 1 4 2 3 3 2 4 1 5 75 6 76 7 102 8 77 9 101 10 78 11 79 12
REMARK SMILES IDX 80 13 81 15 93 16 82 17 91 18 92 19 94 20 95 21 96 22 100 23
REMARK SMILES IDX 97 24 99 25 98 26 83 27 84 28 85 29 90 30 86 31 89 32 87 33
REMARK SMILES IDX 88 34 6 35 7 36 8 37 9 38 10 39 11 40 12 41 13 42 74 43
REMARK SMILES IDX 14 44 73 45 15 46 16 47 17 48 67 49 18 50 72 51 66 52 68 53
REMARK SMILES IDX 19 54 71 55 65 56 64 57 20 59 52 60 32 61 51 62 33 63 36 64
REMARK SMILES IDX 50 65 69 66 34 67 35 68 49 70 70 71 37 72 21 73 22 74 30 75
REMARK SMILES IDX 23 76 24 77 28 78 31 79 25 80 26 81 29 82 27 83 53 84 54 85
REMARK SMILES IDX 62 86 55 87 56 88 60 89 63 90 57 91 58 92 61 93 59 94 38 95
REMARK SMILES IDX 39 96 47 97 40 98 41 99 45 100 48 101 42 102 43 103 46 104
REMARK SMILES IDX 44 105
REMARK H PARENT 79 14 68 58 36 69
REMARK Flexibility Score: inf
ROOT
ATOM      1  C   UNL A   1      34.026  34.592  30.939  1.00  0.00     0.202 C 
ENDROOT
BRANCH   1   2
ATOM      2  C   UNL A   1      34.757  34.263  29.635  1.00  0.00     0.261 C 
BRANCH   2   3
ATOM      3  O   UNL A   1      34.407  32.936  29.200  1.00  0.00    -0.460 OA
BRANCH   3   4
ATOM      4  C   UNL A   1      33.656  32.568  28.136  1.00  0.00     0.338 C 
ATOM      5  O   UNL A   1      32.903  33.395  27.625  1.00  0.00    -0.246 OA
BRANCH   4   6
ATOM      6  C   UNL A   1      33.701  31.205  27.536  1.00  0.00     0.060 A 
ATOM      7  C   UNL A   1      34.819  30.376  27.567  1.00  0.00     0.020 A 
ATOM      8  C   UNL A   1      32.505  30.683  27.013  1.00  0.00     0.020 A 
ATOM      9  C   UNL A   1      34.776  29.095  27.040  1.00  0.00     0.052 A 
ATOM     10  C   UNL A   1      32.452  29.380  26.499  1.00  0.00     0.052 A 
ATOM     11  C   UNL A   1      33.603  28.596  26.486  1.00  0.00     0.125 A 
BRANCH  11  12
ATOM     12  N   UNL A   1      33.662  27.317  25.934  1.00  0.00    -0.235 N 
ATOM     13  C   UNL A   1      32.618  26.866  25.323  1.00  0.00     0.320 C 
ATOM     14  H   UNL A   1      34.478  26.771  26.008  1.00  0.00     0.313 HD
ATOM     15  S   UNL A   1      31.008  27.541  25.373  1.00  0.00    -0.022 SA
ATOM     16  N   UNL A   1      32.661  25.784  24.489  1.00  0.00    -0.186 N 
ATOM     17  C   UNL A   1      30.292  26.009  24.726  1.00  0.00     0.178 C 
ATOM     18  C   UNL A   1      31.450  25.341  23.995  1.00  0.00     0.324 C 
ATOM     19  O   UNL A   1      31.320  24.478  23.136  1.00  0.00    -0.245 OA
BRANCH  16  20
ATOM     20  C   UNL A   1      33.921  25.208  24.035  1.00  0.00     0.283 C 
BRANCH  20  21
ATOM     21  C   UNL A   1      34.260  23.898  24.728  1.00  0.00    -0.006 A 
ATOM     22  C   UNL A   1      34.376  23.828  26.123  1.00  0.00     0.008 A 
ATOM     23  C   UNL A   1      34.461  22.725  23.985  1.00  0.00     0.008 A 
ATOM     24  C   UNL A   1      34.686  22.617  26.751  1.00  0.00     0.000 A 
ATOM     25  C   UNL A   1      34.737  21.509  24.612  1.00  0.00     0.000 A 
ATOM     26  C   UNL A   1      34.854  21.456  25.997  1.00  0.00     0.000 A 
ENDBRANCH  20  21
ENDBRANCH  16  20
BRANCH  17  27
ATOM     27  C   UNL A   1      29.066  26.315  23.874  1.00  0.00     0.063 C 
BRANCH  27  28
ATOM     28  C   UNL A   1      29.103  27.702  23.272  1.00  0.00    -0.046 A 
ATOM     29  C   UNL A   1      30.252  28.140  22.598  1.00  0.00     0.007 A 
ATOM     30  C   UNL A   1      27.995  28.558  23.368  1.00  0.00     0.007 A 
ATOM     31  C   UNL A   1      30.280  29.400  22.002  1.00  0.00     0.039 A 
ATOM     32  C   UNL A   1      28.022  29.814  22.762  1.00  0.00     0.039 A 
ATOM     33  C   UNL A   1      29.162  30.221  22.081  1.00  0.00     0.123 A 
ATOM     34  F   UNL A   1      29.184  31.424  21.493  1.00  0.00    -0.207 F 
ENDBRANCH  27  28
ENDBRANCH  17  27
ENDBRANCH  11  12
ENDBRANCH   4   6
ENDBRANCH   3   4
ENDBRANCH   2   3
ENDBRANCH   1   2
BRANCH   1  35
ATOM     35  O   UNL A   1      33.972  33.505  31.863  1.00  0.00    -0.374 OA
BRANCH  35  36
ATOM     36  C   UNL A   1      33.833  33.866  33.244  1.00  0.00     0.202 C 
BRANCH  36  37
ATOM     37  C   UNL A   1      35.095  33.453  34.005  1.00  0.00     0.261 C 
BRANCH  37  38
ATOM     38  O   UNL A   1      35.990  32.838  33.068  1.00  0.00    -0.460 OA
BRANCH  38  39
ATOM     39  C   UNL A   1      37.049  33.610  32.721  1.00  0.00     0.338 C 
ATOM     40  O   UNL A   1      37.287  34.751  33.080  1.00  0.00    -0.246 OA
BRANCH  39  41
ATOM     41  C   UNL A   1      38.007  32.758  31.985  1.00  0.00     0.060 A 
ATOM     42  C   UNL A   1      38.914  31.988  32.726  1.00  0.00     0.016 A 
ATOM     43  C   UNL A   1      37.987  32.676  30.588  1.00  0.00     0.016 A 
ATOM     44  C   UNL A   1      39.835  31.172  32.072  1.00  0.00     0.010 A 
ATOM     45  C   UNL A   1      38.905  31.861  29.933  1.00  0.00     0.010 A 
ATOM     46  C   UNL A   1      39.857  31.141  30.673  1.00  0.00    -0.014 A 
BRANCH  46  47
ATOM     47  C   UNL A   1      41.009  30.554  29.959  1.00  0.00     0.031 A 
ATOM     48  C   UNL A   1      42.182  31.449  29.682  1.00  0.00     0.074 A 
ATOM     49  C   UNL A   1      40.993  29.278  29.543  1.00  0.00     0.049 A 
ATOM     50  N   UNL A   1      43.265  31.214  28.990  1.00  0.00    -0.248 NA
ATOM     51  C   UNL A   1      42.115  32.806  30.255  1.00  0.00     0.031 C 
ATOM     52  C   UNL A   1      39.913  28.324  29.781  1.00  0.00     0.029 A 
ATOM     53  N   UNL A   1      41.915  28.574  28.814  1.00  0.00    -0.354 N 
ATOM     54  C   UNL A   1      44.001  32.391  29.039  1.00  0.00     0.074 A 
ATOM     55  C   UNL A   1      43.228  33.351  29.793  1.00  0.00     0.031 C 
ATOM     56  C   UNL A   1      40.228  27.156  29.193  1.00  0.00     0.029 A 
ATOM     57  C   UNL A   1      41.516  27.295  28.515  1.00  0.00     0.049 A 
ATOM     58  H   UNL A   1      42.780  28.948  28.532  1.00  0.00     0.167 HD
ATOM     59  C   UNL A   1      45.219  32.641  28.508  1.00  0.00     0.037 A 
ATOM     60  C   UNL A   1      42.122  26.360  27.759  1.00  0.00     0.037 A 
ATOM     61  C   UNL A   1      45.973  31.679  27.753  1.00  0.00     0.049 A 
ATOM     62  C   UNL A   1      43.452  26.684  27.127  1.00  0.00     0.074 A 
ATOM     63  C   UNL A   1      47.222  31.817  27.177  1.00  0.00     0.029 A 
ATOM     64  N   UNL A   1      45.536  30.393  27.464  1.00  0.00    -0.354 N 
ATOM     65  N   UNL A   1      44.159  27.787  27.199  1.00  0.00    -0.248 NA
ATOM     66  C   UNL A   1      44.070  25.629  26.311  1.00  0.00     0.031 C 
ATOM     67  C   UNL A   1      47.521  30.630  26.502  1.00  0.00     0.029 A 
ATOM     68  C   UNL A   1      46.483  29.734  26.702  1.00  0.00     0.049 A 
ATOM     69  H   UNL A   1      44.679  30.009  27.759  1.00  0.00     0.167 HD
ATOM     70  C   UNL A   1      45.316  27.550  26.467  1.00  0.00     0.074 A 
ATOM     71  C   UNL A   1      45.219  26.194  25.967  1.00  0.00     0.031 C 
ATOM     72  C   UNL A   1      46.364  28.377  26.230  1.00  0.00     0.037 A 
BRANCH  59  73
ATOM     73  C   UNL A   1      45.792  34.013  28.713  1.00  0.00     0.064 A 
ATOM     74  C   UNL A   1      46.598  34.317  29.820  1.00  0.00     0.173 A 
ATOM     75  C   UNL A   1      45.539  35.035  27.785  1.00  0.00     0.173 A 
ATOM     76  F   UNL A   1      46.851  33.381  30.748  1.00  0.00    -0.203 F 
ATOM     77  C   UNL A   1      47.108  35.599  30.005  1.00  0.00     0.198 A 
ATOM     78  C   UNL A   1      46.075  36.308  27.957  1.00  0.00     0.198 A 
ATOM     79  F   UNL A   1      44.771  34.799  26.711  1.00  0.00    -0.203 F 
ATOM     80  F   UNL A   1      47.833  35.879  31.097  1.00  0.00    -0.200 F 
ATOM     81  C   UNL A   1      46.853  36.591  29.071  1.00  0.00     0.200 A 
ATOM     82  F   UNL A   1      45.834  37.264  27.050  1.00  0.00    -0.200 F 
ATOM     83  F   UNL A   1      47.348  37.823  29.248  1.00  0.00    -0.200 F 
ENDBRANCH  59  73
BRANCH  60  84
ATOM     84  C   UNL A   1      41.484  25.032  27.561  1.00  0.00     0.064 A 
ATOM     85  C   UNL A   1      40.366  24.887  26.729  1.00  0.00     0.173 A 
ATOM     86  C   UNL A   1      41.968  23.884  28.207  1.00  0.00     0.173 A 
ATOM     87  F   UNL A   1      39.851  25.959  26.108  1.00  0.00    -0.203 F 
ATOM     88  C   UNL A   1      39.746  23.650  26.563  1.00  0.00     0.198 A 
ATOM     89  C   UNL A   1      41.364  22.643  28.019  1.00  0.00     0.198 A 
ATOM     90  F   UNL A   1      43.035  23.968  29.015  1.00  0.00    -0.203 F 
ATOM     91  F   UNL A   1      38.651  23.550  25.796  1.00  0.00    -0.200 F 
ATOM     92  C   UNL A   1      40.248  22.528  27.204  1.00  0.00     0.200 A 
ATOM     93  F   UNL A   1      41.860  21.558  28.630  1.00  0.00    -0.200 F 
ATOM     94  F   UNL A   1      39.653  21.339  27.042  1.00  0.00    -0.200 F 
ENDBRANCH  60  84
BRANCH  72  95
ATOM     95  C   UNL A   1      47.509  27.825  25.432  1.00  0.00     0.064 A 
ATOM     96  C   UNL A   1      48.628  27.247  26.048  1.00  0.00     0.173 A 
ATOM     97  C   UNL A   1      47.458  27.829  24.029  1.00  0.00     0.173 A 
ATOM     98  F   UNL A   1      48.728  27.230  27.386  1.00  0.00    -0.203 F 
ATOM     99  C   UNL A   1      49.667  26.717  25.289  1.00  0.00     0.198 A 
ATOM    100  C   UNL A   1      48.483  27.270  23.274  1.00  0.00     0.198 A 
ATOM    101  F   UNL A   1      46.404  28.362  23.392  1.00  0.00    -0.203 F 
ATOM    102  F   UNL A   1      50.748  26.211  25.897  1.00  0.00    -0.200 F 
ATOM    103  C   UNL A   1      49.590  26.722  23.903  1.00  0.00     0.200 A 
ATOM    104  F   UNL A   1      48.401  27.262  21.936  1.00  0.00    -0.200 F 
ATOM    105  F   UNL A   1      50.586  26.201  23.174  1.00  0.00    -0.200 F 
ENDBRANCH  72  95
ENDBRANCH  46  47
ENDBRANCH  39  41
ENDBRANCH  38  39
ENDBRANCH  37  38
ENDBRANCH  36  37
ENDBRANCH  35  36
ENDBRANCH   1  35
TORSDOF 19
ENDMDL
