MODEL 1
REMARK VINA RESULT:     -11.9      0.000      0.000
REMARK SMILES C[C@H]1[C@@H]([NH2+]C[C@H]2CC[C@@H](C(=O)OCCOCCOC(=O)c3ccc(-c4c5nc(c(-c6c(F)c(F)c(F)c(F)c6F)c6ccc([nH]6)c(-c6c(F)c(F)c(F)c(F)c6F)c6nc(c(-c7c(F)c(F)c(F)c(F)c7F)c7ccc4[nH]7)C=C6)C=C5)cc3)CC2)CCC[C@@H]1C
REMARK SMILES IDX 14 1 13 2 12 3 10 4 11 5 9 6 6 7 7 8 85 9 8 10 84 11 5 12
REMARK SMILES IDX 4 13 3 16 1 17 2 18 89 19 86 20 88 21 90 22 87 23 15 24
REMARK SMILES IDX 16 25 17 26 18 27 19 28 20 29 21 30 22 31 83 32 23 33 82 34
REMARK SMILES IDX 24 35 25 36 26 37 76 38 27 39 81 40 75 41 77 42 28 43 80 44
REMARK SMILES IDX 74 45 73 46 29 48 61 49 41 50 60 51 42 52 45 53 59 54 78 55
REMARK SMILES IDX 43 56 44 57 58 59 79 60 46 61 30 62 31 63 39 64 32 65 33 66
REMARK SMILES IDX 37 67 40 68 34 69 35 70 38 71 36 72 62 73 63 74 71 75 64 76
REMARK SMILES IDX 65 77 69 78 72 79 66 80 67 81 70 82 68 83 47 84 48 85 56 86
REMARK SMILES IDX 49 87 50 88 54 89 57 90 51 91 52 92 55 93 53 94
REMARK H PARENT 4 14 4 15 77 47 45 58
REMARK Flexibility Score: inf
ROOT
ATOM      1  C   UNL A   1      42.885  19.031  26.090  1.00  0.00     0.202 C 
ENDROOT
BRANCH   1   2
ATOM      2  C   UNL A   1      41.815  19.390  27.125  1.00  0.00     0.261 C 
BRANCH   2   3
ATOM      3  O   UNL A   1      40.607  19.862  26.501  1.00  0.00    -0.463 OA
BRANCH   3   4
ATOM      4  C   UNL A   1      40.258  21.147  26.780  1.00  0.00     0.309 C 
ATOM      5  O   UNL A   1      40.669  21.793  27.736  1.00  0.00    -0.252 OA
BRANCH   4   6
ATOM      6  C   UNL A   1      39.233  21.703  25.803  1.00  0.00     0.099 C 
ATOM      7  C   UNL A   1      36.410  22.460  25.150  1.00  0.00     0.044 C 
ATOM      8  C   UNL A   1      37.469  23.489  25.580  1.00  0.00     0.010 C 
ATOM      9  C   UNL A   1      37.123  21.318  24.403  1.00  0.00     0.010 C 
ATOM     10  C   UNL A   1      38.540  22.884  26.477  1.00  0.00     0.016 C 
ATOM     11  C   UNL A   1      38.241  20.673  25.234  1.00  0.00     0.016 C 
BRANCH   7  12
ATOM     12  C   UNL A   1      35.537  21.878  26.293  1.00  0.00     0.264 C 
BRANCH  12  13
ATOM     13  N   UNL A   1      34.765  20.716  25.880  1.00  0.00    -0.343 N 
ATOM     14  H   UNL A   1      35.049  20.472  24.931  1.00  0.00     0.346 HD
ATOM     15  H   UNL A   1      34.964  19.992  26.571  1.00  0.00     0.346 HD
BRANCH  13  16
ATOM     16  C   UNL A   1      33.303  20.883  25.885  1.00  0.00     0.185 C 
ATOM     17  C   UNL A   1      33.092  18.335  25.765  1.00  0.00     0.014 C 
ATOM     18  C   UNL A   1      32.646  19.671  25.153  1.00  0.00     0.047 C 
ATOM     19  C   UNL A   1      32.883  19.718  23.613  1.00  0.00    -0.006 C 
ATOM     20  C   UNL A   1      32.780  22.186  25.247  1.00  0.00     0.065 C 
ATOM     21  C   UNL A   1      32.429  21.065  23.025  1.00  0.00     0.004 C 
ATOM     22  C   UNL A   1      32.177  18.570  22.882  1.00  0.00     0.008 C 
ATOM     23  C   UNL A   1      33.045  22.257  23.747  1.00  0.00     0.006 C 
ENDBRANCH  13  16
ENDBRANCH  12  13
ENDBRANCH   7  12
ENDBRANCH   4   6
ENDBRANCH   3   4
ENDBRANCH   2   3
ENDBRANCH   1   2
BRANCH   1  24
ATOM     24  O   UNL A   1      43.042  19.934  24.996  1.00  0.00    -0.374 OA
BRANCH  24  25
ATOM     25  C   UNL A   1      44.120  20.864  25.072  1.00  0.00     0.202 C 
BRANCH  25  26
ATOM     26  C   UNL A   1      43.841  22.174  25.818  1.00  0.00     0.261 C 
BRANCH  26  27
ATOM     27  O   UNL A   1      43.210  23.154  24.975  1.00  0.00    -0.460 OA
BRANCH  27  28
ATOM     28  C   UNL A   1      43.781  24.380  25.016  1.00  0.00     0.338 C 
ATOM     29  O   UNL A   1      44.733  24.779  24.356  1.00  0.00    -0.246 OA
BRANCH  28  30
ATOM     30  C   UNL A   1      43.002  25.289  25.875  1.00  0.00     0.060 A 
ATOM     31  C   UNL A   1      43.571  26.534  26.170  1.00  0.00     0.016 A 
ATOM     32  C   UNL A   1      41.796  24.902  26.466  1.00  0.00     0.016 A 
ATOM     33  C   UNL A   1      42.974  27.371  27.108  1.00  0.00     0.010 A 
ATOM     34  C   UNL A   1      41.199  25.742  27.415  1.00  0.00     0.010 A 
ATOM     35  C   UNL A   1      41.810  26.958  27.772  1.00  0.00    -0.014 A 
BRANCH  35  36
ATOM     36  C   UNL A   1      41.346  27.727  28.953  1.00  0.00     0.031 A 
ATOM     37  C   UNL A   1      42.117  27.617  30.241  1.00  0.00     0.074 A 
ATOM     38  C   UNL A   1      40.293  28.558  28.866  1.00  0.00     0.049 A 
ATOM     39  N   UNL A   1      41.908  28.211  31.389  1.00  0.00    -0.248 NA
ATOM     40  C   UNL A   1      43.283  26.720  30.230  1.00  0.00     0.031 C 
ATOM     41  C   UNL A   1      39.495  28.785  27.664  1.00  0.00     0.029 A 
ATOM     42  N   UNL A   1      39.719  29.369  29.813  1.00  0.00    -0.354 N 
ATOM     43  C   UNL A   1      42.912  27.757  32.236  1.00  0.00     0.074 A 
ATOM     44  C   UNL A   1      43.711  26.816  31.481  1.00  0.00     0.031 C 
ATOM     45  C   UNL A   1      38.531  29.679  27.946  1.00  0.00     0.029 A 
ATOM     46  C   UNL A   1      38.631  30.066  29.352  1.00  0.00     0.049 A 
ATOM     47  H   UNL A   1      40.057  29.444  30.734  1.00  0.00     0.167 HD
ATOM     48  C   UNL A   1      43.152  28.102  33.523  1.00  0.00     0.037 A 
ATOM     49  C   UNL A   1      37.803  30.910  29.999  1.00  0.00     0.037 A 
ATOM     50  C   UNL A   1      42.362  29.041  34.273  1.00  0.00     0.049 A 
ATOM     51  C   UNL A   1      38.050  31.221  31.452  1.00  0.00     0.074 A 
ATOM     52  C   UNL A   1      42.538  29.471  35.577  1.00  0.00     0.029 A 
ATOM     53  N   UNL A   1      41.238  29.690  33.786  1.00  0.00    -0.354 N 
ATOM     54  N   UNL A   1      39.017  30.810  32.237  1.00  0.00    -0.248 NA
ATOM     55  C   UNL A   1      37.089  32.120  32.109  1.00  0.00     0.031 C 
ATOM     56  C   UNL A   1      41.493  30.345  35.894  1.00  0.00     0.029 A 
ATOM     57  C   UNL A   1      40.694  30.498  34.772  1.00  0.00     0.049 A 
ATOM     58  H   UNL A   1      40.880  29.592  32.875  1.00  0.00     0.167 HD
ATOM     59  C   UNL A   1      38.800  31.420  33.465  1.00  0.00     0.074 A 
ATOM     60  C   UNL A   1      37.613  32.238  33.321  1.00  0.00     0.031 C 
ATOM     61  C   UNL A   1      39.518  31.314  34.610  1.00  0.00     0.037 A 
BRANCH  48  62
ATOM     62  C   UNL A   1      44.309  27.437  34.210  1.00  0.00     0.064 A 
ATOM     63  C   UNL A   1      44.177  26.188  34.835  1.00  0.00     0.173 A 
ATOM     64  C   UNL A   1      45.572  28.048  34.221  1.00  0.00     0.173 A 
ATOM     65  F   UNL A   1      42.987  25.570  34.864  1.00  0.00    -0.203 F 
ATOM     66  C   UNL A   1      45.263  25.587  35.467  1.00  0.00     0.198 A 
ATOM     67  C   UNL A   1      46.661  27.431  34.832  1.00  0.00     0.198 A 
ATOM     68  F   UNL A   1      45.751  29.241  33.636  1.00  0.00    -0.203 F 
ATOM     69  F   UNL A   1      45.104  24.414  36.097  1.00  0.00    -0.200 F 
ATOM     70  C   UNL A   1      46.504  26.205  35.461  1.00  0.00     0.200 A 
ATOM     71  F   UNL A   1      47.862  28.025  34.816  1.00  0.00    -0.200 F 
ATOM     72  F   UNL A   1      47.548  25.623  36.068  1.00  0.00    -0.200 F 
ENDBRANCH  48  62
BRANCH  49  73
ATOM     73  C   UNL A   1      36.657  31.523  29.279  1.00  0.00     0.064 A 
ATOM     74  C   UNL A   1      36.652  32.886  28.957  1.00  0.00     0.173 A 
ATOM     75  C   UNL A   1      35.538  30.760  28.913  1.00  0.00     0.173 A 
ATOM     76  F   UNL A   1      37.688  33.661  29.310  1.00  0.00    -0.203 F 
ATOM     77  C   UNL A   1      35.562  33.469  28.312  1.00  0.00     0.198 A 
ATOM     78  C   UNL A   1      34.460  31.338  28.246  1.00  0.00     0.198 A 
ATOM     79  F   UNL A   1      35.493  29.452  29.201  1.00  0.00    -0.203 F 
ATOM     80  F   UNL A   1      35.563  34.784  28.056  1.00  0.00    -0.200 F 
ATOM     81  C   UNL A   1      34.471  32.694  27.952  1.00  0.00     0.200 A 
ATOM     82  F   UNL A   1      33.413  30.583  27.889  1.00  0.00    -0.200 F 
ATOM     83  F   UNL A   1      33.424  33.254  27.330  1.00  0.00    -0.200 F 
ENDBRANCH  49  73
BRANCH  61  84
ATOM     84  C   UNL A   1      39.066  32.128  35.787  1.00  0.00     0.064 A 
ATOM     85  C   UNL A   1      38.237  31.587  36.782  1.00  0.00     0.173 A 
ATOM     86  C   UNL A   1      39.500  33.454  35.942  1.00  0.00     0.173 A 
ATOM     87  F   UNL A   1      37.784  30.329  36.671  1.00  0.00    -0.203 F 
ATOM     88  C   UNL A   1      37.839  32.352  37.875  1.00  0.00     0.198 A 
ATOM     89  C   UNL A   1      39.123  34.206  37.051  1.00  0.00     0.198 A 
ATOM     90  F   UNL A   1      40.300  34.015  35.023  1.00  0.00    -0.203 F 
ATOM     91  F   UNL A   1      37.011  31.831  38.790  1.00  0.00    -0.200 F 
ATOM     92  C   UNL A   1      38.288  33.657  38.013  1.00  0.00     0.200 A 
ATOM     93  F   UNL A   1      39.567  35.463  37.189  1.00  0.00    -0.200 F 
ATOM     94  F   UNL A   1      37.909  34.390  39.069  1.00  0.00    -0.200 F 
ENDBRANCH  61  84
ENDBRANCH  35  36
ENDBRANCH  28  30
ENDBRANCH  27  28
ENDBRANCH  26  27
ENDBRANCH  25  26
ENDBRANCH  24  25
ENDBRANCH   1  24
TORSDOF 17
ENDMDL
MODEL 2
REMARK VINA RESULT:     -11.7      1.030      2.332
REMARK SMILES C[C@H]1[C@@H]([NH2+]C[C@H]2CC[C@@H](C(=O)OCCOCCOC(=O)c3ccc(-c4c5nc(c(-c6c(F)c(F)c(F)c(F)c6F)c6ccc([nH]6)c(-c6c(F)c(F)c(F)c(F)c6F)c6nc(c(-c7c(F)c(F)c(F)c(F)c7F)c7ccc4[nH]7)C=C6)C=C5)cc3)CC2)CCC[C@@H]1C
REMARK SMILES IDX 14 1 13 2 12 3 10 4 11 5 9 6 6 7 7 8 85 9 8 10 84 11 5 12
REMARK SMILES IDX 4 13 3 16 1 17 2 18 89 19 86 20 88 21 90 22 87 23 15 24
REMARK SMILES IDX 16 25 17 26 18 27 19 28 20 29 21 30 22 31 83 32 23 33 82 34
REMARK SMILES IDX 24 35 25 36 26 37 76 38 27 39 81 40 75 41 77 42 28 43 80 44
REMARK SMILES IDX 74 45 73 46 29 48 61 49 41 50 60 51 42 52 45 53 59 54 78 55
REMARK SMILES IDX 43 56 44 57 58 59 79 60 46 61 30 62 31 63 39 64 32 65 33 66
REMARK SMILES IDX 37 67 40 68 34 69 35 70 38 71 36 72 62 73 63 74 71 75 64 76
REMARK SMILES IDX 65 77 69 78 72 79 66 80 67 81 70 82 68 83 47 84 48 85 56 86
REMARK SMILES IDX 49 87 50 88 54 89 57 90 51 91 52 92 55 93 53 94
REMARK H PARENT 4 14 4 15 77 47 45 58
REMARK Flexibility Score: inf
ROOT
ATOM      1  C   UNL A   1      42.706  19.207  26.234  1.00  0.00     0.202 C 
ENDROOT
BRANCH   1   2
ATOM      2  C   UNL A   1      41.334  19.657  26.744  1.00  0.00     0.261 C 
BRANCH   2   3
ATOM      3  O   UNL A   1      40.760  20.675  25.905  1.00  0.00    -0.463 OA
BRANCH   3   4
ATOM      4  C   UNL A   1      39.885  21.522  26.513  1.00  0.00     0.309 C 
ATOM      5  O   UNL A   1      39.955  21.881  27.682  1.00  0.00    -0.252 OA
BRANCH   4   6
ATOM      6  C   UNL A   1      38.744  21.943  25.599  1.00  0.00     0.099 C 
ATOM      7  C   UNL A   1      35.881  22.730  25.211  1.00  0.00     0.044 C 
ATOM      8  C   UNL A   1      37.024  23.757  25.280  1.00  0.00     0.010 C 
ATOM      9  C   UNL A   1      36.439  21.428  24.608  1.00  0.00     0.010 C 
ATOM     10  C   UNL A   1      38.196  23.269  26.120  1.00  0.00     0.016 C 
ATOM     11  C   UNL A   1      37.647  20.886  25.385  1.00  0.00     0.016 C 
BRANCH   7  12
ATOM     12  C   UNL A   1      35.169  22.427  26.555  1.00  0.00     0.264 C 
BRANCH  12  13
ATOM     13  N   UNL A   1      33.893  23.114  26.688  1.00  0.00    -0.343 N 
ATOM     14  H   UNL A   1      33.274  22.521  27.241  1.00  0.00     0.346 HD
ATOM     15  H   UNL A   1      34.107  24.011  27.125  1.00  0.00     0.346 HD
BRANCH  13  16
ATOM     16  C   UNL A   1      33.204  23.436  25.429  1.00  0.00     0.185 C 
ATOM     17  C   UNL A   1      34.024  25.846  25.689  1.00  0.00     0.014 C 
ATOM     18  C   UNL A   1      32.807  24.946  25.433  1.00  0.00     0.047 C 
ATOM     19  C   UNL A   1      31.639  25.242  26.422  1.00  0.00    -0.006 C 
ATOM     20  C   UNL A   1      31.946  22.597  25.125  1.00  0.00     0.065 C 
ATOM     21  C   UNL A   1      30.434  24.327  26.145  1.00  0.00     0.004 C 
ATOM     22  C   UNL A   1      31.197  26.708  26.375  1.00  0.00     0.008 C 
ATOM     23  C   UNL A   1      30.813  22.851  26.114  1.00  0.00     0.006 C 
ENDBRANCH  13  16
ENDBRANCH  12  13
ENDBRANCH   7  12
ENDBRANCH   4   6
ENDBRANCH   3   4
ENDBRANCH   2   3
ENDBRANCH   1   2
BRANCH   1  24
ATOM     24  O   UNL A   1      43.085  19.667  24.938  1.00  0.00    -0.374 OA
BRANCH  24  25
ATOM     25  C   UNL A   1      44.190  20.565  24.865  1.00  0.00     0.202 C 
BRANCH  25  26
ATOM     26  C   UNL A   1      44.105  21.826  25.731  1.00  0.00     0.261 C 
BRANCH  26  27
ATOM     27  O   UNL A   1      43.292  22.847  25.122  1.00  0.00    -0.460 OA
BRANCH  27  28
ATOM     28  C   UNL A   1      43.850  24.080  25.122  1.00  0.00     0.338 C 
ATOM     29  O   UNL A   1      44.783  24.473  24.433  1.00  0.00    -0.246 OA
BRANCH  28  30
ATOM     30  C   UNL A   1      43.077  25.001  25.974  1.00  0.00     0.060 A 
ATOM     31  C   UNL A   1      43.615  26.276  26.190  1.00  0.00     0.016 A 
ATOM     32  C   UNL A   1      41.911  24.603  26.633  1.00  0.00     0.016 A 
ATOM     33  C   UNL A   1      43.030  27.134  27.116  1.00  0.00     0.010 A 
ATOM     34  C   UNL A   1      41.326  25.465  27.569  1.00  0.00     0.010 A 
ATOM     35  C   UNL A   1      41.911  26.715  27.846  1.00  0.00    -0.014 A 
BRANCH  35  36
ATOM     36  C   UNL A   1      41.471  27.520  29.012  1.00  0.00     0.031 A 
ATOM     37  C   UNL A   1      42.257  27.436  30.293  1.00  0.00     0.074 A 
ATOM     38  C   UNL A   1      40.426  28.361  28.916  1.00  0.00     0.049 A 
ATOM     39  N   UNL A   1      42.071  28.062  31.427  1.00  0.00    -0.248 NA
ATOM     40  C   UNL A   1      43.413  26.525  30.291  1.00  0.00     0.031 C 
ATOM     41  C   UNL A   1      39.615  28.565  27.719  1.00  0.00     0.029 A 
ATOM     42  N   UNL A   1      39.874  29.204  29.848  1.00  0.00    -0.354 N 
ATOM     43  C   UNL A   1      43.080  27.620  32.273  1.00  0.00     0.074 A 
ATOM     44  C   UNL A   1      43.858  26.649  31.533  1.00  0.00     0.031 C 
ATOM     45  C   UNL A   1      38.665  29.477  27.989  1.00  0.00     0.029 A 
ATOM     46  C   UNL A   1      38.788  29.901  29.383  1.00  0.00     0.049 A 
ATOM     47  H   UNL A   1      40.225  29.299  30.763  1.00  0.00     0.167 HD
ATOM     48  C   UNL A   1      43.341  27.996  33.547  1.00  0.00     0.037 A 
ATOM     49  C   UNL A   1      37.978  30.772  30.018  1.00  0.00     0.037 A 
ATOM     50  C   UNL A   1      42.572  28.964  34.282  1.00  0.00     0.049 A 
ATOM     51  C   UNL A   1      38.248  31.119  31.458  1.00  0.00     0.074 A 
ATOM     52  C   UNL A   1      42.770  29.427  35.571  1.00  0.00     0.029 A 
ATOM     53  N   UNL A   1      41.449  29.613  33.792  1.00  0.00    -0.354 N 
ATOM     54  N   UNL A   1      39.220  30.717  32.241  1.00  0.00    -0.248 NA
ATOM     55  C   UNL A   1      37.306  32.045  32.103  1.00  0.00     0.031 C 
ATOM     56  C   UNL A   1      41.739  30.322  35.878  1.00  0.00     0.029 A 
ATOM     57  C   UNL A   1      40.927  30.453  34.762  1.00  0.00     0.049 A 
ATOM     58  H   UNL A   1      41.077  29.495  32.888  1.00  0.00     0.167 HD
ATOM     59  C   UNL A   1      39.026  31.362  33.456  1.00  0.00     0.074 A 
ATOM     60  C   UNL A   1      37.847  32.190  33.305  1.00  0.00     0.031 C 
ATOM     61  C   UNL A   1      39.758  31.279  34.593  1.00  0.00     0.037 A 
BRANCH  48  62
ATOM     62  C   UNL A   1      44.499  27.337  34.237  1.00  0.00     0.064 A 
ATOM     63  C   UNL A   1      45.786  27.894  34.214  1.00  0.00     0.173 A 
ATOM     64  C   UNL A   1      44.311  26.145  34.953  1.00  0.00     0.173 A 
ATOM     65  F   UNL A   1      46.020  29.024  33.531  1.00  0.00    -0.203 F 
ATOM     66  C   UNL A   1      46.848  27.268  34.862  1.00  0.00     0.198 A 
ATOM     67  C   UNL A   1      45.371  25.536  35.622  1.00  0.00     0.198 A 
ATOM     68  F   UNL A   1      43.100  25.573  35.009  1.00  0.00    -0.203 F 
ATOM     69  F   UNL A   1      48.079  27.793  34.788  1.00  0.00    -0.200 F 
ATOM     70  C   UNL A   1      46.639  26.093  35.569  1.00  0.00     0.200 A 
ATOM     71  F   UNL A   1      45.164  24.407  36.313  1.00  0.00    -0.200 F 
ATOM     72  F   UNL A   1      47.662  25.494  36.194  1.00  0.00    -0.200 F 
ENDBRANCH  48  62
BRANCH  49  73
ATOM     73  C   UNL A   1      36.830  31.378  29.296  1.00  0.00     0.064 A 
ATOM     74  C   UNL A   1      36.840  32.730  28.930  1.00  0.00     0.173 A 
ATOM     75  C   UNL A   1      35.694  30.621  28.973  1.00  0.00     0.173 A 
ATOM     76  F   UNL A   1      37.893  33.500  29.240  1.00  0.00    -0.203 F 
ATOM     77  C   UNL A   1      35.749  33.308  28.283  1.00  0.00     0.198 A 
ATOM     78  C   UNL A   1      34.614  31.194  28.304  1.00  0.00     0.198 A 
ATOM     79  F   UNL A   1      35.634  29.324  29.305  1.00  0.00    -0.203 F 
ATOM     80  F   UNL A   1      35.765  34.614  27.984  1.00  0.00    -0.200 F 
ATOM     81  C   UNL A   1      34.640  32.539  27.966  1.00  0.00     0.200 A 
ATOM     82  F   UNL A   1      33.550  30.444  27.990  1.00  0.00    -0.200 F 
ATOM     83  F   UNL A   1      33.592  33.094  27.342  1.00  0.00    -0.200 F 
ENDBRANCH  49  73
BRANCH  61  84
ATOM     84  C   UNL A   1      39.331  32.129  35.754  1.00  0.00     0.064 A 
ATOM     85  C   UNL A   1      39.851  33.416  35.955  1.00  0.00     0.173 A 
ATOM     86  C   UNL A   1      38.357  31.665  36.653  1.00  0.00     0.173 A 
ATOM     87  F   UNL A   1      40.794  33.899  35.132  1.00  0.00    -0.203 F 
ATOM     88  C   UNL A   1      39.432  34.197  37.029  1.00  0.00     0.198 A 
ATOM     89  C   UNL A   1      37.920  32.461  37.709  1.00  0.00     0.198 A 
ATOM     90  F   UNL A   1      37.823  30.444  36.500  1.00  0.00    -0.203 F 
ATOM     91  F   UNL A   1      39.975  35.406  37.229  1.00  0.00    -0.200 F 
ATOM     92  C   UNL A   1      38.462  33.723  37.900  1.00  0.00     0.200 A 
ATOM     93  F   UNL A   1      36.975  32.005  38.542  1.00  0.00    -0.200 F 
ATOM     94  F   UNL A   1      38.055  34.479  38.929  1.00  0.00    -0.200 F 
ENDBRANCH  61  84
ENDBRANCH  35  36
ENDBRANCH  28  30
ENDBRANCH  27  28
ENDBRANCH  26  27
ENDBRANCH  25  26
ENDBRANCH  24  25
ENDBRANCH   1  24
TORSDOF 17
ENDMDL
MODEL 3
REMARK VINA RESULT:     -11.1      4.927      7.519
REMARK SMILES C[C@H]1[C@@H]([NH2+]C[C@H]2CC[C@@H](C(=O)OCCOCCOC(=O)c3ccc(-c4c5nc(c(-c6c(F)c(F)c(F)c(F)c6F)c6ccc([nH]6)c(-c6c(F)c(F)c(F)c(F)c6F)c6nc(c(-c7c(F)c(F)c(F)c(F)c7F)c7ccc4[nH]7)C=C6)C=C5)cc3)CC2)CCC[C@@H]1C
REMARK SMILES IDX 14 1 13 2 12 3 10 4 11 5 9 6 6 7 7 8 85 9 8 10 84 11 5 12
REMARK SMILES IDX 4 13 3 16 1 17 2 18 89 19 86 20 88 21 90 22 87 23 15 24
REMARK SMILES IDX 16 25 17 26 18 27 19 28 20 29 21 30 22 31 83 32 23 33 82 34
REMARK SMILES IDX 24 35 25 36 26 37 76 38 27 39 81 40 75 41 77 42 28 43 80 44
REMARK SMILES IDX 74 45 73 46 29 48 61 49 41 50 60 51 42 52 45 53 59 54 78 55
REMARK SMILES IDX 43 56 44 57 58 59 79 60 46 61 30 62 31 63 39 64 32 65 33 66
REMARK SMILES IDX 37 67 40 68 34 69 35 70 38 71 36 72 62 73 63 74 71 75 64 76
REMARK SMILES IDX 65 77 69 78 72 79 66 80 67 81 70 82 68 83 47 84 48 85 56 86
REMARK SMILES IDX 49 87 50 88 54 89 57 90 51 91 52 92 55 93 53 94
REMARK H PARENT 4 14 4 15 77 47 45 58
REMARK Flexibility Score: inf
ROOT
ATOM      1  C   UNL A   1      37.043  22.017  24.227  1.00  0.00     0.202 C 
ENDROOT
BRANCH   1   2
ATOM      2  C   UNL A   1      36.691  23.472  24.554  1.00  0.00     0.261 C 
BRANCH   2   3
ATOM      3  O   UNL A   1      35.299  23.622  24.883  1.00  0.00    -0.463 OA
BRANCH   3   4
ATOM      4  C   UNL A   1      34.460  23.833  23.832  1.00  0.00     0.309 C 
ATOM      5  O   UNL A   1      34.796  24.297  22.750  1.00  0.00    -0.252 OA
BRANCH   4   6
ATOM      6  C   UNL A   1      33.014  23.488  24.157  1.00  0.00     0.099 C 
ATOM      7  C   UNL A   1      30.305  24.304  25.137  1.00  0.00     0.044 C 
ATOM      8  C   UNL A   1      30.646  24.180  23.642  1.00  0.00     0.010 C 
ATOM      9  C   UNL A   1      31.161  23.287  25.913  1.00  0.00     0.010 C 
ATOM     10  C   UNL A   1      32.120  24.433  23.357  1.00  0.00     0.016 C 
ATOM     11  C   UNL A   1      32.665  23.458  25.655  1.00  0.00     0.016 C 
BRANCH   7  12
ATOM     12  C   UNL A   1      30.482  25.718  25.750  1.00  0.00     0.264 C 
BRANCH  12  13
ATOM     13  N   UNL A   1      30.483  26.774  24.749  1.00  0.00    -0.343 N 
ATOM     14  H   UNL A   1      30.915  26.402  23.903  1.00  0.00     0.346 HD
ATOM     15  H   UNL A   1      29.507  27.045  24.631  1.00  0.00     0.346 HD
BRANCH  13  16
ATOM     16  C   UNL A   1      31.199  28.006  25.117  1.00  0.00     0.185 C 
ATOM     17  C   UNL A   1      30.936  28.788  22.695  1.00  0.00     0.014 C 
ATOM     18  C   UNL A   1      31.919  28.577  23.856  1.00  0.00     0.047 C 
ATOM     19  C   UNL A   1      33.144  27.710  23.436  1.00  0.00    -0.006 C 
ATOM     20  C   UNL A   1      32.234  27.860  26.251  1.00  0.00     0.065 C 
ATOM     21  C   UNL A   1      34.112  27.513  24.616  1.00  0.00     0.004 C 
ATOM     22  C   UNL A   1      33.897  28.308  22.243  1.00  0.00     0.008 C 
ATOM     23  C   UNL A   1      33.417  26.978  25.862  1.00  0.00     0.006 C 
ENDBRANCH  13  16
ENDBRANCH  12  13
ENDBRANCH   7  12
ENDBRANCH   4   6
ENDBRANCH   3   4
ENDBRANCH   2   3
ENDBRANCH   1   2
BRANCH   1  24
ATOM     24  O   UNL A   1      37.511  21.217  25.311  1.00  0.00    -0.374 OA
BRANCH  24  25
ATOM     25  C   UNL A   1      37.896  19.877  25.011  1.00  0.00     0.202 C 
BRANCH  25  26
ATOM     26  C   UNL A   1      39.212  19.390  25.626  1.00  0.00     0.261 C 
BRANCH  26  27
ATOM     27  O   UNL A   1      40.200  20.435  25.693  1.00  0.00    -0.460 OA
BRANCH  27  28
ATOM     28  C   UNL A   1      40.928  20.446  26.833  1.00  0.00     0.338 C 
ATOM     29  O   UNL A   1      41.523  19.505  27.343  1.00  0.00    -0.246 OA
BRANCH  28  30
ATOM     30  C   UNL A   1      41.068  21.819  27.348  1.00  0.00     0.060 A 
ATOM     31  C   UNL A   1      40.468  22.844  26.605  1.00  0.00     0.016 A 
ATOM     32  C   UNL A   1      41.850  22.119  28.466  1.00  0.00     0.016 A 
ATOM     33  C   UNL A   1      40.702  24.176  26.935  1.00  0.00     0.010 A 
ATOM     34  C   UNL A   1      42.089  23.459  28.794  1.00  0.00     0.010 A 
ATOM     35  C   UNL A   1      41.554  24.492  28.002  1.00  0.00    -0.014 A 
BRANCH  35  36
ATOM     36  C   UNL A   1      42.009  25.894  28.167  1.00  0.00     0.031 A 
ATOM     37  C   UNL A   1      43.334  26.302  27.582  1.00  0.00     0.074 A 
ATOM     38  C   UNL A   1      41.230  26.806  28.773  1.00  0.00     0.049 A 
ATOM     39  N   UNL A   1      43.921  27.472  27.586  1.00  0.00    -0.248 NA
ATOM     40  C   UNL A   1      44.097  25.248  26.896  1.00  0.00     0.031 C 
ATOM     41  C   UNL A   1      39.909  26.545  29.339  1.00  0.00     0.029 A 
ATOM     42  N   UNL A   1      41.441  28.142  29.008  1.00  0.00    -0.354 N 
ATOM     43  C   UNL A   1      45.121  27.295  26.908  1.00  0.00     0.074 A 
ATOM     44  C   UNL A   1      45.194  25.899  26.534  1.00  0.00     0.031 C 
ATOM     45  C   UNL A   1      39.425  27.687  29.858  1.00  0.00     0.029 A 
ATOM     46  C   UNL A   1      40.413  28.751  29.682  1.00  0.00     0.049 A 
ATOM     47  H   UNL A   1      42.253  28.618  28.719  1.00  0.00     0.167 HD
ATOM     48  C   UNL A   1      46.070  28.214  26.616  1.00  0.00     0.037 A 
ATOM     49  C   UNL A   1      40.291  30.021  30.117  1.00  0.00     0.037 A 
ATOM     50  C   UNL A   1      45.997  29.603  26.983  1.00  0.00     0.049 A 
ATOM     51  C   UNL A   1      41.396  31.007  29.841  1.00  0.00     0.074 A 
ATOM     52  C   UNL A   1      46.900  30.617  26.714  1.00  0.00     0.029 A 
ATOM     53  N   UNL A   1      44.961  30.172  27.708  1.00  0.00    -0.354 N 
ATOM     54  N   UNL A   1      42.513  30.838  29.176  1.00  0.00    -0.248 NA
ATOM     55  C   UNL A   1      41.219  32.365  30.375  1.00  0.00     0.031 C 
ATOM     56  C   UNL A   1      46.432  31.790  27.316  1.00  0.00     0.029 A 
ATOM     57  C   UNL A   1      45.214  31.518  27.918  1.00  0.00     0.049 A 
ATOM     58  H   UNL A   1      44.163  29.691  28.025  1.00  0.00     0.167 HD
ATOM     59  C   UNL A   1      43.156  32.069  29.186  1.00  0.00     0.074 A 
ATOM     60  C   UNL A   1      42.299  32.981  29.915  1.00  0.00     0.031 C 
ATOM     61  C   UNL A   1      44.347  32.415  28.638  1.00  0.00     0.037 A 
BRANCH  48  62
ATOM     62  C   UNL A   1      47.288  27.738  25.879  1.00  0.00     0.064 A 
ATOM     63  C   UNL A   1      48.430  27.286  26.555  1.00  0.00     0.173 A 
ATOM     64  C   UNL A   1      47.300  27.709  24.476  1.00  0.00     0.173 A 
ATOM     65  F   UNL A   1      48.474  27.307  27.896  1.00  0.00    -0.203 F 
ATOM     66  C   UNL A   1      49.550  26.847  25.854  1.00  0.00     0.198 A 
ATOM     67  C   UNL A   1      48.413  27.244  23.779  1.00  0.00     0.198 A 
ATOM     68  F   UNL A   1      46.232  28.127  23.782  1.00  0.00    -0.203 F 
ATOM     69  F   UNL A   1      50.648  26.463  26.520  1.00  0.00    -0.200 F 
ATOM     70  C   UNL A   1      49.539  26.821  24.467  1.00  0.00     0.200 A 
ATOM     71  F   UNL A   1      48.395  27.211  22.439  1.00  0.00    -0.200 F 
ATOM     72  F   UNL A   1      50.617  26.396  23.794  1.00  0.00    -0.200 F 
ENDBRANCH  48  62
BRANCH  49  73
ATOM     73  C   UNL A   1      39.076  30.436  30.864  1.00  0.00     0.064 A 
ATOM     74  C   UNL A   1      37.963  30.963  30.197  1.00  0.00     0.173 A 
ATOM     75  C   UNL A   1      39.012  30.330  32.261  1.00  0.00     0.173 A 
ATOM     76  F   UNL A   1      37.988  31.107  28.864  1.00  0.00    -0.203 F 
ATOM     77  C   UNL A   1      36.836  31.384  30.900  1.00  0.00     0.198 A 
ATOM     78  C   UNL A   1      37.875  30.728  32.961  1.00  0.00     0.198 A 
ATOM     79  F   UNL A   1      40.053  29.835  32.947  1.00  0.00    -0.203 F 
ATOM     80  F   UNL A   1      35.802  31.925  30.242  1.00  0.00    -0.200 F 
ATOM     81  C   UNL A   1      36.790  31.261  32.281  1.00  0.00     0.200 A 
ATOM     82  F   UNL A   1      37.831  30.596  34.294  1.00  0.00    -0.200 F 
ATOM     83  F   UNL A   1      35.706  31.665  32.957  1.00  0.00    -0.200 F 
ENDBRANCH  49  73
BRANCH  61  84
ATOM     84  C   UNL A   1      44.779  33.846  28.774  1.00  0.00     0.064 A 
ATOM     85  C   UNL A   1      45.600  34.271  29.829  1.00  0.00     0.173 A 
ATOM     86  C   UNL A   1      44.401  34.796  27.812  1.00  0.00     0.173 A 
ATOM     87  F   UNL A   1      45.977  33.403  30.781  1.00  0.00    -0.203 F 
ATOM     88  C   UNL A   1      46.004  35.599  29.931  1.00  0.00     0.198 A 
ATOM     89  C   UNL A   1      44.830  36.117  27.902  1.00  0.00     0.198 A 
ATOM     90  F   UNL A   1      43.622  34.439  26.780  1.00  0.00    -0.203 F 
ATOM     91  F   UNL A   1      46.751  35.993  30.971  1.00  0.00    -0.200 F 
ATOM     92  C   UNL A   1      45.626  36.519  28.964  1.00  0.00     0.200 A 
ATOM     93  F   UNL A   1      44.473  37.002  26.961  1.00  0.00    -0.200 F 
ATOM     94  F   UNL A   1      46.021  37.796  29.061  1.00  0.00    -0.200 F 
ENDBRANCH  61  84
ENDBRANCH  35  36
ENDBRANCH  28  30
ENDBRANCH  27  28
ENDBRANCH  26  27
ENDBRANCH  25  26
ENDBRANCH  24  25
ENDBRANCH   1  24
TORSDOF 17
ENDMDL
