MODEL 1
REMARK VINA RESULT:      -9.4      0.000      0.000
REMARK SMILES C[C@@](CC(=O)Nc1ccc(NC(=O)c2ccco2)cc1)(C(=O)OCCOCCOC(=O)c1ccc(-c2c3nc(c(-c4c(F)c(F)c(F)c(F)c4F)c4ccc([nH]4)c(-c4c(F)c(F)c(F)c(F)c4F)c4nc(c(-c5c(F)c(F)c(F)c(F)c5F)c5ccc2[nH]5)C=C4)C=C3)cc1)c1ccccc1
REMARK SMILES IDX 24 1 23 2 21 3 22 4 2 5 1 6 3 7 4 8 5 9 6 10 7 12 8 13 20 14
REMARK SMILES IDX 9 15 19 16 10 17 11 18 12 19 13 21 14 22 15 23 18 24 16 25
REMARK SMILES IDX 17 26 95 27 96 28 100 29 97 30 99 31 98 32 25 33 26 34 27 35
REMARK SMILES IDX 28 36 29 37 30 38 31 39 32 40 33 41 94 42 34 43 93 44 35 45
REMARK SMILES IDX 36 46 37 47 87 48 38 49 92 50 86 51 88 52 39 53 91 54 85 55
REMARK SMILES IDX 84 56 40 58 72 59 52 60 71 61 53 62 56 63 70 64 89 65 54 66
REMARK SMILES IDX 55 67 69 69 90 70 57 71 41 72 42 73 50 74 43 75 44 76 48 77
REMARK SMILES IDX 51 78 45 79 46 80 49 81 47 82 73 83 74 84 82 85 75 86 76 87
REMARK SMILES IDX 80 88 83 89 77 90 78 91 81 92 79 93 58 94 59 95 67 96 60 97
REMARK SMILES IDX 61 98 65 99 68 100 62 101 63 102 66 103 64 104
REMARK H PARENT 6 11 11 20 88 57 56 68
REMARK Flexibility Score: inf
ROOT
ATOM      1  C   UNL A   1      34.801  35.356  33.680  1.00  0.00     0.261 C 
ENDROOT
BRANCH   1   2
ATOM      2  O   UNL A   1      36.162  34.898  33.706  1.00  0.00    -0.463 OA
BRANCH   2   3
ATOM      3  C   UNL A   1      36.334  33.561  33.899  1.00  0.00     0.316 C 
ATOM      4  O   UNL A   1      35.420  32.748  33.938  1.00  0.00    -0.251 OA
BRANCH   3   5
ATOM      5  C   UNL A   1      37.827  33.202  34.068  1.00  0.00     0.099 C 
ATOM      6  C   UNL A   1      38.580  34.060  35.112  1.00  0.00     0.029 C 
BRANCH   5   7
ATOM      7  C   UNL A   1      37.887  31.721  34.554  1.00  0.00     0.123 C 
BRANCH   7   8
ATOM      8  C   UNL A   1      37.959  30.588  33.503  1.00  0.00     0.225 C 
ATOM      9  O   UNL A   1      36.947  30.254  32.883  1.00  0.00    -0.275 OA
ATOM     10  N   UNL A   1      39.169  30.088  33.077  1.00  0.00    -0.326 N 
ATOM     11  H   UNL A   1      39.197  29.792  32.139  1.00  0.00     0.169 HD
BRANCH  10  12
ATOM     12  C   UNL A   1      40.364  29.942  33.787  1.00  0.00     0.041 A 
ATOM     13  C   UNL A   1      40.529  30.536  35.026  1.00  0.00     0.028 A 
ATOM     14  C   UNL A   1      41.450  29.290  33.232  1.00  0.00     0.028 A 
ATOM     15  C   UNL A   1      41.646  30.202  35.808  1.00  0.00     0.028 A 
ATOM     16  C   UNL A   1      42.527  28.892  34.027  1.00  0.00     0.028 A 
ATOM     17  C   UNL A   1      42.578  29.262  35.369  1.00  0.00     0.041 A 
BRANCH  17  18
ATOM     18  N   UNL A   1      43.518  28.582  36.166  1.00  0.00    -0.319 N 
ATOM     19  C   UNL A   1      43.609  27.290  36.642  1.00  0.00     0.291 C 
ATOM     20  H   UNL A   1      44.272  29.150  36.445  1.00  0.00     0.170 HD
ATOM     21  O   UNL A   1      44.686  26.945  37.131  1.00  0.00    -0.265 OA
BRANCH  19  22
ATOM     22  C   UNL A   1      42.470  26.417  36.585  1.00  0.00     0.191 A 
ATOM     23  C   UNL A   1      41.935  25.637  35.575  1.00  0.00     0.056 A 
ATOM     24  O   UNL A   1      41.705  26.299  37.711  1.00  0.00    -0.459 OA
ATOM     25  C   UNL A   1      40.742  25.074  36.098  1.00  0.00     0.043 A 
ATOM     26  C   UNL A   1      40.667  25.482  37.409  1.00  0.00     0.196 A 
ENDBRANCH  19  22
ENDBRANCH  17  18
ENDBRANCH  10  12
ENDBRANCH   7   8
ENDBRANCH   5   7
BRANCH   5  27
ATOM     27  C   UNL A   1      38.586  33.555  32.757  1.00  0.00    -0.030 A 
ATOM     28  C   UNL A   1      39.902  34.018  32.711  1.00  0.00     0.005 A 
ATOM     29  C   UNL A   1      37.871  33.498  31.531  1.00  0.00     0.005 A 
ATOM     30  C   UNL A   1      40.445  34.487  31.506  1.00  0.00     0.000 A 
ATOM     31  C   UNL A   1      38.393  34.010  30.346  1.00  0.00     0.000 A 
ATOM     32  C   UNL A   1      39.682  34.516  30.337  1.00  0.00     0.000 A 
ENDBRANCH   5  27
ENDBRANCH   3   5
ENDBRANCH   2   3
ENDBRANCH   1   2
BRANCH   1  33
ATOM     33  C   UNL A   1      34.414  35.704  32.242  1.00  0.00     0.202 C 
BRANCH  33  34
ATOM     34  O   UNL A   1      33.662  34.721  31.521  1.00  0.00    -0.374 OA
BRANCH  34  35
ATOM     35  C   UNL A   1      34.230  34.195  30.326  1.00  0.00     0.202 C 
BRANCH  35  36
ATOM     36  C   UNL A   1      34.445  32.675  30.260  1.00  0.00     0.261 C 
BRANCH  36  37
ATOM     37  O   UNL A   1      35.425  32.280  29.286  1.00  0.00    -0.460 OA
BRANCH  37  38
ATOM     38  C   UNL A   1      35.116  31.120  28.662  1.00  0.00     0.338 C 
ATOM     39  O   UNL A   1      34.045  30.820  28.142  1.00  0.00    -0.246 OA
BRANCH  38  40
ATOM     40  C   UNL A   1      36.297  30.255  28.525  1.00  0.00     0.060 A 
ATOM     41  C   UNL A   1      36.795  29.689  29.705  1.00  0.00     0.016 A 
ATOM     42  C   UNL A   1      36.985  30.112  27.319  1.00  0.00     0.016 A 
ATOM     43  C   UNL A   1      38.035  29.063  29.705  1.00  0.00     0.010 A 
ATOM     44  C   UNL A   1      38.237  29.482  27.320  1.00  0.00     0.010 A 
ATOM     45  C   UNL A   1      38.792  29.017  28.528  1.00  0.00    -0.014 A 
BRANCH  45  46
ATOM     46  C   UNL A   1      40.236  28.697  28.646  1.00  0.00     0.031 A 
ATOM     47  C   UNL A   1      41.139  29.688  29.334  1.00  0.00     0.074 A 
ATOM     48  C   UNL A   1      40.712  27.500  28.264  1.00  0.00     0.049 A 
ATOM     49  N   UNL A   1      42.407  29.584  29.646  1.00  0.00    -0.248 NA
ATOM     50  C   UNL A   1      40.529  30.968  29.727  1.00  0.00     0.031 C 
ATOM     51  C   UNL A   1      39.926  26.442  27.634  1.00  0.00     0.029 A 
ATOM     52  N   UNL A   1      41.972  26.966  28.374  1.00  0.00    -0.354 N 
ATOM     53  C   UNL A   1      42.741  30.781  30.268  1.00  0.00     0.074 A 
ATOM     54  C   UNL A   1      41.558  31.612  30.256  1.00  0.00     0.031 C 
ATOM     55  C   UNL A   1      40.719  25.377  27.423  1.00  0.00     0.029 A 
ATOM     56  C   UNL A   1      42.071  25.687  27.886  1.00  0.00     0.049 A 
ATOM     57  H   UNL A   1      42.732  27.455  28.765  1.00  0.00     0.167 HD
ATOM     58  C   UNL A   1      43.925  31.149  30.815  1.00  0.00     0.037 A 
ATOM     59  C   UNL A   1      43.135  24.862  27.825  1.00  0.00     0.037 A 
ATOM     60  C   UNL A   1      45.097  30.316  30.840  1.00  0.00     0.049 A 
ATOM     61  C   UNL A   1      44.453  25.315  28.399  1.00  0.00     0.074 A 
ATOM     62  C   UNL A   1      46.341  30.590  31.382  1.00  0.00     0.029 A 
ATOM     63  N   UNL A   1      45.169  29.042  30.297  1.00  0.00    -0.354 N 
ATOM     64  N   UNL A   1      44.752  26.437  29.008  1.00  0.00    -0.248 NA
ATOM     65  C   UNL A   1      45.578  24.376  28.288  1.00  0.00     0.031 C 
ATOM     66  C   UNL A   1      47.180  29.502  31.123  1.00  0.00     0.029 A 
ATOM     67  C   UNL A   1      46.443  28.526  30.471  1.00  0.00     0.049 A 
ATOM     68  H   UNL A   1      44.426  28.575  29.853  1.00  0.00     0.167 HD
ATOM     69  C   UNL A   1      46.085  26.325  29.385  1.00  0.00     0.074 A 
ATOM     70  C   UNL A   1      46.532  25.020  28.945  1.00  0.00     0.031 C 
ATOM     71  C   UNL A   1      46.867  27.218  30.039  1.00  0.00     0.037 A 
BRANCH  58  72
ATOM     72  C   UNL A   1      44.015  32.527  31.404  1.00  0.00     0.064 A 
ATOM     73  C   UNL A   1      44.248  33.661  30.609  1.00  0.00     0.173 A 
ATOM     74  C   UNL A   1      43.845  32.719  32.783  1.00  0.00     0.173 A 
ATOM     75  F   UNL A   1      44.434  33.530  29.286  1.00  0.00    -0.203 F 
ATOM     76  C   UNL A   1      44.333  34.930  31.177  1.00  0.00     0.198 A 
ATOM     77  C   UNL A   1      43.900  33.992  33.343  1.00  0.00     0.198 A 
ATOM     78  F   UNL A   1      43.618  31.670  33.589  1.00  0.00    -0.203 F 
ATOM     79  F   UNL A   1      44.605  35.991  30.406  1.00  0.00    -0.200 F 
ATOM     80  C   UNL A   1      44.152  35.095  32.542  1.00  0.00     0.200 A 
ATOM     81  F   UNL A   1      43.714  34.151  34.662  1.00  0.00    -0.200 F 
ATOM     82  F   UNL A   1      44.229  36.317  33.087  1.00  0.00    -0.200 F 
ENDBRANCH  58  72
BRANCH  59  83
ATOM     83  C   UNL A   1      42.997  23.516  27.211  1.00  0.00     0.064 A 
ATOM     84  C   UNL A   1      43.458  23.259  25.913  1.00  0.00     0.173 A 
ATOM     85  C   UNL A   1      42.378  22.464  27.903  1.00  0.00     0.173 A 
ATOM     86  F   UNL A   1      44.034  24.238  25.201  1.00  0.00    -0.203 F 
ATOM     87  C   UNL A   1      43.286  22.008  25.322  1.00  0.00     0.198 A 
ATOM     88  C   UNL A   1      42.232  21.206  27.322  1.00  0.00     0.198 A 
ATOM     89  F   UNL A   1      41.917  22.658  29.148  1.00  0.00    -0.203 F 
ATOM     90  F   UNL A   1      43.690  21.804  24.061  1.00  0.00    -0.200 F 
ATOM     91  C   UNL A   1      42.678  20.982  26.030  1.00  0.00     0.200 A 
ATOM     92  F   UNL A   1      41.654  20.215  28.014  1.00  0.00    -0.200 F 
ATOM     93  F   UNL A   1      42.513  19.780  25.461  1.00  0.00    -0.200 F 
ENDBRANCH  59  83
BRANCH  71  94
ATOM     94  C   UNL A   1      48.271  26.796  30.367  1.00  0.00     0.064 A 
ATOM     95  C   UNL A   1      49.352  27.098  29.525  1.00  0.00     0.173 A 
ATOM     96  C   UNL A   1      48.540  26.100  31.556  1.00  0.00     0.173 A 
ATOM     97  F   UNL A   1      49.146  27.751  28.371  1.00  0.00    -0.203 F 
ATOM     98  C   UNL A   1      50.644  26.689  29.845  1.00  0.00     0.198 A 
ATOM     99  C   UNL A   1      49.837  25.721  31.888  1.00  0.00     0.198 A 
ATOM    100  F   UNL A   1      47.544  25.795  32.401  1.00  0.00    -0.203 F 
ATOM    101  F   UNL A   1      51.651  26.939  28.998  1.00  0.00    -0.200 F 
ATOM    102  C   UNL A   1      50.886  26.007  31.027  1.00  0.00     0.200 A 
ATOM    103  F   UNL A   1      50.072  25.076  33.039  1.00  0.00    -0.200 F 
ATOM    104  F   UNL A   1      52.131  25.616  31.333  1.00  0.00    -0.200 F 
ENDBRANCH  71  94
ENDBRANCH  45  46
ENDBRANCH  38  40
ENDBRANCH  37  38
ENDBRANCH  36  37
ENDBRANCH  35  36
ENDBRANCH  34  35
ENDBRANCH  33  34
ENDBRANCH   1  33
TORSDOF 20
ENDMDL
MODEL 2
REMARK VINA RESULT:      -9.2      6.059     12.882
REMARK SMILES C[C@@](CC(=O)Nc1ccc(NC(=O)c2ccco2)cc1)(C(=O)OCCOCCOC(=O)c1ccc(-c2c3nc(c(-c4c(F)c(F)c(F)c(F)c4F)c4ccc([nH]4)c(-c4c(F)c(F)c(F)c(F)c4F)c4nc(c(-c5c(F)c(F)c(F)c(F)c5F)c5ccc2[nH]5)C=C4)C=C3)cc1)c1ccccc1
REMARK SMILES IDX 24 1 23 2 21 3 22 4 2 5 1 6 3 7 4 8 5 9 6 10 7 12 8 13 20 14
REMARK SMILES IDX 9 15 19 16 10 17 11 18 12 19 13 21 14 22 15 23 18 24 16 25
REMARK SMILES IDX 17 26 95 27 96 28 100 29 97 30 99 31 98 32 25 33 26 34 27 35
REMARK SMILES IDX 28 36 29 37 30 38 31 39 32 40 33 41 94 42 34 43 93 44 35 45
REMARK SMILES IDX 36 46 37 47 87 48 38 49 92 50 86 51 88 52 39 53 91 54 85 55
REMARK SMILES IDX 84 56 40 58 72 59 52 60 71 61 53 62 56 63 70 64 89 65 54 66
REMARK SMILES IDX 55 67 69 69 90 70 57 71 41 72 42 73 50 74 43 75 44 76 48 77
REMARK SMILES IDX 51 78 45 79 46 80 49 81 47 82 73 83 74 84 82 85 75 86 76 87
REMARK SMILES IDX 80 88 83 89 77 90 78 91 81 92 79 93 58 94 59 95 67 96 60 97
REMARK SMILES IDX 61 98 65 99 68 100 62 101 63 102 66 103 64 104
REMARK H PARENT 6 11 11 20 88 57 56 68
REMARK Flexibility Score: inf
ROOT
ATOM      1  C   UNL A   1      36.895  20.968  25.058  1.00  0.00     0.261 C 
ENDROOT
BRANCH   1   2
ATOM      2  O   UNL A   1      35.757  21.843  24.993  1.00  0.00    -0.463 OA
BRANCH   2   3
ATOM      3  C   UNL A   1      34.619  21.379  25.579  1.00  0.00     0.316 C 
ATOM      4  O   UNL A   1      34.474  21.240  26.788  1.00  0.00    -0.251 OA
BRANCH   3   5
ATOM      5  C   UNL A   1      33.537  21.047  24.528  1.00  0.00     0.099 C 
ATOM      6  C   UNL A   1      32.084  21.253  25.015  1.00  0.00     0.029 C 
BRANCH   5   7
ATOM      7  C   UNL A   1      33.763  22.012  23.323  1.00  0.00     0.123 C 
BRANCH   7   8
ATOM      8  C   UNL A   1      32.561  22.379  22.420  1.00  0.00     0.225 C 
ATOM      9  O   UNL A   1      32.109  21.553  21.623  1.00  0.00    -0.275 OA
ATOM     10  N   UNL A   1      31.835  23.529  22.634  1.00  0.00    -0.326 N 
ATOM     11  H   UNL A   1      30.876  23.470  22.420  1.00  0.00     0.169 HD
BRANCH  10  12
ATOM     12  C   UNL A   1      32.266  24.769  23.114  1.00  0.00     0.041 A 
ATOM     13  C   UNL A   1      32.726  25.744  22.246  1.00  0.00     0.028 A 
ATOM     14  C   UNL A   1      32.346  25.022  24.471  1.00  0.00     0.028 A 
ATOM     15  C   UNL A   1      32.950  27.044  22.724  1.00  0.00     0.028 A 
ATOM     16  C   UNL A   1      32.495  26.327  24.947  1.00  0.00     0.028 A 
ATOM     17  C   UNL A   1      32.693  27.377  24.054  1.00  0.00     0.041 A 
BRANCH  17  18
ATOM     18  N   UNL A   1      32.531  28.675  24.574  1.00  0.00    -0.319 N 
ATOM     19  C   UNL A   1      31.457  29.535  24.676  1.00  0.00     0.291 C 
ATOM     20  H   UNL A   1      33.363  29.050  24.944  1.00  0.00     0.170 HD
ATOM     21  O   UNL A   1      31.594  30.524  25.398  1.00  0.00    -0.265 OA
BRANCH  19  22
ATOM     22  C   UNL A   1      30.254  29.280  23.936  1.00  0.00     0.191 A 
ATOM     23  C   UNL A   1      29.612  28.112  23.562  1.00  0.00     0.056 A 
ATOM     24  O   UNL A   1      29.564  30.358  23.456  1.00  0.00    -0.459 OA
ATOM     25  C   UNL A   1      28.514  28.504  22.752  1.00  0.00     0.043 A 
ATOM     26  C   UNL A   1      28.512  29.879  22.747  1.00  0.00     0.196 A 
ENDBRANCH  19  22
ENDBRANCH  17  18
ENDBRANCH  10  12
ENDBRANCH   7   8
ENDBRANCH   5   7
BRANCH   5  27
ATOM     27  C   UNL A   1      33.565  19.520  24.235  1.00  0.00    -0.030 A 
ATOM     28  C   UNL A   1      34.593  18.663  24.632  1.00  0.00     0.005 A 
ATOM     29  C   UNL A   1      32.531  18.971  23.430  1.00  0.00     0.005 A 
ATOM     30  C   UNL A   1      34.630  17.340  24.167  1.00  0.00     0.000 A 
ATOM     31  C   UNL A   1      32.595  17.673  22.929  1.00  0.00     0.000 A 
ATOM     32  C   UNL A   1      33.654  16.859  23.292  1.00  0.00     0.000 A 
ENDBRANCH   5  27
ENDBRANCH   3   5
ENDBRANCH   2   3
ENDBRANCH   1   2
BRANCH   1  33
ATOM     33  C   UNL A   1      38.118  21.767  25.510  1.00  0.00     0.202 C 
BRANCH  33  34
ATOM     34  O   UNL A   1      39.336  21.034  25.689  1.00  0.00    -0.374 OA
BRANCH  34  35
ATOM     35  C   UNL A   1      40.262  21.512  26.660  1.00  0.00     0.202 C 
BRANCH  35  36
ATOM     36  C   UNL A   1      40.966  22.845  26.364  1.00  0.00     0.261 C 
BRANCH  36  37
ATOM     37  O   UNL A   1      40.197  23.994  26.751  1.00  0.00    -0.460 OA
BRANCH  37  38
ATOM     38  C   UNL A   1      40.839  25.163  26.525  1.00  0.00     0.338 C 
ATOM     39  O   UNL A   1      41.666  25.398  25.648  1.00  0.00    -0.246 OA
BRANCH  38  40
ATOM     40  C   UNL A   1      40.316  26.235  27.384  1.00  0.00     0.060 A 
ATOM     41  C   UNL A   1      40.877  27.506  27.208  1.00  0.00     0.016 A 
ATOM     42  C   UNL A   1      39.415  25.991  28.423  1.00  0.00     0.016 A 
ATOM     43  C   UNL A   1      40.620  28.513  28.130  1.00  0.00     0.010 A 
ATOM     44  C   UNL A   1      39.159  27.007  29.354  1.00  0.00     0.010 A 
ATOM     45  C   UNL A   1      39.815  28.247  29.244  1.00  0.00    -0.014 A 
BRANCH  45  46
ATOM     46  C   UNL A   1      39.873  29.198  30.382  1.00  0.00     0.031 A 
ATOM     47  C   UNL A   1      38.856  30.308  30.445  1.00  0.00     0.074 A 
ATOM     48  C   UNL A   1      40.728  29.006  31.400  1.00  0.00     0.049 A 
ATOM     49  N   UNL A   1      38.643  31.192  31.387  1.00  0.00    -0.248 NA
ATOM     50  C   UNL A   1      37.952  30.436  29.290  1.00  0.00     0.031 C 
ATOM     51  C   UNL A   1      41.722  27.939  31.476  1.00  0.00     0.029 A 
ATOM     52  N   UNL A   1      40.878  29.693  32.579  1.00  0.00    -0.354 N 
ATOM     53  C   UNL A   1      37.588  31.977  30.938  1.00  0.00     0.074 A 
ATOM     54  C   UNL A   1      37.228  31.493  29.624  1.00  0.00     0.031 C 
ATOM     55  C   UNL A   1      42.374  28.033  32.648  1.00  0.00     0.029 A 
ATOM     56  C   UNL A   1      41.855  29.178  33.394  1.00  0.00     0.049 A 
ATOM     57  H   UNL A   1      40.336  30.480  32.816  1.00  0.00     0.167 HD
ATOM     58  C   UNL A   1      36.964  33.000  31.570  1.00  0.00     0.037 A 
ATOM     59  C   UNL A   1      42.277  29.588  34.607  1.00  0.00     0.037 A 
ATOM     60  C   UNL A   1      37.313  33.471  32.883  1.00  0.00     0.049 A 
ATOM     61  C   UNL A   1      41.596  30.759  35.268  1.00  0.00     0.074 A 
ATOM     62  C   UNL A   1      36.735  34.492  33.618  1.00  0.00     0.029 A 
ATOM     63  N   UNL A   1      38.339  32.951  33.660  1.00  0.00    -0.354 N 
ATOM     64  N   UNL A   1      40.584  31.477  34.847  1.00  0.00    -0.248 NA
ATOM     65  C   UNL A   1      42.113  31.166  36.582  1.00  0.00     0.031 C 
ATOM     66  C   UNL A   1      37.442  34.622  34.818  1.00  0.00     0.029 A 
ATOM     67  C   UNL A   1      38.424  33.644  34.856  1.00  0.00     0.049 A 
ATOM     68  H   UNL A   1      38.920  32.201  33.398  1.00  0.00     0.167 HD
ATOM     69  C   UNL A   1      40.317  32.394  35.857  1.00  0.00     0.074 A 
ATOM     70  C   UNL A   1      41.270  32.132  36.916  1.00  0.00     0.031 C 
ATOM     71  C   UNL A   1      39.369  33.361  35.906  1.00  0.00     0.037 A 
BRANCH  58  72
ATOM     72  C   UNL A   1      35.858  33.697  30.832  1.00  0.00     0.064 A 
ATOM     73  C   UNL A   1      36.022  34.166  29.519  1.00  0.00     0.173 A 
ATOM     74  C   UNL A   1      34.607  33.878  31.441  1.00  0.00     0.173 A 
ATOM     75  F   UNL A   1      37.204  34.032  28.897  1.00  0.00    -0.203 F 
ATOM     76  C   UNL A   1      34.983  34.814  28.855  1.00  0.00     0.198 A 
ATOM     77  C   UNL A   1      33.562  34.500  30.763  1.00  0.00     0.198 A 
ATOM     78  F   UNL A   1      34.396  33.448  32.694  1.00  0.00    -0.203 F 
ATOM     79  F   UNL A   1      35.178  35.298  27.620  1.00  0.00    -0.200 F 
ATOM     80  C   UNL A   1      33.753  34.975  29.474  1.00  0.00     0.200 A 
ATOM     81  F   UNL A   1      32.370  34.644  31.359  1.00  0.00    -0.200 F 
ATOM     82  F   UNL A   1      32.753  35.594  28.832  1.00  0.00    -0.200 F 
ENDBRANCH  58  72
BRANCH  59  83
ATOM     83  C   UNL A   1      43.392  28.876  35.285  1.00  0.00     0.064 A 
ATOM     84  C   UNL A   1      43.148  27.807  36.157  1.00  0.00     0.173 A 
ATOM     85  C   UNL A   1      44.725  29.268  35.091  1.00  0.00     0.173 A 
ATOM     86  F   UNL A   1      41.889  27.411  36.395  1.00  0.00    -0.203 F 
ATOM     87  C   UNL A   1      44.192  27.172  36.827  1.00  0.00     0.198 A 
ATOM     88  C   UNL A   1      45.770  28.613  35.738  1.00  0.00     0.198 A 
ATOM     89  F   UNL A   1      45.012  30.287  34.267  1.00  0.00    -0.203 F 
ATOM     90  F   UNL A   1      43.927  26.185  37.695  1.00  0.00    -0.200 F 
ATOM     91  C   UNL A   1      45.502  27.572  36.612  1.00  0.00     0.200 A 
ATOM     92  F   UNL A   1      47.035  28.996  35.519  1.00  0.00    -0.200 F 
ATOM     93  F   UNL A   1      46.505  26.960  37.257  1.00  0.00    -0.200 F 
ENDBRANCH  59  83
BRANCH  71  94
ATOM     94  C   UNL A   1      39.278  34.175  37.166  1.00  0.00     0.064 A 
ATOM     95  C   UNL A   1      39.815  35.467  37.255  1.00  0.00     0.173 A 
ATOM     96  C   UNL A   1      38.618  33.659  38.293  1.00  0.00     0.173 A 
ATOM     97  F   UNL A   1      40.466  36.000  36.209  1.00  0.00    -0.203 F 
ATOM     98  C   UNL A   1      39.727  36.199  38.436  1.00  0.00     0.198 A 
ATOM     99  C   UNL A   1      38.503  34.407  39.461  1.00  0.00     0.198 A 
ATOM    100  F   UNL A   1      38.077  32.432  38.258  1.00  0.00    -0.203 F 
ATOM    101  F   UNL A   1      40.298  37.409  38.514  1.00  0.00    -0.200 F 
ATOM    102  C   UNL A   1      39.067  35.672  39.535  1.00  0.00     0.200 A 
ATOM    103  F   UNL A   1      37.850  33.902  40.517  1.00  0.00    -0.200 F 
ATOM    104  F   UNL A   1      38.981  36.380  40.670  1.00  0.00    -0.200 F 
ENDBRANCH  71  94
ENDBRANCH  45  46
ENDBRANCH  38  40
ENDBRANCH  37  38
ENDBRANCH  36  37
ENDBRANCH  35  36
ENDBRANCH  34  35
ENDBRANCH  33  34
ENDBRANCH   1  33
TORSDOF 20
ENDMDL
MODEL 3
REMARK VINA RESULT:      -9.2      5.763     12.163
REMARK SMILES C[C@@](CC(=O)Nc1ccc(NC(=O)c2ccco2)cc1)(C(=O)OCCOCCOC(=O)c1ccc(-c2c3nc(c(-c4c(F)c(F)c(F)c(F)c4F)c4ccc([nH]4)c(-c4c(F)c(F)c(F)c(F)c4F)c4nc(c(-c5c(F)c(F)c(F)c(F)c5F)c5ccc2[nH]5)C=C4)C=C3)cc1)c1ccccc1
REMARK SMILES IDX 24 1 23 2 21 3 22 4 2 5 1 6 3 7 4 8 5 9 6 10 7 12 8 13 20 14
REMARK SMILES IDX 9 15 19 16 10 17 11 18 12 19 13 21 14 22 15 23 18 24 16 25
REMARK SMILES IDX 17 26 95 27 96 28 100 29 97 30 99 31 98 32 25 33 26 34 27 35
REMARK SMILES IDX 28 36 29 37 30 38 31 39 32 40 33 41 94 42 34 43 93 44 35 45
REMARK SMILES IDX 36 46 37 47 87 48 38 49 92 50 86 51 88 52 39 53 91 54 85 55
REMARK SMILES IDX 84 56 40 58 72 59 52 60 71 61 53 62 56 63 70 64 89 65 54 66
REMARK SMILES IDX 55 67 69 69 90 70 57 71 41 72 42 73 50 74 43 75 44 76 48 77
REMARK SMILES IDX 51 78 45 79 46 80 49 81 47 82 73 83 74 84 82 85 75 86 76 87
REMARK SMILES IDX 80 88 83 89 77 90 78 91 81 92 79 93 58 94 59 95 67 96 60 97
REMARK SMILES IDX 61 98 65 99 68 100 62 101 63 102 66 103 64 104
REMARK H PARENT 6 11 11 20 88 57 56 68
REMARK Flexibility Score: inf
ROOT
ATOM      1  C   UNL A   1      36.823  20.825  25.237  1.00  0.00     0.261 C 
ENDROOT
BRANCH   1   2
ATOM      2  O   UNL A   1      35.682  21.688  25.107  1.00  0.00    -0.463 OA
BRANCH   2   3
ATOM      3  C   UNL A   1      34.608  21.373  25.883  1.00  0.00     0.316 C 
ATOM      4  O   UNL A   1      34.594  21.455  27.105  1.00  0.00    -0.251 OA
BRANCH   3   5
ATOM      5  C   UNL A   1      33.414  20.896  25.027  1.00  0.00     0.099 C 
ATOM      6  C   UNL A   1      32.030  21.101  25.686  1.00  0.00     0.029 C 
BRANCH   5   7
ATOM      7  C   UNL A   1      33.430  21.737  23.713  1.00  0.00     0.123 C 
BRANCH   7   8
ATOM      8  C   UNL A   1      32.198  21.696  22.780  1.00  0.00     0.225 C 
ATOM      9  O   UNL A   1      31.998  20.714  22.060  1.00  0.00    -0.275 OA
ATOM     10  N   UNL A   1      31.191  22.628  22.888  1.00  0.00    -0.326 N 
ATOM     11  H   UNL A   1      30.286  22.300  22.679  1.00  0.00     0.169 HD
BRANCH  10  12
ATOM     12  C   UNL A   1      31.270  23.975  23.254  1.00  0.00     0.041 A 
ATOM     13  C   UNL A   1      31.915  24.892  22.444  1.00  0.00     0.028 A 
ATOM     14  C   UNL A   1      30.800  24.411  24.480  1.00  0.00     0.028 A 
ATOM     15  C   UNL A   1      31.798  26.263  22.724  1.00  0.00     0.028 A 
ATOM     16  C   UNL A   1      30.614  25.773  24.729  1.00  0.00     0.028 A 
ATOM     17  C   UNL A   1      31.021  26.716  23.789  1.00  0.00     0.041 A 
BRANCH  17  18
ATOM     18  N   UNL A   1      30.533  28.025  23.970  1.00  0.00    -0.319 N 
ATOM     19  C   UNL A   1      31.050  29.164  24.552  1.00  0.00     0.291 C 
ATOM     20  H   UNL A   1      29.629  28.155  23.602  1.00  0.00     0.170 HD
ATOM     21  O   UNL A   1      30.455  30.223  24.343  1.00  0.00    -0.265 OA
BRANCH  19  22
ATOM     22  C   UNL A   1      32.214  29.083  25.389  1.00  0.00     0.191 A 
ATOM     23  C   UNL A   1      33.530  28.736  25.136  1.00  0.00     0.056 A 
ATOM     24  O   UNL A   1      32.063  29.373  26.716  1.00  0.00    -0.459 OA
ATOM     25  C   UNL A   1      34.193  28.750  26.390  1.00  0.00     0.043 A 
ATOM     26  C   UNL A   1      33.264  29.174  27.311  1.00  0.00     0.196 A 
ENDBRANCH  19  22
ENDBRANCH  17  18
ENDBRANCH  10  12
ENDBRANCH   7   8
ENDBRANCH   5   7
BRANCH   5  27
ATOM     27  C   UNL A   1      33.476  19.349  24.885  1.00  0.00    -0.030 A 
ATOM     28  C   UNL A   1      34.205  18.679  23.900  1.00  0.00     0.005 A 
ATOM     29  C   UNL A   1      32.667  18.561  25.747  1.00  0.00     0.005 A 
ATOM     30  C   UNL A   1      34.058  17.295  23.730  1.00  0.00     0.000 A 
ATOM     31  C   UNL A   1      32.484  17.196  25.545  1.00  0.00     0.000 A 
ATOM     32  C   UNL A   1      33.175  16.563  24.525  1.00  0.00     0.000 A 
ENDBRANCH   5  27
ENDBRANCH   3   5
ENDBRANCH   2   3
ENDBRANCH   1   2
BRANCH   1  33
ATOM     33  C   UNL A   1      38.075  21.675  25.454  1.00  0.00     0.202 C 
BRANCH  33  34
ATOM     34  O   UNL A   1      39.249  20.990  25.905  1.00  0.00    -0.374 OA
BRANCH  34  35
ATOM     35  C   UNL A   1      40.426  21.761  26.126  1.00  0.00     0.202 C 
BRANCH  35  36
ATOM     36  C   UNL A   1      41.772  21.023  26.070  1.00  0.00     0.261 C 
BRANCH  36  37
ATOM     37  O   UNL A   1      42.883  21.830  26.488  1.00  0.00    -0.460 OA
BRANCH  37  38
ATOM     38  C   UNL A   1      43.005  22.975  25.779  1.00  0.00     0.338 C 
ATOM     39  O   UNL A   1      43.297  23.084  24.591  1.00  0.00    -0.246 OA
BRANCH  38  40
ATOM     40  C   UNL A   1      42.589  24.142  26.570  1.00  0.00     0.060 A 
ATOM     41  C   UNL A   1      42.309  25.312  25.855  1.00  0.00     0.016 A 
ATOM     42  C   UNL A   1      42.607  24.145  27.967  1.00  0.00     0.016 A 
ATOM     43  C   UNL A   1      42.145  26.516  26.530  1.00  0.00     0.010 A 
ATOM     44  C   UNL A   1      42.444  25.360  28.646  1.00  0.00     0.010 A 
ATOM     45  C   UNL A   1      42.281  26.557  27.923  1.00  0.00    -0.014 A 
BRANCH  45  46
ATOM     46  C   UNL A   1      42.482  27.882  28.560  1.00  0.00     0.031 A 
ATOM     47  C   UNL A   1      43.874  28.460  28.596  1.00  0.00     0.074 A 
ATOM     48  C   UNL A   1      41.436  28.611  28.984  1.00  0.00     0.049 A 
ATOM     49  N   UNL A   1      44.278  29.637  29.003  1.00  0.00    -0.248 NA
ATOM     50  C   UNL A   1      44.956  27.594  28.100  1.00  0.00     0.031 C 
ATOM     51  C   UNL A   1      40.041  28.181  28.954  1.00  0.00     0.029 A 
ATOM     52  N   UNL A   1      41.387  29.882  29.501  1.00  0.00    -0.354 N 
ATOM     53  C   UNL A   1      45.655  29.649  28.814  1.00  0.00     0.074 A 
ATOM     54  C   UNL A   1      46.024  28.352  28.293  1.00  0.00     0.031 C 
ATOM     55  C   UNL A   1      39.268  29.176  29.422  1.00  0.00     0.029 A 
ATOM     56  C   UNL A   1      40.116  30.304  29.800  1.00  0.00     0.049 A 
ATOM     57  H   UNL A   1      42.189  30.436  29.645  1.00  0.00     0.167 HD
ATOM     58  C   UNL A   1      46.531  30.657  29.039  1.00  0.00     0.037 A 
ATOM     59  C   UNL A   1      39.691  31.473  30.319  1.00  0.00     0.037 A 
ATOM     60  C   UNL A   1      46.161  31.953  29.542  1.00  0.00     0.049 A 
ATOM     61  C   UNL A   1      40.694  32.562  30.605  1.00  0.00     0.074 A 
ATOM     62  C   UNL A   1      46.970  33.047  29.793  1.00  0.00     0.029 A 
ATOM     63  N   UNL A   1      44.867  32.328  29.875  1.00  0.00    -0.354 N 
ATOM     64  N   UNL A   1      41.989  32.573  30.399  1.00  0.00    -0.248 NA
ATOM     65  C   UNL A   1      40.169  33.806  31.184  1.00  0.00     0.031 C 
ATOM     66  C   UNL A   1      46.175  34.068  30.323  1.00  0.00     0.029 A 
ATOM     67  C   UNL A   1      44.860  33.630  30.349  1.00  0.00     0.049 A 
ATOM     68  H   UNL A   1      44.073  31.754  29.787  1.00  0.00     0.167 HD
ATOM     69  C   UNL A   1      42.427  33.834  30.786  1.00  0.00     0.074 A 
ATOM     70  C   UNL A   1      41.256  34.563  31.229  1.00  0.00     0.031 C 
ATOM     71  C   UNL A   1      43.683  34.344  30.772  1.00  0.00     0.037 A 
BRANCH  58  72
ATOM     72  C   UNL A   1      47.983  30.385  28.769  1.00  0.00     0.064 A 
ATOM     73  C   UNL A   1      48.790  29.689  29.683  1.00  0.00     0.173 A 
ATOM     74  C   UNL A   1      48.570  30.807  27.567  1.00  0.00     0.173 A 
ATOM     75  F   UNL A   1      48.281  29.277  30.855  1.00  0.00    -0.203 F 
ATOM     76  C   UNL A   1      50.135  29.451  29.415  1.00  0.00     0.198 A 
ATOM     77  C   UNL A   1      49.908  30.541  27.290  1.00  0.00     0.198 A 
ATOM     78  F   UNL A   1      47.843  31.475  26.658  1.00  0.00    -0.203 F 
ATOM     79  F   UNL A   1      50.899  28.828  30.324  1.00  0.00    -0.200 F 
ATOM     80  C   UNL A   1      50.692  29.870  28.216  1.00  0.00     0.200 A 
ATOM     81  F   UNL A   1      50.440  30.938  26.125  1.00  0.00    -0.200 F 
ATOM     82  F   UNL A   1      51.985  29.637  27.957  1.00  0.00    -0.200 F 
ENDBRANCH  58  72
BRANCH  59  83
ATOM     83  C   UNL A   1      38.244  31.684  30.588  1.00  0.00     0.064 A 
ATOM     84  C   UNL A   1      37.359  32.040  29.562  1.00  0.00     0.173 A 
ATOM     85  C   UNL A   1      37.724  31.556  31.884  1.00  0.00     0.173 A 
ATOM     86  F   UNL A   1      37.813  32.199  28.311  1.00  0.00    -0.203 F 
ATOM     87  C   UNL A   1      36.012  32.281  29.827  1.00  0.00     0.198 A 
ATOM     88  C   UNL A   1      36.371  31.769  32.142  1.00  0.00     0.198 A 
ATOM     89  F   UNL A   1      38.530  31.219  32.902  1.00  0.00    -0.203 F 
ATOM     90  F   UNL A   1      35.196  32.670  28.836  1.00  0.00    -0.200 F 
ATOM     91  C   UNL A   1      35.519  32.141  31.115  1.00  0.00     0.200 A 
ATOM     92  F   UNL A   1      35.898  31.622  33.387  1.00  0.00    -0.200 F 
ATOM     93  F   UNL A   1      34.223  32.373  31.368  1.00  0.00    -0.200 F 
ENDBRANCH  59  83
BRANCH  71  94
ATOM     94  C   UNL A   1      43.851  35.775  31.200  1.00  0.00     0.064 A 
ATOM     95  C   UNL A   1      43.835  36.831  30.278  1.00  0.00     0.173 A 
ATOM     96  C   UNL A   1      44.003  36.092  32.559  1.00  0.00     0.173 A 
ATOM     97  F   UNL A   1      43.703  36.580  28.966  1.00  0.00    -0.203 F 
ATOM     98  C   UNL A   1      44.001  38.149  30.696  1.00  0.00     0.198 A 
ATOM     99  C   UNL A   1      44.136  37.413  32.977  1.00  0.00     0.198 A 
ATOM    100  F   UNL A   1      44.015  35.121  33.484  1.00  0.00    -0.203 F 
ATOM    101  F   UNL A   1      44.039  39.136  29.790  1.00  0.00    -0.200 F 
ATOM    102  C   UNL A   1      44.145  38.439  32.044  1.00  0.00     0.200 A 
ATOM    103  F   UNL A   1      44.259  37.694  34.281  1.00  0.00    -0.200 F 
ATOM    104  F   UNL A   1      44.302  39.709  32.444  1.00  0.00    -0.200 F 
ENDBRANCH  71  94
ENDBRANCH  45  46
ENDBRANCH  38  40
ENDBRANCH  37  38
ENDBRANCH  36  37
ENDBRANCH  35  36
ENDBRANCH  34  35
ENDBRANCH  33  34
ENDBRANCH   1  33
TORSDOF 20
ENDMDL
