MODEL 1
REMARK VINA RESULT:     -11.3      0.000      0.000
REMARK SMILES COc1cc(OC)cc(-c2ccc([C@@H](C)C(=O)OCCOCCOC(=O)c3ccc(-c4c5nc(c(-c6c(F)c(F)c(F)c(F)c6F)c6ccc([nH]6)c(-c6c(F)c(F)c(F)c(F)c6F)c6nc(c(-c7c(F)c(F)c(F)c(F)c7F)c7ccc4[nH]7)C=C6)C=C5)cc3)cc2F)c1
REMARK SMILES IDX 20 1 19 2 18 3 16 4 17 5 14 6 15 7 13 8 10 9 11 10 91 11
REMARK SMILES IDX 12 12 90 13 92 14 9 15 3 16 4 17 93 18 5 19 8 20 2 21 1 22
REMARK SMILES IDX 6 23 7 24 21 25 22 26 23 27 24 28 25 29 26 30 27 31 28 32
REMARK SMILES IDX 89 33 29 34 88 35 30 36 31 37 32 38 82 39 33 40 87 41 81 42
REMARK SMILES IDX 83 43 34 44 86 45 80 46 79 47 35 49 67 50 47 51 66 52 48 53
REMARK SMILES IDX 51 54 65 55 84 56 49 57 50 58 64 60 85 61 52 62 36 63 37 64
REMARK SMILES IDX 45 65 38 66 39 67 43 68 46 69 40 70 41 71 44 72 42 73 68 74
REMARK SMILES IDX 69 75 77 76 70 77 71 78 75 79 78 80 72 81 73 82 76 83 74 84
REMARK SMILES IDX 53 85 54 86 62 87 55 88 56 89 60 90 63 91 57 92 58 93 61 94
REMARK SMILES IDX 59 95
REMARK H PARENT 83 48 51 59
REMARK Flexibility Score: inf
ROOT
ATOM      1  C   UNL A   1      32.854  36.118  30.975  1.00  0.00     0.202 C 
ENDROOT
BRANCH   1   2
ATOM      2  C   UNL A   1      32.966  35.832  29.477  1.00  0.00     0.261 C 
BRANCH   2   3
ATOM      3  O   UNL A   1      33.297  34.450  29.243  1.00  0.00    -0.463 OA
BRANCH   3   4
ATOM      4  C   UNL A   1      34.237  34.218  28.290  1.00  0.00     0.313 C 
ATOM      5  O   UNL A   1      34.442  34.948  27.326  1.00  0.00    -0.252 OA
BRANCH   4   6
ATOM      6  C   UNL A   1      35.006  32.922  28.492  1.00  0.00     0.126 C 
ATOM      7  C   UNL A   1      36.418  33.088  27.934  1.00  0.00     0.025 C 
BRANCH   6   8
ATOM      8  C   UNL A   1      34.354  31.626  28.019  1.00  0.00    -0.031 A 
ATOM      9  C   UNL A   1      33.283  29.230  26.887  1.00  0.00     0.018 A 
ATOM     10  C   UNL A   1      32.490  30.378  27.055  1.00  0.00     0.012 A 
ATOM     11  C   UNL A   1      34.602  29.294  27.354  1.00  0.00     0.131 A 
ATOM     12  C   UNL A   1      33.015  31.555  27.612  1.00  0.00     0.005 A 
ATOM     13  C   UNL A   1      35.133  30.462  27.908  1.00  0.00     0.044 A 
ATOM     14  F   UNL A   1      35.415  28.233  27.230  1.00  0.00    -0.206 F 
BRANCH   9  15
ATOM     15  C   UNL A   1      32.777  28.050  26.160  1.00  0.00    -0.008 A 
ATOM     16  C   UNL A   1      31.393  26.048  26.024  1.00  0.00     0.123 A 
ATOM     17  C   UNL A   1      31.962  25.742  24.787  1.00  0.00     0.092 A 
ATOM     18  C   UNL A   1      31.808  27.192  26.713  1.00  0.00     0.055 A 
ATOM     19  C   UNL A   1      32.925  26.573  24.218  1.00  0.00     0.123 A 
ATOM     20  C   UNL A   1      33.316  27.727  24.898  1.00  0.00     0.055 A 
BRANCH  16  21
ATOM     21  O   UNL A   1      30.489  25.127  26.479  1.00  0.00    -0.497 OA
ATOM     22  C   UNL A   1      30.911  23.771  26.451  1.00  0.00     0.278 C 
ENDBRANCH  16  21
BRANCH  19  23
ATOM     23  O   UNL A   1      33.402  26.155  23.006  1.00  0.00    -0.497 OA
ATOM     24  C   UNL A   1      33.386  24.755  22.759  1.00  0.00     0.278 C 
ENDBRANCH  19  23
ENDBRANCH   9  15
ENDBRANCH   6   8
ENDBRANCH   4   6
ENDBRANCH   3   4
ENDBRANCH   2   3
ENDBRANCH   1   2
BRANCH   1  25
ATOM     25  O   UNL A   1      32.812  34.970  31.822  1.00  0.00    -0.374 OA
BRANCH  25  26
ATOM     26  C   UNL A   1      33.911  34.769  32.712  1.00  0.00     0.202 C 
BRANCH  26  27
ATOM     27  C   UNL A   1      35.180  34.179  32.085  1.00  0.00     0.261 C 
BRANCH  27  28
ATOM     28  O   UNL A   1      35.212  32.744  32.185  1.00  0.00    -0.460 OA
BRANCH  28  29
ATOM     29  C   UNL A   1      36.177  32.247  32.991  1.00  0.00     0.338 C 
ATOM     30  O   UNL A   1      36.239  32.320  34.210  1.00  0.00    -0.246 OA
BRANCH  29  31
ATOM     31  C   UNL A   1      37.116  31.425  32.206  1.00  0.00     0.060 A 
ATOM     32  C   UNL A   1      38.101  30.716  32.907  1.00  0.00     0.016 A 
ATOM     33  C   UNL A   1      37.093  31.416  30.810  1.00  0.00     0.016 A 
ATOM     34  C   UNL A   1      39.103  30.039  32.214  1.00  0.00     0.010 A 
ATOM     35  C   UNL A   1      38.105  30.745  30.116  1.00  0.00     0.010 A 
ATOM     36  C   UNL A   1      39.135  30.088  30.815  1.00  0.00    -0.014 A 
BRANCH  36  37
ATOM     37  C   UNL A   1      40.337  29.615  30.087  1.00  0.00     0.031 A 
ATOM     38  C   UNL A   1      41.473  30.576  29.872  1.00  0.00     0.074 A 
ATOM     39  C   UNL A   1      40.428  28.350  29.639  1.00  0.00     0.049 A 
ATOM     40  N   UNL A   1      42.576  30.424  29.184  1.00  0.00    -0.248 NA
ATOM     41  C   UNL A   1      41.346  31.891  30.523  1.00  0.00     0.031 C 
ATOM     42  C   UNL A   1      39.426  27.307  29.841  1.00  0.00     0.029 A 
ATOM     43  N   UNL A   1      41.415  27.737  28.907  1.00  0.00    -0.354 N 
ATOM     44  C   UNL A   1      43.266  31.622  29.309  1.00  0.00     0.074 A 
ATOM     45  C   UNL A   1      42.451  32.500  30.120  1.00  0.00     0.031 C 
ATOM     46  C   UNL A   1      39.840  26.183  29.231  1.00  0.00     0.029 A 
ATOM     47  C   UNL A   1      41.116  26.441  28.564  1.00  0.00     0.049 A 
ATOM     48  H   UNL A   1      42.255  28.182  28.652  1.00  0.00     0.167 HD
ATOM     49  C   UNL A   1      44.474  31.958  28.798  1.00  0.00     0.037 A 
ATOM     50  C   UNL A   1      41.785  25.577  27.775  1.00  0.00     0.037 A 
ATOM     51  C   UNL A   1      45.283  31.083  27.992  1.00  0.00     0.049 A 
ATOM     52  C   UNL A   1      43.085  26.004  27.144  1.00  0.00     0.074 A 
ATOM     53  C   UNL A   1      46.518  31.333  27.419  1.00  0.00     0.029 A 
ATOM     54  N   UNL A   1      44.933  29.789  27.642  1.00  0.00    -0.354 N 
ATOM     55  N   UNL A   1      43.731  27.139  27.261  1.00  0.00    -0.248 NA
ATOM     56  C   UNL A   1      43.749  25.029  26.264  1.00  0.00     0.031 C 
ATOM     57  C   UNL A   1      46.897  30.202  26.690  1.00  0.00     0.029 A 
ATOM     58  C   UNL A   1      45.921  29.231  26.847  1.00  0.00     0.049 A 
ATOM     59  H   UNL A   1      44.105  29.333  27.919  1.00  0.00     0.167 HD
ATOM     60  C   UNL A   1      44.888  27.003  26.506  1.00  0.00     0.074 A 
ATOM     61  C   UNL A   1      44.859  25.675  25.933  1.00  0.00     0.031 C 
ATOM     62  C   UNL A   1      45.887  27.897  26.308  1.00  0.00     0.037 A 
BRANCH  49  63
ATOM     63  C   UNL A   1      44.981  33.341  29.076  1.00  0.00     0.064 A 
ATOM     64  C   UNL A   1      46.031  33.573  29.975  1.00  0.00     0.173 A 
ATOM     65  C   UNL A   1      44.429  34.446  28.409  1.00  0.00     0.173 A 
ATOM     66  F   UNL A   1      46.581  32.551  30.648  1.00  0.00    -0.203 F 
ATOM     67  C   UNL A   1      46.496  34.864  30.215  1.00  0.00     0.198 A 
ATOM     68  C   UNL A   1      44.914  35.732  28.632  1.00  0.00     0.198 A 
ATOM     69  F   UNL A   1      43.424  34.277  27.537  1.00  0.00    -0.203 F 
ATOM     70  F   UNL A   1      47.473  35.068  31.110  1.00  0.00    -0.200 F 
ATOM     71  C   UNL A   1      45.942  35.940  29.538  1.00  0.00     0.200 A 
ATOM     72  F   UNL A   1      44.384  36.770  27.969  1.00  0.00    -0.200 F 
ATOM     73  F   UNL A   1      46.395  37.182  29.765  1.00  0.00    -0.200 F 
ENDBRANCH  49  63
BRANCH  50  74
ATOM     74  C   UNL A   1      41.231  24.222  27.517  1.00  0.00     0.064 A 
ATOM     75  C   UNL A   1      41.819  23.082  28.081  1.00  0.00     0.173 A 
ATOM     76  C   UNL A   1      40.120  24.038  26.681  1.00  0.00     0.173 A 
ATOM     77  F   UNL A   1      42.900  23.204  28.865  1.00  0.00    -0.203 F 
ATOM     78  C   UNL A   1      41.328  21.807  27.804  1.00  0.00     0.198 A 
ATOM     79  C   UNL A   1      39.613  22.766  26.427  1.00  0.00     0.198 A 
ATOM     80  F   UNL A   1      39.523  25.097  26.114  1.00  0.00    -0.203 F 
ATOM     81  F   UNL A   1      41.938  20.731  28.318  1.00  0.00    -0.200 F 
ATOM     82  C   UNL A   1      40.222  21.651  26.981  1.00  0.00     0.200 A 
ATOM     83  F   UNL A   1      38.539  22.620  25.638  1.00  0.00    -0.200 F 
ATOM     84  F   UNL A   1      39.751  20.425  26.715  1.00  0.00    -0.200 F 
ENDBRANCH  50  74
BRANCH  62  85
ATOM     85  C   UNL A   1      47.061  27.457  25.484  1.00  0.00     0.064 A 
ATOM     86  C   UNL A   1      47.149  27.738  24.115  1.00  0.00     0.173 A 
ATOM     87  C   UNL A   1      48.142  26.799  26.093  1.00  0.00     0.173 A 
ATOM     88  F   UNL A   1      46.137  28.352  23.484  1.00  0.00    -0.203 F 
ATOM     89  C   UNL A   1      48.272  27.365  23.380  1.00  0.00     0.198 A 
ATOM     90  C   UNL A   1      49.273  26.450  25.360  1.00  0.00     0.198 A 
ATOM     91  F   UNL A   1      48.108  26.513  27.403  1.00  0.00    -0.203 F 
ATOM     92  F   UNL A   1      48.322  27.614  22.063  1.00  0.00    -0.200 F 
ATOM     93  C   UNL A   1      49.335  26.730  24.005  1.00  0.00     0.200 A 
ATOM     94  F   UNL A   1      50.304  25.849  25.969  1.00  0.00    -0.200 F 
ATOM     95  F   UNL A   1      50.420  26.383  23.297  1.00  0.00    -0.200 F 
ENDBRANCH  62  85
ENDBRANCH  36  37
ENDBRANCH  29  31
ENDBRANCH  28  29
ENDBRANCH  27  28
ENDBRANCH  26  27
ENDBRANCH  25  26
ENDBRANCH   1  25
TORSDOF 18
ENDMDL
MODEL 2
REMARK VINA RESULT:     -11.1      4.094      7.201
REMARK SMILES COc1cc(OC)cc(-c2ccc([C@@H](C)C(=O)OCCOCCOC(=O)c3ccc(-c4c5nc(c(-c6c(F)c(F)c(F)c(F)c6F)c6ccc([nH]6)c(-c6c(F)c(F)c(F)c(F)c6F)c6nc(c(-c7c(F)c(F)c(F)c(F)c7F)c7ccc4[nH]7)C=C6)C=C5)cc3)cc2F)c1
REMARK SMILES IDX 20 1 19 2 18 3 16 4 17 5 14 6 15 7 13 8 10 9 11 10 91 11
REMARK SMILES IDX 12 12 90 13 92 14 9 15 3 16 4 17 93 18 5 19 8 20 2 21 1 22
REMARK SMILES IDX 6 23 7 24 21 25 22 26 23 27 24 28 25 29 26 30 27 31 28 32
REMARK SMILES IDX 89 33 29 34 88 35 30 36 31 37 32 38 82 39 33 40 87 41 81 42
REMARK SMILES IDX 83 43 34 44 86 45 80 46 79 47 35 49 67 50 47 51 66 52 48 53
REMARK SMILES IDX 51 54 65 55 84 56 49 57 50 58 64 60 85 61 52 62 36 63 37 64
REMARK SMILES IDX 45 65 38 66 39 67 43 68 46 69 40 70 41 71 44 72 42 73 68 74
REMARK SMILES IDX 69 75 77 76 70 77 71 78 75 79 78 80 72 81 73 82 76 83 74 84
REMARK SMILES IDX 53 85 54 86 62 87 55 88 56 89 60 90 63 91 57 92 58 93 61 94
REMARK SMILES IDX 59 95
REMARK H PARENT 83 48 51 59
REMARK Flexibility Score: inf
ROOT
ATOM      1  C   UNL A   1      33.399  35.340  31.650  1.00  0.00     0.202 C 
ENDROOT
BRANCH   1   2
ATOM      2  C   UNL A   1      34.087  36.160  32.741  1.00  0.00     0.261 C 
BRANCH   2   3
ATOM      3  O   UNL A   1      35.436  35.703  32.952  1.00  0.00    -0.463 OA
BRANCH   3   4
ATOM      4  C   UNL A   1      35.569  34.547  33.653  1.00  0.00     0.313 C 
ATOM      5  O   UNL A   1      35.153  34.378  34.795  1.00  0.00    -0.252 OA
BRANCH   4   6
ATOM      6  C   UNL A   1      36.338  33.465  32.912  1.00  0.00     0.126 C 
ATOM      7  C   UNL A   1      36.673  32.336  33.884  1.00  0.00     0.025 C 
BRANCH   6   8
ATOM      8  C   UNL A   1      37.551  33.889  32.089  1.00  0.00    -0.031 A 
ATOM      9  C   UNL A   1      39.869  34.399  30.497  1.00  0.00     0.018 A 
ATOM     10  C   UNL A   1      39.884  34.579  31.890  1.00  0.00     0.012 A 
ATOM     11  C   UNL A   1      38.652  34.018  29.919  1.00  0.00     0.131 A 
ATOM     12  C   UNL A   1      38.747  34.330  32.674  1.00  0.00     0.005 A 
ATOM     13  C   UNL A   1      37.514  33.765  30.691  1.00  0.00     0.044 A 
ATOM     14  F   UNL A   1      38.562  33.831  28.591  1.00  0.00    -0.206 F 
BRANCH   9  15
ATOM     15  C   UNL A   1      41.103  34.509  29.697  1.00  0.00    -0.008 A 
ATOM     16  C   UNL A   1      42.446  35.573  27.963  1.00  0.00     0.123 A 
ATOM     17  C   UNL A   1      43.414  34.579  28.106  1.00  0.00     0.092 A 
ATOM     18  C   UNL A   1      41.290  35.531  28.748  1.00  0.00     0.055 A 
ATOM     19  C   UNL A   1      43.255  33.554  29.036  1.00  0.00     0.123 A 
ATOM     20  C   UNL A   1      42.110  33.532  29.835  1.00  0.00     0.055 A 
BRANCH  16  21
ATOM     21  O   UNL A   1      42.715  36.495  26.988  1.00  0.00    -0.497 OA
ATOM     22  C   UNL A   1      44.049  36.982  26.940  1.00  0.00     0.278 C 
ENDBRANCH  16  21
BRANCH  19  23
ATOM     23  O   UNL A   1      44.275  32.643  29.071  1.00  0.00    -0.497 OA
ATOM     24  C   UNL A   1      45.535  33.111  29.537  1.00  0.00     0.278 C 
ENDBRANCH  19  23
ENDBRANCH   9  15
ENDBRANCH   6   8
ENDBRANCH   4   6
ENDBRANCH   3   4
ENDBRANCH   2   3
ENDBRANCH   1   2
BRANCH   1  25
ATOM     25  O   UNL A   1      33.663  35.750  30.309  1.00  0.00    -0.374 OA
BRANCH  25  26
ATOM     26  C   UNL A   1      33.618  34.745  29.294  1.00  0.00     0.202 C 
BRANCH  26  27
ATOM     27  C   UNL A   1      34.350  33.438  29.614  1.00  0.00     0.261 C 
BRANCH  27  28
ATOM     28  O   UNL A   1      35.002  32.888  28.455  1.00  0.00    -0.460 OA
BRANCH  28  29
ATOM     29  C   UNL A   1      34.709  31.594  28.191  1.00  0.00     0.338 C 
ATOM     30  O   UNL A   1      33.688  31.152  27.685  1.00  0.00    -0.246 OA
BRANCH  29  31
ATOM     31  C   UNL A   1      35.887  30.747  28.452  1.00  0.00     0.060 A 
ATOM     32  C   UNL A   1      35.879  29.965  29.615  1.00  0.00     0.016 A 
ATOM     33  C   UNL A   1      37.012  30.781  27.627  1.00  0.00     0.016 A 
ATOM     34  C   UNL A   1      37.019  29.256  29.989  1.00  0.00     0.010 A 
ATOM     35  C   UNL A   1      38.159  30.078  28.009  1.00  0.00     0.010 A 
ATOM     36  C   UNL A   1      38.179  29.345  29.210  1.00  0.00    -0.014 A 
BRANCH  36  37
ATOM     37  C   UNL A   1      39.464  28.829  29.740  1.00  0.00     0.031 A 
ATOM     38  C   UNL A   1      40.122  29.565  30.874  1.00  0.00     0.074 A 
ATOM     39  C   UNL A   1      40.032  27.719  29.236  1.00  0.00     0.049 A 
ATOM     40  N   UNL A   1      41.288  29.365  31.434  1.00  0.00    -0.248 NA
ATOM     41  C   UNL A   1      39.359  30.682  31.456  1.00  0.00     0.031 C 
ATOM     42  C   UNL A   1      39.462  26.882  28.184  1.00  0.00     0.029 A 
ATOM     43  N   UNL A   1      41.226  27.115  29.542  1.00  0.00    -0.354 N 
ATOM     44  C   UNL A   1      41.402  30.333  32.423  1.00  0.00     0.074 A 
ATOM     45  C   UNL A   1      40.199  31.134  32.375  1.00  0.00     0.031 C 
ATOM     46  C   UNL A   1      40.316  25.879  27.917  1.00  0.00     0.029 A 
ATOM     47  C   UNL A   1      41.507  26.028  28.752  1.00  0.00     0.049 A 
ATOM     48  H   UNL A   1      41.823  27.430  30.258  1.00  0.00     0.167 HD
ATOM     49  C   UNL A   1      42.418  30.531  33.296  1.00  0.00     0.037 A 
ATOM     50  C   UNL A   1      42.616  25.263  28.692  1.00  0.00     0.037 A 
ATOM     51  C   UNL A   1      43.613  29.733  33.342  1.00  0.00     0.049 A 
ATOM     52  C   UNL A   1      43.771  25.560  29.614  1.00  0.00     0.074 A 
ATOM     53  C   UNL A   1      44.704  29.860  34.185  1.00  0.00     0.029 A 
ATOM     54  N   UNL A   1      43.875  28.659  32.506  1.00  0.00    -0.354 N 
ATOM     55  N   UNL A   1      43.876  26.478  30.543  1.00  0.00    -0.248 NA
ATOM     56  C   UNL A   1      44.966  24.713  29.475  1.00  0.00     0.031 C 
ATOM     57  C   UNL A   1      45.644  28.887  33.831  1.00  0.00     0.029 A 
ATOM     58  C   UNL A   1      45.117  28.123  32.801  1.00  0.00     0.049 A 
ATOM     59  H   UNL A   1      43.267  28.326  31.807  1.00  0.00     0.167 HD
ATOM     60  C   UNL A   1      45.125  26.299  31.122  1.00  0.00     0.074 A 
ATOM     61  C   UNL A   1      45.745  25.182  30.441  1.00  0.00     0.031 C 
ATOM     62  C   UNL A   1      45.706  26.994  32.130  1.00  0.00     0.037 A 
BRANCH  49  63
ATOM     63  C   UNL A   1      42.289  31.676  34.256  1.00  0.00     0.064 A 
ATOM     64  C   UNL A   1      41.723  31.508  35.528  1.00  0.00     0.173 A 
ATOM     65  C   UNL A   1      42.767  32.949  33.911  1.00  0.00     0.173 A 
ATOM     66  F   UNL A   1      41.237  30.313  35.899  1.00  0.00    -0.203 F 
ATOM     67  C   UNL A   1      41.618  32.580  36.412  1.00  0.00     0.198 A 
ATOM     68  C   UNL A   1      42.684  34.011  34.807  1.00  0.00     0.198 A 
ATOM     69  F   UNL A   1      43.320  33.160  32.708  1.00  0.00    -0.203 F 
ATOM     70  F   UNL A   1      41.034  32.408  37.606  1.00  0.00    -0.200 F 
ATOM     71  C   UNL A   1      42.105  33.828  36.053  1.00  0.00     0.200 A 
ATOM     72  F   UNL A   1      43.165  35.215  34.462  1.00  0.00    -0.200 F 
ATOM     73  F   UNL A   1      42.009  34.857  36.907  1.00  0.00    -0.200 F 
ENDBRANCH  49  63
BRANCH  50  74
ATOM     74  C   UNL A   1      42.701  24.151  27.710  1.00  0.00     0.064 A 
ATOM     75  C   UNL A   1      42.334  22.846  28.063  1.00  0.00     0.173 A 
ATOM     76  C   UNL A   1      43.177  24.366  26.408  1.00  0.00     0.173 A 
ATOM     77  F   UNL A   1      41.900  22.585  29.304  1.00  0.00    -0.203 F 
ATOM     78  C   UNL A   1      42.456  21.794  27.157  1.00  0.00     0.198 A 
ATOM     79  C   UNL A   1      43.272  23.319  25.494  1.00  0.00     0.198 A 
ATOM     80  F   UNL A   1      43.545  25.596  26.021  1.00  0.00    -0.203 F 
ATOM     81  F   UNL A   1      42.143  20.547  27.535  1.00  0.00    -0.200 F 
ATOM     82  C   UNL A   1      42.920  22.032  25.872  1.00  0.00     0.200 A 
ATOM     83  F   UNL A   1      43.712  23.556  24.250  1.00  0.00    -0.200 F 
ATOM     84  F   UNL A   1      43.037  21.021  25.001  1.00  0.00    -0.200 F 
ENDBRANCH  50  74
BRANCH  62  85
ATOM     85  C   UNL A   1      47.056  26.538  32.601  1.00  0.00     0.064 A 
ATOM     86  C   UNL A   1      48.239  27.115  32.121  1.00  0.00     0.173 A 
ATOM     87  C   UNL A   1      47.158  25.554  33.598  1.00  0.00     0.173 A 
ATOM     88  F   UNL A   1      48.194  28.049  31.160  1.00  0.00    -0.203 F 
ATOM     89  C   UNL A   1      49.479  26.712  32.611  1.00  0.00     0.198 A 
ATOM     90  C   UNL A   1      48.398  25.172  34.102  1.00  0.00     0.198 A 
ATOM     91  F   UNL A   1      46.054  24.977  34.094  1.00  0.00    -0.203 F 
ATOM     92  F   UNL A   1      50.601  27.252  32.113  1.00  0.00    -0.200 F 
ATOM     93  C   UNL A   1      49.557  25.749  33.606  1.00  0.00     0.200 A 
ATOM     94  F   UNL A   1      48.470  24.251  35.072  1.00  0.00    -0.200 F 
ATOM     95  F   UNL A   1      50.751  25.372  34.083  1.00  0.00    -0.200 F 
ENDBRANCH  62  85
ENDBRANCH  36  37
ENDBRANCH  29  31
ENDBRANCH  28  29
ENDBRANCH  27  28
ENDBRANCH  26  27
ENDBRANCH  25  26
ENDBRANCH   1  25
TORSDOF 18
ENDMDL
MODEL 3
REMARK VINA RESULT:     -10.9      3.693      6.775
REMARK SMILES COc1cc(OC)cc(-c2ccc([C@@H](C)C(=O)OCCOCCOC(=O)c3ccc(-c4c5nc(c(-c6c(F)c(F)c(F)c(F)c6F)c6ccc([nH]6)c(-c6c(F)c(F)c(F)c(F)c6F)c6nc(c(-c7c(F)c(F)c(F)c(F)c7F)c7ccc4[nH]7)C=C6)C=C5)cc3)cc2F)c1
REMARK SMILES IDX 20 1 19 2 18 3 16 4 17 5 14 6 15 7 13 8 10 9 11 10 91 11
REMARK SMILES IDX 12 12 90 13 92 14 9 15 3 16 4 17 93 18 5 19 8 20 2 21 1 22
REMARK SMILES IDX 6 23 7 24 21 25 22 26 23 27 24 28 25 29 26 30 27 31 28 32
REMARK SMILES IDX 89 33 29 34 88 35 30 36 31 37 32 38 82 39 33 40 87 41 81 42
REMARK SMILES IDX 83 43 34 44 86 45 80 46 79 47 35 49 67 50 47 51 66 52 48 53
REMARK SMILES IDX 51 54 65 55 84 56 49 57 50 58 64 60 85 61 52 62 36 63 37 64
REMARK SMILES IDX 45 65 38 66 39 67 43 68 46 69 40 70 41 71 44 72 42 73 68 74
REMARK SMILES IDX 69 75 77 76 70 77 71 78 75 79 78 80 72 81 73 82 76 83 74 84
REMARK SMILES IDX 53 85 54 86 62 87 55 88 56 89 60 90 63 91 57 92 58 93 61 94
REMARK SMILES IDX 59 95
REMARK H PARENT 83 48 51 59
REMARK Flexibility Score: inf
ROOT
ATOM      1  C   UNL A   1      34.431  33.677  31.513  1.00  0.00     0.202 C 
ENDROOT
BRANCH   1   2
ATOM      2  C   UNL A   1      35.098  34.976  31.967  1.00  0.00     0.261 C 
BRANCH   2   3
ATOM      3  O   UNL A   1      35.791  34.787  33.215  1.00  0.00    -0.463 OA
BRANCH   3   4
ATOM      4  C   UNL A   1      36.900  34.005  33.167  1.00  0.00     0.313 C 
ATOM      5  O   UNL A   1      37.762  34.077  32.297  1.00  0.00    -0.252 OA
BRANCH   4   6
ATOM      6  C   UNL A   1      36.970  32.972  34.281  1.00  0.00     0.126 C 
ATOM      7  C   UNL A   1      36.789  33.675  35.624  1.00  0.00     0.025 C 
BRANCH   6   8
ATOM      8  C   UNL A   1      38.158  32.015  34.292  1.00  0.00    -0.031 A 
ATOM      9  C   UNL A   1      40.219  30.044  34.474  1.00  0.00     0.018 A 
ATOM     10  C   UNL A   1      40.313  31.266  35.161  1.00  0.00     0.012 A 
ATOM     11  C   UNL A   1      39.101  29.861  33.650  1.00  0.00     0.131 A 
ATOM     12  C   UNL A   1      39.302  32.235  35.071  1.00  0.00     0.005 A 
ATOM     13  C   UNL A   1      38.088  30.820  33.557  1.00  0.00     0.044 A 
ATOM     14  F   UNL A   1      38.949  28.719  32.961  1.00  0.00    -0.206 F 
BRANCH   9  15
ATOM     15  C   UNL A   1      41.203  28.966  34.692  1.00  0.00    -0.008 A 
ATOM     16  C   UNL A   1      42.516  27.527  36.157  1.00  0.00     0.123 A 
ATOM     17  C   UNL A   1      43.187  27.013  35.046  1.00  0.00     0.092 A 
ATOM     18  C   UNL A   1      41.536  28.508  35.980  1.00  0.00     0.055 A 
ATOM     19  C   UNL A   1      42.879  27.449  33.760  1.00  0.00     0.123 A 
ATOM     20  C   UNL A   1      41.881  28.410  33.587  1.00  0.00     0.055 A 
BRANCH  16  21
ATOM     21  O   UNL A   1      42.946  27.036  37.360  1.00  0.00    -0.497 OA
ATOM     22  C   UNL A   1      44.347  27.080  37.589  1.00  0.00     0.278 C 
ENDBRANCH  16  21
BRANCH  19  23
ATOM     23  O   UNL A   1      43.613  26.867  32.763  1.00  0.00    -0.497 OA
ATOM     24  C   UNL A   1      44.446  25.776  33.134  1.00  0.00     0.278 C 
ENDBRANCH  19  23
ENDBRANCH   9  15
ENDBRANCH   6   8
ENDBRANCH   4   6
ENDBRANCH   3   4
ENDBRANCH   2   3
ENDBRANCH   1   2
BRANCH   1  25
ATOM     25  O   UNL A   1      33.617  33.776  30.344  1.00  0.00    -0.374 OA
BRANCH  25  26
ATOM     26  C   UNL A   1      34.207  34.361  29.182  1.00  0.00     0.202 C 
BRANCH  26  27
ATOM     27  C   UNL A   1      34.358  33.435  27.970  1.00  0.00     0.261 C 
BRANCH  27  28
ATOM     28  O   UNL A   1      35.476  32.541  28.112  1.00  0.00    -0.460 OA
BRANCH  28  29
ATOM     29  C   UNL A   1      35.151  31.235  28.250  1.00  0.00     0.338 C 
ATOM     30  O   UNL A   1      34.043  30.729  28.147  1.00  0.00    -0.246 OA
BRANCH  29  31
ATOM     31  C   UNL A   1      36.375  30.424  28.391  1.00  0.00     0.060 A 
ATOM     32  C   UNL A   1      36.619  29.829  29.636  1.00  0.00     0.016 A 
ATOM     33  C   UNL A   1      37.308  30.319  27.358  1.00  0.00     0.016 A 
ATOM     34  C   UNL A   1      37.825  29.172  29.873  1.00  0.00     0.010 A 
ATOM     35  C   UNL A   1      38.522  29.669  27.601  1.00  0.00     0.010 A 
ATOM     36  C   UNL A   1      38.801  29.128  28.869  1.00  0.00    -0.014 A 
BRANCH  36  37
ATOM     37  C   UNL A   1      40.178  28.685  29.198  1.00  0.00     0.031 A 
ATOM     38  C   UNL A   1      41.050  29.594  30.018  1.00  0.00     0.074 A 
ATOM     39  C   UNL A   1      40.642  27.490  28.790  1.00  0.00     0.049 A 
ATOM     40  N   UNL A   1      42.311  29.469  30.344  1.00  0.00    -0.248 NA
ATOM     41  C   UNL A   1      40.411  30.813  30.541  1.00  0.00     0.031 C 
ATOM     42  C   UNL A   1      39.874  26.494  28.049  1.00  0.00     0.029 A 
ATOM     43  N   UNL A   1      41.883  26.922  28.939  1.00  0.00    -0.354 N 
ATOM     44  C   UNL A   1      42.618  30.594  31.099  1.00  0.00     0.074 A 
ATOM     45  C   UNL A   1      41.420  31.402  31.165  1.00  0.00     0.031 C 
ATOM     46  C   UNL A   1      40.668  25.440  27.789  1.00  0.00     0.029 A 
ATOM     47  C   UNL A   1      42.007  25.707  28.312  1.00  0.00     0.049 A 
ATOM     48  H   UNL A   1      42.614  27.346  29.444  1.00  0.00     0.167 HD
ATOM     49  C   UNL A   1      43.792  30.920  31.687  1.00  0.00     0.037 A 
ATOM     50  C   UNL A   1      43.089  24.919  28.156  1.00  0.00     0.037 A 
ATOM     51  C   UNL A   1      44.983  30.116  31.620  1.00  0.00     0.049 A 
ATOM     52  C   UNL A   1      44.409  25.347  28.745  1.00  0.00     0.074 A 
ATOM     53  C   UNL A   1      46.226  30.364  32.176  1.00  0.00     0.029 A 
ATOM     54  N   UNL A   1      45.077  28.905  30.952  1.00  0.00    -0.354 N 
ATOM     55  N   UNL A   1      44.695  26.412  29.452  1.00  0.00    -0.248 NA
ATOM     56  C   UNL A   1      45.560  24.461  28.508  1.00  0.00     0.031 C 
ATOM     57  C   UNL A   1      47.084  29.322  31.810  1.00  0.00     0.029 A 
ATOM     58  C   UNL A   1      46.362  28.401  31.067  1.00  0.00     0.049 A 
ATOM     59  H   UNL A   1      44.339  28.468  30.468  1.00  0.00     0.167 HD
ATOM     60  C   UNL A   1      46.041  26.309  29.776  1.00  0.00     0.074 A 
ATOM     61  C   UNL A   1      46.519  25.076  29.189  1.00  0.00     0.031 C 
ATOM     62  C   UNL A   1      46.812  27.158  30.498  1.00  0.00     0.037 A 
BRANCH  49  63
ATOM     63  C   UNL A   1      43.853  32.219  32.435  1.00  0.00     0.064 A 
ATOM     64  C   UNL A   1      44.006  33.444  31.770  1.00  0.00     0.173 A 
ATOM     65  C   UNL A   1      43.725  32.240  33.832  1.00  0.00     0.173 A 
ATOM     66  F   UNL A   1      44.148  33.474  30.436  1.00  0.00    -0.203 F 
ATOM     67  C   UNL A   1      44.052  34.642  32.478  1.00  0.00     0.198 A 
ATOM     68  C   UNL A   1      43.745  33.442  34.534  1.00  0.00     0.198 A 
ATOM     69  F   UNL A   1      43.573  31.095  34.515  1.00  0.00    -0.203 F 
ATOM     70  F   UNL A   1      44.242  35.798  31.827  1.00  0.00    -0.200 F 
ATOM     71  C   UNL A   1      43.915  34.640  33.858  1.00  0.00     0.200 A 
ATOM     72  F   UNL A   1      43.602  33.438  35.868  1.00  0.00    -0.200 F 
ATOM     73  F   UNL A   1      43.952  35.795  34.539  1.00  0.00    -0.200 F 
ENDBRANCH  49  63
BRANCH  50  74
ATOM     74  C   UNL A   1      42.981  23.648  27.391  1.00  0.00     0.064 A 
ATOM     75  C   UNL A   1      42.495  22.481  27.995  1.00  0.00     0.173 A 
ATOM     76  C   UNL A   1      43.385  23.571  26.050  1.00  0.00     0.173 A 
ATOM     77  F   UNL A   1      42.122  22.498  29.282  1.00  0.00    -0.203 F 
ATOM     78  C   UNL A   1      42.435  21.279  27.292  1.00  0.00     0.198 A 
ATOM     79  C   UNL A   1      43.299  22.375  25.341  1.00  0.00     0.198 A 
ATOM     80  F   UNL A   1      43.861  24.659  25.428  1.00  0.00    -0.203 F 
ATOM     81  F   UNL A   1      42.012  20.166  27.907  1.00  0.00    -0.200 F 
ATOM     82  C   UNL A   1      42.832  21.228  25.964  1.00  0.00     0.200 A 
ATOM     83  F   UNL A   1      43.676  22.333  24.055  1.00  0.00    -0.200 F 
ATOM     84  F   UNL A   1      42.775  20.072  25.289  1.00  0.00    -0.200 F 
ENDBRANCH  50  74
BRANCH  62  85
ATOM     85  C   UNL A   1      48.238  26.762  30.746  1.00  0.00     0.064 A 
ATOM     86  C   UNL A   1      48.598  25.928  31.812  1.00  0.00     0.173 A 
ATOM     87  C   UNL A   1      49.248  27.175  29.861  1.00  0.00     0.173 A 
ATOM     88  F   UNL A   1      47.672  25.519  32.692  1.00  0.00    -0.203 F 
ATOM     89  C   UNL A   1      49.921  25.531  31.993  1.00  0.00     0.198 A 
ATOM     90  C   UNL A   1      50.563  26.755  30.032  1.00  0.00     0.198 A 
ATOM     91  F   UNL A   1      48.952  27.968  28.821  1.00  0.00    -0.203 F 
ATOM     92  F   UNL A   1      50.250  24.760  33.040  1.00  0.00    -0.200 F 
ATOM     93  C   UNL A   1      50.899  25.938  31.099  1.00  0.00     0.200 A 
ATOM     94  F   UNL A   1      51.505  27.139  29.158  1.00  0.00    -0.200 F 
ATOM     95  F   UNL A   1      52.170  25.545  31.269  1.00  0.00    -0.200 F 
ENDBRANCH  62  85
ENDBRANCH  36  37
ENDBRANCH  29  31
ENDBRANCH  28  29
ENDBRANCH  27  28
ENDBRANCH  26  27
ENDBRANCH  25  26
ENDBRANCH   1  25
TORSDOF 18
ENDMDL
