MODEL 1
REMARK VINA RESULT:      -9.6      0.000      0.000
REMARK SMILES CCCCS[C@@H]1CC[C@@]([NH2+]CC)(C(=O)OCCOCCOC(=O)c2ccc(-c3c4nc(c(-c5c(F)c(F)c(F)c(F)c5F)c5ccc([nH]5)c(-c5c(F)c(F)c(F)c(F)c5F)c5nc(c(-c6c(F)c(F)c(F)c(F)c6F)c6ccc3[nH]6)C=C5)C=C4)cc2)C1
REMARK SMILES IDX 17 1 16 2 15 3 13 4 14 5 9 6 6 7 7 8 87 9 8 10 5 11 4 12
REMARK SMILES IDX 3 13 2 14 1 15 10 16 11 19 12 20 18 21 19 22 20 23 21 24
REMARK SMILES IDX 22 25 23 26 24 27 25 28 86 29 26 30 85 31 27 32 28 33 29 34
REMARK SMILES IDX 79 35 30 36 84 37 78 38 80 39 31 40 83 41 77 42 76 43 32 45
REMARK SMILES IDX 64 46 44 47 63 48 45 49 48 50 62 51 81 52 46 53 47 54 61 56
REMARK SMILES IDX 82 57 49 58 33 59 34 60 42 61 35 62 36 63 40 64 43 65 37 66
REMARK SMILES IDX 38 67 41 68 39 69 65 70 66 71 74 72 67 73 68 74 72 75 75 76
REMARK SMILES IDX 69 77 70 78 73 79 71 80 50 81 51 82 59 83 52 84 53 85 57 86
REMARK SMILES IDX 60 87 54 88 55 89 58 90 56 91
REMARK H PARENT 10 17 10 18 80 44 48 55
REMARK Flexibility Score: inf
ROOT
ATOM      1  C   UNL A   1      37.239  22.339  24.570  1.00  0.00     0.202 C 
ENDROOT
BRANCH   1   2
ATOM      2  C   UNL A   1      37.007  23.718  25.199  1.00  0.00     0.261 C 
BRANCH   2   3
ATOM      3  O   UNL A   1      35.837  23.742  26.036  1.00  0.00    -0.459 OA
BRANCH   3   4
ATOM      4  C   UNL A   1      34.694  24.127  25.400  1.00  0.00     0.368 C 
ATOM      5  O   UNL A   1      34.661  25.004  24.543  1.00  0.00    -0.245 OA
BRANCH   4   6
ATOM      6  C   UNL A   1      33.426  23.387  25.920  1.00  0.00     0.195 C 
ATOM      7  C   UNL A   1      33.496  21.233  24.803  1.00  0.00     0.053 C 
ATOM      8  C   UNL A   1      33.483  20.923  26.294  1.00  0.00     0.022 C 
ATOM      9  C   UNL A   1      32.789  22.581  24.761  1.00  0.00     0.095 C 
ATOM     10  C   UNL A   1      33.743  22.280  26.970  1.00  0.00     0.082 C 
BRANCH   7  11
ATOM     11  S   UNL A   1      32.625  19.998  23.799  1.00  0.00    -0.158 SA
BRANCH  11  12
ATOM     12  C   UNL A   1      33.462  18.437  24.285  1.00  0.00     0.070 C 
BRANCH  12  13
ATOM     13  C   UNL A   1      32.655  17.412  25.090  1.00  0.00     0.011 C 
BRANCH  13  14
ATOM     14  C   UNL A   1      33.423  16.203  25.630  1.00  0.00    -0.003 C 
ATOM     15  C   UNL A   1      34.845  16.064  25.107  1.00  0.00     0.004 C 
ENDBRANCH  13  14
ENDBRANCH  12  13
ENDBRANCH  11  12
ENDBRANCH   7  11
BRANCH   6  16
ATOM     16  N   UNL A   1      32.485  24.354  26.533  1.00  0.00    -0.332 N 
ATOM     17  H   UNL A   1      32.803  25.291  26.285  1.00  0.00     0.347 HD
ATOM     18  H   UNL A   1      32.501  24.141  27.530  1.00  0.00     0.347 HD
BRANCH  16  19
ATOM     19  C   UNL A   1      31.077  24.251  26.149  1.00  0.00     0.257 C 
ATOM     20  C   UNL A   1      30.360  25.569  25.901  1.00  0.00     0.071 C 
ENDBRANCH  16  19
ENDBRANCH   6  16
ENDBRANCH   4   6
ENDBRANCH   3   4
ENDBRANCH   2   3
ENDBRANCH   1   2
BRANCH   1  21
ATOM     21  O   UNL A   1      37.214  21.213  25.448  1.00  0.00    -0.374 OA
BRANCH  21  22
ATOM     22  C   UNL A   1      37.751  19.997  24.935  1.00  0.00     0.202 C 
BRANCH  22  23
ATOM     23  C   UNL A   1      39.047  19.489  25.562  1.00  0.00     0.261 C 
BRANCH  23  24
ATOM     24  O   UNL A   1      39.967  20.573  25.747  1.00  0.00    -0.460 OA
BRANCH  24  25
ATOM     25  C   UNL A   1      40.604  20.554  26.937  1.00  0.00     0.338 C 
ATOM     26  O   UNL A   1      41.021  19.576  27.541  1.00  0.00    -0.246 OA
BRANCH  25  27
ATOM     27  C   UNL A   1      40.923  21.934  27.342  1.00  0.00     0.060 A 
ATOM     28  C   UNL A   1      40.378  22.962  26.563  1.00  0.00     0.016 A 
ATOM     29  C   UNL A   1      41.745  22.223  28.435  1.00  0.00     0.016 A 
ATOM     30  C   UNL A   1      40.721  24.282  26.819  1.00  0.00     0.010 A 
ATOM     31  C   UNL A   1      42.090  23.551  28.691  1.00  0.00     0.010 A 
ATOM     32  C   UNL A   1      41.621  24.576  27.850  1.00  0.00    -0.014 A 
BRANCH  32  33
ATOM     33  C   UNL A   1      42.217  25.928  27.914  1.00  0.00     0.031 A 
ATOM     34  C   UNL A   1      41.471  27.004  28.651  1.00  0.00     0.074 A 
ATOM     35  C   UNL A   1      43.424  26.171  27.378  1.00  0.00     0.049 A 
ATOM     36  N   UNL A   1      41.784  28.262  28.830  1.00  0.00    -0.248 NA
ATOM     37  C   UNL A   1      40.195  26.608  29.268  1.00  0.00     0.031 C 
ATOM     38  C   UNL A   1      44.257  25.186  26.693  1.00  0.00     0.029 A 
ATOM     39  N   UNL A   1      44.158  27.327  27.333  1.00  0.00    -0.354 N 
ATOM     40  C   UNL A   1      40.743  28.805  29.573  1.00  0.00     0.074 A 
ATOM     41  C   UNL A   1      39.770  27.755  29.775  1.00  0.00     0.031 C 
ATOM     42  C   UNL A   1      45.393  25.781  26.292  1.00  0.00     0.029 A 
ATOM     43  C   UNL A   1      45.347  27.195  26.661  1.00  0.00     0.049 A 
ATOM     44  H   UNL A   1      43.861  28.171  27.743  1.00  0.00     0.167 HD
ATOM     45  C   UNL A   1      40.620  30.065  30.052  1.00  0.00     0.037 A 
ATOM     46  C   UNL A   1      46.278  28.120  26.364  1.00  0.00     0.037 A 
ATOM     47  C   UNL A   1      41.594  31.102  29.841  1.00  0.00     0.049 A 
ATOM     48  C   UNL A   1      46.071  29.539  26.828  1.00  0.00     0.074 A 
ATOM     49  C   UNL A   1      41.575  32.410  30.287  1.00  0.00     0.029 A 
ATOM     50  N   UNL A   1      42.763  30.945  29.108  1.00  0.00    -0.354 N 
ATOM     51  N   UNL A   1      45.097  30.045  27.547  1.00  0.00    -0.248 NA
ATOM     52  C   UNL A   1      47.097  30.516  26.440  1.00  0.00     0.031 C 
ATOM     53  C   UNL A   1      42.700  33.063  29.772  1.00  0.00     0.029 A 
ATOM     54  C   UNL A   1      43.457  32.144  29.063  1.00  0.00     0.049 A 
ATOM     55  H   UNL A   1      43.056  30.107  28.683  1.00  0.00     0.167 HD
ATOM     56  C   UNL A   1      45.410  31.386  27.727  1.00  0.00     0.074 A 
ATOM     57  C   UNL A   1      46.671  31.611  27.052  1.00  0.00     0.031 C 
ATOM     58  C   UNL A   1      44.718  32.345  28.393  1.00  0.00     0.037 A 
BRANCH  45  59
ATOM     59  C   UNL A   1      39.369  30.395  30.816  1.00  0.00     0.064 A 
ATOM     60  C   UNL A   1      39.272  30.198  32.202  1.00  0.00     0.173 A 
ATOM     61  C   UNL A   1      38.251  30.925  30.152  1.00  0.00     0.173 A 
ATOM     62  F   UNL A   1      40.303  29.679  32.885  1.00  0.00    -0.203 F 
ATOM     63  C   UNL A   1      38.093  30.485  32.888  1.00  0.00     0.198 A 
ATOM     64  C   UNL A   1      37.087  31.245  30.846  1.00  0.00     0.198 A 
ATOM     65  F   UNL A   1      38.288  31.136  28.828  1.00  0.00    -0.203 F 
ATOM     66  F   UNL A   1      38.003  30.230  34.200  1.00  0.00    -0.200 F 
ATOM     67  C   UNL A   1      37.004  31.013  32.210  1.00  0.00     0.200 A 
ATOM     68  F   UNL A   1      36.042  31.768  30.191  1.00  0.00    -0.200 F 
ATOM     69  F   UNL A   1      35.872  31.292  32.871  1.00  0.00    -0.200 F 
ENDBRANCH  45  59
BRANCH  46  70
ATOM     70  C   UNL A   1      47.487  27.738  25.588  1.00  0.00     0.064 A 
ATOM     71  C   UNL A   1      48.686  27.412  26.235  1.00  0.00     0.173 A 
ATOM     72  C   UNL A   1      47.473  27.705  24.186  1.00  0.00     0.173 A 
ATOM     73  F   UNL A   1      48.757  27.451  27.574  1.00  0.00    -0.203 F 
ATOM     74  C   UNL A   1      49.832  27.089  25.509  1.00  0.00     0.198 A 
ATOM     75  C   UNL A   1      48.609  27.351  23.462  1.00  0.00     0.198 A 
ATOM     76  F   UNL A   1      46.350  28.009  23.517  1.00  0.00    -0.203 F 
ATOM     77  F   UNL A   1      50.978  26.830  26.152  1.00  0.00    -0.200 F 
ATOM     78  C   UNL A   1      49.790  27.053  24.124  1.00  0.00     0.200 A 
ATOM     79  F   UNL A   1      48.561  27.303  22.124  1.00  0.00    -0.200 F 
ATOM     80  F   UNL A   1      50.890  26.738  23.426  1.00  0.00    -0.200 F 
ENDBRANCH  46  70
BRANCH  58  81
ATOM     81  C   UNL A   1      45.333  33.714  28.464  1.00  0.00     0.064 A 
ATOM     82  C   UNL A   1      46.249  34.066  29.466  1.00  0.00     0.173 A 
ATOM     83  C   UNL A   1      45.027  34.677  27.489  1.00  0.00     0.173 A 
ATOM     84  F   UNL A   1      46.565  33.188  30.431  1.00  0.00    -0.203 F 
ATOM     85  C   UNL A   1      46.811  35.339  29.508  1.00  0.00     0.198 A 
ATOM     86  C   UNL A   1      45.620  35.937  27.513  1.00  0.00     0.198 A 
ATOM     87  F   UNL A   1      44.164  34.392  26.502  1.00  0.00    -0.203 F 
ATOM     88  F   UNL A   1      47.640  35.670  30.509  1.00  0.00    -0.200 F 
ATOM     89  C   UNL A   1      46.503  36.270  28.528  1.00  0.00     0.200 A 
ATOM     90  F   UNL A   1      45.334  36.828  26.554  1.00  0.00    -0.200 F 
ATOM     91  F   UNL A   1      47.052  37.492  28.565  1.00  0.00    -0.200 F 
ENDBRANCH  58  81
ENDBRANCH  32  33
ENDBRANCH  25  27
ENDBRANCH  24  25
ENDBRANCH  23  24
ENDBRANCH  22  23
ENDBRANCH  21  22
ENDBRANCH   1  21
TORSDOF 20
ENDMDL
MODEL 2
REMARK VINA RESULT:      -9.5      4.753     10.073
REMARK SMILES CCCCS[C@@H]1CC[C@@]([NH2+]CC)(C(=O)OCCOCCOC(=O)c2ccc(-c3c4nc(c(-c5c(F)c(F)c(F)c(F)c5F)c5ccc([nH]5)c(-c5c(F)c(F)c(F)c(F)c5F)c5nc(c(-c6c(F)c(F)c(F)c(F)c6F)c6ccc3[nH]6)C=C5)C=C4)cc2)C1
REMARK SMILES IDX 17 1 16 2 15 3 13 4 14 5 9 6 6 7 7 8 87 9 8 10 5 11 4 12
REMARK SMILES IDX 3 13 2 14 1 15 10 16 11 19 12 20 18 21 19 22 20 23 21 24
REMARK SMILES IDX 22 25 23 26 24 27 25 28 86 29 26 30 85 31 27 32 28 33 29 34
REMARK SMILES IDX 79 35 30 36 84 37 78 38 80 39 31 40 83 41 77 42 76 43 32 45
REMARK SMILES IDX 64 46 44 47 63 48 45 49 48 50 62 51 81 52 46 53 47 54 61 56
REMARK SMILES IDX 82 57 49 58 33 59 34 60 42 61 35 62 36 63 40 64 43 65 37 66
REMARK SMILES IDX 38 67 41 68 39 69 65 70 66 71 74 72 67 73 68 74 72 75 75 76
REMARK SMILES IDX 69 77 70 78 73 79 71 80 50 81 51 82 59 83 52 84 53 85 57 86
REMARK SMILES IDX 60 87 54 88 55 89 58 90 56 91
REMARK H PARENT 10 17 10 18 80 44 48 55
REMARK Flexibility Score: inf
ROOT
ATOM      1  C   UNL A   1      31.701  26.599  25.758  1.00  0.00     0.202 C 
ENDROOT
BRANCH   1   2
ATOM      2  C   UNL A   1      30.512  25.636  25.850  1.00  0.00     0.261 C 
BRANCH   2   3
ATOM      3  O   UNL A   1      30.837  24.323  25.356  1.00  0.00    -0.459 OA
BRANCH   3   4
ATOM      4  C   UNL A   1      30.992  23.377  26.324  1.00  0.00     0.368 C 
ATOM      5  O   UNL A   1      30.265  23.293  27.309  1.00  0.00    -0.245 OA
BRANCH   4   6
ATOM      6  C   UNL A   1      32.225  22.456  26.087  1.00  0.00     0.195 C 
ATOM      7  C   UNL A   1      34.123  23.966  26.175  1.00  0.00     0.053 C 
ATOM      8  C   UNL A   1      34.377  22.922  27.254  1.00  0.00     0.022 C 
ATOM      9  C   UNL A   1      33.253  23.191  25.193  1.00  0.00     0.095 C 
ATOM     10  C   UNL A   1      33.041  22.170  27.383  1.00  0.00     0.082 C 
BRANCH   7  11
ATOM     11  S   UNL A   1      35.638  24.572  25.381  1.00  0.00    -0.158 SA
BRANCH  11  12
ATOM     12  C   UNL A   1      36.951  23.791  26.399  1.00  0.00     0.070 C 
BRANCH  12  13
ATOM     13  C   UNL A   1      37.886  22.786  25.714  1.00  0.00     0.011 C 
BRANCH  13  14
ATOM     14  C   UNL A   1      37.226  21.715  24.842  1.00  0.00    -0.003 C 
ATOM     15  C   UNL A   1      36.725  22.210  23.493  1.00  0.00     0.004 C 
ENDBRANCH  13  14
ENDBRANCH  12  13
ENDBRANCH  11  12
ENDBRANCH   7  11
BRANCH   6  16
ATOM     16  N   UNL A   1      31.790  21.158  25.515  1.00  0.00    -0.332 N 
ATOM     17  H   UNL A   1      31.063  21.354  24.827  1.00  0.00     0.347 HD
ATOM     18  H   UNL A   1      31.490  20.604  26.317  1.00  0.00     0.347 HD
BRANCH  16  19
ATOM     19  C   UNL A   1      32.811  20.343  24.856  1.00  0.00     0.257 C 
ATOM     20  C   UNL A   1      32.310  19.083  24.169  1.00  0.00     0.071 C 
ENDBRANCH  16  19
ENDBRANCH   6  16
ENDBRANCH   4   6
ENDBRANCH   3   4
ENDBRANCH   2   3
ENDBRANCH   1   2
BRANCH   1  21
ATOM     21  O   UNL A   1      31.402  27.991  25.648  1.00  0.00    -0.374 OA
BRANCH  21  22
ATOM     22  C   UNL A   1      31.779  28.810  26.750  1.00  0.00     0.202 C 
BRANCH  22  23
ATOM     23  C   UNL A   1      31.810  30.318  26.518  1.00  0.00     0.261 C 
BRANCH  23  24
ATOM     24  O   UNL A   1      33.160  30.765  26.329  1.00  0.00    -0.460 OA
BRANCH  24  25
ATOM     25  C   UNL A   1      33.569  31.672  27.241  1.00  0.00     0.338 C 
ATOM     26  O   UNL A   1      32.920  32.591  27.718  1.00  0.00    -0.246 OA
BRANCH  25  27
ATOM     27  C   UNL A   1      34.892  31.282  27.759  1.00  0.00     0.060 A 
ATOM     28  C   UNL A   1      35.090  29.921  28.024  1.00  0.00     0.016 A 
ATOM     29  C   UNL A   1      35.908  32.212  27.998  1.00  0.00     0.016 A 
ATOM     30  C   UNL A   1      36.272  29.493  28.612  1.00  0.00     0.010 A 
ATOM     31  C   UNL A   1      37.096  31.781  28.591  1.00  0.00     0.010 A 
ATOM     32  C   UNL A   1      37.256  30.430  28.948  1.00  0.00    -0.014 A 
BRANCH  32  33
ATOM     33  C   UNL A   1      38.358  30.019  29.844  1.00  0.00     0.031 A 
ATOM     34  C   UNL A   1      39.384  29.054  29.321  1.00  0.00     0.074 A 
ATOM     35  C   UNL A   1      38.470  30.541  31.076  1.00  0.00     0.049 A 
ATOM     36  N   UNL A   1      40.427  28.540  29.921  1.00  0.00    -0.248 NA
ATOM     37  C   UNL A   1      39.208  28.606  27.930  1.00  0.00     0.031 C 
ATOM     38  C   UNL A   1      37.563  31.526  31.661  1.00  0.00     0.029 A 
ATOM     39  N   UNL A   1      39.402  30.315  32.055  1.00  0.00    -0.354 N 
ATOM     40  C   UNL A   1      41.025  27.706  28.985  1.00  0.00     0.074 A 
ATOM     41  C   UNL A   1      40.208  27.748  27.793  1.00  0.00     0.031 C 
ATOM     42  C   UNL A   1      37.984  31.821  32.903  1.00  0.00     0.029 A 
ATOM     43  C   UNL A   1      39.167  31.018  33.209  1.00  0.00     0.049 A 
ATOM     44  H   UNL A   1      40.168  29.707  31.940  1.00  0.00     0.167 HD
ATOM     45  C   UNL A   1      42.161  26.981  29.108  1.00  0.00     0.037 A 
ATOM     46  C   UNL A   1      39.824  30.994  34.383  1.00  0.00     0.037 A 
ATOM     47  C   UNL A   1      42.964  26.945  30.301  1.00  0.00     0.049 A 
ATOM     48  C   UNL A   1      41.032  30.105  34.526  1.00  0.00     0.074 A 
ATOM     49  C   UNL A   1      44.137  26.252  30.534  1.00  0.00     0.029 A 
ATOM     50  N   UNL A   1      42.663  27.629  31.472  1.00  0.00    -0.354 N 
ATOM     51  N   UNL A   1      41.606  29.333  33.634  1.00  0.00    -0.248 NA
ATOM     52  C   UNL A   1      41.685  30.085  35.841  1.00  0.00     0.031 C 
ATOM     53  C   UNL A   1      44.514  26.466  31.864  1.00  0.00     0.029 A 
ATOM     54  C   UNL A   1      43.614  27.347  32.441  1.00  0.00     0.049 A 
ATOM     55  H   UNL A   1      41.890  28.225  31.596  1.00  0.00     0.167 HD
ATOM     56  C   UNL A   1      42.705  28.766  34.267  1.00  0.00     0.074 A 
ATOM     57  C   UNL A   1      42.723  29.294  35.615  1.00  0.00     0.031 C 
ATOM     58  C   UNL A   1      43.619  27.891  33.776  1.00  0.00     0.037 A 
BRANCH  45  59
ATOM     59  C   UNL A   1      42.576  26.140  27.933  1.00  0.00     0.064 A 
ATOM     60  C   UNL A   1      43.534  26.580  27.007  1.00  0.00     0.173 A 
ATOM     61  C   UNL A   1      42.012  24.870  27.736  1.00  0.00     0.173 A 
ATOM     62  F   UNL A   1      44.094  27.792  27.138  1.00  0.00    -0.203 F 
ATOM     63  C   UNL A   1      43.885  25.796  25.910  1.00  0.00     0.198 A 
ATOM     64  C   UNL A   1      42.391  24.074  26.659  1.00  0.00     0.198 A 
ATOM     65  F   UNL A   1      41.092  24.398  28.591  1.00  0.00    -0.203 F 
ATOM     66  F   UNL A   1      44.756  26.263  25.005  1.00  0.00    -0.200 F 
ATOM     67  C   UNL A   1      43.317  24.542  25.740  1.00  0.00     0.200 A 
ATOM     68  F   UNL A   1      41.851  22.857  26.506  1.00  0.00    -0.200 F 
ATOM     69  F   UNL A   1      43.657  23.787  24.686  1.00  0.00    -0.200 F 
ENDBRANCH  45  59
BRANCH  46  70
ATOM     70  C   UNL A   1      39.355  31.834  35.517  1.00  0.00     0.064 A 
ATOM     71  C   UNL A   1      38.442  31.335  36.455  1.00  0.00     0.173 A 
ATOM     72  C   UNL A   1      39.797  33.156  35.676  1.00  0.00     0.173 A 
ATOM     73  F   UNL A   1      37.972  30.084  36.333  1.00  0.00    -0.203 F 
ATOM     74  C   UNL A   1      37.973  32.132  37.498  1.00  0.00     0.198 A 
ATOM     75  C   UNL A   1      39.352  33.941  36.737  1.00  0.00     0.198 A 
ATOM     76  F   UNL A   1      40.671  33.683  34.805  1.00  0.00    -0.203 F 
ATOM     77  F   UNL A   1      37.063  31.645  38.352  1.00  0.00    -0.200 F 
ATOM     78  C   UNL A   1      38.433  33.432  37.642  1.00  0.00     0.200 A 
ATOM     79  F   UNL A   1      39.810  35.192  36.881  1.00  0.00    -0.200 F 
ATOM     80  F   UNL A   1      37.985  34.196  38.647  1.00  0.00    -0.200 F 
ENDBRANCH  46  70
BRANCH  58  81
ATOM     81  C   UNL A   1      44.742  27.485  34.688  1.00  0.00     0.064 A 
ATOM     82  C   UNL A   1      45.930  28.225  34.779  1.00  0.00     0.173 A 
ATOM     83  C   UNL A   1      44.609  26.356  35.512  1.00  0.00     0.173 A 
ATOM     84  F   UNL A   1      46.114  29.304  34.003  1.00  0.00    -0.203 F 
ATOM     85  C   UNL A   1      46.955  27.832  35.636  1.00  0.00     0.198 A 
ATOM     86  C   UNL A   1      45.620  25.988  36.395  1.00  0.00     0.198 A 
ATOM     87  F   UNL A   1      43.490  25.616  35.473  1.00  0.00    -0.203 F 
ATOM     88  F   UNL A   1      48.103  28.523  35.664  1.00  0.00    -0.200 F 
ATOM     89  C   UNL A   1      46.796  26.720  36.449  1.00  0.00     0.200 A 
ATOM     90  F   UNL A   1      45.457  24.923  37.192  1.00  0.00    -0.200 F 
ATOM     91  F   UNL A   1      47.780  26.349  37.280  1.00  0.00    -0.200 F 
ENDBRANCH  58  81
ENDBRANCH  32  33
ENDBRANCH  25  27
ENDBRANCH  24  25
ENDBRANCH  23  24
ENDBRANCH  22  23
ENDBRANCH  21  22
ENDBRANCH   1  21
TORSDOF 20
ENDMDL
MODEL 3
REMARK VINA RESULT:      -9.4      1.665      8.153
REMARK SMILES CCCCS[C@@H]1CC[C@@]([NH2+]CC)(C(=O)OCCOCCOC(=O)c2ccc(-c3c4nc(c(-c5c(F)c(F)c(F)c(F)c5F)c5ccc([nH]5)c(-c5c(F)c(F)c(F)c(F)c5F)c5nc(c(-c6c(F)c(F)c(F)c(F)c6F)c6ccc3[nH]6)C=C5)C=C4)cc2)C1
REMARK SMILES IDX 17 1 16 2 15 3 13 4 14 5 9 6 6 7 7 8 87 9 8 10 5 11 4 12
REMARK SMILES IDX 3 13 2 14 1 15 10 16 11 19 12 20 18 21 19 22 20 23 21 24
REMARK SMILES IDX 22 25 23 26 24 27 25 28 86 29 26 30 85 31 27 32 28 33 29 34
REMARK SMILES IDX 79 35 30 36 84 37 78 38 80 39 31 40 83 41 77 42 76 43 32 45
REMARK SMILES IDX 64 46 44 47 63 48 45 49 48 50 62 51 81 52 46 53 47 54 61 56
REMARK SMILES IDX 82 57 49 58 33 59 34 60 42 61 35 62 36 63 40 64 43 65 37 66
REMARK SMILES IDX 38 67 41 68 39 69 65 70 66 71 74 72 67 73 68 74 72 75 75 76
REMARK SMILES IDX 69 77 70 78 73 79 71 80 50 81 51 82 59 83 52 84 53 85 57 86
REMARK SMILES IDX 60 87 54 88 55 89 58 90 56 91
REMARK H PARENT 10 17 10 18 80 44 48 55
REMARK Flexibility Score: inf
ROOT
ATOM      1  C   UNL A   1      36.437  23.028  24.516  1.00  0.00     0.202 C 
ENDROOT
BRANCH   1   2
ATOM      2  C   UNL A   1      35.780  22.971  23.133  1.00  0.00     0.261 C 
BRANCH   2   3
ATOM      3  O   UNL A   1      34.795  24.006  22.956  1.00  0.00    -0.459 OA
BRANCH   3   4
ATOM      4  C   UNL A   1      33.515  23.554  22.834  1.00  0.00     0.368 C 
ATOM      5  O   UNL A   1      33.050  23.118  21.786  1.00  0.00    -0.245 OA
BRANCH   4   6
ATOM      6  C   UNL A   1      32.685  23.708  24.143  1.00  0.00     0.195 C 
ATOM      7  C   UNL A   1      31.932  26.016  24.101  1.00  0.00     0.053 C 
ATOM      8  C   UNL A   1      30.668  25.171  24.177  1.00  0.00     0.022 C 
ATOM      9  C   UNL A   1      32.955  25.101  24.763  1.00  0.00     0.095 C 
ATOM     10  C   UNL A   1      31.147  23.736  23.899  1.00  0.00     0.082 C 
BRANCH   7  11
ATOM     11  S   UNL A   1      31.800  27.601  24.974  1.00  0.00    -0.158 SA
BRANCH  11  12
ATOM     12  C   UNL A   1      33.359  27.645  25.943  1.00  0.00     0.070 C 
BRANCH  12  13
ATOM     13  C   UNL A   1      33.365  28.437  27.255  1.00  0.00     0.011 C 
BRANCH  13  14
ATOM     14  C   UNL A   1      34.587  29.321  27.520  1.00  0.00    -0.003 C 
ATOM     15  C   UNL A   1      34.359  30.808  27.296  1.00  0.00     0.004 C 
ENDBRANCH  13  14
ENDBRANCH  12  13
ENDBRANCH  11  12
ENDBRANCH   7  11
BRANCH   6  16
ATOM     16  N   UNL A   1      32.988  22.596  25.075  1.00  0.00    -0.332 N 
ATOM     17  H   UNL A   1      32.829  22.938  26.023  1.00  0.00     0.347 HD
ATOM     18  H   UNL A   1      33.952  22.333  24.867  1.00  0.00     0.347 HD
BRANCH  16  19
ATOM     19  C   UNL A   1      32.218  21.362  24.917  1.00  0.00     0.257 C 
ATOM     20  C   UNL A   1      33.019  20.071  24.956  1.00  0.00     0.071 C 
ENDBRANCH  16  19
ENDBRANCH   6  16
ENDBRANCH   4   6
ENDBRANCH   3   4
ENDBRANCH   2   3
ENDBRANCH   1   2
BRANCH   1  21
ATOM     21  O   UNL A   1      36.228  21.912  25.382  1.00  0.00    -0.374 OA
BRANCH  21  22
ATOM     22  C   UNL A   1      36.685  20.648  24.908  1.00  0.00     0.202 C 
BRANCH  22  23
ATOM     23  C   UNL A   1      38.181  20.365  25.013  1.00  0.00     0.261 C 
BRANCH  23  24
ATOM     24  O   UNL A   1      38.651  20.661  26.335  1.00  0.00    -0.460 OA
BRANCH  24  25
ATOM     25  C   UNL A   1      39.992  20.797  26.422  1.00  0.00     0.338 C 
ATOM     26  O   UNL A   1      40.845  20.058  25.953  1.00  0.00    -0.246 OA
BRANCH  25  27
ATOM     27  C   UNL A   1      40.312  22.108  27.011  1.00  0.00     0.060 A 
ATOM     28  C   UNL A   1      39.559  23.201  26.566  1.00  0.00     0.016 A 
ATOM     29  C   UNL A   1      41.329  22.278  27.956  1.00  0.00     0.016 A 
ATOM     30  C   UNL A   1      39.874  24.483  26.996  1.00  0.00     0.010 A 
ATOM     31  C   UNL A   1      41.646  23.567  28.386  1.00  0.00     0.010 A 
ATOM     32  C   UNL A   1      40.954  24.675  27.865  1.00  0.00    -0.014 A 
BRANCH  32  33
ATOM     33  C   UNL A   1      41.474  26.044  28.067  1.00  0.00     0.031 A 
ATOM     34  C   UNL A   1      42.838  26.377  27.531  1.00  0.00     0.074 A 
ATOM     35  C   UNL A   1      40.721  26.983  28.662  1.00  0.00     0.049 A 
ATOM     36  N   UNL A   1      43.508  27.498  27.596  1.00  0.00    -0.248 NA
ATOM     37  C   UNL A   1      43.544  25.294  26.827  1.00  0.00     0.031 C 
ATOM     38  C   UNL A   1      39.365  26.782  29.166  1.00  0.00     0.029 A 
ATOM     39  N   UNL A   1      40.995  28.297  28.937  1.00  0.00    -0.354 N 
ATOM     40  C   UNL A   1      44.713  27.253  26.950  1.00  0.00     0.074 A 
ATOM     41  C   UNL A   1      44.701  25.868  26.536  1.00  0.00     0.031 C 
ATOM     42  C   UNL A   1      38.922  27.937  29.692  1.00  0.00     0.029 A 
ATOM     43  C   UNL A   1      39.978  28.943  29.594  1.00  0.00     0.049 A 
ATOM     44  H   UNL A   1      41.840  28.736  28.686  1.00  0.00     0.167 HD
ATOM     45  C   UNL A   1      45.731  28.114  26.713  1.00  0.00     0.037 A 
ATOM     46  C   UNL A   1      39.922  30.198  30.076  1.00  0.00     0.037 A 
ATOM     47  C   UNL A   1      45.732  29.490  27.133  1.00  0.00     0.049 A 
ATOM     48  C   UNL A   1      41.107  31.108  29.883  1.00  0.00     0.074 A 
ATOM     49  C   UNL A   1      46.705  30.453  26.939  1.00  0.00     0.029 A 
ATOM     50  N   UNL A   1      44.705  30.095  27.845  1.00  0.00    -0.354 N 
ATOM     51  N   UNL A   1      42.236  30.881  29.253  1.00  0.00    -0.248 NA
ATOM     52  C   UNL A   1      41.009  32.452  30.466  1.00  0.00     0.031 C 
ATOM     53  C   UNL A   1      46.296  31.622  27.588  1.00  0.00     0.029 A 
ATOM     54  C   UNL A   1      45.037  31.411  28.127  1.00  0.00     0.049 A 
ATOM     55  H   UNL A   1      43.866  29.655  28.111  1.00  0.00     0.167 HD
ATOM     56  C   UNL A   1      42.965  32.061  29.334  1.00  0.00     0.074 A 
ATOM     57  C   UNL A   1      42.144  33.005  30.062  1.00  0.00     0.031 C 
ATOM     58  C   UNL A   1      44.200  32.339  28.846  1.00  0.00     0.037 A 
BRANCH  45  59
ATOM     59  C   UNL A   1      46.940  27.576  26.000  1.00  0.00     0.064 A 
ATOM     60  C   UNL A   1      48.000  26.969  26.692  1.00  0.00     0.173 A 
ATOM     61  C   UNL A   1      47.036  27.661  24.603  1.00  0.00     0.173 A 
ATOM     62  F   UNL A   1      47.968  26.875  28.030  1.00  0.00    -0.203 F 
ATOM     63  C   UNL A   1      49.124  26.501  26.015  1.00  0.00     0.198 A 
ATOM     64  C   UNL A   1      48.145  27.160  23.926  1.00  0.00     0.198 A 
ATOM     65  F   UNL A   1      46.052  28.230  23.891  1.00  0.00    -0.203 F 
ATOM     66  F   UNL A   1      50.151  25.982  26.702  1.00  0.00    -0.200 F 
ATOM     67  C   UNL A   1      49.193  26.592  24.633  1.00  0.00     0.200 A 
ATOM     68  F   UNL A   1      48.202  27.237  22.590  1.00  0.00    -0.200 F 
ATOM     69  F   UNL A   1      50.274  26.139  23.982  1.00  0.00    -0.200 F 
ENDBRANCH  45  59
BRANCH  46  70
ATOM     70  C   UNL A   1      38.706  30.668  30.789  1.00  0.00     0.064 A 
ATOM     71  C   UNL A   1      37.620  31.206  30.086  1.00  0.00     0.173 A 
ATOM     72  C   UNL A   1      38.610  30.603  32.188  1.00  0.00     0.173 A 
ATOM     73  F   UNL A   1      37.673  31.311  28.750  1.00  0.00    -0.203 F 
ATOM     74  C   UNL A   1      36.493  31.682  30.755  1.00  0.00     0.198 A 
ATOM     75  C   UNL A   1      37.470  31.049  32.853  1.00  0.00     0.198 A 
ATOM     76  F   UNL A   1      39.621  30.097  32.909  1.00  0.00    -0.203 F 
ATOM     77  F   UNL A   1      35.491  32.237  30.061  1.00  0.00    -0.200 F 
ATOM     78  C   UNL A   1      36.416  31.597  32.137  1.00  0.00     0.200 A 
ATOM     79  F   UNL A   1      37.394  30.952  34.187  1.00  0.00    -0.200 F 
ATOM     80  F   UNL A   1      35.331  32.050  32.779  1.00  0.00    -0.200 F 
ENDBRANCH  46  70
BRANCH  58  81
ATOM     81  C   UNL A   1      44.720  33.735  29.044  1.00  0.00     0.064 A 
ATOM     82  C   UNL A   1      44.449  34.765  28.132  1.00  0.00     0.173 A 
ATOM     83  C   UNL A   1      45.472  34.053  30.187  1.00  0.00     0.173 A 
ATOM     84  F   UNL A   1      43.747  34.512  27.016  1.00  0.00    -0.203 F 
ATOM     85  C   UNL A   1      44.936  36.053  28.340  1.00  0.00     0.198 A 
ATOM     86  C   UNL A   1      45.925  35.350  30.410  1.00  0.00     0.198 A 
ATOM     87  F   UNL A   1      45.754  33.108  31.097  1.00  0.00    -0.203 F 
ATOM     88  F   UNL A   1      44.711  37.007  27.425  1.00  0.00    -0.200 F 
ATOM     89  C   UNL A   1      45.666  36.346  29.482  1.00  0.00     0.200 A 
ATOM     90  F   UNL A   1      46.616  35.635  31.523  1.00  0.00    -0.200 F 
ATOM     91  F   UNL A   1      46.126  37.588  29.684  1.00  0.00    -0.200 F 
ENDBRANCH  58  81
ENDBRANCH  32  33
ENDBRANCH  25  27
ENDBRANCH  24  25
ENDBRANCH  23  24
ENDBRANCH  22  23
ENDBRANCH  21  22
ENDBRANCH   1  21
TORSDOF 20
ENDMDL
