MODEL 1
REMARK VINA RESULT:     -12.6      0.000      0.000
REMARK SMILES CCCc1cc(S(F)(F)(F)(F)F)cc2c1O[C@@H](C(F)(F)F)C(C(=O)OCCOCCOC(=O)c1ccc(-c3c4nc(c(-c5c(F)c(F)c(F)c(F)c5F)c5ccc([nH]5)c(-c5c(F)c(F)c(F)c(F)c5F)c5nc(c(-c6c(F)c(F)c(F)c(F)c6F)c6ccc3[nH]6)C=C5)C=C4)cc1)=C2
REMARK SMILES IDX 28 1 27 2 26 3 25 4 23 5 24 6 22 7 4 8 5 9 15 10 6 11 14 12
REMARK SMILES IDX 16 13 13 14 97 15 17 16 3 17 2 18 1 19 7 20 8 21 9 22 10 23
REMARK SMILES IDX 11 24 12 25 18 26 19 27 20 28 21 29 29 30 30 31 31 32 32 33
REMARK SMILES IDX 33 34 34 35 35 36 96 37 36 38 95 39 37 40 38 41 39 42 89 43
REMARK SMILES IDX 40 44 94 45 88 46 90 47 41 48 93 49 87 50 86 51 42 53 74 54
REMARK SMILES IDX 54 55 73 56 55 57 58 58 72 59 91 60 56 61 57 62 71 64 92 65
REMARK SMILES IDX 59 66 43 67 44 68 52 69 45 70 46 71 50 72 53 73 47 74 48 75
REMARK SMILES IDX 51 76 49 77 75 78 76 79 84 80 77 81 78 82 82 83 85 84 79 85
REMARK SMILES IDX 80 86 83 87 81 88 60 89 61 90 69 91 62 92 63 93 67 94 70 95
REMARK SMILES IDX 64 96 65 97 68 98 66 99
REMARK H PARENT 90 52 58 63
REMARK Flexibility Score: inf
ROOT
ATOM      1  O   UNL A   1      31.844  30.742  27.184  1.00  0.00    -0.374 OA
ENDROOT
BRANCH   1   2
ATOM      2  C   UNL A   1      33.014  30.358  26.475  1.00  0.00     0.202 C 
BRANCH   2   3
ATOM      3  C   UNL A   1      32.624  29.498  25.284  1.00  0.00     0.261 C 
BRANCH   3   4
ATOM      4  O   UNL A   1      31.441  28.775  25.588  1.00  0.00    -0.460 OA
BRANCH   4   5
ATOM      5  C   UNL A   1      31.524  27.522  26.249  1.00  0.00     0.338 C 
ATOM      6  O   UNL A   1      31.051  27.388  27.422  1.00  0.00    -0.246 OA
BRANCH   5   7
ATOM      7  C   UNL A   1      32.180  26.338  25.557  1.00  0.00     0.087 C 
ATOM      8  C   UNL A   1      33.646  22.794  23.901  1.00  0.00    -0.004 A 
ATOM      9  C   UNL A   1      34.911  22.347  24.238  1.00  0.00     0.032 A 
ATOM     10  C   UNL A   1      33.169  23.935  24.501  1.00  0.00     0.131 A 
ATOM     11  C   UNL A   1      35.676  23.019  25.155  1.00  0.00     0.108 A 
ATOM     12  C   UNL A   1      33.919  24.649  25.417  1.00  0.00     0.019 A 
ATOM     13  O   UNL A   1      31.871  24.303  24.243  1.00  0.00    -0.475 OA
ATOM     14  C   UNL A   1      35.183  24.170  25.736  1.00  0.00     0.036 A 
ATOM     15  C   UNL A   1      33.310  25.820  26.025  1.00  0.00     0.027 C 
ATOM     16  C   UNL A   1      31.558  25.722  24.311  1.00  0.00     0.316 C 
BRANCH   8  17
ATOM     17  C   UNL A   1      32.668  22.026  23.029  1.00  0.00     0.039 C 
BRANCH  17  18
ATOM     18  C   UNL A   1      32.566  20.591  23.523  1.00  0.00     0.001 C 
ATOM     19  C   UNL A   1      32.152  20.588  24.986  1.00  0.00     0.004 C 
ENDBRANCH  17  18
ENDBRANCH   8  17
BRANCH  11  20
ATOM     20  S   UNL A   1      37.318  22.404  25.598  1.00  0.00     0.310 S 
ATOM     21  F   UNL A   1      37.644  22.030  24.092  1.00  0.00    -0.094 F 
ATOM     22  F   UNL A   1      36.705  20.961  25.752  1.00  0.00    -0.094 F 
ATOM     23  F   UNL A   1      38.731  21.873  25.971  1.00  0.00    -0.094 F 
ATOM     24  F   UNL A   1      37.939  23.826  25.302  1.00  0.00    -0.094 F 
ATOM     25  F   UNL A   1      35.912  22.932  25.109  1.00  0.00    -0.094 F 
ENDBRANCH  11  20
BRANCH  16  26
ATOM     26  C   UNL A   1      30.049  25.896  24.373  1.00  0.00     0.430 C 
ATOM     27  F   UNL A   1      29.621  25.617  25.600  1.00  0.00    -0.167 F 
ATOM     28  F   UNL A   1      29.734  27.152  24.069  1.00  0.00    -0.167 F 
ATOM     29  F   UNL A   1      29.472  25.071  23.504  1.00  0.00    -0.167 F 
ENDBRANCH  16  26
ENDBRANCH   5   7
ENDBRANCH   4   5
ENDBRANCH   3   4
ENDBRANCH   2   3
ENDBRANCH   1   2
BRANCH   1  30
ATOM     30  C   UNL A   1      31.514  32.085  26.861  1.00  0.00     0.202 C 
BRANCH  30  31
ATOM     31  C   UNL A   1      32.667  32.997  27.248  1.00  0.00     0.261 C 
BRANCH  31  32
ATOM     32  O   UNL A   1      32.154  34.223  27.748  1.00  0.00    -0.460 OA
BRANCH  32  33
ATOM     33  C   UNL A   1      32.893  34.963  28.708  1.00  0.00     0.338 C 
ATOM     34  O   UNL A   1      32.558  36.157  28.986  1.00  0.00    -0.246 OA
BRANCH  33  35
ATOM     35  C   UNL A   1      34.087  34.327  29.402  1.00  0.00     0.060 A 
ATOM     36  C   UNL A   1      35.343  34.619  28.898  1.00  0.00     0.016 A 
ATOM     37  C   UNL A   1      33.928  33.468  30.401  1.00  0.00     0.016 A 
ATOM     38  C   UNL A   1      36.355  33.728  29.328  1.00  0.00     0.010 A 
ATOM     39  C   UNL A   1      34.990  32.728  30.863  1.00  0.00     0.010 A 
ATOM     40  C   UNL A   1      36.250  32.922  30.369  1.00  0.00    -0.014 A 
BRANCH  40  41
ATOM     41  C   UNL A   1      37.464  32.247  30.985  1.00  0.00     0.031 A 
ATOM     42  C   UNL A   1      37.837  32.627  32.275  1.00  0.00     0.074 A 
ATOM     43  C   UNL A   1      38.081  31.236  30.268  1.00  0.00     0.049 A 
ATOM     44  N   UNL A   1      38.791  32.091  33.038  1.00  0.00    -0.248 NA
ATOM     45  C   UNL A   1      37.206  33.723  33.027  1.00  0.00     0.031 C 
ATOM     46  C   UNL A   1      37.705  30.840  28.969  1.00  0.00     0.029 A 
ATOM     47  N   UNL A   1      39.140  30.448  30.658  1.00  0.00    -0.354 N 
ATOM     48  C   UNL A   1      38.841  32.711  34.219  1.00  0.00     0.074 A 
ATOM     49  C   UNL A   1      37.826  33.774  34.226  1.00  0.00     0.031 C 
ATOM     50  C   UNL A   1      38.533  29.836  28.577  1.00  0.00     0.029 A 
ATOM     51  C   UNL A   1      39.440  29.586  29.625  1.00  0.00     0.049 A 
ATOM     52  H   UNL A   1      39.603  30.492  31.525  1.00  0.00     0.167 HD
ATOM     53  C   UNL A   1      39.690  32.432  35.290  1.00  0.00     0.037 A 
ATOM     54  C   UNL A   1      40.444  28.632  29.580  1.00  0.00     0.037 A 
ATOM     55  C   UNL A   1      40.666  31.447  35.260  1.00  0.00     0.049 A 
ATOM     56  C   UNL A   1      41.332  28.391  30.630  1.00  0.00     0.074 A 
ATOM     57  C   UNL A   1      41.526  31.147  36.334  1.00  0.00     0.029 A 
ATOM     58  N   UNL A   1      40.981  30.603  34.218  1.00  0.00    -0.354 N 
ATOM     59  N   UNL A   1      41.355  28.985  31.825  1.00  0.00    -0.248 NA
ATOM     60  C   UNL A   1      42.421  27.405  30.581  1.00  0.00     0.031 C 
ATOM     61  C   UNL A   1      42.354  30.143  35.943  1.00  0.00     0.029 A 
ATOM     62  C   UNL A   1      42.026  29.799  34.617  1.00  0.00     0.049 A 
ATOM     63  H   UNL A   1      40.537  30.579  33.341  1.00  0.00     0.167 HD
ATOM     64  C   UNL A   1      42.337  28.475  32.572  1.00  0.00     0.074 A 
ATOM     65  C   UNL A   1      43.041  27.458  31.780  1.00  0.00     0.031 C 
ATOM     66  C   UNL A   1      42.672  28.817  33.883  1.00  0.00     0.037 A 
BRANCH  53  67
ATOM     67  C   UNL A   1      39.537  33.251  36.560  1.00  0.00     0.064 A 
ATOM     68  C   UNL A   1      38.709  32.818  37.584  1.00  0.00     0.173 A 
ATOM     69  C   UNL A   1      40.244  34.369  36.674  1.00  0.00     0.173 A 
ATOM     70  F   UNL A   1      38.184  31.597  37.625  1.00  0.00    -0.203 F 
ATOM     71  C   UNL A   1      38.471  33.794  38.580  1.00  0.00     0.198 A 
ATOM     72  C   UNL A   1      40.058  35.209  37.744  1.00  0.00     0.198 A 
ATOM     73  F   UNL A   1      41.141  34.679  35.742  1.00  0.00    -0.203 F 
ATOM     74  F   UNL A   1      37.432  33.611  39.390  1.00  0.00    -0.200 F 
ATOM     75  C   UNL A   1      39.210  34.873  38.763  1.00  0.00     0.200 A 
ATOM     76  F   UNL A   1      40.711  36.366  37.792  1.00  0.00    -0.200 F 
ATOM     77  F   UNL A   1      39.134  35.594  39.879  1.00  0.00    -0.200 F 
ENDBRANCH  53  67
BRANCH  54  78
ATOM     78  C   UNL A   1      40.586  27.802  28.315  1.00  0.00     0.064 A 
ATOM     79  C   UNL A   1      39.999  26.551  28.228  1.00  0.00     0.173 A 
ATOM     80  C   UNL A   1      41.314  28.292  27.318  1.00  0.00     0.173 A 
ATOM     81  F   UNL A   1      39.067  26.125  29.076  1.00  0.00    -0.203 F 
ATOM     82  C   UNL A   1      40.480  25.765  27.153  1.00  0.00     0.198 A 
ATOM     83  C   UNL A   1      41.633  27.510  26.234  1.00  0.00     0.198 A 
ATOM     84  F   UNL A   1      41.737  29.552  27.370  1.00  0.00    -0.203 F 
ATOM     85  F   UNL A   1      40.256  24.455  27.195  1.00  0.00    -0.200 F 
ATOM     86  C   UNL A   1      41.135  26.242  26.111  1.00  0.00     0.200 A 
ATOM     87  F   UNL A   1      42.436  27.994  25.291  1.00  0.00    -0.200 F 
ATOM     88  F   UNL A   1      41.303  25.530  25.001  1.00  0.00    -0.200 F 
ENDBRANCH  54  78
BRANCH  66  89
ATOM     89  C   UNL A   1      43.815  28.065  34.546  1.00  0.00     0.064 A 
ATOM     90  C   UNL A   1      43.521  26.881  35.202  1.00  0.00     0.173 A 
ATOM     91  C   UNL A   1      45.054  28.542  34.507  1.00  0.00     0.173 A 
ATOM     92  F   UNL A   1      42.366  26.239  35.057  1.00  0.00    -0.203 F 
ATOM     93  C   UNL A   1      44.563  26.416  36.039  1.00  0.00     0.198 A 
ATOM     94  C   UNL A   1      46.053  27.956  35.245  1.00  0.00     0.198 A 
ATOM     95  F   UNL A   1      45.330  29.597  33.745  1.00  0.00    -0.203 F 
ATOM     96  F   UNL A   1      44.255  25.513  36.967  1.00  0.00    -0.200 F 
ATOM     97  C   UNL A   1      45.819  26.817  35.965  1.00  0.00     0.200 A 
ATOM     98  F   UNL A   1      47.264  28.504  35.260  1.00  0.00    -0.200 F 
ATOM     99  F   UNL A   1      46.805  26.149  36.558  1.00  0.00    -0.200 F 
ENDBRANCH  66  89
ENDBRANCH  40  41
ENDBRANCH  33  35
ENDBRANCH  32  33
ENDBRANCH  31  32
ENDBRANCH  30  31
ENDBRANCH   1  30
TORSDOF 18
ENDMDL
MODEL 2
REMARK VINA RESULT:     -12.5      5.203     10.409
REMARK SMILES CCCc1cc(S(F)(F)(F)(F)F)cc2c1O[C@@H](C(F)(F)F)C(C(=O)OCCOCCOC(=O)c1ccc(-c3c4nc(c(-c5c(F)c(F)c(F)c(F)c5F)c5ccc([nH]5)c(-c5c(F)c(F)c(F)c(F)c5F)c5nc(c(-c6c(F)c(F)c(F)c(F)c6F)c6ccc3[nH]6)C=C5)C=C4)cc1)=C2
REMARK SMILES IDX 28 1 27 2 26 3 25 4 23 5 24 6 22 7 4 8 5 9 15 10 6 11 14 12
REMARK SMILES IDX 16 13 13 14 97 15 17 16 3 17 2 18 1 19 7 20 8 21 9 22 10 23
REMARK SMILES IDX 11 24 12 25 18 26 19 27 20 28 21 29 29 30 30 31 31 32 32 33
REMARK SMILES IDX 33 34 34 35 35 36 96 37 36 38 95 39 37 40 38 41 39 42 89 43
REMARK SMILES IDX 40 44 94 45 88 46 90 47 41 48 93 49 87 50 86 51 42 53 74 54
REMARK SMILES IDX 54 55 73 56 55 57 58 58 72 59 91 60 56 61 57 62 71 64 92 65
REMARK SMILES IDX 59 66 43 67 44 68 52 69 45 70 46 71 50 72 53 73 47 74 48 75
REMARK SMILES IDX 51 76 49 77 75 78 76 79 84 80 77 81 78 82 82 83 85 84 79 85
REMARK SMILES IDX 80 86 83 87 81 88 60 89 61 90 69 91 62 92 63 93 67 94 70 95
REMARK SMILES IDX 64 96 65 97 68 98 66 99
REMARK H PARENT 90 52 58 63
REMARK Flexibility Score: inf
ROOT
ATOM      1  O   UNL A   1      37.640  20.753  24.538  1.00  0.00    -0.374 OA
ENDROOT
BRANCH   1   2
ATOM      2  C   UNL A   1      37.545  21.700  25.593  1.00  0.00     0.202 C 
BRANCH   2   3
ATOM      3  C   UNL A   1      36.082  22.019  25.856  1.00  0.00     0.261 C 
BRANCH   3   4
ATOM      4  O   UNL A   1      35.342  21.873  24.653  1.00  0.00    -0.460 OA
BRANCH   4   5
ATOM      5  C   UNL A   1      35.111  22.999  23.820  1.00  0.00     0.338 C 
ATOM      6  O   UNL A   1      35.779  23.146  22.749  1.00  0.00    -0.246 OA
BRANCH   5   7
ATOM      7  C   UNL A   1      34.064  24.031  24.209  1.00  0.00     0.087 C 
ATOM      8  C   UNL A   1      31.149  26.967  24.781  1.00  0.00    -0.004 A 
ATOM      9  C   UNL A   1      31.476  28.150  25.419  1.00  0.00     0.032 A 
ATOM     10  C   UNL A   1      32.140  26.041  24.559  1.00  0.00     0.131 A 
ATOM     11  C   UNL A   1      32.762  28.402  25.820  1.00  0.00     0.108 A 
ATOM     12  C   UNL A   1      33.444  26.254  24.965  1.00  0.00     0.019 A 
ATOM     13  O   UNL A   1      31.824  24.924  23.825  1.00  0.00    -0.475 OA
ATOM     14  C   UNL A   1      33.740  27.454  25.600  1.00  0.00     0.036 A 
ATOM     15  C   UNL A   1      34.427  25.230  24.650  1.00  0.00     0.027 C 
ATOM     16  C   UNL A   1      32.580  23.712  24.104  1.00  0.00     0.316 C 
BRANCH   8  17
ATOM     17  C   UNL A   1      29.796  26.677  24.155  1.00  0.00     0.039 C 
BRANCH  17  18
ATOM     18  C   UNL A   1      29.537  27.660  23.024  1.00  0.00     0.001 C 
ATOM     19  C   UNL A   1      28.159  28.278  23.196  1.00  0.00     0.004 C 
ENDBRANCH  17  18
ENDBRANCH   8  17
BRANCH  11  20
ATOM     20  S   UNL A   1      33.174  29.966  26.632  1.00  0.00     0.310 S 
ATOM     21  F   UNL A   1      31.963  29.819  27.646  1.00  0.00    -0.094 F 
ATOM     22  F   UNL A   1      32.179  30.701  25.658  1.00  0.00    -0.094 F 
ATOM     23  F   UNL A   1      33.521  31.308  27.336  1.00  0.00    -0.094 F 
ATOM     24  F   UNL A   1      34.057  29.192  27.690  1.00  0.00    -0.094 F 
ATOM     25  F   UNL A   1      32.744  28.582  26.001  1.00  0.00    -0.094 F 
ENDBRANCH  11  20
BRANCH  16  26
ATOM     26  C   UNL A   1      32.364  22.721  22.972  1.00  0.00     0.430 C 
ATOM     27  F   UNL A   1      32.998  23.147  21.884  1.00  0.00    -0.167 F 
ATOM     28  F   UNL A   1      32.843  21.532  23.326  1.00  0.00    -0.167 F 
ATOM     29  F   UNL A   1      31.063  22.617  22.715  1.00  0.00    -0.167 F 
ENDBRANCH  16  26
ENDBRANCH   5   7
ENDBRANCH   4   5
ENDBRANCH   3   4
ENDBRANCH   2   3
ENDBRANCH   1   2
BRANCH   1  30
ATOM     30  C   UNL A   1      38.272  19.574  25.016  1.00  0.00     0.202 C 
BRANCH  30  31
ATOM     31  C   UNL A   1      39.535  19.947  25.774  1.00  0.00     0.261 C 
BRANCH  31  32
ATOM     32  O   UNL A   1      40.444  18.856  25.749  1.00  0.00    -0.460 OA
BRANCH  32  33
ATOM     33  C   UNL A   1      41.831  19.082  25.948  1.00  0.00     0.338 C 
ATOM     34  O   UNL A   1      42.662  18.139  25.763  1.00  0.00    -0.246 OA
BRANCH  33  35
ATOM     35  C   UNL A   1      42.322  20.454  26.382  1.00  0.00     0.060 A 
ATOM     36  C   UNL A   1      42.263  20.751  27.733  1.00  0.00     0.016 A 
ATOM     37  C   UNL A   1      42.722  21.357  25.495  1.00  0.00     0.016 A 
ATOM     38  C   UNL A   1      42.370  22.131  28.022  1.00  0.00     0.010 A 
ATOM     39  C   UNL A   1      42.940  22.660  25.874  1.00  0.00     0.010 A 
ATOM     40  C   UNL A   1      42.841  23.037  27.184  1.00  0.00    -0.014 A 
BRANCH  40  41
ATOM     41  C   UNL A   1      43.250  24.425  27.651  1.00  0.00     0.031 A 
ATOM     42  C   UNL A   1      44.610  24.735  27.661  1.00  0.00     0.074 A 
ATOM     43  C   UNL A   1      42.248  25.330  27.960  1.00  0.00     0.049 A 
ATOM     44  N   UNL A   1      45.175  25.914  27.925  1.00  0.00    -0.248 NA
ATOM     45  C   UNL A   1      45.679  23.767  27.366  1.00  0.00     0.031 C 
ATOM     46  C   UNL A   1      40.872  25.028  27.944  1.00  0.00     0.029 A 
ATOM     47  N   UNL A   1      42.385  26.648  28.332  1.00  0.00    -0.354 N 
ATOM     48  C   UNL A   1      46.502  25.825  27.817  1.00  0.00     0.074 A 
ATOM     49  C   UNL A   1      46.845  24.440  27.462  1.00  0.00     0.031 C 
ATOM     50  C   UNL A   1      40.190  26.144  28.312  1.00  0.00     0.029 A 
ATOM     51  C   UNL A   1      41.129  27.164  28.563  1.00  0.00     0.049 A 
ATOM     52  H   UNL A   1      43.235  27.138  28.417  1.00  0.00     0.167 HD
ATOM     53  C   UNL A   1      47.440  26.842  27.999  1.00  0.00     0.037 A 
ATOM     54  C   UNL A   1      40.799  28.446  28.971  1.00  0.00     0.037 A 
ATOM     55  C   UNL A   1      47.106  28.137  28.365  1.00  0.00     0.049 A 
ATOM     56  C   UNL A   1      41.741  29.450  29.210  1.00  0.00     0.074 A 
ATOM     57  C   UNL A   1      48.038  29.177  28.546  1.00  0.00     0.029 A 
ATOM     58  N   UNL A   1      45.852  28.645  28.621  1.00  0.00    -0.354 N 
ATOM     59  N   UNL A   1      43.065  29.370  29.064  1.00  0.00    -0.248 NA
ATOM     60  C   UNL A   1      41.406  30.803  29.675  1.00  0.00     0.031 C 
ATOM     61  C   UNL A   1      47.357  30.295  28.913  1.00  0.00     0.029 A 
ATOM     62  C   UNL A   1      45.987  29.971  28.969  1.00  0.00     0.049 A 
ATOM     63  H   UNL A   1      45.005  28.147  28.563  1.00  0.00     0.167 HD
ATOM     64  C   UNL A   1      43.631  30.540  29.369  1.00  0.00     0.074 A 
ATOM     65  C   UNL A   1      42.573  31.476  29.773  1.00  0.00     0.031 C 
ATOM     66  C   UNL A   1      44.988  30.865  29.322  1.00  0.00     0.037 A 
BRANCH  53  67
ATOM     67  C   UNL A   1      48.907  26.513  27.783  1.00  0.00     0.064 A 
ATOM     68  C   UNL A   1      49.452  26.522  26.509  1.00  0.00     0.173 A 
ATOM     69  C   UNL A   1      49.655  26.254  28.849  1.00  0.00     0.173 A 
ATOM     70  F   UNL A   1      48.816  27.017  25.451  1.00  0.00    -0.203 F 
ATOM     71  C   UNL A   1      50.747  25.956  26.435  1.00  0.00     0.198 A 
ATOM     72  C   UNL A   1      50.955  25.835  28.707  1.00  0.00     0.198 A 
ATOM     73  F   UNL A   1      49.139  26.400  30.067  1.00  0.00    -0.203 F 
ATOM     74  F   UNL A   1      51.196  25.594  25.237  1.00  0.00    -0.200 F 
ATOM     75  C   UNL A   1      51.540  25.764  27.473  1.00  0.00     0.200 A 
ATOM     76  F   UNL A   1      51.656  25.495  29.784  1.00  0.00    -0.200 F 
ATOM     77  F   UNL A   1      52.839  25.513  27.326  1.00  0.00    -0.200 F 
ENDBRANCH  53  67
BRANCH  54  78
ATOM     78  C   UNL A   1      39.330  28.780  29.172  1.00  0.00     0.064 A 
ATOM     79  C   UNL A   1      38.589  29.329  28.139  1.00  0.00     0.173 A 
ATOM     80  C   UNL A   1      38.792  28.562  30.367  1.00  0.00     0.173 A 
ATOM     81  F   UNL A   1      38.997  29.332  26.874  1.00  0.00    -0.203 F 
ATOM     82  C   UNL A   1      37.356  29.888  28.553  1.00  0.00     0.198 A 
ATOM     83  C   UNL A   1      37.530  29.018  30.659  1.00  0.00     0.198 A 
ATOM     84  F   UNL A   1      39.483  27.897  31.288  1.00  0.00    -0.203 F 
ATOM     85  F   UNL A   1      36.754  30.739  27.727  1.00  0.00    -0.200 F 
ATOM     86  C   UNL A   1      36.762  29.624  29.702  1.00  0.00     0.200 A 
ATOM     87  F   UNL A   1      37.047  28.868  31.889  1.00  0.00    -0.200 F 
ATOM     88  F   UNL A   1      35.487  29.930  29.919  1.00  0.00    -0.200 F 
ENDBRANCH  54  78
BRANCH  66  89
ATOM     89  C   UNL A   1      45.394  32.285  29.679  1.00  0.00     0.064 A 
ATOM     90  C   UNL A   1      45.410  33.232  28.667  1.00  0.00     0.173 A 
ATOM     91  C   UNL A   1      45.736  32.601  30.923  1.00  0.00     0.173 A 
ATOM     92  F   UNL A   1      44.843  33.035  27.481  1.00  0.00    -0.203 F 
ATOM     93  C   UNL A   1      46.084  34.426  29.012  1.00  0.00     0.198 A 
ATOM     94  C   UNL A   1      46.262  33.836  31.212  1.00  0.00     0.198 A 
ATOM     95  F   UNL A   1      45.566  31.713  31.899  1.00  0.00    -0.203 F 
ATOM     96  F   UNL A   1      46.465  35.230  28.022  1.00  0.00    -0.200 F 
ATOM     97  C   UNL A   1      46.364  34.800  30.248  1.00  0.00     0.200 A 
ATOM     98  F   UNL A   1      46.681  34.097  32.447  1.00  0.00    -0.200 F 
ATOM     99  F   UNL A   1      46.723  36.047  30.539  1.00  0.00    -0.200 F 
ENDBRANCH  66  89
ENDBRANCH  40  41
ENDBRANCH  33  35
ENDBRANCH  32  33
ENDBRANCH  31  32
ENDBRANCH  30  31
ENDBRANCH   1  30
TORSDOF 18
ENDMDL
MODEL 3
REMARK VINA RESULT:     -12.3      5.426     10.639
REMARK SMILES CCCc1cc(S(F)(F)(F)(F)F)cc2c1O[C@@H](C(F)(F)F)C(C(=O)OCCOCCOC(=O)c1ccc(-c3c4nc(c(-c5c(F)c(F)c(F)c(F)c5F)c5ccc([nH]5)c(-c5c(F)c(F)c(F)c(F)c5F)c5nc(c(-c6c(F)c(F)c(F)c(F)c6F)c6ccc3[nH]6)C=C5)C=C4)cc1)=C2
REMARK SMILES IDX 28 1 27 2 26 3 25 4 23 5 24 6 22 7 4 8 5 9 15 10 6 11 14 12
REMARK SMILES IDX 16 13 13 14 97 15 17 16 3 17 2 18 1 19 7 20 8 21 9 22 10 23
REMARK SMILES IDX 11 24 12 25 18 26 19 27 20 28 21 29 29 30 30 31 31 32 32 33
REMARK SMILES IDX 33 34 34 35 35 36 96 37 36 38 95 39 37 40 38 41 39 42 89 43
REMARK SMILES IDX 40 44 94 45 88 46 90 47 41 48 93 49 87 50 86 51 42 53 74 54
REMARK SMILES IDX 54 55 73 56 55 57 58 58 72 59 91 60 56 61 57 62 71 64 92 65
REMARK SMILES IDX 59 66 43 67 44 68 52 69 45 70 46 71 50 72 53 73 47 74 48 75
REMARK SMILES IDX 51 76 49 77 75 78 76 79 84 80 77 81 78 82 82 83 85 84 79 85
REMARK SMILES IDX 80 86 83 87 81 88 60 89 61 90 69 91 62 92 63 93 67 94 70 95
REMARK SMILES IDX 64 96 65 97 68 98 66 99
REMARK H PARENT 90 52 58 63
REMARK Flexibility Score: inf
ROOT
ATOM      1  O   UNL A   1      37.967  21.018  24.581  1.00  0.00    -0.374 OA
ENDROOT
BRANCH   1   2
ATOM      2  C   UNL A   1      37.417  21.826  25.612  1.00  0.00     0.202 C 
BRANCH   2   3
ATOM      3  C   UNL A   1      35.935  21.523  25.756  1.00  0.00     0.261 C 
BRANCH   3   4
ATOM      4  O   UNL A   1      35.327  21.506  24.473  1.00  0.00    -0.460 OA
BRANCH   4   5
ATOM      5  C   UNL A   1      35.154  22.718  23.753  1.00  0.00     0.338 C 
ATOM      6  O   UNL A   1      35.896  22.976  22.754  1.00  0.00    -0.246 OA
BRANCH   5   7
ATOM      7  C   UNL A   1      34.082  23.708  24.178  1.00  0.00     0.087 C 
ATOM      8  C   UNL A   1      31.106  26.560  24.854  1.00  0.00    -0.004 A 
ATOM      9  C   UNL A   1      31.399  27.708  25.569  1.00  0.00     0.032 A 
ATOM     10  C   UNL A   1      32.117  25.665  24.601  1.00  0.00     0.131 A 
ATOM     11  C   UNL A   1      32.671  27.955  26.015  1.00  0.00     0.108 A 
ATOM     12  C   UNL A   1      33.408  25.872  25.050  1.00  0.00     0.019 A 
ATOM     13  O   UNL A   1      31.837  24.588  23.795  1.00  0.00    -0.475 OA
ATOM     14  C   UNL A   1      33.670  27.037  25.761  1.00  0.00     0.036 A 
ATOM     15  C   UNL A   1      34.414  24.885  24.698  1.00  0.00     0.027 C 
ATOM     16  C   UNL A   1      32.606  23.373  24.020  1.00  0.00     0.316 C 
BRANCH   8  17
ATOM     17  C   UNL A   1      29.772  26.287  24.180  1.00  0.00     0.039 C 
BRANCH  17  18
ATOM     18  C   UNL A   1      29.289  27.547  23.481  1.00  0.00     0.001 C 
ATOM     19  C   UNL A   1      30.265  27.919  22.377  1.00  0.00     0.004 C 
ENDBRANCH  17  18
ENDBRANCH   8  17
BRANCH  11  20
ATOM     20  S   UNL A   1      33.038  29.474  26.927  1.00  0.00     0.310 S 
ATOM     21  F   UNL A   1      34.119  28.736  27.825  1.00  0.00    -0.094 F 
ATOM     22  F   UNL A   1      31.963  29.056  28.000  1.00  0.00    -0.094 F 
ATOM     23  F   UNL A   1      33.361  30.774  27.716  1.00  0.00    -0.094 F 
ATOM     24  F   UNL A   1      34.209  29.804  25.920  1.00  0.00    -0.094 F 
ATOM     25  F   UNL A   1      32.801  28.102  26.179  1.00  0.00    -0.094 F 
ENDBRANCH  11  20
BRANCH  16  26
ATOM     26  C   UNL A   1      32.433  22.449  22.825  1.00  0.00     0.430 C 
ATOM     27  F   UNL A   1      33.101  22.937  21.786  1.00  0.00    -0.167 F 
ATOM     28  F   UNL A   1      32.903  21.242  23.128  1.00  0.00    -0.167 F 
ATOM     29  F   UNL A   1      31.141  22.357  22.519  1.00  0.00    -0.167 F 
ENDBRANCH  16  26
ENDBRANCH   5   7
ENDBRANCH   4   5
ENDBRANCH   3   4
ENDBRANCH   2   3
ENDBRANCH   1   2
BRANCH   1  30
ATOM     30  C   UNL A   1      38.196  19.707  25.079  1.00  0.00     0.202 C 
BRANCH  30  31
ATOM     31  C   UNL A   1      39.298  19.747  26.123  1.00  0.00     0.261 C 
BRANCH  31  32
ATOM     32  O   UNL A   1      40.338  18.855  25.750  1.00  0.00    -0.460 OA
BRANCH  32  33
ATOM     33  C   UNL A   1      41.689  19.173  26.052  1.00  0.00     0.338 C 
ATOM     34  O   UNL A   1      42.578  18.266  26.016  1.00  0.00    -0.246 OA
BRANCH  33  35
ATOM     35  C   UNL A   1      42.070  20.598  26.417  1.00  0.00     0.060 A 
ATOM     36  C   UNL A   1      42.428  21.445  25.382  1.00  0.00     0.016 A 
ATOM     37  C   UNL A   1      42.131  20.993  27.683  1.00  0.00     0.016 A 
ATOM     38  C   UNL A   1      43.118  22.606  25.803  1.00  0.00     0.010 A 
ATOM     39  C   UNL A   1      42.696  22.202  28.012  1.00  0.00     0.010 A 
ATOM     40  C   UNL A   1      43.126  23.064  27.042  1.00  0.00    -0.014 A 
BRANCH  40  41
ATOM     41  C   UNL A   1      43.588  24.474  27.371  1.00  0.00     0.031 A 
ATOM     42  C   UNL A   1      44.940  24.773  27.203  1.00  0.00     0.074 A 
ATOM     43  C   UNL A   1      42.630  25.404  27.740  1.00  0.00     0.049 A 
ATOM     44  N   UNL A   1      45.533  25.962  27.325  1.00  0.00    -0.248 NA
ATOM     45  C   UNL A   1      45.965  23.780  26.844  1.00  0.00     0.031 C 
ATOM     46  C   UNL A   1      41.262  25.113  27.904  1.00  0.00     0.029 A 
ATOM     47  N   UNL A   1      42.812  26.742  28.011  1.00  0.00    -0.354 N 
ATOM     48  C   UNL A   1      46.839  25.855  27.068  1.00  0.00     0.074 A 
ATOM     49  C   UNL A   1      47.136  24.449  26.761  1.00  0.00     0.031 C 
ATOM     50  C   UNL A   1      40.629  26.256  28.280  1.00  0.00     0.029 A 
ATOM     51  C   UNL A   1      41.592  27.281  28.356  1.00  0.00     0.049 A 
ATOM     52  H   UNL A   1      43.666  27.229  27.966  1.00  0.00     0.167 HD
ATOM     53  C   UNL A   1      47.792  26.874  27.076  1.00  0.00     0.037 A 
ATOM     54  C   UNL A   1      41.314  28.589  28.721  1.00  0.00     0.037 A 
ATOM     55  C   UNL A   1      47.506  28.191  27.399  1.00  0.00     0.049 A 
ATOM     56  C   UNL A   1      42.278  29.597  28.785  1.00  0.00     0.074 A 
ATOM     57  C   UNL A   1      48.453  29.233  27.404  1.00  0.00     0.029 A 
ATOM     58  N   UNL A   1      46.290  28.724  27.768  1.00  0.00    -0.354 N 
ATOM     59  N   UNL A   1      43.576  29.498  28.490  1.00  0.00    -0.248 NA
ATOM     60  C   UNL A   1      42.002  30.978  29.202  1.00  0.00     0.031 C 
ATOM     61  C   UNL A   1      47.821  30.376  27.780  1.00  0.00     0.029 A 
ATOM     62  C   UNL A   1      46.467  30.067  28.016  1.00  0.00     0.049 A 
ATOM     63  H   UNL A   1      45.442  28.231  27.841  1.00  0.00     0.167 HD
ATOM     64  C   UNL A   1      44.175  30.679  28.653  1.00  0.00     0.074 A 
ATOM     65  C   UNL A   1      43.173  31.647  29.121  1.00  0.00     0.031 C 
ATOM     66  C   UNL A   1      45.518  30.990  28.428  1.00  0.00     0.037 A 
BRANCH  53  67
ATOM     67  C   UNL A   1      49.224  26.520  26.710  1.00  0.00     0.064 A 
ATOM     68  C   UNL A   1      50.110  26.076  27.679  1.00  0.00     0.173 A 
ATOM     69  C   UNL A   1      49.587  26.613  25.437  1.00  0.00     0.173 A 
ATOM     70  F   UNL A   1      49.730  25.727  28.904  1.00  0.00    -0.203 F 
ATOM     71  C   UNL A   1      51.456  26.029  27.246  1.00  0.00     0.198 A 
ATOM     72  C   UNL A   1      50.896  26.421  25.066  1.00  0.00     0.198 A 
ATOM     73  F   UNL A   1      48.675  26.897  24.511  1.00  0.00    -0.203 F 
ATOM     74  F   UNL A   1      52.404  25.970  28.177  1.00  0.00    -0.200 F 
ATOM     75  C   UNL A   1      51.837  26.040  25.982  1.00  0.00     0.200 A 
ATOM     76  F   UNL A   1      51.253  26.608  23.799  1.00  0.00    -0.200 F 
ATOM     77  F   UNL A   1      53.070  25.697  25.619  1.00  0.00    -0.200 F 
ENDBRANCH  53  67
BRANCH  54  78
ATOM     78  C   UNL A   1      39.879  28.946  29.071  1.00  0.00     0.064 A 
ATOM     79  C   UNL A   1      39.438  28.872  30.382  1.00  0.00     0.173 A 
ATOM     80  C   UNL A   1      39.058  29.295  28.087  1.00  0.00     0.173 A 
ATOM     81  F   UNL A   1      40.263  28.778  31.421  1.00  0.00    -0.203 F 
ATOM     82  C   UNL A   1      38.030  28.905  30.516  1.00  0.00     0.198 A 
ATOM     83  C   UNL A   1      37.712  29.442  28.318  1.00  0.00     0.198 A 
ATOM     84  F   UNL A   1      39.545  29.503  26.867  1.00  0.00    -0.203 F 
ATOM     85  F   UNL A   1      37.507  28.485  31.665  1.00  0.00    -0.200 F 
ATOM     86  C   UNL A   1      37.198  29.324  29.580  1.00  0.00     0.200 A 
ATOM     87  F   UNL A   1      36.897  29.704  27.301  1.00  0.00    -0.200 F 
ATOM     88  F   UNL A   1      35.929  29.616  29.849  1.00  0.00    -0.200 F 
ENDBRANCH  54  78
BRANCH  66  89
ATOM     89  C   UNL A   1      45.964  32.426  28.647  1.00  0.00     0.064 A 
ATOM     90  C   UNL A   1      46.404  32.785  29.911  1.00  0.00     0.173 A 
ATOM     91  C   UNL A   1      45.920  33.309  27.656  1.00  0.00     0.173 A 
ATOM     92  F   UNL A   1      46.705  31.897  30.853  1.00  0.00    -0.203 F 
ATOM     93  C   UNL A   1      46.503  34.182  30.107  1.00  0.00     0.198 A 
ATOM     94  C   UNL A   1      46.162  34.640  27.895  1.00  0.00     0.198 A 
ATOM     95  F   UNL A   1      45.639  32.901  26.422  1.00  0.00    -0.203 F 
ATOM     96  F   UNL A   1      46.561  34.629  31.359  1.00  0.00    -0.200 F 
ATOM     97  C   UNL A   1      46.542  35.075  29.134  1.00  0.00     0.200 A 
ATOM     98  F   UNL A   1      46.023  35.518  26.905  1.00  0.00    -0.200 F 
ATOM     99  F   UNL A   1      46.930  36.329  29.347  1.00  0.00    -0.200 F 
ENDBRANCH  66  89
ENDBRANCH  40  41
ENDBRANCH  33  35
ENDBRANCH  32  33
ENDBRANCH  31  32
ENDBRANCH  30  31
ENDBRANCH   1  30
TORSDOF 18
ENDMDL
