MODEL 1
REMARK VINA RESULT:     -12.2      0.000      0.000
REMARK SMILES CC(=O)NS(=O)(=O)c1ccc(-c2ccn(C(F)F)c(=O)c2)cc1C(=O)OCCOCCOC(=O)c1ccc(-c2c3nc(c(-c4c(F)c(F)c(F)c(F)c4F)c4ccc([nH]4)c(-c4c(F)c(F)c(F)c(F)c4F)c4nc(c(-c5c(F)c(F)c(F)c(F)c5F)c5ccc2[nH]5)C=C4)C=C3)cc1
REMARK SMILES IDX 29 1 28 2 27 3 26 4 24 5 25 6 23 7 8 8 9 9 10 10 22 11 11 12
REMARK SMILES IDX 5 13 6 14 7 15 4 16 1 17 2 18 3 19 12 21 13 22 21 23 14 24
REMARK SMILES IDX 19 25 15 26 20 27 16 28 17 29 18 30 30 31 31 32 32 33 33 34
REMARK SMILES IDX 34 35 35 36 36 37 97 38 37 39 96 40 38 41 39 42 40 43 90 44
REMARK SMILES IDX 41 45 95 46 89 47 91 48 42 49 94 50 88 51 87 52 43 54 75 55
REMARK SMILES IDX 55 56 74 57 56 58 59 59 73 60 92 61 57 62 58 63 72 65 93 66
REMARK SMILES IDX 60 67 44 68 45 69 53 70 46 71 47 72 51 73 54 74 48 75 49 76
REMARK SMILES IDX 52 77 50 78 76 79 77 80 85 81 78 82 79 83 83 84 86 85 80 86
REMARK SMILES IDX 81 87 84 88 82 89 61 90 62 91 70 92 63 93 64 94 68 95 71 96
REMARK SMILES IDX 65 97 66 98 69 99 67 100
REMARK H PARENT 4 20 91 53 59 64
REMARK Flexibility Score: inf
ROOT
ATOM      1  O   UNL A   1      33.490  30.801  26.613  1.00  0.00    -0.374 OA
ENDROOT
BRANCH   1   2
ATOM      2  C   UNL A   1      33.938  29.538  27.115  1.00  0.00     0.202 C 
BRANCH   2   3
ATOM      3  C   UNL A   1      33.954  28.428  26.066  1.00  0.00     0.261 C 
BRANCH   3   4
ATOM      4  O   UNL A   1      33.393  27.243  26.654  1.00  0.00    -0.460 OA
BRANCH   4   5
ATOM      5  C   UNL A   1      32.055  27.234  26.782  1.00  0.00     0.339 C 
ATOM      6  O   UNL A   1      31.404  27.613  27.739  1.00  0.00    -0.246 OA
BRANCH   5   7
ATOM      7  C   UNL A   1      31.430  26.844  25.501  1.00  0.00     0.081 A 
ATOM      8  C   UNL A   1      31.276  25.542  25.023  1.00  0.00     0.102 A 
ATOM      9  C   UNL A   1      30.614  25.320  23.799  1.00  0.00     0.024 A 
ATOM     10  C   UNL A   1      30.080  26.387  23.073  1.00  0.00     0.010 A 
ATOM     11  C   UNL A   1      30.903  27.911  24.755  1.00  0.00     0.025 A 
ATOM     12  C   UNL A   1      30.208  27.687  23.560  1.00  0.00    -0.017 A 
BRANCH   8  13
ATOM     13  S   UNL A   1      31.708  24.105  25.962  1.00  0.00     0.264 S 
ATOM     14  O   UNL A   1      31.481  22.957  25.112  1.00  0.00    -0.201 OA
ATOM     15  O   UNL A   1      31.055  24.219  27.247  1.00  0.00    -0.201 OA
BRANCH  13  16
ATOM     16  N   UNL A   1      33.338  24.202  26.249  1.00  0.00    -0.249 N 
ATOM     17  C   UNL A   1      33.738  22.161  27.618  1.00  0.00     0.115 C 
ATOM     18  C   UNL A   1      34.197  23.144  26.577  1.00  0.00     0.230 C 
ATOM     19  O   UNL A   1      35.341  23.157  26.144  1.00  0.00    -0.274 OA
ATOM     20  H   UNL A   1      33.744  25.096  26.183  1.00  0.00     0.183 HD
ENDBRANCH  13  16
ENDBRANCH   8  13
BRANCH  12  21
ATOM     21  C   UNL A   1      29.563  28.828  22.898  1.00  0.00    -0.011 A 
ATOM     22  C   UNL A   1      30.083  29.458  21.703  1.00  0.00     0.027 A 
ATOM     23  C   UNL A   1      28.494  29.359  23.515  1.00  0.00     0.080 A 
ATOM     24  C   UNL A   1      29.540  30.597  21.254  1.00  0.00     0.095 A 
ATOM     25  C   UNL A   1      27.866  30.610  23.015  1.00  0.00     0.255 A 
ATOM     26  N   UNL A   1      28.462  31.177  21.900  1.00  0.00    -0.258 N 
ATOM     27  O   UNL A   1      26.900  31.060  23.622  1.00  0.00    -0.269 OA
BRANCH  26  28
ATOM     28  C   UNL A   1      27.928  32.437  21.452  1.00  0.00     0.451 C 
ATOM     29  F   UNL A   1      28.408  33.465  22.192  1.00  0.00    -0.185 F 
ATOM     30  F   UNL A   1      28.255  32.664  20.155  1.00  0.00    -0.185 F 
ENDBRANCH  26  28
ENDBRANCH  12  21
ENDBRANCH   5   7
ENDBRANCH   4   5
ENDBRANCH   3   4
ENDBRANCH   2   3
ENDBRANCH   1   2
BRANCH   1  31
ATOM     31  C   UNL A   1      32.098  31.093  26.759  1.00  0.00     0.202 C 
BRANCH  31  32
ATOM     32  C   UNL A   1      31.779  32.508  27.251  1.00  0.00     0.261 C 
BRANCH  32  33
ATOM     33  O   UNL A   1      32.919  33.375  27.132  1.00  0.00    -0.460 OA
BRANCH  33  34
ATOM     34  C   UNL A   1      33.416  33.823  28.309  1.00  0.00     0.338 C 
ATOM     35  O   UNL A   1      32.894  34.621  29.071  1.00  0.00    -0.246 OA
BRANCH  34  36
ATOM     36  C   UNL A   1      34.641  33.079  28.665  1.00  0.00     0.060 A 
ATOM     37  C   UNL A   1      34.492  31.990  29.532  1.00  0.00     0.016 A 
ATOM     38  C   UNL A   1      35.910  33.454  28.216  1.00  0.00     0.016 A 
ATOM     39  C   UNL A   1      35.612  31.309  29.999  1.00  0.00     0.010 A 
ATOM     40  C   UNL A   1      37.038  32.774  28.692  1.00  0.00     0.010 A 
ATOM     41  C   UNL A   1      36.895  31.722  29.614  1.00  0.00    -0.014 A 
BRANCH  41  42
ATOM     42  C   UNL A   1      38.070  31.123  30.289  1.00  0.00     0.031 A 
ATOM     43  C   UNL A   1      38.354  31.479  31.722  1.00  0.00     0.074 A 
ATOM     44  C   UNL A   1      38.836  30.218  29.656  1.00  0.00     0.049 A 
ATOM     45  N   UNL A   1      39.278  31.017  32.526  1.00  0.00    -0.248 NA
ATOM     46  C   UNL A   1      37.476  32.490  32.332  1.00  0.00     0.031 C 
ATOM     47  C   UNL A   1      38.649  29.774  28.277  1.00  0.00     0.029 A 
ATOM     48  N   UNL A   1      39.921  29.503  30.097  1.00  0.00    -0.354 N 
ATOM     49  C   UNL A   1      39.087  31.671  33.736  1.00  0.00     0.074 A 
ATOM     50  C   UNL A   1      37.983  32.589  33.552  1.00  0.00     0.031 C 
ATOM     51  C   UNL A   1      39.590  28.860  27.982  1.00  0.00     0.029 A 
ATOM     52  C   UNL A   1      40.452  28.667  29.148  1.00  0.00     0.049 A 
ATOM     53  H   UNL A   1      40.285  29.583  31.009  1.00  0.00     0.167 HD
ATOM     54  C   UNL A   1      39.761  31.508  34.900  1.00  0.00     0.037 A 
ATOM     55  C   UNL A   1      41.516  27.843  29.212  1.00  0.00     0.037 A 
ATOM     56  C   UNL A   1      40.859  30.597  35.084  1.00  0.00     0.049 A 
ATOM     57  C   UNL A   1      42.284  27.725  30.502  1.00  0.00     0.074 A 
ATOM     58  C   UNL A   1      41.588  30.344  36.233  1.00  0.00     0.029 A 
ATOM     59  N   UNL A   1      41.396  29.798  34.086  1.00  0.00    -0.354 N 
ATOM     60  N   UNL A   1      42.066  28.310  31.655  1.00  0.00    -0.248 NA
ATOM     61  C   UNL A   1      43.444  26.821  30.500  1.00  0.00     0.031 C 
ATOM     62  C   UNL A   1      42.594  29.423  35.920  1.00  0.00     0.029 A 
ATOM     63  C   UNL A   1      42.464  29.070  34.587  1.00  0.00     0.049 A 
ATOM     64  H   UNL A   1      41.067  29.753  33.160  1.00  0.00     0.167 HD
ATOM     65  C   UNL A   1      43.043  27.832  32.518  1.00  0.00     0.074 A 
ATOM     66  C   UNL A   1      43.846  26.894  31.761  1.00  0.00     0.031 C 
ATOM     67  C   UNL A   1      43.255  28.142  33.821  1.00  0.00     0.037 A 
BRANCH  54  68
ATOM     68  C   UNL A   1      39.335  32.349  36.066  1.00  0.00     0.064 A 
ATOM     69  C   UNL A   1      38.379  31.896  36.987  1.00  0.00     0.173 A 
ATOM     70  C   UNL A   1      39.917  33.606  36.286  1.00  0.00     0.173 A 
ATOM     71  F   UNL A   1      37.784  30.706  36.813  1.00  0.00    -0.203 F 
ATOM     72  C   UNL A   1      38.006  32.680  38.076  1.00  0.00     0.198 A 
ATOM     73  C   UNL A   1      39.559  34.378  37.389  1.00  0.00     0.198 A 
ATOM     74  F   UNL A   1      40.839  34.083  35.436  1.00  0.00    -0.203 F 
ATOM     75  F   UNL A   1      37.063  32.246  38.923  1.00  0.00    -0.200 F 
ATOM     76  C   UNL A   1      38.601  33.917  38.279  1.00  0.00     0.200 A 
ATOM     77  F   UNL A   1      40.142  35.568  37.589  1.00  0.00    -0.200 F 
ATOM     78  F   UNL A   1      38.245  34.669  39.330  1.00  0.00    -0.200 F 
ENDBRANCH  54  68
BRANCH  55  79
ATOM     79  C   UNL A   1      41.918  27.059  28.016  1.00  0.00     0.064 A 
ATOM     80  C   UNL A   1      42.827  27.576  27.084  1.00  0.00     0.173 A 
ATOM     81  C   UNL A   1      41.388  25.783  27.777  1.00  0.00     0.173 A 
ATOM     82  F   UNL A   1      43.338  28.804  27.257  1.00  0.00    -0.203 F 
ATOM     83  C   UNL A   1      43.178  26.853  25.947  1.00  0.00     0.198 A 
ATOM     84  C   UNL A   1      41.760  25.050  26.653  1.00  0.00     0.198 A 
ATOM     85  F   UNL A   1      40.512  25.247  28.639  1.00  0.00    -0.203 F 
ATOM     86  F   UNL A   1      44.015  27.387  25.048  1.00  0.00    -0.200 F 
ATOM     87  C   UNL A   1      42.650  25.588  25.735  1.00  0.00     0.200 A 
ATOM     88  F   UNL A   1      41.252  23.826  26.456  1.00  0.00    -0.200 F 
ATOM     89  F   UNL A   1      42.989  24.892  24.642  1.00  0.00    -0.200 F 
ENDBRANCH  55  79
BRANCH  67  90
ATOM     90  C   UNL A   1      44.389  27.446  34.516  1.00  0.00     0.064 A 
ATOM     91  C   UNL A   1      45.669  28.017  34.585  1.00  0.00     0.173 A 
ATOM     92  C   UNL A   1      44.187  26.211  35.149  1.00  0.00     0.173 A 
ATOM     93  F   UNL A   1      45.917  29.190  33.983  1.00  0.00    -0.203 F 
ATOM     94  C   UNL A   1      46.710  27.363  35.239  1.00  0.00     0.198 A 
ATOM     95  C   UNL A   1      45.223  25.573  35.826  1.00  0.00     0.198 A 
ATOM     96  F   UNL A   1      42.979  25.626  35.120  1.00  0.00    -0.203 F 
ATOM     97  F   UNL A   1      47.936  27.904  35.251  1.00  0.00    -0.200 F 
ATOM     98  C   UNL A   1      46.485  26.146  35.863  1.00  0.00     0.200 A 
ATOM     99  F   UNL A   1      45.000  24.403  36.440  1.00  0.00    -0.200 F 
ATOM    100  F   UNL A   1      47.487  25.520  36.496  1.00  0.00    -0.200 F 
ENDBRANCH  67  90
ENDBRANCH  41  42
ENDBRANCH  34  36
ENDBRANCH  33  34
ENDBRANCH  32  33
ENDBRANCH  31  32
ENDBRANCH   1  31
TORSDOF 18
ENDMDL
MODEL 2
REMARK VINA RESULT:     -12.1      4.462      9.993
REMARK SMILES CC(=O)NS(=O)(=O)c1ccc(-c2ccn(C(F)F)c(=O)c2)cc1C(=O)OCCOCCOC(=O)c1ccc(-c2c3nc(c(-c4c(F)c(F)c(F)c(F)c4F)c4ccc([nH]4)c(-c4c(F)c(F)c(F)c(F)c4F)c4nc(c(-c5c(F)c(F)c(F)c(F)c5F)c5ccc2[nH]5)C=C4)C=C3)cc1
REMARK SMILES IDX 29 1 28 2 27 3 26 4 24 5 25 6 23 7 8 8 9 9 10 10 22 11 11 12
REMARK SMILES IDX 5 13 6 14 7 15 4 16 1 17 2 18 3 19 12 21 13 22 21 23 14 24
REMARK SMILES IDX 19 25 15 26 20 27 16 28 17 29 18 30 30 31 31 32 32 33 33 34
REMARK SMILES IDX 34 35 35 36 36 37 97 38 37 39 96 40 38 41 39 42 40 43 90 44
REMARK SMILES IDX 41 45 95 46 89 47 91 48 42 49 94 50 88 51 87 52 43 54 75 55
REMARK SMILES IDX 55 56 74 57 56 58 59 59 73 60 92 61 57 62 58 63 72 65 93 66
REMARK SMILES IDX 60 67 44 68 45 69 53 70 46 71 47 72 51 73 54 74 48 75 49 76
REMARK SMILES IDX 52 77 50 78 76 79 77 80 85 81 78 82 79 83 83 84 86 85 80 86
REMARK SMILES IDX 81 87 84 88 82 89 61 90 62 91 70 92 63 93 64 94 68 95 71 96
REMARK SMILES IDX 65 97 66 98 69 99 67 100
REMARK H PARENT 4 20 91 53 59 64
REMARK Flexibility Score: inf
ROOT
ATOM      1  O   UNL A   1      36.733  20.861  25.249  1.00  0.00    -0.374 OA
ENDROOT
BRANCH   1   2
ATOM      2  C   UNL A   1      36.714  21.950  24.320  1.00  0.00     0.202 C 
BRANCH   2   3
ATOM      3  C   UNL A   1      36.770  23.325  24.981  1.00  0.00     0.261 C 
BRANCH   3   4
ATOM      4  O   UNL A   1      35.606  24.067  24.581  1.00  0.00    -0.460 OA
BRANCH   4   5
ATOM      5  C   UNL A   1      34.623  24.143  25.493  1.00  0.00     0.339 C 
ATOM      6  O   UNL A   1      34.574  23.580  26.572  1.00  0.00    -0.246 OA
BRANCH   5   7
ATOM      7  C   UNL A   1      33.637  25.166  25.086  1.00  0.00     0.081 A 
ATOM      8  C   UNL A   1      32.559  24.971  24.221  1.00  0.00     0.102 A 
ATOM      9  C   UNL A   1      31.670  26.034  23.961  1.00  0.00     0.024 A 
ATOM     10  C   UNL A   1      31.837  27.272  24.586  1.00  0.00     0.010 A 
ATOM     11  C   UNL A   1      33.805  26.420  25.696  1.00  0.00     0.025 A 
ATOM     12  C   UNL A   1      32.897  27.463  25.471  1.00  0.00    -0.017 A 
BRANCH   8  13
ATOM     13  S   UNL A   1      32.120  23.391  23.555  1.00  0.00     0.264 S 
ATOM     14  O   UNL A   1      33.087  23.080  22.526  1.00  0.00    -0.201 OA
ATOM     15  O   UNL A   1      30.705  23.428  23.260  1.00  0.00    -0.201 OA
BRANCH  13  16
ATOM     16  N   UNL A   1      32.320  22.292  24.779  1.00  0.00    -0.249 N 
ATOM     17  C   UNL A   1      32.362  20.138  23.530  1.00  0.00     0.115 C 
ATOM     18  C   UNL A   1      32.844  20.997  24.667  1.00  0.00     0.230 C 
ATOM     19  O   UNL A   1      33.526  20.554  25.581  1.00  0.00    -0.274 OA
ATOM     20  H   UNL A   1      32.041  22.579  25.679  1.00  0.00     0.183 HD
ENDBRANCH  13  16
ENDBRANCH   8  13
BRANCH  12  21
ATOM     21  C   UNL A   1      33.048  28.703  26.242  1.00  0.00    -0.011 A 
ATOM     22  C   UNL A   1      32.065  29.765  26.250  1.00  0.00     0.027 A 
ATOM     23  C   UNL A   1      34.218  28.879  26.880  1.00  0.00     0.080 A 
ATOM     24  C   UNL A   1      32.345  30.936  26.837  1.00  0.00     0.095 A 
ATOM     25  C   UNL A   1      34.534  30.165  27.556  1.00  0.00     0.255 A 
ATOM     26  N   UNL A   1      33.559  31.146  27.466  1.00  0.00    -0.258 N 
ATOM     27  O   UNL A   1      35.620  30.279  28.113  1.00  0.00    -0.269 OA
BRANCH  26  28
ATOM     28  C   UNL A   1      33.881  32.430  28.034  1.00  0.00     0.451 C 
ATOM     29  F   UNL A   1      35.032  32.921  27.518  1.00  0.00    -0.185 F 
ATOM     30  F   UNL A   1      32.893  33.326  27.784  1.00  0.00    -0.185 F 
ENDBRANCH  26  28
ENDBRANCH  12  21
ENDBRANCH   5   7
ENDBRANCH   4   5
ENDBRANCH   3   4
ENDBRANCH   2   3
ENDBRANCH   1   2
BRANCH   1  31
ATOM     31  C   UNL A   1      37.431  19.682  24.841  1.00  0.00     0.202 C 
BRANCH  31  32
ATOM     32  C   UNL A   1      38.849  19.539  25.401  1.00  0.00     0.261 C 
BRANCH  32  33
ATOM     33  O   UNL A   1      39.376  20.807  25.826  1.00  0.00    -0.460 OA
BRANCH  33  34
ATOM     34  C   UNL A   1      40.400  20.728  26.708  1.00  0.00     0.338 C 
ATOM     35  O   UNL A   1      41.071  19.743  26.969  1.00  0.00    -0.246 OA
BRANCH  34  36
ATOM     36  C   UNL A   1      40.738  22.071  27.224  1.00  0.00     0.060 A 
ATOM     37  C   UNL A   1      40.171  23.166  26.560  1.00  0.00     0.016 A 
ATOM     38  C   UNL A   1      41.620  22.271  28.289  1.00  0.00     0.016 A 
ATOM     39  C   UNL A   1      40.529  24.462  26.918  1.00  0.00     0.010 A 
ATOM     40  C   UNL A   1      41.986  23.575  28.643  1.00  0.00     0.010 A 
ATOM     41  C   UNL A   1      41.470  24.674  27.936  1.00  0.00    -0.014 A 
BRANCH  41  42
ATOM     42  C   UNL A   1      41.991  26.045  28.150  1.00  0.00     0.031 A 
ATOM     43  C   UNL A   1      43.328  26.420  27.575  1.00  0.00     0.074 A 
ATOM     44  C   UNL A   1      41.251  26.967  28.790  1.00  0.00     0.049 A 
ATOM     45  N   UNL A   1      43.939  27.578  27.576  1.00  0.00    -0.248 NA
ATOM     46  C   UNL A   1      44.078  25.345  26.905  1.00  0.00     0.031 C 
ATOM     47  C   UNL A   1      39.932  26.732  29.371  1.00  0.00     0.029 A 
ATOM     48  N   UNL A   1      41.504  28.290  29.049  1.00  0.00    -0.354 N 
ATOM     49  C   UNL A   1      45.135  27.375  26.901  1.00  0.00     0.074 A 
ATOM     50  C   UNL A   1      45.184  25.975  26.536  1.00  0.00     0.031 C 
ATOM     51  C   UNL A   1      39.488  27.876  29.921  1.00  0.00     0.029 A 
ATOM     52  C   UNL A   1      40.499  28.917  29.741  1.00  0.00     0.049 A 
ATOM     53  H   UNL A   1      42.329  28.747  28.764  1.00  0.00     0.167 HD
ATOM     54  C   UNL A   1      46.099  28.278  26.599  1.00  0.00     0.037 A 
ATOM     55  C   UNL A   1      40.410  30.186  30.184  1.00  0.00     0.037 A 
ATOM     56  C   UNL A   1      46.053  29.669  26.963  1.00  0.00     0.049 A 
ATOM     57  C   UNL A   1      41.523  31.156  29.885  1.00  0.00     0.074 A 
ATOM     58  C   UNL A   1      46.970  30.667  26.679  1.00  0.00     0.029 A 
ATOM     59  N   UNL A   1      45.039  30.257  27.703  1.00  0.00    -0.354 N 
ATOM     60  N   UNL A   1      42.627  30.967  29.205  1.00  0.00    -0.248 NA
ATOM     61  C   UNL A   1      41.369  32.520  30.412  1.00  0.00     0.031 C 
ATOM     62  C   UNL A   1      46.531  31.850  27.285  1.00  0.00     0.029 A 
ATOM     63  C   UNL A   1      45.320  31.599  27.908  1.00  0.00     0.049 A 
ATOM     64  H   UNL A   1      44.237  29.792  28.033  1.00  0.00     0.167 HD
ATOM     65  C   UNL A   1      43.288  32.188  29.201  1.00  0.00     0.074 A 
ATOM     66  C   UNL A   1      42.453  33.117  29.934  1.00  0.00     0.031 C 
ATOM     67  C   UNL A   1      44.480  32.511  28.641  1.00  0.00     0.037 A 
BRANCH  54  68
ATOM     68  C   UNL A   1      47.297  27.782  25.847  1.00  0.00     0.064 A 
ATOM     69  C   UNL A   1      48.429  27.289  26.513  1.00  0.00     0.173 A 
ATOM     70  C   UNL A   1      47.299  27.763  24.444  1.00  0.00     0.173 A 
ATOM     71  F   UNL A   1      48.481  27.298  27.853  1.00  0.00    -0.203 F 
ATOM     72  C   UNL A   1      49.528  26.815  25.801  1.00  0.00     0.198 A 
ATOM     73  C   UNL A   1      48.390  27.266  23.736  1.00  0.00     0.198 A 
ATOM     74  F   UNL A   1      46.239  28.221  23.761  1.00  0.00    -0.203 F 
ATOM     75  F   UNL A   1      50.615  26.385  26.456  1.00  0.00    -0.200 F 
ATOM     76  C   UNL A   1      49.505  26.798  24.414  1.00  0.00     0.200 A 
ATOM     77  F   UNL A   1      48.362  27.242  22.396  1.00  0.00    -0.200 F 
ATOM     78  F   UNL A   1      50.561  26.336  23.730  1.00  0.00    -0.200 F 
ENDBRANCH  54  68
BRANCH  55  79
ATOM     79  C   UNL A   1      39.217  30.617  30.957  1.00  0.00     0.064 A 
ATOM     80  C   UNL A   1      39.099  30.336  32.325  1.00  0.00     0.173 A 
ATOM     81  C   UNL A   1      38.164  31.306  30.337  1.00  0.00     0.173 A 
ATOM     82  F   UNL A   1      40.068  29.655  32.953  1.00  0.00    -0.203 F 
ATOM     83  C   UNL A   1      37.966  30.713  33.041  1.00  0.00     0.198 A 
ATOM     84  C   UNL A   1      37.043  31.706  31.060  1.00  0.00     0.198 A 
ATOM     85  F   UNL A   1      38.229  31.595  29.030  1.00  0.00    -0.203 F 
ATOM     86  F   UNL A   1      37.858  30.394  34.337  1.00  0.00    -0.200 F 
ATOM     87  C   UNL A   1      36.941  31.403  32.410  1.00  0.00     0.200 A 
ATOM     88  F   UNL A   1      36.058  32.378  30.448  1.00  0.00    -0.200 F 
ATOM     89  F   UNL A   1      35.852  31.767  33.099  1.00  0.00    -0.200 F 
ENDBRANCH  55  79
BRANCH  67  90
ATOM     90  C   UNL A   1      44.943  33.932  28.782  1.00  0.00     0.064 A 
ATOM     91  C   UNL A   1      44.573  34.919  27.857  1.00  0.00     0.173 A 
ATOM     92  C   UNL A   1      45.738  34.318  29.872  1.00  0.00     0.173 A 
ATOM     93  F   UNL A   1      43.827  34.598  26.790  1.00  0.00    -0.203 F 
ATOM     94  C   UNL A   1      45.005  36.235  28.004  1.00  0.00     0.198 A 
ATOM     95  C   UNL A   1      46.145  35.639  30.031  1.00  0.00     0.198 A 
ATOM     96  F   UNL A   1      46.112  33.413  30.789  1.00  0.00    -0.203 F 
ATOM     97  F   UNL A   1      44.679  37.152  27.083  1.00  0.00    -0.200 F 
ATOM     98  C   UNL A   1      45.785  36.595  29.092  1.00  0.00     0.200 A 
ATOM     99  F   UNL A   1      46.888  35.987  31.090  1.00  0.00    -0.200 F 
ATOM    100  F   UNL A   1      46.196  37.862  29.235  1.00  0.00    -0.200 F 
ENDBRANCH  67  90
ENDBRANCH  41  42
ENDBRANCH  34  36
ENDBRANCH  33  34
ENDBRANCH  32  33
ENDBRANCH  31  32
ENDBRANCH   1  31
TORSDOF 18
ENDMDL
MODEL 3
REMARK VINA RESULT:     -12.1      1.103      2.079
REMARK SMILES CC(=O)NS(=O)(=O)c1ccc(-c2ccn(C(F)F)c(=O)c2)cc1C(=O)OCCOCCOC(=O)c1ccc(-c2c3nc(c(-c4c(F)c(F)c(F)c(F)c4F)c4ccc([nH]4)c(-c4c(F)c(F)c(F)c(F)c4F)c4nc(c(-c5c(F)c(F)c(F)c(F)c5F)c5ccc2[nH]5)C=C4)C=C3)cc1
REMARK SMILES IDX 29 1 28 2 27 3 26 4 24 5 25 6 23 7 8 8 9 9 10 10 22 11 11 12
REMARK SMILES IDX 5 13 6 14 7 15 4 16 1 17 2 18 3 19 12 21 13 22 21 23 14 24
REMARK SMILES IDX 19 25 15 26 20 27 16 28 17 29 18 30 30 31 31 32 32 33 33 34
REMARK SMILES IDX 34 35 35 36 36 37 97 38 37 39 96 40 38 41 39 42 40 43 90 44
REMARK SMILES IDX 41 45 95 46 89 47 91 48 42 49 94 50 88 51 87 52 43 54 75 55
REMARK SMILES IDX 55 56 74 57 56 58 59 59 73 60 92 61 57 62 58 63 72 65 93 66
REMARK SMILES IDX 60 67 44 68 45 69 53 70 46 71 47 72 51 73 54 74 48 75 49 76
REMARK SMILES IDX 52 77 50 78 76 79 77 80 85 81 78 82 79 83 83 84 86 85 80 86
REMARK SMILES IDX 81 87 84 88 82 89 61 90 62 91 70 92 63 93 64 94 68 95 71 96
REMARK SMILES IDX 65 97 66 98 69 99 67 100
REMARK H PARENT 4 20 91 53 59 64
REMARK Flexibility Score: inf
ROOT
ATOM      1  O   UNL A   1      33.231  29.129  24.798  1.00  0.00    -0.374 OA
ENDROOT
BRANCH   1   2
ATOM      2  C   UNL A   1      33.846  27.845  24.951  1.00  0.00     0.202 C 
BRANCH   2   3
ATOM      3  C   UNL A   1      33.980  27.066  23.645  1.00  0.00     0.261 C 
BRANCH   3   4
ATOM      4  O   UNL A   1      33.992  25.662  23.956  1.00  0.00    -0.460 OA
BRANCH   4   5
ATOM      5  C   UNL A   1      33.019  24.932  23.384  1.00  0.00     0.339 C 
ATOM      6  O   UNL A   1      33.154  23.963  22.658  1.00  0.00    -0.246 OA
BRANCH   5   7
ATOM      7  C   UNL A   1      31.701  25.363  23.894  1.00  0.00     0.081 A 
ATOM      8  C   UNL A   1      31.010  24.802  24.968  1.00  0.00     0.102 A 
ATOM      9  C   UNL A   1      29.777  25.352  25.372  1.00  0.00     0.024 A 
ATOM     10  C   UNL A   1      29.253  26.476  24.729  1.00  0.00     0.010 A 
ATOM     11  C   UNL A   1      31.157  26.484  23.244  1.00  0.00     0.025 A 
ATOM     12  C   UNL A   1      29.953  27.057  23.673  1.00  0.00    -0.017 A 
BRANCH   8  13
ATOM     13  S   UNL A   1      31.682  23.526  25.996  1.00  0.00     0.264 S 
ATOM     14  O   UNL A   1      31.710  22.315  25.206  1.00  0.00    -0.201 OA
ATOM     15  O   UNL A   1      30.977  23.575  27.257  1.00  0.00    -0.201 OA
BRANCH  13  16
ATOM     16  N   UNL A   1      33.251  23.955  26.313  1.00  0.00    -0.249 N 
ATOM     17  C   UNL A   1      34.056  22.006  27.637  1.00  0.00     0.115 C 
ATOM     18  C   UNL A   1      34.310  23.092  26.629  1.00  0.00     0.230 C 
ATOM     19  O   UNL A   1      35.431  23.357  26.217  1.00  0.00    -0.274 OA
ATOM     20  H   UNL A   1      33.461  24.916  26.276  1.00  0.00     0.183 HD
ENDBRANCH  13  16
ENDBRANCH   8  13
BRANCH  12  21
ATOM     21  C   UNL A   1      29.506  28.306  23.043  1.00  0.00    -0.011 A 
ATOM     22  C   UNL A   1      30.259  28.999  22.020  1.00  0.00     0.027 A 
ATOM     23  C   UNL A   1      28.389  28.866  23.537  1.00  0.00     0.080 A 
ATOM     24  C   UNL A   1      29.877  30.217  21.614  1.00  0.00     0.095 A 
ATOM     25  C   UNL A   1      27.940  30.207  23.080  1.00  0.00     0.255 A 
ATOM     26  N   UNL A   1      28.750  30.824  22.140  1.00  0.00    -0.258 N 
ATOM     27  O   UNL A   1      26.921  30.679  23.572  1.00  0.00    -0.269 OA
BRANCH  26  28
ATOM     28  C   UNL A   1      28.385  32.161  21.751  1.00  0.00     0.451 C 
ATOM     29  F   UNL A   1      29.228  33.076  22.287  1.00  0.00    -0.185 F 
ATOM     30  F   UNL A   1      28.422  32.295  20.402  1.00  0.00    -0.185 F 
ENDBRANCH  26  28
ENDBRANCH  12  21
ENDBRANCH   5   7
ENDBRANCH   4   5
ENDBRANCH   3   4
ENDBRANCH   2   3
ENDBRANCH   1   2
BRANCH   1  31
ATOM     31  C   UNL A   1      32.104  29.404  25.633  1.00  0.00     0.202 C 
BRANCH  31  32
ATOM     32  C   UNL A   1      31.981  30.857  26.102  1.00  0.00     0.261 C 
BRANCH  32  33
ATOM     33  O   UNL A   1      32.550  31.037  27.409  1.00  0.00    -0.460 OA
BRANCH  33  34
ATOM     34  C   UNL A   1      33.363  32.113  27.530  1.00  0.00     0.338 C 
ATOM     35  O   UNL A   1      33.041  33.288  27.466  1.00  0.00    -0.246 OA
BRANCH  34  36
ATOM     36  C   UNL A   1      34.720  31.689  27.930  1.00  0.00     0.060 A 
ATOM     37  C   UNL A   1      34.896  30.335  28.239  1.00  0.00     0.016 A 
ATOM     38  C   UNL A   1      35.785  32.585  28.055  1.00  0.00     0.016 A 
ATOM     39  C   UNL A   1      36.118  29.883  28.729  1.00  0.00     0.010 A 
ATOM     40  C   UNL A   1      37.011  32.131  28.555  1.00  0.00     0.010 A 
ATOM     41  C   UNL A   1      37.171  30.786  28.928  1.00  0.00    -0.014 A 
BRANCH  41  42
ATOM     42  C   UNL A   1      38.381  30.322  29.648  1.00  0.00     0.031 A 
ATOM     43  C   UNL A   1      38.609  30.769  31.064  1.00  0.00     0.074 A 
ATOM     44  C   UNL A   1      39.231  29.455  29.071  1.00  0.00     0.049 A 
ATOM     45  N   UNL A   1      39.555  30.427  31.903  1.00  0.00    -0.248 NA
ATOM     46  C   UNL A   1      37.639  31.731  31.612  1.00  0.00     0.031 C 
ATOM     47  C   UNL A   1      39.106  28.931  27.713  1.00  0.00     0.029 A 
ATOM     48  N   UNL A   1      40.365  28.858  29.560  1.00  0.00    -0.354 N 
ATOM     49  C   UNL A   1      39.289  31.120  33.076  1.00  0.00     0.074 A 
ATOM     50  C   UNL A   1      38.115  31.932  32.833  1.00  0.00     0.031 C 
ATOM     51  C   UNL A   1      40.125  28.087  27.476  1.00  0.00     0.029 A 
ATOM     52  C   UNL A   1      40.980  28.025  28.661  1.00  0.00     0.049 A 
ATOM     53  H   UNL A   1      40.705  29.013  30.471  1.00  0.00     0.167 HD
ATOM     54  C   UNL A   1      39.954  31.072  34.255  1.00  0.00     0.037 A 
ATOM     55  C   UNL A   1      42.108  27.299  28.780  1.00  0.00     0.037 A 
ATOM     56  C   UNL A   1      41.122  30.268  34.498  1.00  0.00     0.049 A 
ATOM     57  C   UNL A   1      42.862  27.309  30.084  1.00  0.00     0.074 A 
ATOM     58  C   UNL A   1      41.849  30.134  35.668  1.00  0.00     0.029 A 
ATOM     59  N   UNL A   1      41.741  29.470  33.548  1.00  0.00    -0.354 N 
ATOM     60  N   UNL A   1      42.576  27.928  31.203  1.00  0.00    -0.248 NA
ATOM     61  C   UNL A   1      44.094  26.508  30.141  1.00  0.00     0.031 C 
ATOM     62  C   UNL A   1      42.935  29.288  35.414  1.00  0.00     0.029 A 
ATOM     63  C   UNL A   1      42.858  28.861  34.098  1.00  0.00     0.049 A 
ATOM     64  H   UNL A   1      41.433  29.353  32.621  1.00  0.00     0.167 HD
ATOM     65  C   UNL A   1      43.574  27.577  32.102  1.00  0.00     0.074 A 
ATOM     66  C   UNL A   1      44.467  26.676  31.403  1.00  0.00     0.031 C 
ATOM     67  C   UNL A   1      43.738  27.967  33.390  1.00  0.00     0.037 A 
BRANCH  54  68
ATOM     68  C   UNL A   1      39.439  31.929  35.373  1.00  0.00     0.064 A 
ATOM     69  C   UNL A   1      38.536  31.431  36.323  1.00  0.00     0.173 A 
ATOM     70  C   UNL A   1      39.883  33.252  35.516  1.00  0.00     0.173 A 
ATOM     71  F   UNL A   1      38.072  30.176  36.221  1.00  0.00    -0.203 F 
ATOM     72  C   UNL A   1      38.080  32.233  37.366  1.00  0.00     0.198 A 
ATOM     73  C   UNL A   1      39.443  34.044  36.574  1.00  0.00     0.198 A 
ATOM     74  F   UNL A   1      40.749  33.774  34.635  1.00  0.00    -0.203 F 
ATOM     75  F   UNL A   1      37.187  31.751  38.241  1.00  0.00    -0.200 F 
ATOM     76  C   UNL A   1      38.538  33.537  37.493  1.00  0.00     0.200 A 
ATOM     77  F   UNL A   1      39.894  35.300  36.701  1.00  0.00    -0.200 F 
ATOM     78  F   UNL A   1      38.103  34.306  38.501  1.00  0.00    -0.200 F 
ENDBRANCH  54  68
BRANCH  55  79
ATOM     79  C   UNL A   1      42.596  26.495  27.630  1.00  0.00     0.064 A 
ATOM     80  C   UNL A   1      42.131  25.192  27.409  1.00  0.00     0.173 A 
ATOM     81  C   UNL A   1      43.547  27.011  26.738  1.00  0.00     0.173 A 
ATOM     82  F   UNL A   1      41.242  24.646  28.251  1.00  0.00    -0.203 F 
ATOM     83  C   UNL A   1      42.613  24.428  26.348  1.00  0.00     0.198 A 
ATOM     84  C   UNL A   1      44.009  26.256  25.663  1.00  0.00     0.198 A 
ATOM     85  F   UNL A   1      44.025  28.252  26.910  1.00  0.00    -0.203 F 
ATOM     86  F   UNL A   1      42.186  23.169  26.184  1.00  0.00    -0.200 F 
ATOM     87  C   UNL A   1      43.546  24.962  25.472  1.00  0.00     0.200 A 
ATOM     88  F   UNL A   1      44.906  26.779  24.816  1.00  0.00    -0.200 F 
ATOM     89  F   UNL A   1      44.008  24.228  24.451  1.00  0.00    -0.200 F 
ENDBRANCH  55  79
BRANCH  67  90
ATOM     90  C   UNL A   1      44.914  27.405  34.134  1.00  0.00     0.064 A 
ATOM     91  C   UNL A   1      44.857  26.149  34.756  1.00  0.00     0.173 A 
ATOM     92  C   UNL A   1      46.123  28.115  34.197  1.00  0.00     0.173 A 
ATOM     93  F   UNL A   1      43.720  25.438  34.737  1.00  0.00    -0.203 F 
ATOM     94  C   UNL A   1      45.959  25.637  35.438  1.00  0.00     0.198 A 
ATOM     95  C   UNL A   1      47.230  27.589  34.856  1.00  0.00     0.198 A 
ATOM     96  F   UNL A   1      46.232  29.317  33.612  1.00  0.00    -0.203 F 
ATOM     97  F   UNL A   1      45.867  24.457  36.065  1.00  0.00    -0.200 F 
ATOM     98  C   UNL A   1      47.145  26.354  35.482  1.00  0.00     0.200 A 
ATOM     99  F   UNL A   1      48.380  28.277  34.886  1.00  0.00    -0.200 F 
ATOM    100  F   UNL A   1      48.205  25.859  36.134  1.00  0.00    -0.200 F 
ENDBRANCH  67  90
ENDBRANCH  41  42
ENDBRANCH  34  36
ENDBRANCH  33  34
ENDBRANCH  32  33
ENDBRANCH  31  32
ENDBRANCH   1  31
TORSDOF 18
ENDMDL
