MODEL 1
REMARK VINA RESULT:     -11.1      0.000      0.000
REMARK SMILES O=C(OCCOCCOC(=O)[C@@H]1C=C[C@@H]([NH+]2CC3(CC3)C2)C1)c1ccc(-c2c3nc(c(-c4c(F)c(F)c(F)c(F)c4F)c4ccc([nH]4)c(-c4c(F)c(F)c(F)c(F)c4F)c4nc(c(-c5c(F)c(F)c(F)c(F)c5F)c5ccc2[nH]5)C=C4)C=C3)cc1
REMARK SMILES IDX 5 1 4 2 3 3 2 4 1 5 23 6 24 7 85 8 25 9 84 10 26 11 27 12
REMARK SMILES IDX 28 13 78 14 29 15 83 16 77 17 79 18 30 19 82 20 76 21 75 22
REMARK SMILES IDX 31 24 63 25 43 26 62 27 44 28 47 29 61 30 80 31 45 32 46 33
REMARK SMILES IDX 60 35 81 36 48 37 32 38 33 39 41 40 34 41 35 42 39 43 42 44
REMARK SMILES IDX 36 45 37 46 40 47 38 48 64 49 65 50 73 51 66 52 67 53 71 54
REMARK SMILES IDX 74 55 68 56 69 57 72 58 70 59 49 60 50 61 58 62 51 63 52 64
REMARK SMILES IDX 56 65 59 66 53 67 54 68 57 69 55 70 6 71 7 72 8 73 9 74
REMARK SMILES IDX 10 75 11 76 12 77 13 78 22 79 14 80 15 81 16 82 17 83 21 84
REMARK SMILES IDX 18 86 19 87 20 88
REMARK H PARENT 79 23 47 34 16 85
REMARK Flexibility Score: inf
ROOT
ATOM      1  C   UNL A   1      31.866  29.341  25.766  1.00  0.00     0.202 C 
ENDROOT
BRANCH   1   2
ATOM      2  C   UNL A   1      31.777  30.487  26.778  1.00  0.00     0.261 C 
BRANCH   2   3
ATOM      3  O   UNL A   1      32.769  31.486  26.489  1.00  0.00    -0.460 OA
BRANCH   3   4
ATOM      4  C   UNL A   1      33.460  32.242  27.377  1.00  0.00     0.338 C 
ATOM      5  O   UNL A   1      33.012  33.330  27.720  1.00  0.00    -0.246 OA
BRANCH   4   6
ATOM      6  C   UNL A   1      34.728  31.774  28.001  1.00  0.00     0.060 A 
ATOM      7  C   UNL A   1      34.966  30.458  28.388  1.00  0.00     0.016 A 
ATOM      8  C   UNL A   1      35.768  32.702  28.152  1.00  0.00     0.016 A 
ATOM      9  C   UNL A   1      36.141  30.069  28.981  1.00  0.00     0.010 A 
ATOM     10  C   UNL A   1      36.994  32.310  28.700  1.00  0.00     0.010 A 
ATOM     11  C   UNL A   1      37.168  30.988  29.125  1.00  0.00    -0.014 A 
BRANCH  11  12
ATOM     12  C   UNL A   1      38.347  30.505  29.849  1.00  0.00     0.031 A 
ATOM     13  C   UNL A   1      38.475  30.871  31.290  1.00  0.00     0.074 A 
ATOM     14  C   UNL A   1      39.123  29.575  29.265  1.00  0.00     0.049 A 
ATOM     15  N   UNL A   1      39.417  30.571  32.137  1.00  0.00    -0.248 NA
ATOM     16  C   UNL A   1      37.377  31.670  31.863  1.00  0.00     0.031 C 
ATOM     17  C   UNL A   1      38.917  29.032  27.917  1.00  0.00     0.029 A 
ATOM     18  N   UNL A   1      40.192  28.875  29.744  1.00  0.00    -0.354 N 
ATOM     19  C   UNL A   1      39.054  31.183  33.327  1.00  0.00     0.074 A 
ATOM     20  C   UNL A   1      37.799  31.863  33.101  1.00  0.00     0.031 C 
ATOM     21  C   UNL A   1      39.810  28.055  27.695  1.00  0.00     0.029 A 
ATOM     22  C   UNL A   1      40.704  27.976  28.841  1.00  0.00     0.049 A 
ATOM     23  H   UNL A   1      40.561  29.002  30.648  1.00  0.00     0.167 HD
ATOM     24  C   UNL A   1      39.736  31.182  34.493  1.00  0.00     0.037 A 
ATOM     25  C   UNL A   1      41.809  27.215  28.931  1.00  0.00     0.037 A 
ATOM     26  C   UNL A   1      40.978  30.478  34.662  1.00  0.00     0.049 A 
ATOM     27  C   UNL A   1      42.613  27.329  30.196  1.00  0.00     0.074 A 
ATOM     28  C   UNL A   1      41.824  30.453  35.753  1.00  0.00     0.029 A 
ATOM     29  N   UNL A   1      41.549  29.665  33.687  1.00  0.00    -0.354 N 
ATOM     30  N   UNL A   1      42.340  28.000  31.292  1.00  0.00    -0.248 NA
ATOM     31  C   UNL A   1      43.888  26.607  30.232  1.00  0.00     0.031 C 
ATOM     32  C   UNL A   1      42.931  29.666  35.417  1.00  0.00     0.029 A 
ATOM     33  C   UNL A   1      42.748  29.148  34.142  1.00  0.00     0.049 A 
ATOM     34  H   UNL A   1      41.157  29.482  32.803  1.00  0.00     0.167 HD
ATOM     35  C   UNL A   1      43.396  27.768  32.157  1.00  0.00     0.074 A 
ATOM     36  C   UNL A   1      44.305  26.874  31.462  1.00  0.00     0.031 C 
ATOM     37  C   UNL A   1      43.607  28.250  33.408  1.00  0.00     0.037 A 
BRANCH  24  38
ATOM     38  C   UNL A   1      39.200  32.045  35.596  1.00  0.00     0.064 A 
ATOM     39  C   UNL A   1      39.563  33.392  35.743  1.00  0.00     0.173 A 
ATOM     40  C   UNL A   1      38.358  31.485  36.571  1.00  0.00     0.173 A 
ATOM     41  F   UNL A   1      40.395  33.968  34.862  1.00  0.00    -0.203 F 
ATOM     42  C   UNL A   1      39.137  34.133  36.844  1.00  0.00     0.198 A 
ATOM     43  C   UNL A   1      37.909  32.237  37.653  1.00  0.00     0.198 A 
ATOM     44  F   UNL A   1      37.991  30.197  36.487  1.00  0.00    -0.203 F 
ATOM     45  F   UNL A   1      39.558  35.396  37.004  1.00  0.00    -0.200 F 
ATOM     46  C   UNL A   1      38.308  33.557  37.795  1.00  0.00     0.200 A 
ATOM     47  F   UNL A   1      37.109  31.676  38.570  1.00  0.00    -0.200 F 
ATOM     48  F   UNL A   1      37.912  34.267  38.861  1.00  0.00    -0.200 F 
ENDBRANCH  24  38
BRANCH  25  49
ATOM     49  C   UNL A   1      42.239  26.363  27.791  1.00  0.00     0.064 A 
ATOM     50  C   UNL A   1      43.193  26.809  26.866  1.00  0.00     0.173 A 
ATOM     51  C   UNL A   1      41.694  25.084  27.589  1.00  0.00     0.173 A 
ATOM     52  F   UNL A   1      43.733  28.029  26.997  1.00  0.00    -0.203 F 
ATOM     53  C   UNL A   1      43.567  26.021  25.777  1.00  0.00     0.198 A 
ATOM     54  C   UNL A   1      42.093  24.283  26.522  1.00  0.00     0.198 A 
ATOM     55  F   UNL A   1      40.774  24.602  28.439  1.00  0.00    -0.203 F 
ATOM     56  F   UNL A   1      44.442  26.496  24.880  1.00  0.00    -0.200 F 
ATOM     57  C   UNL A   1      43.021  24.757  25.609  1.00  0.00     0.200 A 
ATOM     58  F   UNL A   1      41.574  23.057  26.375  1.00  0.00    -0.200 F 
ATOM     59  F   UNL A   1      43.381  24.001  24.563  1.00  0.00    -0.200 F 
ENDBRANCH  25  49
BRANCH  37  60
ATOM     60  C   UNL A   1      44.843  27.771  34.107  1.00  0.00     0.064 A 
ATOM     61  C   UNL A   1      46.055  28.468  34.023  1.00  0.00     0.173 A 
ATOM     62  C   UNL A   1      44.795  26.616  34.902  1.00  0.00     0.173 A 
ATOM     63  F   UNL A   1      46.151  29.568  33.258  1.00  0.00    -0.203 F 
ATOM     64  C   UNL A   1      47.186  28.009  34.688  1.00  0.00     0.198 A 
ATOM     65  C   UNL A   1      45.918  26.181  35.595  1.00  0.00     0.198 A 
ATOM     66  F   UNL A   1      43.653  25.921  35.018  1.00  0.00    -0.203 F 
ATOM     67  F   UNL A   1      48.351  28.658  34.550  1.00  0.00    -0.200 F 
ATOM     68  C   UNL A   1      47.115  26.872  35.479  1.00  0.00     0.200 A 
ATOM     69  F   UNL A   1      45.843  25.093  36.373  1.00  0.00    -0.200 F 
ATOM     70  F   UNL A   1      48.204  26.437  36.128  1.00  0.00    -0.200 F 
ENDBRANCH  37  60
ENDBRANCH  11  12
ENDBRANCH   4   6
ENDBRANCH   3   4
ENDBRANCH   2   3
ENDBRANCH   1   2
BRANCH   1  71
ATOM     71  O   UNL A   1      33.118  29.195  25.102  1.00  0.00    -0.374 OA
BRANCH  71  72
ATOM     72  C   UNL A   1      33.628  27.864  25.017  1.00  0.00     0.202 C 
BRANCH  72  73
ATOM     73  C   UNL A   1      32.886  26.958  25.995  1.00  0.00     0.261 C 
BRANCH  73  74
ATOM     74  O   UNL A   1      32.256  25.882  25.278  1.00  0.00    -0.463 OA
BRANCH  74  75
ATOM     75  C   UNL A   1      30.900  25.798  25.378  1.00  0.00     0.313 C 
ATOM     76  O   UNL A   1      30.270  25.767  26.430  1.00  0.00    -0.252 OA
BRANCH  75  77
ATOM     77  C   UNL A   1      30.217  25.815  24.015  1.00  0.00     0.128 C 
ATOM     78  C   UNL A   1      31.072  26.290  22.880  1.00  0.00    -0.010 C 
ATOM     79  C   UNL A   1      29.025  26.783  23.952  1.00  0.00     0.089 C 
ATOM     80  C   UNL A   1      30.687  27.489  22.427  1.00  0.00     0.033 C 
ATOM     81  C   UNL A   1      29.529  28.044  23.201  1.00  0.00     0.208 C 
BRANCH  81  82
ATOM     82  N   UNL A   1      28.643  28.844  22.353  1.00  0.00    -0.328 N 
ATOM     83  C   UNL A   1      27.624  29.617  23.077  1.00  0.00     0.275 C 
ATOM     84  C   UNL A   1      29.280  30.087  21.883  1.00  0.00     0.275 C 
ATOM     85  H   UNL A   1      28.342  28.125  21.695  1.00  0.00     0.348 HD
ATOM     86  C   UNL A   1      28.503  30.796  22.917  1.00  0.00     0.068 C 
ATOM     87  C   UNL A   1      29.069  31.709  23.961  1.00  0.00     0.020 C 
ATOM     88  C   UNL A   1      28.077  32.228  22.951  1.00  0.00     0.020 C 
ENDBRANCH  81  82
ENDBRANCH  75  77
ENDBRANCH  74  75
ENDBRANCH  73  74
ENDBRANCH  72  73
ENDBRANCH  71  72
ENDBRANCH   1  71
TORSDOF 15
ENDMDL
MODEL 2
REMARK VINA RESULT:     -11.1      1.011      1.977
REMARK SMILES O=C(OCCOCCOC(=O)[C@@H]1C=C[C@@H]([NH+]2CC3(CC3)C2)C1)c1ccc(-c2c3nc(c(-c4c(F)c(F)c(F)c(F)c4F)c4ccc([nH]4)c(-c4c(F)c(F)c(F)c(F)c4F)c4nc(c(-c5c(F)c(F)c(F)c(F)c5F)c5ccc2[nH]5)C=C4)C=C3)cc1
REMARK SMILES IDX 5 1 4 2 3 3 2 4 1 5 23 6 24 7 85 8 25 9 84 10 26 11 27 12
REMARK SMILES IDX 28 13 78 14 29 15 83 16 77 17 79 18 30 19 82 20 76 21 75 22
REMARK SMILES IDX 31 24 63 25 43 26 62 27 44 28 47 29 61 30 80 31 45 32 46 33
REMARK SMILES IDX 60 35 81 36 48 37 32 38 33 39 41 40 34 41 35 42 39 43 42 44
REMARK SMILES IDX 36 45 37 46 40 47 38 48 64 49 65 50 73 51 66 52 67 53 71 54
REMARK SMILES IDX 74 55 68 56 69 57 72 58 70 59 49 60 50 61 58 62 51 63 52 64
REMARK SMILES IDX 56 65 59 66 53 67 54 68 57 69 55 70 6 71 7 72 8 73 9 74
REMARK SMILES IDX 10 75 11 76 12 77 13 78 22 79 14 80 15 81 16 82 17 83 21 84
REMARK SMILES IDX 18 86 19 87 20 88
REMARK H PARENT 79 23 47 34 16 85
REMARK Flexibility Score: inf
ROOT
ATOM      1  C   UNL A   1      32.686  31.101  26.739  1.00  0.00     0.202 C 
ENDROOT
BRANCH   1   2
ATOM      2  C   UNL A   1      31.761  32.223  27.222  1.00  0.00     0.261 C 
BRANCH   2   3
ATOM      3  O   UNL A   1      32.467  33.475  27.248  1.00  0.00    -0.460 OA
BRANCH   3   4
ATOM      4  C   UNL A   1      33.179  33.996  28.276  1.00  0.00     0.338 C 
ATOM      5  O   UNL A   1      32.789  35.022  28.822  1.00  0.00    -0.246 OA
BRANCH   4   6
ATOM      6  C   UNL A   1      34.402  33.336  28.812  1.00  0.00     0.060 A 
ATOM      7  C   UNL A   1      34.386  32.181  29.588  1.00  0.00     0.016 A 
ATOM      8  C   UNL A   1      35.648  33.876  28.461  1.00  0.00     0.016 A 
ATOM      9  C   UNL A   1      35.533  31.613  30.081  1.00  0.00     0.010 A 
ATOM     10  C   UNL A   1      36.830  33.275  28.906  1.00  0.00     0.010 A 
ATOM     11  C   UNL A   1      36.762  32.146  29.730  1.00  0.00    -0.014 A 
BRANCH  11  12
ATOM     12  C   UNL A   1      37.924  31.530  30.377  1.00  0.00     0.031 A 
ATOM     13  C   UNL A   1      38.127  31.789  31.832  1.00  0.00     0.074 A 
ATOM     14  C   UNL A   1      38.606  30.585  29.707  1.00  0.00     0.049 A 
ATOM     15  N   UNL A   1      39.071  31.363  32.623  1.00  0.00    -0.248 NA
ATOM     16  C   UNL A   1      37.113  32.628  32.496  1.00  0.00     0.031 C 
ATOM     17  C   UNL A   1      38.315  30.149  28.335  1.00  0.00     0.029 A 
ATOM     18  N   UNL A   1      39.633  29.777  30.099  1.00  0.00    -0.354 N 
ATOM     19  C   UNL A   1      38.795  31.921  33.862  1.00  0.00     0.074 A 
ATOM     20  C   UNL A   1      37.590  32.706  33.727  1.00  0.00     0.031 C 
ATOM     21  C   UNL A   1      39.122  29.125  28.018  1.00  0.00     0.029 A 
ATOM     22  C   UNL A   1      40.044  28.904  29.122  1.00  0.00     0.049 A 
ATOM     23  H   UNL A   1      40.040  29.815  30.995  1.00  0.00     0.167 HD
ATOM     24  C   UNL A   1      39.512  31.791  34.999  1.00  0.00     0.037 A 
ATOM     25  C   UNL A   1      41.089  28.058  29.122  1.00  0.00     0.037 A 
ATOM     26  C   UNL A   1      40.701  30.987  35.076  1.00  0.00     0.049 A 
ATOM     27  C   UNL A   1      41.942  28.027  30.360  1.00  0.00     0.074 A 
ATOM     28  C   UNL A   1      41.578  30.826  36.130  1.00  0.00     0.029 A 
ATOM     29  N   UNL A   1      41.176  30.199  34.030  1.00  0.00    -0.354 N 
ATOM     30  N   UNL A   1      41.757  28.642  31.506  1.00  0.00    -0.248 NA
ATOM     31  C   UNL A   1      43.157  27.211  30.302  1.00  0.00     0.031 C 
ATOM     32  C   UNL A   1      42.610  29.982  35.703  1.00  0.00     0.029 A 
ATOM     33  C   UNL A   1      42.346  29.566  34.406  1.00  0.00     0.049 A 
ATOM     34  H   UNL A   1      40.742  30.106  33.151  1.00  0.00     0.167 HD
ATOM     35  C   UNL A   1      42.819  28.275  32.314  1.00  0.00     0.074 A 
ATOM     36  C   UNL A   1      43.633  27.364  31.530  1.00  0.00     0.031 C 
ATOM     37  C   UNL A   1      43.109  28.656  33.584  1.00  0.00     0.037 A 
BRANCH  24  38
ATOM     38  C   UNL A   1      39.081  32.617  36.174  1.00  0.00     0.064 A 
ATOM     39  C   UNL A   1      39.521  33.935  36.371  1.00  0.00     0.173 A 
ATOM     40  C   UNL A   1      38.265  32.045  37.164  1.00  0.00     0.173 A 
ATOM     41  F   UNL A   1      40.333  34.517  35.477  1.00  0.00    -0.203 F 
ATOM     42  C   UNL A   1      39.193  34.634  37.532  1.00  0.00     0.198 A 
ATOM     43  C   UNL A   1      37.914  32.757  38.307  1.00  0.00     0.198 A 
ATOM     44  F   UNL A   1      37.828  30.784  37.033  1.00  0.00    -0.203 F 
ATOM     45  F   UNL A   1      39.687  35.863  37.734  1.00  0.00    -0.200 F 
ATOM     46  C   UNL A   1      38.387  34.047  38.496  1.00  0.00     0.200 A 
ATOM     47  F   UNL A   1      37.135  32.187  39.237  1.00  0.00    -0.200 F 
ATOM     48  F   UNL A   1      38.085  34.714  39.619  1.00  0.00    -0.200 F 
ENDBRANCH  24  38
BRANCH  25  49
ATOM     49  C   UNL A   1      41.416  27.253  27.914  1.00  0.00     0.064 A 
ATOM     50  C   UNL A   1      40.955  25.938  27.767  1.00  0.00     0.173 A 
ATOM     51  C   UNL A   1      42.212  27.777  26.882  1.00  0.00     0.173 A 
ATOM     52  F   UNL A   1      40.207  25.379  28.729  1.00  0.00    -0.203 F 
ATOM     53  C   UNL A   1      41.294  25.175  26.649  1.00  0.00     0.198 A 
ATOM     54  C   UNL A   1      42.521  27.027  25.750  1.00  0.00     0.198 A 
ATOM     55  F   UNL A   1      42.685  29.030  26.966  1.00  0.00    -0.203 F 
ATOM     56  F   UNL A   1      40.883  23.902  26.561  1.00  0.00    -0.200 F 
ATOM     57  C   UNL A   1      42.072  25.721  25.640  1.00  0.00     0.200 A 
ATOM     58  F   UNL A   1      43.259  27.568  24.770  1.00  0.00    -0.200 F 
ATOM     59  F   UNL A   1      42.396  24.987  24.566  1.00  0.00    -0.200 F 
ENDBRANCH  25  49
BRANCH  37  60
ATOM     60  C   UNL A   1      44.326  28.040  34.204  1.00  0.00     0.064 A 
ATOM     61  C   UNL A   1      44.272  26.809  34.869  1.00  0.00     0.173 A 
ATOM     62  C   UNL A   1      45.568  28.682  34.093  1.00  0.00     0.173 A 
ATOM     63  F   UNL A   1      43.101  26.169  35.015  1.00  0.00    -0.203 F 
ATOM     64  C   UNL A   1      45.418  26.253  35.428  1.00  0.00     0.198 A 
ATOM     65  C   UNL A   1      46.717  28.105  34.620  1.00  0.00     0.198 A 
ATOM     66  F   UNL A   1      45.668  29.860  33.458  1.00  0.00    -0.203 F 
ATOM     67  F   UNL A   1      45.337  25.102  36.109  1.00  0.00    -0.200 F 
ATOM     68  C   UNL A   1      46.639  26.897  35.296  1.00  0.00     0.200 A 
ATOM     69  F   UNL A   1      47.899  28.720  34.477  1.00  0.00    -0.200 F 
ATOM     70  F   UNL A   1      47.744  26.355  35.826  1.00  0.00    -0.200 F 
ENDBRANCH  37  60
ENDBRANCH  11  12
ENDBRANCH   4   6
ENDBRANCH   3   4
ENDBRANCH   2   3
ENDBRANCH   1   2
BRANCH   1  71
ATOM     71  O   UNL A   1      32.359  29.790  27.194  1.00  0.00    -0.374 OA
BRANCH  71  72
ATOM     72  C   UNL A   1      31.869  28.890  26.200  1.00  0.00     0.202 C 
BRANCH  72  73
ATOM     73  C   UNL A   1      31.379  27.603  26.856  1.00  0.00     0.261 C 
BRANCH  73  74
ATOM     74  O   UNL A   1      31.550  26.500  25.949  1.00  0.00    -0.463 OA
BRANCH  74  75
ATOM     75  C   UNL A   1      30.436  25.769  25.667  1.00  0.00     0.313 C 
ATOM     76  O   UNL A   1      29.755  25.170  26.492  1.00  0.00    -0.252 OA
BRANCH  75  77
ATOM     77  C   UNL A   1      30.068  25.822  24.187  1.00  0.00     0.128 C 
ATOM     78  C   UNL A   1      31.107  26.430  23.295  1.00  0.00    -0.010 C 
ATOM     79  C   UNL A   1      28.840  26.703  23.905  1.00  0.00     0.089 C 
ATOM     80  C   UNL A   1      30.729  27.624  22.823  1.00  0.00     0.033 C 
ATOM     81  C   UNL A   1      29.387  28.042  23.345  1.00  0.00     0.208 C 
BRANCH  81  82
ATOM     82  N   UNL A   1      28.642  28.828  22.358  1.00  0.00    -0.328 N 
ATOM     83  C   UNL A   1      27.572  29.668  22.915  1.00  0.00     0.275 C 
ATOM     84  C   UNL A   1      29.379  30.025  21.916  1.00  0.00     0.275 C 
ATOM     85  H   UNL A   1      28.398  28.088  21.700  1.00  0.00     0.348 HD
ATOM     86  C   UNL A   1      28.508  30.809  22.813  1.00  0.00     0.068 C 
ATOM     87  C   UNL A   1      28.976  31.753  23.877  1.00  0.00     0.020 C 
ATOM     88  C   UNL A   1      28.136  32.254  22.729  1.00  0.00     0.020 C 
ENDBRANCH  81  82
ENDBRANCH  75  77
ENDBRANCH  74  75
ENDBRANCH  73  74
ENDBRANCH  72  73
ENDBRANCH  71  72
ENDBRANCH   1  71
TORSDOF 15
ENDMDL
MODEL 3
REMARK VINA RESULT:     -11.0      1.995      8.455
REMARK SMILES O=C(OCCOCCOC(=O)[C@@H]1C=C[C@@H]([NH+]2CC3(CC3)C2)C1)c1ccc(-c2c3nc(c(-c4c(F)c(F)c(F)c(F)c4F)c4ccc([nH]4)c(-c4c(F)c(F)c(F)c(F)c4F)c4nc(c(-c5c(F)c(F)c(F)c(F)c5F)c5ccc2[nH]5)C=C4)C=C3)cc1
REMARK SMILES IDX 5 1 4 2 3 3 2 4 1 5 23 6 24 7 85 8 25 9 84 10 26 11 27 12
REMARK SMILES IDX 28 13 78 14 29 15 83 16 77 17 79 18 30 19 82 20 76 21 75 22
REMARK SMILES IDX 31 24 63 25 43 26 62 27 44 28 47 29 61 30 80 31 45 32 46 33
REMARK SMILES IDX 60 35 81 36 48 37 32 38 33 39 41 40 34 41 35 42 39 43 42 44
REMARK SMILES IDX 36 45 37 46 40 47 38 48 64 49 65 50 73 51 66 52 67 53 71 54
REMARK SMILES IDX 74 55 68 56 69 57 72 58 70 59 49 60 50 61 58 62 51 63 52 64
REMARK SMILES IDX 56 65 59 66 53 67 54 68 57 69 55 70 6 71 7 72 8 73 9 74
REMARK SMILES IDX 10 75 11 76 12 77 13 78 22 79 14 80 15 81 16 82 17 83 21 84
REMARK SMILES IDX 18 86 19 87 20 88
REMARK H PARENT 79 23 47 34 16 85
REMARK Flexibility Score: inf
ROOT
ATOM      1  C   UNL A   1      31.150  29.747  24.808  1.00  0.00     0.202 C 
ENDROOT
BRANCH   1   2
ATOM      2  C   UNL A   1      31.913  29.717  26.136  1.00  0.00     0.261 C 
BRANCH   2   3
ATOM      3  O   UNL A   1      33.064  30.577  26.069  1.00  0.00    -0.460 OA
BRANCH   3   4
ATOM      4  C   UNL A   1      33.581  31.338  27.064  1.00  0.00     0.338 C 
ATOM      5  O   UNL A   1      32.999  32.360  27.408  1.00  0.00    -0.246 OA
BRANCH   4   6
ATOM      6  C   UNL A   1      34.815  30.949  27.802  1.00  0.00     0.060 A 
ATOM      7  C   UNL A   1      35.068  29.663  28.272  1.00  0.00     0.016 A 
ATOM      8  C   UNL A   1      35.809  31.921  27.980  1.00  0.00     0.016 A 
ATOM      9  C   UNL A   1      36.208  29.348  28.968  1.00  0.00     0.010 A 
ATOM     10  C   UNL A   1      37.004  31.602  28.634  1.00  0.00     0.010 A 
ATOM     11  C   UNL A   1      37.190  30.310  29.138  1.00  0.00    -0.014 A 
BRANCH  11  12
ATOM     12  C   UNL A   1      38.327  29.908  29.969  1.00  0.00     0.031 A 
ATOM     13  C   UNL A   1      39.409  29.107  29.326  1.00  0.00     0.074 A 
ATOM     14  C   UNL A   1      38.465  30.468  31.184  1.00  0.00     0.049 A 
ATOM     15  N   UNL A   1      40.506  28.634  29.845  1.00  0.00    -0.248 NA
ATOM     16  C   UNL A   1      39.243  28.816  27.891  1.00  0.00     0.031 C 
ATOM     17  C   UNL A   1      37.524  31.423  31.783  1.00  0.00     0.029 A 
ATOM     18  N   UNL A   1      39.468  30.371  32.104  1.00  0.00    -0.354 N 
ATOM     19  C   UNL A   1      41.136  27.948  28.817  1.00  0.00     0.074 A 
ATOM     20  C   UNL A   1      40.309  28.074  27.639  1.00  0.00     0.031 C 
ATOM     21  C   UNL A   1      38.019  31.854  32.953  1.00  0.00     0.029 A 
ATOM     22  C   UNL A   1      39.253  31.132  33.227  1.00  0.00     0.049 A 
ATOM     23  H   UNL A   1      40.268  29.812  31.976  1.00  0.00     0.167 HD
ATOM     24  C   UNL A   1      42.297  27.261  28.879  1.00  0.00     0.037 A 
ATOM     25  C   UNL A   1      39.965  31.187  34.367  1.00  0.00     0.037 A 
ATOM     26  C   UNL A   1      43.083  27.178  30.079  1.00  0.00     0.049 A 
ATOM     27  C   UNL A   1      41.188  30.315  34.449  1.00  0.00     0.074 A 
ATOM     28  C   UNL A   1      44.234  26.453  30.319  1.00  0.00     0.029 A 
ATOM     29  N   UNL A   1      42.783  27.861  31.254  1.00  0.00    -0.354 N 
ATOM     30  N   UNL A   1      41.733  29.566  33.518  1.00  0.00    -0.248 NA
ATOM     31  C   UNL A   1      41.879  30.272  35.740  1.00  0.00     0.031 C 
ATOM     32  C   UNL A   1      44.598  26.657  31.654  1.00  0.00     0.029 A 
ATOM     33  C   UNL A   1      43.713  27.559  32.231  1.00  0.00     0.049 A 
ATOM     34  H   UNL A   1      42.020  28.472  31.373  1.00  0.00     0.167 HD
ATOM     35  C   UNL A   1      42.842  28.976  34.100  1.00  0.00     0.074 A 
ATOM     36  C   UNL A   1      42.901  29.475  35.463  1.00  0.00     0.031 C 
ATOM     37  C   UNL A   1      43.730  28.098  33.570  1.00  0.00     0.037 A 
BRANCH  24  38
ATOM     38  C   UNL A   1      42.692  26.481  27.660  1.00  0.00     0.064 A 
ATOM     39  C   UNL A   1      42.211  25.188  27.404  1.00  0.00     0.173 A 
ATOM     40  C   UNL A   1      43.633  27.016  26.766  1.00  0.00     0.173 A 
ATOM     41  F   UNL A   1      41.339  24.612  28.246  1.00  0.00    -0.203 F 
ATOM     42  C   UNL A   1      42.686  24.447  26.324  1.00  0.00     0.198 A 
ATOM     43  C   UNL A   1      44.083  26.286  25.671  1.00  0.00     0.198 A 
ATOM     44  F   UNL A   1      44.137  28.242  26.971  1.00  0.00    -0.203 F 
ATOM     45  F   UNL A   1      42.270  23.186  26.143  1.00  0.00    -0.200 F 
ATOM     46  C   UNL A   1      43.618  24.997  25.456  1.00  0.00     0.200 A 
ATOM     47  F   UNL A   1      44.983  26.820  24.834  1.00  0.00    -0.200 F 
ATOM     48  F   UNL A   1      44.086  24.277  24.426  1.00  0.00    -0.200 F 
ENDBRANCH  24  38
BRANCH  25  49
ATOM     49  C   UNL A   1      39.507  32.021  35.509  1.00  0.00     0.064 A 
ATOM     50  C   UNL A   1      38.588  31.531  36.448  1.00  0.00     0.173 A 
ATOM     51  C   UNL A   1      39.966  33.338  35.682  1.00  0.00     0.173 A 
ATOM     52  F   UNL A   1      38.102  30.289  36.323  1.00  0.00    -0.203 F 
ATOM     53  C   UNL A   1      38.133  32.330  37.498  1.00  0.00     0.198 A 
ATOM     54  C   UNL A   1      39.538  34.122  36.750  1.00  0.00     0.198 A 
ATOM     55  F   UNL A   1      40.844  33.864  34.814  1.00  0.00    -0.203 F 
ATOM     56  F   UNL A   1      37.215  31.852  38.349  1.00  0.00    -0.200 F 
ATOM     57  C   UNL A   1      38.612  33.622  37.651  1.00  0.00     0.200 A 
ATOM     58  F   UNL A   1      40.018  35.365  36.901  1.00  0.00    -0.200 F 
ATOM     59  F   UNL A   1      38.175  34.388  38.660  1.00  0.00    -0.200 F 
ENDBRANCH  25  49
BRANCH  37  60
ATOM     60  C   UNL A   1      44.859  27.672  34.459  1.00  0.00     0.064 A 
ATOM     61  C   UNL A   1      44.775  26.526  35.260  1.00  0.00     0.173 A 
ATOM     62  C   UNL A   1      46.053  28.408  34.474  1.00  0.00     0.173 A 
ATOM     63  F   UNL A   1      43.645  25.803  35.290  1.00  0.00    -0.203 F 
ATOM     64  C   UNL A   1      45.840  26.146  36.069  1.00  0.00     0.198 A 
ATOM     65  C   UNL A   1      47.128  28.004  35.256  1.00  0.00     0.198 A 
ATOM     66  F   UNL A   1      46.180  29.509  33.717  1.00  0.00    -0.203 F 
ATOM     67  F   UNL A   1      45.721  25.079  36.871  1.00  0.00    -0.200 F 
ATOM     68  C   UNL A   1      47.017  26.880  36.060  1.00  0.00     0.200 A 
ATOM     69  F   UNL A   1      48.271  28.704  35.233  1.00  0.00    -0.200 F 
ATOM     70  F   UNL A   1      48.046  26.507  36.833  1.00  0.00    -0.200 F 
ENDBRANCH  37  60
ENDBRANCH  11  12
ENDBRANCH   4   6
ENDBRANCH   3   4
ENDBRANCH   2   3
ENDBRANCH   1   2
BRANCH   1  71
ATOM     71  O   UNL A   1      30.603  28.502  24.380  1.00  0.00    -0.374 OA
BRANCH  71  72
ATOM     72  C   UNL A   1      31.295  27.333  24.819  1.00  0.00     0.202 C 
BRANCH  72  73
ATOM     73  C   UNL A   1      30.294  26.259  25.234  1.00  0.00     0.261 C 
BRANCH  73  74
ATOM     74  O   UNL A   1      30.684  25.695  26.499  1.00  0.00    -0.463 OA
BRANCH  74  75
ATOM     75  C   UNL A   1      30.723  24.336  26.571  1.00  0.00     0.313 C 
ATOM     76  O   UNL A   1      29.963  23.641  27.237  1.00  0.00    -0.252 OA
BRANCH  75  77
ATOM     77  C   UNL A   1      31.793  23.739  25.662  1.00  0.00     0.128 C 
ATOM     78  C   UNL A   1      31.827  22.241  25.619  1.00  0.00    -0.010 C 
ATOM     79  C   UNL A   1      33.222  24.085  26.109  1.00  0.00     0.089 C 
ATOM     80  C   UNL A   1      32.910  21.745  26.228  1.00  0.00     0.033 C 
ATOM     81  C   UNL A   1      33.773  22.820  26.818  1.00  0.00     0.208 C 
BRANCH  81  82
ATOM     82  N   UNL A   1      35.193  22.464  26.770  1.00  0.00    -0.328 N 
ATOM     83  C   UNL A   1      35.542  21.444  25.770  1.00  0.00     0.275 C 
ATOM     84  C   UNL A   1      36.002  23.468  26.057  1.00  0.00     0.275 C 
ATOM     85  H   UNL A   1      35.352  22.263  27.757  1.00  0.00     0.348 HD
ATOM     86  C   UNL A   1      36.000  22.551  24.901  1.00  0.00     0.068 C 
ATOM     87  C   UNL A   1      35.578  22.904  23.509  1.00  0.00     0.020 C 
ATOM     88  C   UNL A   1      36.988  22.448  23.785  1.00  0.00     0.020 C 
ENDBRANCH  81  82
ENDBRANCH  75  77
ENDBRANCH  74  75
ENDBRANCH  73  74
ENDBRANCH  72  73
ENDBRANCH  71  72
ENDBRANCH   1  71
TORSDOF 15
ENDMDL
