MODEL 1
REMARK VINA RESULT:     -11.0      0.000      0.000
REMARK SMILES CC[N@@H+]1CC[C@H](C[NH2+]Cc2ccc(C(=O)OCCOCCOC(=O)c3ccc(-c4c5nc(c(-c6c(F)c(F)c(F)c(F)c6F)c6ccc([nH]6)c(-c6c(F)c(F)c(F)c(F)c6F)c6nc(c(-c7c(F)c(F)c(F)c(F)c7F)c7ccc4[nH]7)C=C6)C=C5)cc3)cn2)C1
REMARK SMILES IDX 17 1 16 2 14 3 15 4 13 5 10 6 11 7 89 8 12 9 88 10 9 11 8 12
REMARK SMILES IDX 7 15 6 16 3 17 4 18 90 19 5 21 2 22 1 23 18 24 19 25 20 26
REMARK SMILES IDX 21 27 22 28 23 29 24 30 25 31 26 32 87 33 27 34 86 35 28 36
REMARK SMILES IDX 29 37 30 38 80 39 31 40 85 41 79 42 81 43 32 44 84 45 78 46
REMARK SMILES IDX 77 47 33 49 65 50 45 51 64 52 46 53 49 54 63 55 82 56 47 57
REMARK SMILES IDX 48 58 62 60 83 61 50 62 34 63 35 64 43 65 36 66 37 67 41 68
REMARK SMILES IDX 44 69 38 70 39 71 42 72 40 73 66 74 67 75 75 76 68 77 69 78
REMARK SMILES IDX 73 79 76 80 70 81 71 82 74 83 72 84 51 85 52 86 60 87 53 88
REMARK SMILES IDX 54 89 58 90 61 91 55 92 56 93 59 94 57 95
REMARK H PARENT 8 13 8 14 3 20 81 48 49 59
REMARK Flexibility Score: inf
ROOT
ATOM      1  C   UNL A   1      39.823  21.637  25.961  1.00  0.00     0.261 C 
ENDROOT
BRANCH   1   2
ATOM      2  O   UNL A   1      38.388  21.703  26.029  1.00  0.00    -0.460 OA
BRANCH   2   3
ATOM      3  C   UNL A   1      37.756  20.884  25.161  1.00  0.00     0.339 C 
ATOM      4  O   UNL A   1      37.991  19.704  24.946  1.00  0.00    -0.246 OA
BRANCH   3   5
ATOM      5  C   UNL A   1      36.575  21.548  24.611  1.00  0.00     0.078 A 
ATOM      6  C   UNL A   1      34.598  23.178  23.647  1.00  0.00     0.094 A 
ATOM      7  C   UNL A   1      34.267  22.196  24.585  1.00  0.00     0.031 A 
ATOM      8  N   UNL A   1      35.834  23.255  23.092  1.00  0.00    -0.254 NA
ATOM      9  C   UNL A   1      35.272  21.345  25.056  1.00  0.00     0.019 A 
ATOM     10  C   UNL A   1      36.802  22.484  23.617  1.00  0.00     0.127 A 
BRANCH   6  11
ATOM     11  C   UNL A   1      33.674  24.357  23.378  1.00  0.00     0.317 C 
BRANCH  11  12
ATOM     12  N   UNL A   1      33.239  25.045  24.619  1.00  0.00    -0.341 N 
ATOM     13  H   UNL A   1      32.230  25.190  24.580  1.00  0.00     0.346 HD
ATOM     14  H   UNL A   1      33.496  24.459  25.414  1.00  0.00     0.346 HD
BRANCH  12  15
ATOM     15  C   UNL A   1      33.901  26.351  24.782  1.00  0.00     0.270 C 
BRANCH  15  16
ATOM     16  C   UNL A   1      32.985  27.430  25.369  1.00  0.00     0.105 C 
ATOM     17  N   UNL A   1      31.015  28.534  24.442  1.00  0.00    -0.335 N 
ATOM     18  C   UNL A   1      31.961  29.529  24.964  1.00  0.00     0.262 C 
ATOM     19  C   UNL A   1      31.513  27.232  24.946  1.00  0.00     0.271 C 
ATOM     20  H   UNL A   1      30.061  28.718  24.753  1.00  0.00     0.348 HD
ATOM     21  C   UNL A   1      33.310  28.845  24.903  1.00  0.00     0.076 C 
BRANCH  17  22
ATOM     22  C   UNL A   1      30.946  28.565  22.971  1.00  0.00     0.258 C 
ATOM     23  C   UNL A   1      29.862  29.544  22.536  1.00  0.00     0.071 C 
ENDBRANCH  17  22
ENDBRANCH  15  16
ENDBRANCH  12  15
ENDBRANCH  11  12
ENDBRANCH   6  11
ENDBRANCH   3   5
ENDBRANCH   2   3
ENDBRANCH   1   2
BRANCH   1  24
ATOM     24  C   UNL A   1      40.420  21.263  27.320  1.00  0.00     0.202 C 
BRANCH  24  25
ATOM     25  O   UNL A   1      41.833  21.068  27.354  1.00  0.00    -0.374 OA
BRANCH  25  26
ATOM     26  C   UNL A   1      42.481  20.724  26.129  1.00  0.00     0.202 C 
BRANCH  26  27
ATOM     27  C   UNL A   1      43.466  21.751  25.559  1.00  0.00     0.261 C 
BRANCH  27  28
ATOM     28  O   UNL A   1      42.781  22.911  25.051  1.00  0.00    -0.460 OA
BRANCH  28  29
ATOM     29  C   UNL A   1      43.493  24.061  25.093  1.00  0.00     0.338 C 
ATOM     30  O   UNL A   1      44.468  24.359  24.420  1.00  0.00    -0.246 OA
BRANCH  29  31
ATOM     31  C   UNL A   1      42.808  25.030  25.966  1.00  0.00     0.060 A 
ATOM     32  C   UNL A   1      43.254  26.360  25.944  1.00  0.00     0.016 A 
ATOM     33  C   UNL A   1      41.792  24.635  26.837  1.00  0.00     0.016 A 
ATOM     34  C   UNL A   1      42.719  27.291  26.832  1.00  0.00     0.010 A 
ATOM     35  C   UNL A   1      41.267  25.566  27.735  1.00  0.00     0.010 A 
ATOM     36  C   UNL A   1      41.755  26.886  27.761  1.00  0.00    -0.014 A 
BRANCH  36  37
ATOM     37  C   UNL A   1      41.375  27.776  28.882  1.00  0.00     0.031 A 
ATOM     38  C   UNL A   1      42.155  27.684  30.163  1.00  0.00     0.074 A 
ATOM     39  C   UNL A   1      40.343  28.630  28.773  1.00  0.00     0.049 A 
ATOM     40  N   UNL A   1      41.918  28.235  31.325  1.00  0.00    -0.248 NA
ATOM     41  C   UNL A   1      43.364  26.844  30.128  1.00  0.00     0.031 C 
ATOM     42  C   UNL A   1      39.551  28.848  27.565  1.00  0.00     0.029 A 
ATOM     43  N   UNL A   1      39.772  29.456  29.708  1.00  0.00    -0.354 N 
ATOM     44  C   UNL A   1      42.932  27.793  32.163  1.00  0.00     0.074 A 
ATOM     45  C   UNL A   1      43.779  26.916  31.384  1.00  0.00     0.031 C 
ATOM     46  C   UNL A   1      38.576  29.731  27.840  1.00  0.00     0.029 A 
ATOM     47  C   UNL A   1      38.651  30.104  29.252  1.00  0.00     0.049 A 
ATOM     48  H   UNL A   1      40.131  29.573  30.618  1.00  0.00     0.167 HD
ATOM     49  C   UNL A   1      43.137  28.094  33.468  1.00  0.00     0.037 A 
ATOM     50  C   UNL A   1      37.769  30.878  29.914  1.00  0.00     0.037 A 
ATOM     51  C   UNL A   1      42.292  28.971  34.233  1.00  0.00     0.049 A 
ATOM     52  C   UNL A   1      37.978  31.143  31.383  1.00  0.00     0.074 A 
ATOM     53  C   UNL A   1      42.415  29.349  35.558  1.00  0.00     0.029 A 
ATOM     54  N   UNL A   1      41.164  29.607  33.737  1.00  0.00    -0.354 N 
ATOM     55  N   UNL A   1      38.937  30.724  32.173  1.00  0.00    -0.248 NA
ATOM     56  C   UNL A   1      36.978  31.987  32.054  1.00  0.00     0.031 C 
ATOM     57  C   UNL A   1      41.335  30.176  35.877  1.00  0.00     0.029 A 
ATOM     58  C   UNL A   1      40.570  30.360  34.735  1.00  0.00     0.049 A 
ATOM     59  H   UNL A   1      40.834  29.535  32.813  1.00  0.00     0.167 HD
ATOM     60  C   UNL A   1      38.681  31.284  33.419  1.00  0.00     0.074 A 
ATOM     61  C   UNL A   1      37.473  32.071  33.281  1.00  0.00     0.031 C 
ATOM     62  C   UNL A   1      39.385  31.161  34.571  1.00  0.00     0.037 A 
BRANCH  49  63
ATOM     63  C   UNL A   1      44.299  27.442  34.156  1.00  0.00     0.064 A 
ATOM     64  C   UNL A   1      44.192  26.172  34.741  1.00  0.00     0.173 A 
ATOM     65  C   UNL A   1      45.545  28.085  34.204  1.00  0.00     0.173 A 
ATOM     66  F   UNL A   1      43.019  25.522  34.737  1.00  0.00    -0.203 F 
ATOM     67  C   UNL A   1      45.285  25.580  35.372  1.00  0.00     0.198 A 
ATOM     68  C   UNL A   1      46.642  27.479  34.808  1.00  0.00     0.198 A 
ATOM     69  F   UNL A   1      45.700  29.300  33.656  1.00  0.00    -0.203 F 
ATOM     70  F   UNL A   1      45.149  24.388  35.966  1.00  0.00    -0.200 F 
ATOM     71  C   UNL A   1      46.510  26.231  35.398  1.00  0.00     0.200 A 
ATOM     72  F   UNL A   1      47.827  28.104  34.822  1.00  0.00    -0.200 F 
ATOM     73  F   UNL A   1      47.562  25.658  35.998  1.00  0.00    -0.200 F 
ENDBRANCH  49  63
BRANCH  50  74
ATOM     74  C   UNL A   1      36.595  31.441  29.200  1.00  0.00     0.064 A 
ATOM     75  C   UNL A   1      36.527  32.806  28.886  1.00  0.00     0.173 A 
ATOM     76  C   UNL A   1      35.508  30.633  28.830  1.00  0.00     0.173 A 
ATOM     77  F   UNL A   1      37.529  33.624  29.241  1.00  0.00    -0.203 F 
ATOM     78  C   UNL A   1      35.412  33.343  28.247  1.00  0.00     0.198 A 
ATOM     79  C   UNL A   1      34.407  31.167  28.166  1.00  0.00     0.198 A 
ATOM     80  F   UNL A   1      35.523  29.321  29.108  1.00  0.00    -0.203 F 
ATOM     81  F   UNL A   1      35.354  34.660  28.001  1.00  0.00    -0.200 F 
ATOM     82  C   UNL A   1      34.355  32.523  27.882  1.00  0.00     0.200 A 
ATOM     83  F   UNL A   1      33.394  30.368  27.804  1.00  0.00    -0.200 F 
ATOM     84  F   UNL A   1      33.284  33.040  27.265  1.00  0.00    -0.200 F 
ENDBRANCH  50  74
BRANCH  62  85
ATOM     85  C   UNL A   1      38.914  31.946  35.760  1.00  0.00     0.064 A 
ATOM     86  C   UNL A   1      38.157  31.358  36.784  1.00  0.00     0.173 A 
ATOM     87  C   UNL A   1      39.289  33.291  35.908  1.00  0.00     0.173 A 
ATOM     88  F   UNL A   1      37.762  30.081  36.682  1.00  0.00    -0.203 F 
ATOM     89  C   UNL A   1      37.779  32.094  37.905  1.00  0.00     0.198 A 
ATOM     90  C   UNL A   1      38.934  34.014  37.043  1.00  0.00     0.198 A 
ATOM     91  F   UNL A   1      40.021  33.896  34.961  1.00  0.00    -0.203 F 
ATOM     92  F   UNL A   1      37.025  31.523  38.854  1.00  0.00    -0.200 F 
ATOM     93  C   UNL A   1      38.175  33.417  38.037  1.00  0.00     0.200 A 
ATOM     94  F   UNL A   1      39.331  35.287  37.175  1.00  0.00    -0.200 F 
ATOM     95  F   UNL A   1      37.823  34.117  39.124  1.00  0.00    -0.200 F 
ENDBRANCH  62  85
ENDBRANCH  36  37
ENDBRANCH  29  31
ENDBRANCH  28  29
ENDBRANCH  27  28
ENDBRANCH  26  27
ENDBRANCH  25  26
ENDBRANCH  24  25
ENDBRANCH   1  24
TORSDOF 19
ENDMDL
MODEL 2
REMARK VINA RESULT:     -10.4      5.253     11.780
REMARK SMILES CC[N@@H+]1CC[C@H](C[NH2+]Cc2ccc(C(=O)OCCOCCOC(=O)c3ccc(-c4c5nc(c(-c6c(F)c(F)c(F)c(F)c6F)c6ccc([nH]6)c(-c6c(F)c(F)c(F)c(F)c6F)c6nc(c(-c7c(F)c(F)c(F)c(F)c7F)c7ccc4[nH]7)C=C6)C=C5)cc3)cn2)C1
REMARK SMILES IDX 17 1 16 2 14 3 15 4 13 5 10 6 11 7 89 8 12 9 88 10 9 11 8 12
REMARK SMILES IDX 7 15 6 16 3 17 4 18 90 19 5 21 2 22 1 23 18 24 19 25 20 26
REMARK SMILES IDX 21 27 22 28 23 29 24 30 25 31 26 32 87 33 27 34 86 35 28 36
REMARK SMILES IDX 29 37 30 38 80 39 31 40 85 41 79 42 81 43 32 44 84 45 78 46
REMARK SMILES IDX 77 47 33 49 65 50 45 51 64 52 46 53 49 54 63 55 82 56 47 57
REMARK SMILES IDX 48 58 62 60 83 61 50 62 34 63 35 64 43 65 36 66 37 67 41 68
REMARK SMILES IDX 44 69 38 70 39 71 42 72 40 73 66 74 67 75 75 76 68 77 69 78
REMARK SMILES IDX 73 79 76 80 70 81 71 82 74 83 72 84 51 85 52 86 60 87 53 88
REMARK SMILES IDX 54 89 58 90 61 91 55 92 56 93 59 94 57 95
REMARK H PARENT 8 13 8 14 3 20 81 48 49 59
REMARK Flexibility Score: inf
ROOT
ATOM      1  C   UNL A   1      32.535  35.785  32.161  1.00  0.00     0.261 C 
ENDROOT
BRANCH   1   2
ATOM      2  O   UNL A   1      33.840  35.634  32.745  1.00  0.00    -0.460 OA
BRANCH   2   3
ATOM      3  C   UNL A   1      34.133  34.370  33.123  1.00  0.00     0.339 C 
ATOM      4  O   UNL A   1      33.496  33.356  32.883  1.00  0.00    -0.246 OA
BRANCH   3   5
ATOM      5  C   UNL A   1      35.467  34.321  33.722  1.00  0.00     0.078 A 
ATOM      6  C   UNL A   1      38.079  33.994  34.470  1.00  0.00     0.094 A 
ATOM      7  C   UNL A   1      37.070  33.702  35.393  1.00  0.00     0.031 A 
ATOM      8  N   UNL A   1      37.813  34.569  33.271  1.00  0.00    -0.254 NA
ATOM      9  C   UNL A   1      35.736  33.896  35.020  1.00  0.00     0.019 A 
ATOM     10  C   UNL A   1      36.524  34.670  32.901  1.00  0.00     0.127 A 
BRANCH   6  11
ATOM     11  C   UNL A   1      39.494  33.464  34.654  1.00  0.00     0.317 C 
BRANCH  11  12
ATOM     12  N   UNL A   1      39.624  32.028  34.303  1.00  0.00    -0.341 N 
ATOM     13  H   UNL A   1      38.706  31.589  34.363  1.00  0.00     0.346 HD
ATOM     14  H   UNL A   1      40.000  31.967  33.356  1.00  0.00     0.346 HD
BRANCH  12  15
ATOM     15  C   UNL A   1      40.549  31.324  35.208  1.00  0.00     0.270 C 
BRANCH  15  16
ATOM     16  C   UNL A   1      40.494  29.799  35.069  1.00  0.00     0.105 C 
ATOM     17  N   UNL A   1      42.278  28.140  34.916  1.00  0.00    -0.335 N 
ATOM     18  C   UNL A   1      41.298  27.937  33.841  1.00  0.00     0.262 C 
ATOM     19  C   UNL A   1      41.637  29.106  35.841  1.00  0.00     0.271 C 
ATOM     20  H   UNL A   1      42.510  27.265  35.387  1.00  0.00     0.348 HD
ATOM     21  C   UNL A   1      40.664  29.297  33.638  1.00  0.00     0.076 C 
BRANCH  17  22
ATOM     22  C   UNL A   1      43.561  28.643  34.398  1.00  0.00     0.258 C 
ATOM     23  C   UNL A   1      44.102  27.671  33.357  1.00  0.00     0.071 C 
ENDBRANCH  17  22
ENDBRANCH  15  16
ENDBRANCH  12  15
ENDBRANCH  11  12
ENDBRANCH   6  11
ENDBRANCH   3   5
ENDBRANCH   2   3
ENDBRANCH   1   2
BRANCH   1  24
ATOM     24  C   UNL A   1      32.636  36.083  30.663  1.00  0.00     0.202 C 
BRANCH  24  25
ATOM     25  O   UNL A   1      32.657  34.950  29.795  1.00  0.00    -0.374 OA
BRANCH  25  26
ATOM     26  C   UNL A   1      33.934  34.461  29.380  1.00  0.00     0.202 C 
BRANCH  26  27
ATOM     27  C   UNL A   1      33.934  33.248  28.443  1.00  0.00     0.261 C 
BRANCH  27  28
ATOM     28  O   UNL A   1      34.576  32.112  29.052  1.00  0.00    -0.460 OA
BRANCH  28  29
ATOM     29  C   UNL A   1      34.566  30.982  28.309  1.00  0.00     0.338 C 
ATOM     30  O   UNL A   1      33.711  30.620  27.513  1.00  0.00    -0.246 OA
BRANCH  29  31
ATOM     31  C   UNL A   1      35.860  30.291  28.449  1.00  0.00     0.060 A 
ATOM     32  C   UNL A   1      36.161  29.711  29.690  1.00  0.00     0.016 A 
ATOM     33  C   UNL A   1      36.788  30.267  27.408  1.00  0.00     0.016 A 
ATOM     34  C   UNL A   1      37.415  29.147  29.911  1.00  0.00     0.010 A 
ATOM     35  C   UNL A   1      38.050  29.714  27.636  1.00  0.00     0.010 A 
ATOM     36  C   UNL A   1      38.380  29.186  28.898  1.00  0.00    -0.014 A 
BRANCH  36  37
ATOM     37  C   UNL A   1      39.791  28.847  29.195  1.00  0.00     0.031 A 
ATOM     38  C   UNL A   1      40.636  29.865  29.906  1.00  0.00     0.074 A 
ATOM     39  C   UNL A   1      40.316  27.669  28.817  1.00  0.00     0.049 A 
ATOM     40  N   UNL A   1      41.924  29.868  30.133  1.00  0.00    -0.248 NA
ATOM     41  C   UNL A   1      39.930  31.049  30.423  1.00  0.00     0.031 C 
ATOM     42  C   UNL A   1      39.581  26.584  28.174  1.00  0.00     0.029 A 
ATOM     43  N   UNL A   1      41.604  27.204  28.903  1.00  0.00    -0.354 N 
ATOM     44  C   UNL A   1      42.185  31.058  30.797  1.00  0.00     0.074 A 
ATOM     45  C   UNL A   1      40.928  31.762  30.924  1.00  0.00     0.031 C 
ATOM     46  C   UNL A   1      40.437  25.585  27.896  1.00  0.00     0.029 A 
ATOM     47  C   UNL A   1      41.784  25.983  28.303  1.00  0.00     0.049 A 
ATOM     48  H   UNL A   1      42.329  27.699  29.350  1.00  0.00     0.167 HD
ATOM     49  C   UNL A   1      43.371  31.521  31.259  1.00  0.00     0.037 A 
ATOM     50  C   UNL A   1      42.916  25.287  28.077  1.00  0.00     0.037 A 
ATOM     51  C   UNL A   1      44.616  30.812  31.133  1.00  0.00     0.049 A 
ATOM     52  C   UNL A   1      44.235  25.855  28.538  1.00  0.00     0.074 A 
ATOM     53  C   UNL A   1      45.872  31.188  31.573  1.00  0.00     0.029 A 
ATOM     54  N   UNL A   1      44.759  29.578  30.516  1.00  0.00    -0.354 N 
ATOM     55  N   UNL A   1      44.479  26.980  29.166  1.00  0.00    -0.248 NA
ATOM     56  C   UNL A   1      45.436  25.056  28.256  1.00  0.00     0.031 C 
ATOM     57  C   UNL A   1      46.784  30.203  31.181  1.00  0.00     0.029 A 
ATOM     58  C   UNL A   1      46.087  29.186  30.547  1.00  0.00     0.049 A 
ATOM     59  H   UNL A   1      44.026  29.057  30.116  1.00  0.00     0.167 HD
ATOM     60  C   UNL A   1      45.850  27.004  29.390  1.00  0.00     0.074 A 
ATOM     61  C   UNL A   1      46.385  25.782  28.828  1.00  0.00     0.031 C 
ATOM     62  C   UNL A   1      46.597  27.952  30.009  1.00  0.00     0.037 A 
BRANCH  49  63
ATOM     63  C   UNL A   1      43.381  32.871  31.913  1.00  0.00     0.064 A 
ATOM     64  C   UNL A   1      43.359  33.017  33.307  1.00  0.00     0.173 A 
ATOM     65  C   UNL A   1      43.444  34.035  31.131  1.00  0.00     0.173 A 
ATOM     66  F   UNL A   1      43.281  31.936  34.099  1.00  0.00    -0.203 F 
ATOM     67  C   UNL A   1      43.373  34.280  33.895  1.00  0.00     0.198 A 
ATOM     68  C   UNL A   1      43.488  35.294  31.722  1.00  0.00     0.198 A 
ATOM     69  F   UNL A   1      43.471  33.950  29.792  1.00  0.00    -0.203 F 
ATOM     70  F   UNL A   1      43.303  34.398  35.228  1.00  0.00    -0.200 F 
ATOM     71  C   UNL A   1      43.445  35.416  33.103  1.00  0.00     0.200 A 
ATOM     72  F   UNL A   1      43.570  36.389  30.955  1.00  0.00    -0.200 F 
ATOM     73  F   UNL A   1      43.467  36.630  33.669  1.00  0.00    -0.200 F 
ENDBRANCH  49  63
BRANCH  50  74
ATOM     74  C   UNL A   1      42.858  23.987  27.361  1.00  0.00     0.064 A 
ATOM     75  C   UNL A   1      42.487  22.811  28.029  1.00  0.00     0.173 A 
ATOM     76  C   UNL A   1      43.185  23.888  26.000  1.00  0.00     0.173 A 
ATOM     77  F   UNL A   1      42.190  22.850  29.336  1.00  0.00    -0.203 F 
ATOM     78  C   UNL A   1      42.465  21.585  27.368  1.00  0.00     0.198 A 
ATOM     79  C   UNL A   1      43.135  22.666  25.334  1.00  0.00     0.198 A 
ATOM     80  F   UNL A   1      43.546  24.983  25.315  1.00  0.00    -0.203 F 
ATOM     81  F   UNL A   1      42.152  20.469  28.042  1.00  0.00    -0.200 F 
ATOM     82  C   UNL A   1      42.782  21.514  26.020  1.00  0.00     0.200 A 
ATOM     83  F   UNL A   1      43.430  22.604  24.029  1.00  0.00    -0.200 F 
ATOM     84  F   UNL A   1      42.757  20.335  25.385  1.00  0.00    -0.200 F 
ENDBRANCH  50  74
BRANCH  62  85
ATOM     85  C   UNL A   1      48.063  27.681  30.178  1.00  0.00     0.064 A 
ATOM     86  C   UNL A   1      49.011  28.130  29.248  1.00  0.00     0.173 A 
ATOM     87  C   UNL A   1      48.528  27.021  31.327  1.00  0.00     0.173 A 
ATOM     88  F   UNL A   1      48.616  28.753  28.129  1.00  0.00    -0.203 F 
ATOM     89  C   UNL A   1      50.372  27.914  29.455  1.00  0.00     0.198 A 
ATOM     90  C   UNL A   1      49.890  26.833  31.544  1.00  0.00     0.198 A 
ATOM     91  F   UNL A   1      47.660  26.581  32.250  1.00  0.00    -0.203 F 
ATOM     92  F   UNL A   1      51.259  28.320  28.537  1.00  0.00    -0.200 F 
ATOM     93  C   UNL A   1      50.810  27.275  30.606  1.00  0.00     0.200 A 
ATOM     94  F   UNL A   1      50.310  26.229  32.664  1.00  0.00    -0.200 F 
ATOM     95  F   UNL A   1      52.120  27.083  30.810  1.00  0.00    -0.200 F 
ENDBRANCH  62  85
ENDBRANCH  36  37
ENDBRANCH  29  31
ENDBRANCH  28  29
ENDBRANCH  27  28
ENDBRANCH  26  27
ENDBRANCH  25  26
ENDBRANCH  24  25
ENDBRANCH   1  24
TORSDOF 19
ENDMDL
MODEL 3
REMARK VINA RESULT:     -10.3      3.753      8.923
REMARK SMILES CC[N@@H+]1CC[C@H](C[NH2+]Cc2ccc(C(=O)OCCOCCOC(=O)c3ccc(-c4c5nc(c(-c6c(F)c(F)c(F)c(F)c6F)c6ccc([nH]6)c(-c6c(F)c(F)c(F)c(F)c6F)c6nc(c(-c7c(F)c(F)c(F)c(F)c7F)c7ccc4[nH]7)C=C6)C=C5)cc3)cn2)C1
REMARK SMILES IDX 17 1 16 2 14 3 15 4 13 5 10 6 11 7 89 8 12 9 88 10 9 11 8 12
REMARK SMILES IDX 7 15 6 16 3 17 4 18 90 19 5 21 2 22 1 23 18 24 19 25 20 26
REMARK SMILES IDX 21 27 22 28 23 29 24 30 25 31 26 32 87 33 27 34 86 35 28 36
REMARK SMILES IDX 29 37 30 38 80 39 31 40 85 41 79 42 81 43 32 44 84 45 78 46
REMARK SMILES IDX 77 47 33 49 65 50 45 51 64 52 46 53 49 54 63 55 82 56 47 57
REMARK SMILES IDX 48 58 62 60 83 61 50 62 34 63 35 64 43 65 36 66 37 67 41 68
REMARK SMILES IDX 44 69 38 70 39 71 42 72 40 73 66 74 67 75 75 76 68 77 69 78
REMARK SMILES IDX 73 79 76 80 70 81 71 82 74 83 72 84 51 85 52 86 60 87 53 88
REMARK SMILES IDX 54 89 58 90 61 91 55 92 56 93 59 94 57 95
REMARK H PARENT 8 13 8 14 3 20 81 48 49 59
REMARK Flexibility Score: inf
ROOT
ATOM      1  C   UNL A   1      32.160  28.316  27.326  1.00  0.00     0.261 C 
ENDROOT
BRANCH   1   2
ATOM      2  O   UNL A   1      31.240  27.254  27.021  1.00  0.00    -0.460 OA
BRANCH   2   3
ATOM      3  C   UNL A   1      31.156  26.957  25.706  1.00  0.00     0.339 C 
ATOM      4  O   UNL A   1      31.220  27.732  24.763  1.00  0.00    -0.246 OA
BRANCH   3   5
ATOM      5  C   UNL A   1      31.167  25.507  25.516  1.00  0.00     0.078 A 
ATOM      6  C   UNL A   1      31.633  22.822  25.255  1.00  0.00     0.094 A 
ATOM      7  C   UNL A   1      30.916  23.484  24.254  1.00  0.00     0.031 A 
ATOM      8  N   UNL A   1      31.979  23.433  26.416  1.00  0.00    -0.254 NA
ATOM      9  C   UNL A   1      30.653  24.850  24.401  1.00  0.00     0.019 A 
ATOM     10  C   UNL A   1      31.790  24.762  26.501  1.00  0.00     0.127 A 
BRANCH   6  11
ATOM     11  C   UNL A   1      32.274  21.466  25.001  1.00  0.00     0.317 C 
BRANCH  11  12
ATOM     12  N   UNL A   1      33.077  21.430  23.754  1.00  0.00    -0.341 N 
ATOM     13  H   UNL A   1      33.361  20.467  23.570  1.00  0.00     0.346 HD
ATOM     14  H   UNL A   1      32.501  21.794  22.995  1.00  0.00     0.346 HD
BRANCH  12  15
ATOM     15  C   UNL A   1      34.284  22.270  23.854  1.00  0.00     0.270 C 
BRANCH  15  16
ATOM     16  C   UNL A   1      35.417  21.615  24.651  1.00  0.00     0.105 C 
ATOM     17  N   UNL A   1      36.933  22.535  26.328  1.00  0.00    -0.335 N 
ATOM     18  C   UNL A   1      37.690  21.809  25.299  1.00  0.00     0.262 C 
ATOM     19  C   UNL A   1      35.516  22.176  26.085  1.00  0.00     0.271 C 
ATOM     20  H   UNL A   1      37.231  22.277  27.269  1.00  0.00     0.348 HD
ATOM     21  C   UNL A   1      36.807  21.857  24.069  1.00  0.00     0.076 C 
BRANCH  17  22
ATOM     22  C   UNL A   1      37.155  23.988  26.246  1.00  0.00     0.258 C 
ATOM     23  C   UNL A   1      38.627  24.290  26.500  1.00  0.00     0.071 C 
ENDBRANCH  17  22
ENDBRANCH  15  16
ENDBRANCH  12  15
ENDBRANCH  11  12
ENDBRANCH   6  11
ENDBRANCH   3   5
ENDBRANCH   2   3
ENDBRANCH   1   2
BRANCH   1  24
ATOM     24  C   UNL A   1      31.462  29.677  27.280  1.00  0.00     0.202 C 
BRANCH  24  25
ATOM     25  O   UNL A   1      32.313  30.818  27.183  1.00  0.00    -0.374 OA
BRANCH  25  26
ATOM     26  C   UNL A   1      31.780  31.988  26.560  1.00  0.00     0.202 C 
BRANCH  26  27
ATOM     27  C   UNL A   1      32.097  33.329  27.231  1.00  0.00     0.261 C 
BRANCH  27  28
ATOM     28  O   UNL A   1      33.146  33.194  28.208  1.00  0.00    -0.460 OA
BRANCH  28  29
ATOM     29  C   UNL A   1      34.306  33.816  27.893  1.00  0.00     0.338 C 
ATOM     30  O   UNL A   1      34.452  34.959  27.484  1.00  0.00    -0.246 OA
BRANCH  29  31
ATOM     31  C   UNL A   1      35.442  32.968  28.294  1.00  0.00     0.060 A 
ATOM     32  C   UNL A   1      35.184  31.617  28.568  1.00  0.00     0.016 A 
ATOM     33  C   UNL A   1      36.722  33.497  28.461  1.00  0.00     0.016 A 
ATOM     34  C   UNL A   1      36.199  30.798  29.061  1.00  0.00     0.010 A 
ATOM     35  C   UNL A   1      37.733  32.679  28.968  1.00  0.00     0.010 A 
ATOM     36  C   UNL A   1      37.466  31.338  29.305  1.00  0.00    -0.014 A 
BRANCH  36  37
ATOM     37  C   UNL A   1      38.471  30.571  30.075  1.00  0.00     0.031 A 
ATOM     38  C   UNL A   1      38.673  30.914  31.525  1.00  0.00     0.074 A 
ATOM     39  C   UNL A   1      39.207  29.609  29.495  1.00  0.00     0.049 A 
ATOM     40  N   UNL A   1      39.591  30.501  32.359  1.00  0.00    -0.248 NA
ATOM     41  C   UNL A   1      37.708  31.861  32.109  1.00  0.00     0.031 C 
ATOM     42  C   UNL A   1      39.062  29.152  28.115  1.00  0.00     0.029 A 
ATOM     43  N   UNL A   1      40.244  28.861  29.994  1.00  0.00    -0.354 N 
ATOM     44  C   UNL A   1      39.330  31.153  33.557  1.00  0.00     0.074 A 
ATOM     45  C   UNL A   1      38.178  32.000  33.340  1.00  0.00     0.031 C 
ATOM     46  C   UNL A   1      39.996  28.218  27.867  1.00  0.00     0.029 A 
ATOM     47  C   UNL A   1      40.829  28.047  29.057  1.00  0.00     0.049 A 
ATOM     48  H   UNL A   1      40.538  28.904  30.932  1.00  0.00     0.167 HD
ATOM     49  C   UNL A   1      39.994  31.050  34.732  1.00  0.00     0.037 A 
ATOM     50  C   UNL A   1      41.935  27.281  29.145  1.00  0.00     0.037 A 
ATOM     51  C   UNL A   1      41.136  30.201  34.940  1.00  0.00     0.049 A 
ATOM     52  C   UNL A   1      42.700  27.238  30.443  1.00  0.00     0.074 A 
ATOM     53  C   UNL A   1      41.877  30.018  36.094  1.00  0.00     0.029 A 
ATOM     54  N   UNL A   1      41.703  29.392  33.966  1.00  0.00    -0.354 N 
ATOM     55  N   UNL A   1      42.451  27.854  31.573  1.00  0.00    -0.248 NA
ATOM     56  C   UNL A   1      43.902  26.392  30.476  1.00  0.00     0.031 C 
ATOM     57  C   UNL A   1      42.921  29.134  35.805  1.00  0.00     0.029 A 
ATOM     58  C   UNL A   1      42.796  28.722  34.487  1.00  0.00     0.049 A 
ATOM     59  H   UNL A   1      41.376  29.307  33.042  1.00  0.00     0.167 HD
ATOM     60  C   UNL A   1      43.437  27.441  32.461  1.00  0.00     0.074 A 
ATOM     61  C   UNL A   1      44.291  26.523  31.737  1.00  0.00     0.031 C 
ATOM     62  C   UNL A   1      43.616  27.789  33.759  1.00  0.00     0.037 A 
BRANCH  49  63
ATOM     63  C   UNL A   1      39.523  31.904  35.871  1.00  0.00     0.064 A 
ATOM     64  C   UNL A   1      40.059  33.178  36.111  1.00  0.00     0.173 A 
ATOM     65  C   UNL A   1      38.498  31.453  36.717  1.00  0.00     0.173 A 
ATOM     66  F   UNL A   1      41.053  33.649  35.342  1.00  0.00    -0.203 F 
ATOM     67  C   UNL A   1      39.605  33.958  37.172  1.00  0.00     0.198 A 
ATOM     68  C   UNL A   1      38.025  32.247  37.758  1.00  0.00     0.198 A 
ATOM     69  F   UNL A   1      37.949  30.244  36.529  1.00  0.00    -0.203 F 
ATOM     70  F   UNL A   1      40.164  35.151  37.412  1.00  0.00    -0.200 F 
ATOM     71  C   UNL A   1      38.584  33.495  37.989  1.00  0.00     0.200 A 
ATOM     72  F   UNL A   1      37.031  31.803  38.538  1.00  0.00    -0.200 F 
ATOM     73  F   UNL A   1      38.142  34.250  39.005  1.00  0.00    -0.200 F 
ENDBRANCH  49  63
BRANCH  50  74
ATOM     74  C   UNL A   1      42.399  26.510  27.963  1.00  0.00     0.064 A 
ATOM     75  C   UNL A   1      43.283  27.078  27.034  1.00  0.00     0.173 A 
ATOM     76  C   UNL A   1      41.959  25.199  27.728  1.00  0.00     0.173 A 
ATOM     77  F   UNL A   1      43.711  28.337  27.201  1.00  0.00    -0.203 F 
ATOM     78  C   UNL A   1      43.694  26.369  25.906  1.00  0.00     0.198 A 
ATOM     79  C   UNL A   1      42.393  24.482  26.616  1.00  0.00     0.198 A 
ATOM     80  F   UNL A   1      41.113  24.610  28.587  1.00  0.00    -0.203 F 
ATOM     81  F   UNL A   1      44.502  26.951  25.010  1.00  0.00    -0.200 F 
ATOM     82  C   UNL A   1      43.253  25.070  25.701  1.00  0.00     0.200 A 
ATOM     83  F   UNL A   1      41.976  23.222  26.429  1.00  0.00    -0.200 F 
ATOM     84  F   UNL A   1      43.651  24.388  24.619  1.00  0.00    -0.200 F 
ENDBRANCH  50  74
BRANCH  62  85
ATOM     85  C   UNL A   1      44.735  27.126  34.508  1.00  0.00     0.064 A 
ATOM     86  C   UNL A   1      45.991  27.730  34.653  1.00  0.00     0.173 A 
ATOM     87  C   UNL A   1      44.518  25.896  35.151  1.00  0.00     0.173 A 
ATOM     88  F   UNL A   1      46.251  28.898  34.047  1.00  0.00    -0.203 F 
ATOM     89  C   UNL A   1      46.996  27.119  35.400  1.00  0.00     0.198 A 
ATOM     90  C   UNL A   1      45.515  25.303  35.920  1.00  0.00     0.198 A 
ATOM     91  F   UNL A   1      43.330  25.282  35.050  1.00  0.00    -0.203 F 
ATOM     92  F   UNL A   1      48.202  27.697  35.495  1.00  0.00    -0.200 F 
ATOM     93  C   UNL A   1      46.754  25.913  36.039  1.00  0.00     0.200 A 
ATOM     94  F   UNL A   1      45.273  24.145  36.549  1.00  0.00    -0.200 F 
ATOM     95  F   UNL A   1      47.718  25.335  36.770  1.00  0.00    -0.200 F 
ENDBRANCH  62  85
ENDBRANCH  36  37
ENDBRANCH  29  31
ENDBRANCH  28  29
ENDBRANCH  27  28
ENDBRANCH  26  27
ENDBRANCH  25  26
ENDBRANCH  24  25
ENDBRANCH   1  24
TORSDOF 19
ENDMDL
