MODEL 1
REMARK VINA RESULT:     -12.0      0.000      0.000
REMARK SMILES C[C@H](NC1=[NH+]S(=O)(=O)c2ccccc21)C(=O)OCCOCCOC(=O)c1ccc(-c2c3nc(c(-c4c(F)c(F)c(F)c(F)c4F)c4ccc([nH]4)c(-c4c(F)c(F)c(F)c(F)c4F)c4nc(c(-c5c(F)c(F)c(F)c(F)c5F)c5ccc2[nH]5)C=C4)C=C3)cc1
REMARK SMILES IDX 21 1 20 2 19 3 18 4 17 5 15 6 16 7 2 8 1 9 3 10 4 11 5 13
REMARK SMILES IDX 14 14 6 15 9 17 13 18 7 19 8 20 10 21 12 22 11 23 22 24
REMARK SMILES IDX 23 25 24 26 25 27 26 28 27 29 88 30 28 31 87 32 29 33 30 34
REMARK SMILES IDX 31 35 81 36 32 37 86 38 80 39 82 40 33 41 85 42 79 43 78 44
REMARK SMILES IDX 34 46 66 47 46 48 65 49 47 50 50 51 64 52 83 53 48 54 49 55
REMARK SMILES IDX 63 57 84 58 51 59 35 60 36 61 44 62 37 63 38 64 42 65 45 66
REMARK SMILES IDX 39 67 40 68 43 69 41 70 67 71 68 72 76 73 69 74 70 75 74 76
REMARK SMILES IDX 77 77 71 78 72 79 75 80 73 81 52 82 53 83 61 84 54 85 55 86
REMARK SMILES IDX 59 87 62 88 56 89 57 90 60 91 58 92
REMARK H PARENT 3 12 5 16 82 45 50 56
REMARK Flexibility Score: inf
ROOT
ATOM      1  C   UNL A   1      42.734  21.109  26.223  1.00  0.00     0.202 C 
ENDROOT
BRANCH   1   2
ATOM      2  O   UNL A   1      41.682  20.310  25.681  1.00  0.00    -0.374 OA
BRANCH   2   3
ATOM      3  C   UNL A   1      40.379  20.441  26.241  1.00  0.00     0.202 C 
BRANCH   3   4
ATOM      4  C   UNL A   1      39.811  21.860  26.319  1.00  0.00     0.261 C 
BRANCH   4   5
ATOM      5  O   UNL A   1      38.528  21.961  25.681  1.00  0.00    -0.460 OA
BRANCH   5   6
ATOM      6  C   UNL A   1      37.848  23.124  25.923  1.00  0.00     0.350 C 
ATOM      7  O   UNL A   1      38.294  24.079  26.546  1.00  0.00    -0.247 OA
BRANCH   6   8
ATOM      8  C   UNL A   1      36.428  23.085  25.345  1.00  0.00     0.279 C 
ATOM      9  C   UNL A   1      36.553  22.915  23.831  1.00  0.00     0.071 C 
BRANCH   8  10
ATOM     10  N   UNL A   1      35.649  24.289  25.689  1.00  0.00    -0.260 N 
ATOM     11  C   UNL A   1      34.309  24.255  25.975  1.00  0.00     0.292 C 
ATOM     12  H   UNL A   1      36.114  25.157  25.714  1.00  0.00     0.306 HD
ATOM     13  N   UNL A   1      33.665  23.162  26.266  1.00  0.00    -0.162 N 
ATOM     14  C   UNL A   1      33.474  25.472  25.861  1.00  0.00     0.087 A 
ATOM     15  S   UNL A   1      32.049  23.430  26.338  1.00  0.00     0.329 S 
ATOM     16  H   UNL A   1      34.092  22.289  26.421  1.00  0.00     0.327 HD
ATOM     17  C   UNL A   1      32.141  25.126  25.972  1.00  0.00     0.124 A 
ATOM     18  C   UNL A   1      33.838  26.782  25.599  1.00  0.00     0.018 A 
ATOM     19  O   UNL A   1      31.571  23.308  27.693  1.00  0.00    -0.179 OA
ATOM     20  O   UNL A   1      31.393  22.791  25.212  1.00  0.00    -0.179 OA
ATOM     21  C   UNL A   1      31.106  26.014  25.767  1.00  0.00     0.025 A 
ATOM     22  C   UNL A   1      32.812  27.717  25.411  1.00  0.00     0.001 A 
ATOM     23  C   UNL A   1      31.457  27.333  25.476  1.00  0.00     0.002 A 
ENDBRANCH   8  10
ENDBRANCH   6   8
ENDBRANCH   5   6
ENDBRANCH   4   5
ENDBRANCH   3   4
ENDBRANCH   2   3
ENDBRANCH   1   2
BRANCH   1  24
ATOM     24  C   UNL A   1      43.646  21.818  25.214  1.00  0.00     0.261 C 
BRANCH  24  25
ATOM     25  O   UNL A   1      43.059  23.037  24.712  1.00  0.00    -0.460 OA
BRANCH  25  26
ATOM     26  C   UNL A   1      43.788  24.152  24.965  1.00  0.00     0.338 C 
ATOM     27  O   UNL A   1      44.857  24.469  24.474  1.00  0.00    -0.246 OA
BRANCH  26  28
ATOM     28  C   UNL A   1      43.030  25.071  25.832  1.00  0.00     0.060 A 
ATOM     29  C   UNL A   1      43.528  26.371  25.986  1.00  0.00     0.016 A 
ATOM     30  C   UNL A   1      41.928  24.638  26.571  1.00  0.00     0.016 A 
ATOM     31  C   UNL A   1      42.960  27.229  26.926  1.00  0.00     0.010 A 
ATOM     32  C   UNL A   1      41.360  25.500  27.517  1.00  0.00     0.010 A 
ATOM     33  C   UNL A   1      41.901  26.782  27.728  1.00  0.00    -0.014 A 
BRANCH  33  34
ATOM     34  C   UNL A   1      41.482  27.595  28.896  1.00  0.00     0.031 A 
ATOM     35  C   UNL A   1      42.276  27.505  30.170  1.00  0.00     0.074 A 
ATOM     36  C   UNL A   1      40.434  28.433  28.814  1.00  0.00     0.049 A 
ATOM     37  N   UNL A   1      42.084  28.105  31.317  1.00  0.00    -0.248 NA
ATOM     38  C   UNL A   1      43.446  26.613  30.147  1.00  0.00     0.031 C 
ATOM     39  C   UNL A   1      39.615  28.645  27.624  1.00  0.00     0.029 A 
ATOM     40  N   UNL A   1      39.884  29.263  29.758  1.00  0.00    -0.354 N 
ATOM     41  C   UNL A   1      43.101  27.661  32.152  1.00  0.00     0.074 A 
ATOM     42  C   UNL A   1      43.889  26.715  31.391  1.00  0.00     0.031 C 
ATOM     43  C   UNL A   1      38.660  29.548  27.910  1.00  0.00     0.029 A 
ATOM     44  C   UNL A   1      38.784  29.951  29.310  1.00  0.00     0.049 A 
ATOM     45  H   UNL A   1      40.243  29.357  30.670  1.00  0.00     0.167 HD
ATOM     46  C   UNL A   1      43.360  28.016  33.433  1.00  0.00     0.037 A 
ATOM     47  C   UNL A   1      37.964  30.798  29.961  1.00  0.00     0.037 A 
ATOM     48  C   UNL A   1      42.580  28.962  34.186  1.00  0.00     0.049 A 
ATOM     49  C   UNL A   1      38.232  31.126  31.407  1.00  0.00     0.074 A 
ATOM     50  C   UNL A   1      42.775  29.404  35.484  1.00  0.00     0.029 A 
ATOM     51  N   UNL A   1      41.449  29.609  33.710  1.00  0.00    -0.354 N 
ATOM     52  N   UNL A   1      39.206  30.716  32.183  1.00  0.00    -0.248 NA
ATOM     53  C   UNL A   1      37.285  32.035  32.066  1.00  0.00     0.031 C 
ATOM     54  C   UNL A   1      41.733  30.280  35.809  1.00  0.00     0.029 A 
ATOM     55  C   UNL A   1      40.919  30.424  34.697  1.00  0.00     0.049 A 
ATOM     56  H   UNL A   1      41.078  29.502  32.804  1.00  0.00     0.167 HD
ATOM     57  C   UNL A   1      39.007  31.340  33.408  1.00  0.00     0.074 A 
ATOM     58  C   UNL A   1      37.824  32.162  33.271  1.00  0.00     0.031 C 
ATOM     59  C   UNL A   1      39.743  31.242  34.543  1.00  0.00     0.037 A 
BRANCH  46  60
ATOM     60  C   UNL A   1      44.524  27.352  34.109  1.00  0.00     0.064 A 
ATOM     61  C   UNL A   1      45.809  27.916  34.094  1.00  0.00     0.173 A 
ATOM     62  C   UNL A   1      44.348  26.138  34.792  1.00  0.00     0.173 A 
ATOM     63  F   UNL A   1      46.033  29.066  33.441  1.00  0.00    -0.203 F 
ATOM     64  C   UNL A   1      46.880  27.273  34.710  1.00  0.00     0.198 A 
ATOM     65  C   UNL A   1      45.415  25.514  35.431  1.00  0.00     0.198 A 
ATOM     66  F   UNL A   1      43.140  25.558  34.838  1.00  0.00    -0.203 F 
ATOM     67  F   UNL A   1      48.109  27.803  34.636  1.00  0.00    -0.200 F 
ATOM     68  C   UNL A   1      46.681  26.077  35.382  1.00  0.00     0.200 A 
ATOM     69  F   UNL A   1      45.220  24.363  36.088  1.00  0.00    -0.200 F 
ATOM     70  F   UNL A   1      47.714  25.460  35.974  1.00  0.00    -0.200 F 
ENDBRANCH  46  60
BRANCH  47  71
ATOM     71  C   UNL A   1      36.807  31.400  29.249  1.00  0.00     0.064 A 
ATOM     72  C   UNL A   1      36.793  32.761  28.917  1.00  0.00     0.173 A 
ATOM     73  C   UNL A   1      35.694  30.626  28.888  1.00  0.00     0.173 A 
ATOM     74  F   UNL A   1      37.824  33.546  29.264  1.00  0.00    -0.203 F 
ATOM     75  C   UNL A   1      35.702  33.328  28.260  1.00  0.00     0.198 A 
ATOM     76  C   UNL A   1      34.617  31.189  28.208  1.00  0.00     0.198 A 
ATOM     77  F   UNL A   1      35.661  29.318  29.184  1.00  0.00    -0.203 F 
ATOM     78  F   UNL A   1      35.697  34.641  27.987  1.00  0.00    -0.200 F 
ATOM     79  C   UNL A   1      34.619  32.541  27.900  1.00  0.00     0.200 A 
ATOM     80  F   UNL A   1      33.578  30.421  27.853  1.00  0.00    -0.200 F 
ATOM     81  F   UNL A   1      33.574  33.086  27.262  1.00  0.00    -0.200 F 
ENDBRANCH  47  71
BRANCH  59  82
ATOM     82  C   UNL A   1      39.313  32.074  35.719  1.00  0.00     0.064 A 
ATOM     83  C   UNL A   1      39.778  33.384  35.904  1.00  0.00     0.173 A 
ATOM     84  C   UNL A   1      38.392  31.566  36.647  1.00  0.00     0.173 A 
ATOM     85  F   UNL A   1      40.671  33.911  35.052  1.00  0.00    -0.203 F 
ATOM     86  C   UNL A   1      39.353  34.147  36.989  1.00  0.00     0.198 A 
ATOM     87  C   UNL A   1      37.948  32.341  37.715  1.00  0.00     0.198 A 
ATOM     88  F   UNL A   1      37.912  30.321  36.512  1.00  0.00    -0.203 F 
ATOM     89  F   UNL A   1      39.844  35.381  37.171  1.00  0.00    -0.200 F 
ATOM     90  C   UNL A   1      38.434  33.628  37.889  1.00  0.00     0.200 A 
ATOM     91  F   UNL A   1      37.050  31.843  38.576  1.00  0.00    -0.200 F 
ATOM     92  F   UNL A   1      38.022  34.366  38.928  1.00  0.00    -0.200 F 
ENDBRANCH  59  82
ENDBRANCH  33  34
ENDBRANCH  26  28
ENDBRANCH  25  26
ENDBRANCH  24  25
ENDBRANCH   1  24
TORSDOF 15
ENDMDL
MODEL 2
REMARK VINA RESULT:     -12.0      0.225      1.972
REMARK SMILES C[C@H](NC1=[NH+]S(=O)(=O)c2ccccc21)C(=O)OCCOCCOC(=O)c1ccc(-c2c3nc(c(-c4c(F)c(F)c(F)c(F)c4F)c4ccc([nH]4)c(-c4c(F)c(F)c(F)c(F)c4F)c4nc(c(-c5c(F)c(F)c(F)c(F)c5F)c5ccc2[nH]5)C=C4)C=C3)cc1
REMARK SMILES IDX 21 1 20 2 19 3 18 4 17 5 15 6 16 7 2 8 1 9 3 10 4 11 5 13
REMARK SMILES IDX 14 14 6 15 9 17 13 18 7 19 8 20 10 21 12 22 11 23 22 24
REMARK SMILES IDX 23 25 24 26 25 27 26 28 27 29 88 30 28 31 87 32 29 33 30 34
REMARK SMILES IDX 31 35 81 36 32 37 86 38 80 39 82 40 33 41 85 42 79 43 78 44
REMARK SMILES IDX 34 46 66 47 46 48 65 49 47 50 50 51 64 52 83 53 48 54 49 55
REMARK SMILES IDX 63 57 84 58 51 59 35 60 36 61 44 62 37 63 38 64 42 65 45 66
REMARK SMILES IDX 39 67 40 68 43 69 41 70 67 71 68 72 76 73 69 74 70 75 74 76
REMARK SMILES IDX 77 77 71 78 72 79 75 80 73 81 52 82 53 83 61 84 54 85 55 86
REMARK SMILES IDX 59 87 62 88 56 89 57 90 60 91 58 92
REMARK H PARENT 3 12 5 16 82 45 50 56
REMARK Flexibility Score: inf
ROOT
ATOM      1  C   UNL A   1      42.600  21.347  26.356  1.00  0.00     0.202 C 
ENDROOT
BRANCH   1   2
ATOM      2  O   UNL A   1      41.798  20.259  25.897  1.00  0.00    -0.374 OA
BRANCH   2   3
ATOM      3  C   UNL A   1      40.394  20.311  26.131  1.00  0.00     0.202 C 
BRANCH   3   4
ATOM      4  C   UNL A   1      39.786  21.703  26.314  1.00  0.00     0.261 C 
BRANCH   4   5
ATOM      5  O   UNL A   1      38.578  21.866  25.554  1.00  0.00    -0.460 OA
BRANCH   5   6
ATOM      6  C   UNL A   1      37.923  23.053  25.749  1.00  0.00     0.350 C 
ATOM      7  O   UNL A   1      38.382  24.013  26.355  1.00  0.00    -0.247 OA
BRANCH   6   8
ATOM      8  C   UNL A   1      36.515  23.033  25.143  1.00  0.00     0.279 C 
ATOM      9  C   UNL A   1      36.669  22.999  23.623  1.00  0.00     0.071 C 
BRANCH   8  10
ATOM     10  N   UNL A   1      35.703  24.185  25.576  1.00  0.00    -0.260 N 
ATOM     11  C   UNL A   1      34.395  24.071  25.969  1.00  0.00     0.292 C 
ATOM     12  H   UNL A   1      36.119  25.078  25.582  1.00  0.00     0.306 HD
ATOM     13  N   UNL A   1      33.837  22.938  26.287  1.00  0.00    -0.162 N 
ATOM     14  C   UNL A   1      33.488  25.241  25.951  1.00  0.00     0.087 A 
ATOM     15  S   UNL A   1      32.220  23.113  26.497  1.00  0.00     0.329 S 
ATOM     16  H   UNL A   1      34.323  22.088  26.389  1.00  0.00     0.327 HD
ATOM     17  C   UNL A   1      32.189  24.818  26.162  1.00  0.00     0.124 A 
ATOM     18  C   UNL A   1      33.757  26.573  25.689  1.00  0.00     0.018 A 
ATOM     19  O   UNL A   1      31.864  22.941  27.883  1.00  0.00    -0.179 OA
ATOM     20  O   UNL A   1      31.510  22.458  25.414  1.00  0.00    -0.179 OA
ATOM     21  C   UNL A   1      31.093  25.649  26.061  1.00  0.00     0.025 A 
ATOM     22  C   UNL A   1      32.669  27.452  25.605  1.00  0.00     0.001 A 
ATOM     23  C   UNL A   1      31.347  26.991  25.772  1.00  0.00     0.002 A 
ENDBRANCH   8  10
ENDBRANCH   6   8
ENDBRANCH   5   6
ENDBRANCH   4   5
ENDBRANCH   3   4
ENDBRANCH   2   3
ENDBRANCH   1   2
BRANCH   1  24
ATOM     24  C   UNL A   1      43.560  21.969  25.334  1.00  0.00     0.261 C 
BRANCH  24  25
ATOM     25  O   UNL A   1      43.034  23.185  24.763  1.00  0.00    -0.460 OA
BRANCH  25  26
ATOM     26  C   UNL A   1      43.778  24.289  25.020  1.00  0.00     0.338 C 
ATOM     27  O   UNL A   1      44.859  24.586  24.541  1.00  0.00    -0.246 OA
BRANCH  26  28
ATOM     28  C   UNL A   1      43.024  25.226  25.872  1.00  0.00     0.060 A 
ATOM     29  C   UNL A   1      43.605  26.474  26.129  1.00  0.00     0.016 A 
ATOM     30  C   UNL A   1      41.837  24.849  26.502  1.00  0.00     0.016 A 
ATOM     31  C   UNL A   1      43.029  27.331  27.066  1.00  0.00     0.010 A 
ATOM     32  C   UNL A   1      41.262  25.709  27.444  1.00  0.00     0.010 A 
ATOM     33  C   UNL A   1      41.879  26.934  27.760  1.00  0.00    -0.014 A 
BRANCH  33  34
ATOM     34  C   UNL A   1      41.430  27.725  28.933  1.00  0.00     0.031 A 
ATOM     35  C   UNL A   1      42.205  27.626  30.218  1.00  0.00     0.074 A 
ATOM     36  C   UNL A   1      40.372  28.550  28.846  1.00  0.00     0.049 A 
ATOM     37  N   UNL A   1      41.985  28.208  31.370  1.00  0.00    -0.248 NA
ATOM     38  C   UNL A   1      43.387  26.751  30.202  1.00  0.00     0.031 C 
ATOM     39  C   UNL A   1      39.571  28.769  27.645  1.00  0.00     0.029 A 
ATOM     40  N   UNL A   1      39.796  29.359  29.792  1.00  0.00    -0.354 N 
ATOM     41  C   UNL A   1      42.994  27.765  32.215  1.00  0.00     0.074 A 
ATOM     42  C   UNL A   1      43.808  26.840  31.455  1.00  0.00     0.031 C 
ATOM     43  C   UNL A   1      38.599  29.654  27.928  1.00  0.00     0.029 A 
ATOM     44  C   UNL A   1      38.695  30.039  29.335  1.00  0.00     0.049 A 
ATOM     45  H   UNL A   1      40.139  29.444  30.711  1.00  0.00     0.167 HD
ATOM     46  C   UNL A   1      43.228  28.105  33.505  1.00  0.00     0.037 A 
ATOM     47  C   UNL A   1      37.853  30.866  29.985  1.00  0.00     0.037 A 
ATOM     48  C   UNL A   1      42.424  29.029  34.259  1.00  0.00     0.049 A 
ATOM     49  C   UNL A   1      38.092  31.176  31.440  1.00  0.00     0.074 A 
ATOM     50  C   UNL A   1      42.591  29.455  35.566  1.00  0.00     0.029 A 
ATOM     51  N   UNL A   1      41.292  29.668  33.774  1.00  0.00    -0.354 N 
ATOM     52  N   UNL A   1      39.060  30.767  32.226  1.00  0.00    -0.248 NA
ATOM     53  C   UNL A   1      37.123  32.064  32.096  1.00  0.00     0.031 C 
ATOM     54  C   UNL A   1      41.533  30.312  35.886  1.00  0.00     0.029 A 
ATOM     55  C   UNL A   1      40.735  30.462  34.763  1.00  0.00     0.049 A 
ATOM     56  H   UNL A   1      40.937  29.570  32.860  1.00  0.00     0.167 HD
ATOM     57  C   UNL A   1      38.833  31.371  33.456  1.00  0.00     0.074 A 
ATOM     58  C   UNL A   1      37.641  32.179  33.311  1.00  0.00     0.031 C 
ATOM     59  C   UNL A   1      39.551  31.267  34.602  1.00  0.00     0.037 A 
BRANCH  46  60
ATOM     60  C   UNL A   1      44.390  27.446  34.191  1.00  0.00     0.064 A 
ATOM     61  C   UNL A   1      44.271  26.190  34.805  1.00  0.00     0.173 A 
ATOM     62  C   UNL A   1      45.643  28.076  34.224  1.00  0.00     0.173 A 
ATOM     63  F   UNL A   1      43.090  25.553  34.817  1.00  0.00    -0.203 F 
ATOM     64  C   UNL A   1      45.355  25.605  35.454  1.00  0.00     0.198 A 
ATOM     65  C   UNL A   1      46.732  27.475  34.848  1.00  0.00     0.198 A 
ATOM     66  F   UNL A   1      45.811  29.277  33.650  1.00  0.00    -0.203 F 
ATOM     67  F   UNL A   1      45.204  24.430  36.081  1.00  0.00    -0.200 F 
ATOM     68  C   UNL A   1      46.585  26.245  35.470  1.00  0.00     0.200 A 
ATOM     69  F   UNL A   1      47.922  28.090  34.855  1.00  0.00    -0.200 F 
ATOM     70  F   UNL A   1      47.628  25.679  36.096  1.00  0.00    -0.200 F 
ENDBRANCH  46  60
BRANCH  47  71
ATOM     71  C   UNL A   1      36.700  31.463  29.262  1.00  0.00     0.064 A 
ATOM     72  C   UNL A   1      35.599  30.681  28.890  1.00  0.00     0.173 A 
ATOM     73  C   UNL A   1      36.679  32.825  28.928  1.00  0.00     0.173 A 
ATOM     74  F   UNL A   1      35.585  29.369  29.165  1.00  0.00    -0.203 F 
ATOM     75  C   UNL A   1      34.524  31.238  28.199  1.00  0.00     0.198 A 
ATOM     76  C   UNL A   1      35.593  33.385  28.262  1.00  0.00     0.198 A 
ATOM     77  F   UNL A   1      37.711  33.614  29.262  1.00  0.00    -0.203 F 
ATOM     78  F   UNL A   1      33.498  30.461  27.822  1.00  0.00    -0.200 F 
ATOM     79  C   UNL A   1      34.518  32.590  27.893  1.00  0.00     0.200 A 
ATOM     80  F   UNL A   1      35.587  34.695  27.977  1.00  0.00    -0.200 F 
ATOM     81  F   UNL A   1      33.480  33.126  27.236  1.00  0.00    -0.200 F 
ENDBRANCH  47  71
BRANCH  59  82
ATOM     82  C   UNL A   1      39.091  32.076  35.782  1.00  0.00     0.064 A 
ATOM     83  C   UNL A   1      38.288  31.520  36.788  1.00  0.00     0.173 A 
ATOM     84  C   UNL A   1      39.495  33.412  35.926  1.00  0.00     0.173 A 
ATOM     85  F   UNL A   1      37.864  30.252  36.690  1.00  0.00    -0.203 F 
ATOM     86  C   UNL A   1      37.889  32.281  37.885  1.00  0.00     0.198 A 
ATOM     87  C   UNL A   1      39.117  34.160  37.037  1.00  0.00     0.198 A 
ATOM     88  F   UNL A   1      40.269  33.989  34.994  1.00  0.00    -0.203 F 
ATOM     89  F   UNL A   1      37.084  31.742  38.813  1.00  0.00    -0.200 F 
ATOM     90  C   UNL A   1      38.308  33.596  38.012  1.00  0.00     0.200 A 
ATOM     91  F   UNL A   1      39.535  35.427  37.164  1.00  0.00    -0.200 F 
ATOM     92  F   UNL A   1      37.928  34.324  39.071  1.00  0.00    -0.200 F 
ENDBRANCH  59  82
ENDBRANCH  33  34
ENDBRANCH  26  28
ENDBRANCH  25  26
ENDBRANCH  24  25
ENDBRANCH   1  24
TORSDOF 15
ENDMDL
MODEL 3
REMARK VINA RESULT:     -11.5      3.243      8.267
REMARK SMILES C[C@H](NC1=[NH+]S(=O)(=O)c2ccccc21)C(=O)OCCOCCOC(=O)c1ccc(-c2c3nc(c(-c4c(F)c(F)c(F)c(F)c4F)c4ccc([nH]4)c(-c4c(F)c(F)c(F)c(F)c4F)c4nc(c(-c5c(F)c(F)c(F)c(F)c5F)c5ccc2[nH]5)C=C4)C=C3)cc1
REMARK SMILES IDX 21 1 20 2 19 3 18 4 17 5 15 6 16 7 2 8 1 9 3 10 4 11 5 13
REMARK SMILES IDX 14 14 6 15 9 17 13 18 7 19 8 20 10 21 12 22 11 23 22 24
REMARK SMILES IDX 23 25 24 26 25 27 26 28 27 29 88 30 28 31 87 32 29 33 30 34
REMARK SMILES IDX 31 35 81 36 32 37 86 38 80 39 82 40 33 41 85 42 79 43 78 44
REMARK SMILES IDX 34 46 66 47 46 48 65 49 47 50 50 51 64 52 83 53 48 54 49 55
REMARK SMILES IDX 63 57 84 58 51 59 35 60 36 61 44 62 37 63 38 64 42 65 45 66
REMARK SMILES IDX 39 67 40 68 43 69 41 70 67 71 68 72 76 73 69 74 70 75 74 76
REMARK SMILES IDX 77 77 71 78 72 79 75 80 73 81 52 82 53 83 61 84 54 85 55 86
REMARK SMILES IDX 59 87 62 88 56 89 57 90 60 91 58 92
REMARK H PARENT 3 12 5 16 82 45 50 56
REMARK Flexibility Score: inf
ROOT
ATOM      1  C   UNL A   1      31.849  29.897  25.013  1.00  0.00     0.202 C 
ENDROOT
BRANCH   1   2
ATOM      2  O   UNL A   1      30.878  28.893  24.720  1.00  0.00    -0.374 OA
BRANCH   2   3
ATOM      3  C   UNL A   1      30.386  28.800  23.387  1.00  0.00     0.202 C 
BRANCH   3   4
ATOM      4  C   UNL A   1      31.045  27.752  22.488  1.00  0.00     0.261 C 
BRANCH   4   5
ATOM      5  O   UNL A   1      32.478  27.818  22.547  1.00  0.00    -0.460 OA
BRANCH   5   6
ATOM      6  C   UNL A   1      33.124  26.629  22.337  1.00  0.00     0.350 C 
ATOM      7  O   UNL A   1      33.473  26.207  21.242  1.00  0.00    -0.247 OA
BRANCH   6   8
ATOM      8  C   UNL A   1      33.336  25.856  23.644  1.00  0.00     0.279 C 
ATOM      9  C   UNL A   1      33.784  26.861  24.705  1.00  0.00     0.071 C 
BRANCH   8  10
ATOM     10  N   UNL A   1      34.311  24.760  23.495  1.00  0.00    -0.260 N 
ATOM     11  C   UNL A   1      34.005  23.448  23.749  1.00  0.00     0.292 C 
ATOM     12  H   UNL A   1      35.224  24.981  23.200  1.00  0.00     0.306 HD
ATOM     13  N   UNL A   1      32.786  23.002  23.848  1.00  0.00    -0.162 N 
ATOM     14  C   UNL A   1      35.067  22.459  24.041  1.00  0.00     0.087 A 
ATOM     15  S   UNL A   1      32.765  21.448  24.371  1.00  0.00     0.329 S 
ATOM     16  H   UNL A   1      31.981  23.529  23.637  1.00  0.00     0.327 HD
ATOM     17  C   UNL A   1      34.491  21.285  24.487  1.00  0.00     0.124 A 
ATOM     18  C   UNL A   1      36.444  22.592  23.999  1.00  0.00     0.018 A 
ATOM     19  O   UNL A   1      32.319  20.563  23.323  1.00  0.00    -0.179 OA
ATOM     20  O   UNL A   1      32.244  21.391  25.725  1.00  0.00    -0.179 OA
ATOM     21  C   UNL A   1      35.218  20.219  24.975  1.00  0.00     0.025 A 
ATOM     22  C   UNL A   1      37.216  21.518  24.463  1.00  0.00     0.001 A 
ATOM     23  C   UNL A   1      36.608  20.349  24.963  1.00  0.00     0.002 A 
ENDBRANCH   8  10
ENDBRANCH   6   8
ENDBRANCH   5   6
ENDBRANCH   4   5
ENDBRANCH   3   4
ENDBRANCH   2   3
ENDBRANCH   1   2
BRANCH   1  24
ATOM     24  C   UNL A   1      31.518  30.855  26.165  1.00  0.00     0.261 C 
BRANCH  24  25
ATOM     25  O   UNL A   1      32.476  30.766  27.240  1.00  0.00    -0.460 OA
BRANCH  25  26
ATOM     26  C   UNL A   1      33.275  31.854  27.366  1.00  0.00     0.338 C 
ATOM     27  O   UNL A   1      32.955  33.026  27.281  1.00  0.00    -0.246 OA
BRANCH  26  28
ATOM     28  C   UNL A   1      34.624  31.448  27.800  1.00  0.00     0.060 A 
ATOM     29  C   UNL A   1      34.827  30.094  28.098  1.00  0.00     0.016 A 
ATOM     30  C   UNL A   1      35.634  32.385  28.025  1.00  0.00     0.016 A 
ATOM     31  C   UNL A   1      36.023  29.679  28.679  1.00  0.00     0.010 A 
ATOM     32  C   UNL A   1      36.834  31.967  28.612  1.00  0.00     0.010 A 
ATOM     33  C   UNL A   1      37.016  30.621  28.980  1.00  0.00    -0.014 A 
BRANCH  33  34
ATOM     34  C   UNL A   1      38.162  30.220  29.833  1.00  0.00     0.031 A 
ATOM     35  C   UNL A   1      39.175  29.252  29.285  1.00  0.00     0.074 A 
ATOM     36  C   UNL A   1      38.324  30.740  31.062  1.00  0.00     0.049 A 
ATOM     37  N   UNL A   1      40.240  28.749  29.855  1.00  0.00    -0.248 NA
ATOM     38  C   UNL A   1      38.954  28.787  27.907  1.00  0.00     0.031 C 
ATOM     39  C   UNL A   1      37.439  31.720  31.685  1.00  0.00     0.029 A 
ATOM     40  N   UNL A   1      39.296  30.512  32.003  1.00  0.00    -0.354 N 
ATOM     41  C   UNL A   1      40.811  27.906  28.911  1.00  0.00     0.074 A 
ATOM     42  C   UNL A   1      39.958  27.938  27.743  1.00  0.00     0.031 C 
ATOM     43  C   UNL A   1      37.907  32.009  32.912  1.00  0.00     0.029 A 
ATOM     44  C   UNL A   1      39.105  31.210  33.169  1.00  0.00     0.049 A 
ATOM     45  H   UNL A   1      40.056  29.904  31.856  1.00  0.00     0.167 HD
ATOM     46  C   UNL A   1      41.949  27.177  29.005  1.00  0.00     0.037 A 
ATOM     47  C   UNL A   1      39.811  31.195  34.316  1.00  0.00     0.037 A 
ATOM     48  C   UNL A   1      42.802  27.151  30.164  1.00  0.00     0.049 A 
ATOM     49  C   UNL A   1      41.036  30.324  34.422  1.00  0.00     0.074 A 
ATOM     50  C   UNL A   1      43.988  26.461  30.350  1.00  0.00     0.029 A 
ATOM     51  N   UNL A   1      42.555  27.842  31.342  1.00  0.00    -0.354 N 
ATOM     52  N   UNL A   1      41.579  29.544  33.519  1.00  0.00    -0.248 NA
ATOM     53  C   UNL A   1      41.745  30.333  35.709  1.00  0.00     0.031 C 
ATOM     54  C   UNL A   1      44.432  26.695  31.655  1.00  0.00     0.029 A 
ATOM     55  C   UNL A   1      43.551  27.573  32.267  1.00  0.00     0.049 A 
ATOM     56  H   UNL A   1      41.784  28.435  31.496  1.00  0.00     0.167 HD
ATOM     57  C   UNL A   1      42.707  28.996  34.116  1.00  0.00     0.074 A 
ATOM     58  C   UNL A   1      42.775  29.538  35.456  1.00  0.00     0.031 C 
ATOM     59  C   UNL A   1      43.608  28.125  33.596  1.00  0.00     0.037 A 
BRANCH  46  60
ATOM     60  C   UNL A   1      42.320  26.325  27.827  1.00  0.00     0.064 A 
ATOM     61  C   UNL A   1      43.233  26.762  26.856  1.00  0.00     0.173 A 
ATOM     62  C   UNL A   1      41.762  25.046  27.674  1.00  0.00     0.173 A 
ATOM     63  F   UNL A   1      43.782  27.984  26.947  1.00  0.00    -0.203 F 
ATOM     64  C   UNL A   1      43.549  25.965  25.759  1.00  0.00     0.198 A 
ATOM     65  C   UNL A   1      42.103  24.241  26.592  1.00  0.00     0.198 A 
ATOM     66  F   UNL A   1      40.886  24.580  28.576  1.00  0.00    -0.203 F 
ATOM     67  F   UNL A   1      44.382  26.426  24.815  1.00  0.00    -0.200 F 
ATOM     68  C   UNL A   1      42.988  24.703  25.631  1.00  0.00     0.200 A 
ATOM     69  F   UNL A   1      41.568  23.018  26.474  1.00  0.00    -0.200 F 
ATOM     70  F   UNL A   1      43.294  23.937  24.573  1.00  0.00    -0.200 F 
ENDBRANCH  46  60
BRANCH  47  71
ATOM     71  C   UNL A   1      39.376  32.036  35.461  1.00  0.00     0.064 A 
ATOM     72  C   UNL A   1      39.798  33.366  35.581  1.00  0.00     0.173 A 
ATOM     73  C   UNL A   1      38.533  31.524  36.458  1.00  0.00     0.173 A 
ATOM     74  F   UNL A   1      40.625  33.892  34.665  1.00  0.00    -0.203 F 
ATOM     75  C   UNL A   1      39.401  34.151  36.662  1.00  0.00     0.198 A 
ATOM     76  C   UNL A   1      38.116  32.317  37.524  1.00  0.00     0.198 A 
ATOM     77  F   UNL A   1      38.103  30.255  36.388  1.00  0.00    -0.203 F 
ATOM     78  F   UNL A   1      39.847  35.410  36.773  1.00  0.00    -0.200 F 
ATOM     79  C   UNL A   1      38.554  33.629  37.628  1.00  0.00     0.200 A 
ATOM     80  F   UNL A   1      37.290  31.810  38.450  1.00  0.00    -0.200 F 
ATOM     81  F   UNL A   1      38.168  34.386  38.664  1.00  0.00    -0.200 F 
ENDBRANCH  47  71
BRANCH  59  82
ATOM     82  C   UNL A   1      44.768  27.730  34.466  1.00  0.00     0.064 A 
ATOM     83  C   UNL A   1      44.720  26.595  35.287  1.00  0.00     0.173 A 
ATOM     84  C   UNL A   1      45.957  28.476  34.443  1.00  0.00     0.173 A 
ATOM     85  F   UNL A   1      43.602  25.857  35.355  1.00  0.00    -0.203 F 
ATOM     86  C   UNL A   1      45.814  26.234  36.071  1.00  0.00     0.198 A 
ATOM     87  C   UNL A   1      47.057  28.096  35.207  1.00  0.00     0.198 A 
ATOM     88  F   UNL A   1      46.057  29.567  33.669  1.00  0.00    -0.203 F 
ATOM     89  F   UNL A   1      45.731  25.170  36.883  1.00  0.00    -0.200 F 
ATOM     90  C   UNL A   1      46.982  26.979  36.026  1.00  0.00     0.200 A 
ATOM     91  F   UNL A   1      48.189  28.810  35.151  1.00  0.00    -0.200 F 
ATOM     92  F   UNL A   1      48.034  26.626  36.776  1.00  0.00    -0.200 F 
ENDBRANCH  59  82
ENDBRANCH  33  34
ENDBRANCH  26  28
ENDBRANCH  25  26
ENDBRANCH  24  25
ENDBRANCH   1  24
TORSDOF 15
ENDMDL
