MODEL 1
REMARK VINA RESULT:      -9.7      0.000      0.000
REMARK SMILES CCc1cc([C@H]([NH3+])C(=O)OCCOCCOC(=O)c2ccc(-c3c4nc(c(-c5c(F)c(F)c(F)c(F)c5F)c5ccc([nH]5)c(-c5c(F)c(F)c(F)c(F)c5F)c5nc(c(-c6c(F)c(F)c(F)c(F)c6F)c6ccc3[nH]6)C=C5)C=C4)cc2)cc(CC)c1N
REMARK SMILES IDX 13 1 12 2 11 3 10 4 8 5 9 6 6 7 5 8 3 9 4 10 86 11 83 12
REMARK SMILES IDX 82 13 2 14 1 15 87 16 84 19 85 20 7 21 14 25 15 26 16 27
REMARK SMILES IDX 17 28 18 29 19 30 20 31 81 32 21 33 80 34 22 35 23 36 24 37
REMARK SMILES IDX 74 38 25 39 79 40 73 41 75 42 26 43 78 44 72 45 71 46 27 48
REMARK SMILES IDX 59 49 39 50 58 51 40 52 43 53 57 54 76 55 41 56 42 57 56 59
REMARK SMILES IDX 77 60 44 61 28 62 29 63 37 64 30 65 31 66 35 67 38 68 32 69
REMARK SMILES IDX 33 70 36 71 34 72 60 73 61 74 69 75 62 76 63 77 67 78 70 79
REMARK SMILES IDX 64 80 65 81 68 82 66 83 45 84 46 85 54 86 47 87 48 88 52 89
REMARK SMILES IDX 55 90 49 91 50 92 53 93 51 94
REMARK H PARENT 87 17 87 18 7 22 7 23 7 24 75 47 43 58
REMARK Flexibility Score: inf
ROOT
ATOM      1  O   UNL A   1      32.812  34.571  29.555  1.00  0.00    -0.374 OA
ENDROOT
BRANCH   1   2
ATOM      2  C   UNL A   1      32.994  35.925  29.965  1.00  0.00     0.202 C 
BRANCH   2   3
ATOM      3  C   UNL A   1      32.561  36.289  31.387  1.00  0.00     0.261 C 
BRANCH   3   4
ATOM      4  O   UNL A   1      32.830  35.224  32.312  1.00  0.00    -0.459 OA
BRANCH   4   5
ATOM      5  C   UNL A   1      34.101  35.199  32.821  1.00  0.00     0.369 C 
ATOM      6  O   UNL A   1      34.732  36.188  33.179  1.00  0.00    -0.245 OA
BRANCH   5   7
ATOM      7  C   UNL A   1      34.679  33.765  32.849  1.00  0.00     0.323 C 
BRANCH   7   8
ATOM      8  C   UNL A   1      36.187  33.850  32.747  1.00  0.00     0.021 A 
ATOM      9  C   UNL A   1      38.267  34.290  31.546  1.00  0.00    -0.024 A 
ATOM     10  C   UNL A   1      36.883  34.026  31.550  1.00  0.00     0.016 A 
ATOM     11  C   UNL A   1      38.980  34.381  32.766  1.00  0.00     0.038 A 
ATOM     12  C   UNL A   1      38.277  34.222  33.977  1.00  0.00    -0.024 A 
ATOM     13  C   UNL A   1      36.909  33.907  33.942  1.00  0.00     0.016 A 
BRANCH   9  14
ATOM     14  C   UNL A   1      38.933  34.473  30.196  1.00  0.00     0.034 C 
ATOM     15  C   UNL A   1      38.173  33.758  29.087  1.00  0.00     0.009 C 
ENDBRANCH   9  14
BRANCH  11  16
ATOM     16  N   UNL A   1      40.315  34.775  32.762  1.00  0.00    -0.398 N 
ATOM     17  H   UNL A   1      40.953  34.360  33.387  1.00  0.00     0.156 HD
ATOM     18  H   UNL A   1      40.622  35.470  32.135  1.00  0.00     0.156 HD
ENDBRANCH  11  16
BRANCH  12  19
ATOM     19  C   UNL A   1      38.878  34.435  35.351  1.00  0.00     0.034 C 
ATOM     20  C   UNL A   1      38.046  33.759  36.440  1.00  0.00     0.009 C 
ENDBRANCH  12  19
ENDBRANCH   7   8
BRANCH   7  21
ATOM     21  N   UNL A   1      34.034  32.887  31.844  1.00  0.00    -0.342 N 
ATOM     22  H   UNL A   1      34.740  32.299  31.402  1.00  0.00     0.345 HD
ATOM     23  H   UNL A   1      33.576  33.460  31.135  1.00  0.00     0.345 HD
ATOM     24  H   UNL A   1      33.340  32.296  32.304  1.00  0.00     0.345 HD
ENDBRANCH   7  21
ENDBRANCH   5   7
ENDBRANCH   4   5
ENDBRANCH   3   4
ENDBRANCH   2   3
ENDBRANCH   1   2
BRANCH   1  25
ATOM     25  C   UNL A   1      33.255  34.197  28.252  1.00  0.00     0.202 C 
BRANCH  25  26
ATOM     26  C   UNL A   1      34.645  33.560  28.137  1.00  0.00     0.261 C 
BRANCH  26  27
ATOM     27  O   UNL A   1      34.831  32.450  29.034  1.00  0.00    -0.460 OA
BRANCH  27  28
ATOM     28  C   UNL A   1      34.705  31.235  28.453  1.00  0.00     0.338 C 
ATOM     29  O   UNL A   1      33.760  30.818  27.795  1.00  0.00    -0.246 OA
BRANCH  28  30
ATOM     30  C   UNL A   1      35.957  30.470  28.576  1.00  0.00     0.060 A 
ATOM     31  C   UNL A   1      36.196  29.825  29.796  1.00  0.00     0.016 A 
ATOM     32  C   UNL A   1      36.925  30.467  27.569  1.00  0.00     0.016 A 
ATOM     33  C   UNL A   1      37.429  29.229  30.038  1.00  0.00     0.010 A 
ATOM     34  C   UNL A   1      38.167  29.872  27.816  1.00  0.00     0.010 A 
ATOM     35  C   UNL A   1      38.438  29.288  29.067  1.00  0.00    -0.014 A 
BRANCH  35  36
ATOM     36  C   UNL A   1      39.812  28.872  29.439  1.00  0.00     0.031 A 
ATOM     37  C   UNL A   1      40.596  29.716  30.405  1.00  0.00     0.074 A 
ATOM     38  C   UNL A   1      40.330  27.723  28.973  1.00  0.00     0.049 A 
ATOM     39  N   UNL A   1      41.787  29.513  30.911  1.00  0.00    -0.248 NA
ATOM     40  C   UNL A   1      39.949  30.955  30.866  1.00  0.00     0.031 C 
ATOM     41  C   UNL A   1      39.657  26.808  28.053  1.00  0.00     0.029 A 
ATOM     42  N   UNL A   1      41.542  27.128  29.217  1.00  0.00    -0.354 N 
ATOM     43  C   UNL A   1      42.028  30.591  31.752  1.00  0.00     0.074 A 
ATOM     44  C   UNL A   1      40.879  31.467  31.659  1.00  0.00     0.031 C 
ATOM     45  C   UNL A   1      40.469  25.764  27.808  1.00  0.00     0.029 A 
ATOM     46  C   UNL A   1      41.721  25.948  28.541  1.00  0.00     0.049 A 
ATOM     47  H   UNL A   1      42.219  27.512  29.822  1.00  0.00     0.167 HD
ATOM     48  C   UNL A   1      43.103  30.823  32.541  1.00  0.00     0.037 A 
ATOM     49  C   UNL A   1      42.780  25.115  28.512  1.00  0.00     0.037 A 
ATOM     50  C   UNL A   1      44.247  29.955  32.632  1.00  0.00     0.049 A 
ATOM     51  C   UNL A   1      43.986  25.420  29.360  1.00  0.00     0.074 A 
ATOM     52  C   UNL A   1      45.379  30.095  33.415  1.00  0.00     0.029 A 
ATOM     53  N   UNL A   1      44.405  28.783  31.907  1.00  0.00    -0.354 N 
ATOM     54  N   UNL A   1      44.190  26.423  30.179  1.00  0.00    -0.248 NA
ATOM     55  C   UNL A   1      45.105  24.470  29.287  1.00  0.00     0.031 C 
ATOM     56  C   UNL A   1      46.243  29.032  33.130  1.00  0.00     0.029 A 
ATOM     57  C   UNL A   1      45.627  28.202  32.207  1.00  0.00     0.049 A 
ATOM     58  H   UNL A   1      43.746  28.417  31.274  1.00  0.00     0.167 HD
ATOM     59  C   UNL A   1      45.445  26.213  30.736  1.00  0.00     0.074 A 
ATOM     60  C   UNL A   1      45.951  24.980  30.170  1.00  0.00     0.031 C 
ATOM     61  C   UNL A   1      46.116  26.972  31.638  1.00  0.00     0.037 A 
BRANCH  48  62
ATOM     62  C   UNL A   1      43.098  32.081  33.360  1.00  0.00     0.064 A 
ATOM     63  C   UNL A   1      42.467  32.140  34.611  1.00  0.00     0.173 A 
ATOM     64  C   UNL A   1      43.751  33.233  32.897  1.00  0.00     0.173 A 
ATOM     65  F   UNL A   1      41.817  31.070  35.092  1.00  0.00    -0.203 F 
ATOM     66  C   UNL A   1      42.467  33.316  35.358  1.00  0.00     0.198 A 
ATOM     67  C   UNL A   1      43.771  34.399  33.659  1.00  0.00     0.198 A 
ATOM     68  F   UNL A   1      44.372  33.227  31.709  1.00  0.00    -0.203 F 
ATOM     69  F   UNL A   1      41.819  33.364  36.530  1.00  0.00    -0.200 F 
ATOM     70  C   UNL A   1      43.124  34.442  34.884  1.00  0.00     0.200 A 
ATOM     71  F   UNL A   1      44.415  35.483  33.203  1.00  0.00    -0.200 F 
ATOM     72  F   UNL A   1      43.126  35.571  35.604  1.00  0.00    -0.200 F 
ENDBRANCH  48  62
BRANCH  49  73
ATOM     73  C   UNL A   1      42.738  23.906  27.652  1.00  0.00     0.064 A 
ATOM     74  C   UNL A   1      42.348  22.662  28.165  1.00  0.00     0.173 A 
ATOM     75  C   UNL A   1      43.086  23.972  26.294  1.00  0.00     0.173 A 
ATOM     76  F   UNL A   1      42.029  22.546  29.463  1.00  0.00    -0.203 F 
ATOM     77  C   UNL A   1      42.317  21.528  27.357  1.00  0.00     0.198 A 
ATOM     78  C   UNL A   1      43.031  22.843  25.481  1.00  0.00     0.198 A 
ATOM     79  F   UNL A   1      43.468  25.140  25.755  1.00  0.00    -0.203 F 
ATOM     80  F   UNL A   1      41.974  20.344  27.882  1.00  0.00    -0.200 F 
ATOM     81  C   UNL A   1      42.651  21.621  26.014  1.00  0.00     0.200 A 
ATOM     82  F   UNL A   1      43.345  22.940  24.182  1.00  0.00    -0.200 F 
ATOM     83  F   UNL A   1      42.614  20.531  25.235  1.00  0.00    -0.200 F 
ENDBRANCH  49  73
BRANCH  61  84
ATOM     84  C   UNL A   1      47.458  26.479  32.092  1.00  0.00     0.064 A 
ATOM     85  C   UNL A   1      47.595  25.648  33.213  1.00  0.00     0.173 A 
ATOM     86  C   UNL A   1      48.617  26.807  31.371  1.00  0.00     0.173 A 
ATOM     87  F   UNL A   1      46.519  25.318  33.944  1.00  0.00    -0.203 F 
ATOM     88  C   UNL A   1      48.845  25.180  33.609  1.00  0.00     0.198 A 
ATOM     89  C   UNL A   1      49.862  26.315  31.754  1.00  0.00     0.198 A 
ATOM     90  F   UNL A   1      48.538  27.592  30.287  1.00  0.00    -0.203 F 
ATOM     91  F   UNL A   1      48.958  24.422  34.708  1.00  0.00    -0.200 F 
ATOM     92  C   UNL A   1      49.976  25.508  32.875  1.00  0.00     0.200 A 
ATOM     93  F   UNL A   1      50.951  26.624  31.037  1.00  0.00    -0.200 F 
ATOM     94  F   UNL A   1      51.177  25.052  33.254  1.00  0.00    -0.200 F 
ENDBRANCH  61  84
ENDBRANCH  35  36
ENDBRANCH  28  30
ENDBRANCH  27  28
ENDBRANCH  26  27
ENDBRANCH  25  26
ENDBRANCH   1  25
TORSDOF 19
ENDMDL
MODEL 2
REMARK VINA RESULT:      -9.5      5.128     10.443
REMARK SMILES CCc1cc([C@H]([NH3+])C(=O)OCCOCCOC(=O)c2ccc(-c3c4nc(c(-c5c(F)c(F)c(F)c(F)c5F)c5ccc([nH]5)c(-c5c(F)c(F)c(F)c(F)c5F)c5nc(c(-c6c(F)c(F)c(F)c(F)c6F)c6ccc3[nH]6)C=C5)C=C4)cc2)cc(CC)c1N
REMARK SMILES IDX 13 1 12 2 11 3 10 4 8 5 9 6 6 7 5 8 3 9 4 10 86 11 83 12
REMARK SMILES IDX 82 13 2 14 1 15 87 16 84 19 85 20 7 21 14 25 15 26 16 27
REMARK SMILES IDX 17 28 18 29 19 30 20 31 81 32 21 33 80 34 22 35 23 36 24 37
REMARK SMILES IDX 74 38 25 39 79 40 73 41 75 42 26 43 78 44 72 45 71 46 27 48
REMARK SMILES IDX 59 49 39 50 58 51 40 52 43 53 57 54 76 55 41 56 42 57 56 59
REMARK SMILES IDX 77 60 44 61 28 62 29 63 37 64 30 65 31 66 35 67 38 68 32 69
REMARK SMILES IDX 33 70 36 71 34 72 60 73 61 74 69 75 62 76 63 77 67 78 70 79
REMARK SMILES IDX 64 80 65 81 68 82 66 83 45 84 46 85 54 86 47 87 48 88 52 89
REMARK SMILES IDX 55 90 49 91 50 92 53 93 51 94
REMARK H PARENT 87 17 87 18 7 22 7 23 7 24 75 47 43 58
REMARK Flexibility Score: inf
ROOT
ATOM      1  O   UNL A   1      35.923  22.919  25.225  1.00  0.00    -0.374 OA
ENDROOT
BRANCH   1   2
ATOM      2  C   UNL A   1      34.756  23.696  25.486  1.00  0.00     0.202 C 
BRANCH   2   3
ATOM      3  C   UNL A   1      33.503  22.944  25.944  1.00  0.00     0.261 C 
BRANCH   3   4
ATOM      4  O   UNL A   1      32.303  23.596  25.502  1.00  0.00    -0.459 OA
BRANCH   4   5
ATOM      5  C   UNL A   1      31.376  23.838  26.481  1.00  0.00     0.369 C 
ATOM      6  O   UNL A   1      31.455  23.435  27.637  1.00  0.00    -0.245 OA
BRANCH   5   7
ATOM      7  C   UNL A   1      30.173  24.650  25.943  1.00  0.00     0.323 C 
BRANCH   7   8
ATOM      8  C   UNL A   1      30.666  26.014  25.510  1.00  0.00     0.021 A 
ATOM      9  C   UNL A   1      30.605  28.004  24.097  1.00  0.00    -0.024 A 
ATOM     10  C   UNL A   1      30.259  26.660  24.343  1.00  0.00     0.016 A 
ATOM     11  C   UNL A   1      31.378  28.726  25.039  1.00  0.00     0.038 A 
ATOM     12  C   UNL A   1      31.775  28.082  26.228  1.00  0.00    -0.024 A 
ATOM     13  C   UNL A   1      31.458  26.727  26.415  1.00  0.00     0.016 A 
BRANCH   9  14
ATOM     14  C   UNL A   1      30.111  28.621  22.803  1.00  0.00     0.034 C 
ATOM     15  C   UNL A   1      28.615  28.905  22.844  1.00  0.00     0.009 C 
ENDBRANCH   9  14
BRANCH  11  16
ATOM     16  N   UNL A   1      31.601  30.088  24.857  1.00  0.00    -0.398 N 
ATOM     17  H   UNL A   1      30.924  30.742  25.147  1.00  0.00     0.156 HD
ATOM     18  H   UNL A   1      32.436  30.398  24.437  1.00  0.00     0.156 HD
ENDBRANCH  11  16
BRANCH  12  19
ATOM     19  C   UNL A   1      32.477  28.768  27.382  1.00  0.00     0.034 C 
ATOM     20  C   UNL A   1      33.972  28.931  27.115  1.00  0.00     0.009 C 
ENDBRANCH  12  19
ENDBRANCH   7   8
BRANCH   7  21
ATOM     21  N   UNL A   1      29.044  24.669  26.902  1.00  0.00    -0.342 N 
ATOM     22  H   UNL A   1      28.167  24.544  26.397  1.00  0.00     0.345 HD
ATOM     23  H   UNL A   1      29.030  25.562  27.394  1.00  0.00     0.345 HD
ATOM     24  H   UNL A   1      29.158  23.911  27.577  1.00  0.00     0.345 HD
ENDBRANCH   7  21
ENDBRANCH   5   7
ENDBRANCH   4   5
ENDBRANCH   3   4
ENDBRANCH   2   3
ENDBRANCH   1   2
BRANCH   1  25
ATOM     25  C   UNL A   1      35.836  21.503  25.377  1.00  0.00     0.202 C 
BRANCH  25  26
ATOM     26  C   UNL A   1      37.138  20.702  25.258  1.00  0.00     0.261 C 
BRANCH  26  27
ATOM     27  O   UNL A   1      38.303  21.535  25.135  1.00  0.00    -0.460 OA
BRANCH  27  28
ATOM     28  C   UNL A   1      39.292  21.248  26.012  1.00  0.00     0.338 C 
ATOM     29  O   UNL A   1      39.880  20.181  26.148  1.00  0.00    -0.246 OA
BRANCH  28  30
ATOM     30  C   UNL A   1      39.715  22.460  26.731  1.00  0.00     0.060 A 
ATOM     31  C   UNL A   1      39.069  23.658  26.402  1.00  0.00     0.016 A 
ATOM     32  C   UNL A   1      40.787  22.454  27.627  1.00  0.00     0.016 A 
ATOM     33  C   UNL A   1      39.532  24.864  26.918  1.00  0.00     0.010 A 
ATOM     34  C   UNL A   1      41.256  23.668  28.141  1.00  0.00     0.010 A 
ATOM     35  C   UNL A   1      40.657  24.881  27.754  1.00  0.00    -0.014 A 
BRANCH  35  36
ATOM     36  C   UNL A   1      41.280  26.185  28.086  1.00  0.00     0.031 A 
ATOM     37  C   UNL A   1      42.681  26.466  27.619  1.00  0.00     0.074 A 
ATOM     38  C   UNL A   1      40.583  27.132  28.737  1.00  0.00     0.049 A 
ATOM     39  N   UNL A   1      43.398  27.555  27.746  1.00  0.00    -0.248 NA
ATOM     40  C   UNL A   1      43.367  25.374  26.910  1.00  0.00     0.031 C 
ATOM     41  C   UNL A   1      39.211  26.988  29.216  1.00  0.00     0.029 A 
ATOM     42  N   UNL A   1      40.938  28.406  29.102  1.00  0.00    -0.354 N 
ATOM     43  C   UNL A   1      44.612  27.281  27.130  1.00  0.00     0.074 A 
ATOM     44  C   UNL A   1      44.552  25.912  26.664  1.00  0.00     0.031 C 
ATOM     45  C   UNL A   1      38.837  28.132  29.816  1.00  0.00     0.029 A 
ATOM     46  C   UNL A   1      39.951  29.080  29.775  1.00  0.00     0.049 A 
ATOM     47  H   UNL A   1      41.817  28.800  28.898  1.00  0.00     0.167 HD
ATOM     48  C   UNL A   1      45.674  28.101  26.955  1.00  0.00     0.037 A 
ATOM     49  C   UNL A   1      39.949  30.319  30.304  1.00  0.00     0.037 A 
ATOM     50  C   UNL A   1      45.736  29.462  27.420  1.00  0.00     0.049 A 
ATOM     51  C   UNL A   1      41.162  31.196  30.141  1.00  0.00     0.074 A 
ATOM     52  C   UNL A   1      46.763  30.379  27.278  1.00  0.00     0.029 A 
ATOM     53  N   UNL A   1      44.726  30.099  28.126  1.00  0.00    -0.354 N 
ATOM     54  N   UNL A   1      42.291  30.941  29.526  1.00  0.00    -0.248 NA
ATOM     55  C   UNL A   1      41.094  32.537  30.737  1.00  0.00     0.031 C 
ATOM     56  C   UNL A   1      46.393  31.556  27.937  1.00  0.00     0.029 A 
ATOM     57  C   UNL A   1      45.115  31.390  28.447  1.00  0.00     0.049 A 
ATOM     58  H   UNL A   1      43.861  29.694  28.363  1.00  0.00     0.167 HD
ATOM     59  C   UNL A   1      43.057  32.094  29.639  1.00  0.00     0.074 A 
ATOM     60  C   UNL A   1      42.259  33.055  30.371  1.00  0.00     0.031 C 
ATOM     61  C   UNL A   1      44.308  32.336  29.174  1.00  0.00     0.037 A 
BRANCH  48  62
ATOM     62  C   UNL A   1      46.869  27.539  26.241  1.00  0.00     0.064 A 
ATOM     63  C   UNL A   1      47.011  27.646  24.850  1.00  0.00     0.173 A 
ATOM     64  C   UNL A   1      47.893  26.906  26.960  1.00  0.00     0.173 A 
ATOM     65  F   UNL A   1      46.052  28.231  24.116  1.00  0.00    -0.203 F 
ATOM     66  C   UNL A   1      48.123  27.115  24.200  1.00  0.00     0.198 A 
ATOM     67  C   UNL A   1      49.017  26.400  26.310  1.00  0.00     0.198 A 
ATOM     68  F   UNL A   1      47.808  26.780  28.292  1.00  0.00    -0.203 F 
ATOM     69  F   UNL A   1      48.215  27.188  22.865  1.00  0.00    -0.200 F 
ATOM     70  C   UNL A   1      49.127  26.498  24.931  1.00  0.00     0.200 A 
ATOM     71  F   UNL A   1      49.991  25.812  27.019  1.00  0.00    -0.200 F 
ATOM     72  F   UNL A   1      50.198  25.991  24.306  1.00  0.00    -0.200 F 
ENDBRANCH  48  62
BRANCH  49  73
ATOM     73  C   UNL A   1      38.749  30.804  31.032  1.00  0.00     0.064 A 
ATOM     74  C   UNL A   1      38.657  30.704  32.427  1.00  0.00     0.173 A 
ATOM     75  C   UNL A   1      37.671  31.381  30.346  1.00  0.00     0.173 A 
ATOM     76  F   UNL A   1      39.653  30.138  33.123  1.00  0.00    -0.203 F 
ATOM     77  C   UNL A   1      37.527  31.154  33.107  1.00  0.00     0.198 A 
ATOM     78  C   UNL A   1      36.552  31.852  31.028  1.00  0.00     0.198 A 
ATOM     79  F   UNL A   1      37.710  31.497  29.010  1.00  0.00    -0.203 F 
ATOM     80  F   UNL A   1      37.449  31.015  34.437  1.00  0.00    -0.200 F 
ATOM     81  C   UNL A   1      36.479  31.734  32.407  1.00  0.00     0.200 A 
ATOM     82  F   UNL A   1      35.547  32.422  30.349  1.00  0.00    -0.200 F 
ATOM     83  F   UNL A   1      35.395  32.172  33.062  1.00  0.00    -0.200 F 
ENDBRANCH  49  73
BRANCH  61  84
ATOM     84  C   UNL A   1      44.883  33.700  29.417  1.00  0.00     0.064 A 
ATOM     85  C   UNL A   1      44.681  34.755  28.515  1.00  0.00     0.173 A 
ATOM     86  C   UNL A   1      45.607  33.968  30.589  1.00  0.00     0.173 A 
ATOM     87  F   UNL A   1      44.007  34.546  27.372  1.00  0.00    -0.203 F 
ATOM     88  C   UNL A   1      45.202  36.021  28.766  1.00  0.00     0.198 A 
ATOM     89  C   UNL A   1      46.103  35.242  30.850  1.00  0.00     0.198 A 
ATOM     90  F   UNL A   1      45.821  32.995  31.487  1.00  0.00    -0.203 F 
ATOM     91  F   UNL A   1      45.033  37.003  27.870  1.00  0.00    -0.200 F 
ATOM     92  C   UNL A   1      45.906  36.265  29.936  1.00  0.00     0.200 A 
ATOM     93  F   UNL A   1      46.773  35.479  31.986  1.00  0.00    -0.200 F 
ATOM     94  F   UNL A   1      46.401  37.487  30.179  1.00  0.00    -0.200 F 
ENDBRANCH  61  84
ENDBRANCH  35  36
ENDBRANCH  28  30
ENDBRANCH  27  28
ENDBRANCH  26  27
ENDBRANCH  25  26
ENDBRANCH   1  25
TORSDOF 19
ENDMDL
MODEL 3
REMARK VINA RESULT:      -9.4      0.540      7.492
REMARK SMILES CCc1cc([C@H]([NH3+])C(=O)OCCOCCOC(=O)c2ccc(-c3c4nc(c(-c5c(F)c(F)c(F)c(F)c5F)c5ccc([nH]5)c(-c5c(F)c(F)c(F)c(F)c5F)c5nc(c(-c6c(F)c(F)c(F)c(F)c6F)c6ccc3[nH]6)C=C5)C=C4)cc2)cc(CC)c1N
REMARK SMILES IDX 13 1 12 2 11 3 10 4 8 5 9 6 6 7 5 8 3 9 4 10 86 11 83 12
REMARK SMILES IDX 82 13 2 14 1 15 87 16 84 19 85 20 7 21 14 25 15 26 16 27
REMARK SMILES IDX 17 28 18 29 19 30 20 31 81 32 21 33 80 34 22 35 23 36 24 37
REMARK SMILES IDX 74 38 25 39 79 40 73 41 75 42 26 43 78 44 72 45 71 46 27 48
REMARK SMILES IDX 59 49 39 50 58 51 40 52 43 53 57 54 76 55 41 56 42 57 56 59
REMARK SMILES IDX 77 60 44 61 28 62 29 63 37 64 30 65 31 66 35 67 38 68 32 69
REMARK SMILES IDX 33 70 36 71 34 72 60 73 61 74 69 75 62 76 63 77 67 78 70 79
REMARK SMILES IDX 64 80 65 81 68 82 66 83 45 84 46 85 54 86 47 87 48 88 52 89
REMARK SMILES IDX 55 90 49 91 50 92 53 93 51 94
REMARK H PARENT 87 17 87 18 7 22 7 23 7 24 75 47 43 58
REMARK Flexibility Score: inf
ROOT
ATOM      1  O   UNL A   1      32.850  34.570  29.487  1.00  0.00    -0.374 OA
ENDROOT
BRANCH   1   2
ATOM      2  C   UNL A   1      32.935  35.985  29.640  1.00  0.00     0.202 C 
BRANCH   2   3
ATOM      3  C   UNL A   1      32.953  36.535  31.069  1.00  0.00     0.261 C 
BRANCH   3   4
ATOM      4  O   UNL A   1      32.999  35.480  32.042  1.00  0.00    -0.459 OA
BRANCH   4   5
ATOM      5  C   UNL A   1      34.157  35.406  32.769  1.00  0.00     0.369 C 
ATOM      6  O   UNL A   1      34.745  36.369  33.250  1.00  0.00    -0.245 OA
BRANCH   5   7
ATOM      7  C   UNL A   1      34.675  33.952  32.876  1.00  0.00     0.323 C 
BRANCH   7   8
ATOM      8  C   UNL A   1      36.188  33.973  32.821  1.00  0.00     0.021 A 
ATOM      9  C   UNL A   1      38.321  34.367  31.700  1.00  0.00    -0.024 A 
ATOM     10  C   UNL A   1      36.927  34.165  31.654  1.00  0.00     0.016 A 
ATOM     11  C   UNL A   1      38.999  34.378  32.944  1.00  0.00     0.038 A 
ATOM     12  C   UNL A   1      38.253  34.203  34.126  1.00  0.00    -0.024 A 
ATOM     13  C   UNL A   1      36.874  33.952  34.039  1.00  0.00     0.016 A 
BRANCH   9  14
ATOM     14  C   UNL A   1      39.036  34.572  30.379  1.00  0.00     0.034 C 
ATOM     15  C   UNL A   1      38.305  33.896  29.227  1.00  0.00     0.009 C 
ENDBRANCH   9  14
BRANCH  11  16
ATOM     16  N   UNL A   1      40.349  34.712  32.995  1.00  0.00    -0.398 N 
ATOM     17  H   UNL A   1      40.637  35.635  32.807  1.00  0.00     0.156 HD
ATOM     18  H   UNL A   1      41.019  34.025  33.220  1.00  0.00     0.156 HD
ENDBRANCH  11  16
BRANCH  12  19
ATOM     19  C   UNL A   1      38.819  34.335  35.525  1.00  0.00     0.034 C 
ATOM     20  C   UNL A   1      39.242  32.981  36.091  1.00  0.00     0.009 C 
ENDBRANCH  12  19
ENDBRANCH   7   8
BRANCH   7  21
ATOM     21  N   UNL A   1      34.027  33.059  31.887  1.00  0.00    -0.342 N 
ATOM     22  H   UNL A   1      34.734  32.675  31.261  1.00  0.00     0.345 HD
ATOM     23  H   UNL A   1      33.344  33.589  31.345  1.00  0.00     0.345 HD
ATOM     24  H   UNL A   1      33.556  32.296  32.375  1.00  0.00     0.345 HD
ENDBRANCH   7  21
ENDBRANCH   5   7
ENDBRANCH   4   5
ENDBRANCH   3   4
ENDBRANCH   2   3
ENDBRANCH   1   2
BRANCH   1  25
ATOM     25  C   UNL A   1      33.324  33.995  28.271  1.00  0.00     0.202 C 
BRANCH  25  26
ATOM     26  C   UNL A   1      34.677  33.276  28.313  1.00  0.00     0.261 C 
BRANCH  26  27
ATOM     27  O   UNL A   1      34.639  32.048  29.061  1.00  0.00    -0.460 OA
BRANCH  27  28
ATOM     28  C   UNL A   1      34.725  30.930  28.305  1.00  0.00     0.338 C 
ATOM     29  O   UNL A   1      33.941  30.552  27.442  1.00  0.00    -0.246 OA
BRANCH  28  30
ATOM     30  C   UNL A   1      36.008  30.246  28.536  1.00  0.00     0.060 A 
ATOM     31  C   UNL A   1      36.220  29.694  29.805  1.00  0.00     0.016 A 
ATOM     32  C   UNL A   1      37.023  30.233  27.577  1.00  0.00     0.016 A 
ATOM     33  C   UNL A   1      37.469  29.184  30.142  1.00  0.00     0.010 A 
ATOM     34  C   UNL A   1      38.282  29.726  27.919  1.00  0.00     0.010 A 
ATOM     35  C   UNL A   1      38.520  29.238  29.217  1.00  0.00    -0.014 A 
BRANCH  35  36
ATOM     36  C   UNL A   1      39.895  28.925  29.679  1.00  0.00     0.031 A 
ATOM     37  C   UNL A   1      40.572  27.683  29.169  1.00  0.00     0.074 A 
ATOM     38  C   UNL A   1      40.555  29.770  30.488  1.00  0.00     0.049 A 
ATOM     39  N   UNL A   1      41.786  27.246  29.395  1.00  0.00    -0.248 NA
ATOM     40  C   UNL A   1      39.776  26.819  28.284  1.00  0.00     0.031 C 
ATOM     41  C   UNL A   1      40.015  31.016  31.026  1.00  0.00     0.029 A 
ATOM     42  N   UNL A   1      41.829  29.706  30.995  1.00  0.00    -0.354 N 
ATOM     43  C   UNL A   1      41.900  26.064  28.676  1.00  0.00     0.074 A 
ATOM     44  C   UNL A   1      40.621  25.829  28.039  1.00  0.00     0.031 C 
ATOM     45  C   UNL A   1      40.952  31.602  31.792  1.00  0.00     0.029 A 
ATOM     46  C   UNL A   1      42.150  30.763  31.808  1.00  0.00     0.049 A 
ATOM     47  H   UNL A   1      42.453  28.972  30.792  1.00  0.00     0.167 HD
ATOM     48  C   UNL A   1      42.977  25.254  28.546  1.00  0.00     0.037 A 
ATOM     49  C   UNL A   1      43.281  31.019  32.494  1.00  0.00     0.037 A 
ATOM     50  C   UNL A   1      44.248  25.485  29.180  1.00  0.00     0.049 A 
ATOM     51  C   UNL A   1      44.450  30.077  32.375  1.00  0.00     0.074 A 
ATOM     52  C   UNL A   1      45.405  24.730  29.098  1.00  0.00     0.029 A 
ATOM     53  N   UNL A   1      44.525  26.551  30.023  1.00  0.00    -0.354 N 
ATOM     54  N   UNL A   1      44.560  28.980  31.666  1.00  0.00    -0.248 NA
ATOM     55  C   UNL A   1      45.655  30.416  33.144  1.00  0.00     0.031 C 
ATOM     56  C   UNL A   1      46.369  25.316  29.927  1.00  0.00     0.029 A 
ATOM     57  C   UNL A   1      45.829  26.463  30.486  1.00  0.00     0.049 A 
ATOM     58  H   UNL A   1      43.890  27.266  30.257  1.00  0.00     0.167 HD
ATOM     59  C   UNL A   1      45.849  28.513  31.882  1.00  0.00     0.074 A 
ATOM     60  C   UNL A   1      46.489  29.452  32.780  1.00  0.00     0.031 C 
ATOM     61  C   UNL A   1      46.451  27.407  31.378  1.00  0.00     0.037 A 
BRANCH  48  62
ATOM     62  C   UNL A   1      42.819  24.028  27.695  1.00  0.00     0.064 A 
ATOM     63  C   UNL A   1      43.108  24.046  26.322  1.00  0.00     0.173 A 
ATOM     64  C   UNL A   1      42.397  22.818  28.262  1.00  0.00     0.173 A 
ATOM     65  F   UNL A   1      43.503  25.182  25.728  1.00  0.00    -0.203 F 
ATOM     66  C   UNL A   1      42.953  22.902  25.543  1.00  0.00     0.198 A 
ATOM     67  C   UNL A   1      42.268  21.669  27.486  1.00  0.00     0.198 A 
ATOM     68  F   UNL A   1      42.112  22.747  29.571  1.00  0.00    -0.203 F 
ATOM     69  F   UNL A   1      43.190  22.952  24.225  1.00  0.00    -0.200 F 
ATOM     70  C   UNL A   1      42.539  21.713  26.126  1.00  0.00     0.200 A 
ATOM     71  F   UNL A   1      41.878  20.518  28.053  1.00  0.00    -0.200 F 
ATOM     72  F   UNL A   1      42.393  20.612  25.377  1.00  0.00    -0.200 F 
ENDBRANCH  48  62
BRANCH  49  73
ATOM     73  C   UNL A   1      43.361  32.230  33.351  1.00  0.00     0.064 A 
ATOM     74  C   UNL A   1      42.916  32.210  34.679  1.00  0.00     0.173 A 
ATOM     75  C   UNL A   1      43.889  33.431  32.856  1.00  0.00     0.173 A 
ATOM     76  F   UNL A   1      42.382  31.090  35.188  1.00  0.00    -0.203 F 
ATOM     77  C   UNL A   1      42.986  33.349  35.478  1.00  0.00     0.198 A 
ATOM     78  C   UNL A   1      43.982  34.563  33.662  1.00  0.00     0.198 A 
ATOM     79  F   UNL A   1      44.327  33.501  31.590  1.00  0.00    -0.203 F 
ATOM     80  F   UNL A   1      42.521  33.314  36.734  1.00  0.00    -0.200 F 
ATOM     81  C   UNL A   1      43.526  34.522  34.971  1.00  0.00     0.200 A 
ATOM     82  F   UNL A   1      44.514  35.691  33.171  1.00  0.00    -0.200 F 
ATOM     83  F   UNL A   1      43.600  35.616  35.742  1.00  0.00    -0.200 F 
ENDBRANCH  49  73
BRANCH  61  84
ATOM     84  C   UNL A   1      47.881  27.163  31.763  1.00  0.00     0.064 A 
ATOM     85  C   UNL A   1      48.943  27.712  31.030  1.00  0.00     0.173 A 
ATOM     86  C   UNL A   1      48.191  26.407  32.904  1.00  0.00     0.173 A 
ATOM     87  F   UNL A   1      48.699  28.430  29.923  1.00  0.00    -0.203 F 
ATOM     88  C   UNL A   1      50.264  27.496  31.413  1.00  0.00     0.198 A 
ATOM     89  C   UNL A   1      49.512  26.215  33.299  1.00  0.00     0.198 A 
ATOM     90  F   UNL A   1      47.211  25.867  33.643  1.00  0.00    -0.203 F 
ATOM     91  F   UNL A   1      51.264  27.994  30.675  1.00  0.00    -0.200 F 
ATOM     92  C   UNL A   1      50.547  26.754  32.551  1.00  0.00     0.200 A 
ATOM     93  F   UNL A   1      49.782  25.508  34.405  1.00  0.00    -0.200 F 
ATOM     94  F   UNL A   1      51.819  26.552  32.921  1.00  0.00    -0.200 F 
ENDBRANCH  61  84
ENDBRANCH  35  36
ENDBRANCH  28  30
ENDBRANCH  27  28
ENDBRANCH  26  27
ENDBRANCH  25  26
ENDBRANCH   1  25
TORSDOF 19
ENDMDL
