MODEL 1
REMARK VINA RESULT:     -11.1      0.000      0.000
REMARK SMILES O=C(OCCOCCOC(=O)[C@@H]1C[C@@H]2CC(=O)[C@H]1C2)c1ccc(-c2c3nc(c(-c4c(F)c(F)c(F)c(F)c4F)c4ccc([nH]4)c(-c4c(F)c(F)c(F)c(F)c4F)c4nc(c(-c5c(F)c(F)c(F)c(F)c5F)c5ccc2[nH]5)C=C4)C=C3)cc1
REMARK SMILES IDX 5 1 4 2 3 3 2 4 1 5 20 6 21 7 82 8 22 9 81 10 23 11 24 12
REMARK SMILES IDX 25 13 75 14 26 15 80 16 74 17 76 18 27 19 79 20 73 21 72 22
REMARK SMILES IDX 28 24 60 25 40 26 59 27 41 28 44 29 58 30 77 31 42 32 43 33
REMARK SMILES IDX 57 35 78 36 45 37 29 38 30 39 38 40 31 41 32 42 36 43 39 44
REMARK SMILES IDX 33 45 34 46 37 47 35 48 61 49 62 50 70 51 63 52 64 53 68 54
REMARK SMILES IDX 71 55 65 56 66 57 69 58 67 59 46 60 47 61 55 62 48 63 49 64
REMARK SMILES IDX 53 65 56 66 50 67 51 68 54 69 52 70 6 71 7 72 8 73 9 74
REMARK SMILES IDX 10 75 11 76 12 77 13 78 18 79 14 80 16 81 19 82 15 83 17 84
REMARK H PARENT 76 23 44 34
REMARK Flexibility Score: inf
ROOT
ATOM      1  C   UNL A   1      31.577  28.345  25.252  1.00  0.00     0.202 C 
ENDROOT
BRANCH   1   2
ATOM      2  C   UNL A   1      31.681  29.795  25.745  1.00  0.00     0.261 C 
BRANCH   2   3
ATOM      3  O   UNL A   1      33.050  30.169  26.029  1.00  0.00    -0.460 OA
BRANCH   3   4
ATOM      4  C   UNL A   1      33.476  31.051  26.972  1.00  0.00     0.338 C 
ATOM      5  O   UNL A   1      32.788  32.003  27.310  1.00  0.00    -0.246 OA
BRANCH   4   6
ATOM      6  C   UNL A   1      34.778  30.823  27.634  1.00  0.00     0.060 A 
ATOM      7  C   UNL A   1      35.158  29.548  28.017  1.00  0.00     0.016 A 
ATOM      8  C   UNL A   1      35.654  31.879  27.873  1.00  0.00     0.016 A 
ATOM      9  C   UNL A   1      36.215  29.324  28.850  1.00  0.00     0.010 A 
ATOM     10  C   UNL A   1      36.854  31.631  28.548  1.00  0.00     0.010 A 
ATOM     11  C   UNL A   1      37.116  30.349  29.060  1.00  0.00    -0.014 A 
BRANCH  11  12
ATOM     12  C   UNL A   1      38.292  30.007  29.866  1.00  0.00     0.031 A 
ATOM     13  C   UNL A   1      39.370  29.200  29.230  1.00  0.00     0.074 A 
ATOM     14  C   UNL A   1      38.431  30.574  31.082  1.00  0.00     0.049 A 
ATOM     15  N   UNL A   1      40.430  28.673  29.773  1.00  0.00    -0.248 NA
ATOM     16  C   UNL A   1      39.242  28.954  27.782  1.00  0.00     0.031 C 
ATOM     17  C   UNL A   1      37.485  31.520  31.693  1.00  0.00     0.029 A 
ATOM     18  N   UNL A   1      39.437  30.485  32.002  1.00  0.00    -0.354 N 
ATOM     19  C   UNL A   1      41.055  27.973  28.753  1.00  0.00     0.074 A 
ATOM     20  C   UNL A   1      40.271  28.155  27.553  1.00  0.00     0.031 C 
ATOM     21  C   UNL A   1      37.983  31.962  32.854  1.00  0.00     0.029 A 
ATOM     22  C   UNL A   1      39.203  31.227  33.135  1.00  0.00     0.049 A 
ATOM     23  H   UNL A   1      40.248  29.945  31.867  1.00  0.00     0.167 HD
ATOM     24  C   UNL A   1      42.178  27.228  28.846  1.00  0.00     0.037 A 
ATOM     25  C   UNL A   1      39.872  31.242  34.301  1.00  0.00     0.037 A 
ATOM     26  C   UNL A   1      42.922  27.107  30.070  1.00  0.00     0.049 A 
ATOM     27  C   UNL A   1      41.058  30.326  34.408  1.00  0.00     0.074 A 
ATOM     28  C   UNL A   1      44.033  26.334  30.340  1.00  0.00     0.029 A 
ATOM     29  N   UNL A   1      42.617  27.801  31.238  1.00  0.00    -0.354 N 
ATOM     30  N   UNL A   1      41.590  29.557  33.486  1.00  0.00    -0.248 NA
ATOM     31  C   UNL A   1      41.716  30.251  35.713  1.00  0.00     0.031 C 
ATOM     32  C   UNL A   1      44.369  26.522  31.686  1.00  0.00     0.029 A 
ATOM     33  C   UNL A   1      43.509  27.462  32.238  1.00  0.00     0.049 A 
ATOM     34  H   UNL A   1      41.874  28.440  31.337  1.00  0.00     0.167 HD
ATOM     35  C   UNL A   1      42.657  28.917  34.091  1.00  0.00     0.074 A 
ATOM     36  C   UNL A   1      42.707  29.409  35.456  1.00  0.00     0.031 C 
ATOM     37  C   UNL A   1      43.516  28.001  33.577  1.00  0.00     0.037 A 
BRANCH  24  38
ATOM     38  C   UNL A   1      42.575  26.436  27.637  1.00  0.00     0.064 A 
ATOM     39  C   UNL A   1      42.060  25.159  27.371  1.00  0.00     0.173 A 
ATOM     40  C   UNL A   1      43.540  26.948  26.755  1.00  0.00     0.173 A 
ATOM     41  F   UNL A   1      41.164  24.605  28.202  1.00  0.00    -0.203 F 
ATOM     42  C   UNL A   1      42.519  24.411  26.288  1.00  0.00     0.198 A 
ATOM     43  C   UNL A   1      43.974  26.211  25.657  1.00  0.00     0.198 A 
ATOM     44  F   UNL A   1      44.078  28.158  26.971  1.00  0.00    -0.203 F 
ATOM     45  F   UNL A   1      42.065  23.166  26.094  1.00  0.00    -0.200 F 
ATOM     46  C   UNL A   1      43.472  24.940  25.430  1.00  0.00     0.200 A 
ATOM     47  F   UNL A   1      44.895  26.726  24.830  1.00  0.00    -0.200 F 
ATOM     48  F   UNL A   1      43.920  24.216  24.395  1.00  0.00    -0.200 F 
ENDBRANCH  24  38
BRANCH  25  49
ATOM     49  C   UNL A   1      39.385  32.057  35.447  1.00  0.00     0.064 A 
ATOM     50  C   UNL A   1      39.795  33.385  35.620  1.00  0.00     0.173 A 
ATOM     51  C   UNL A   1      38.500  31.524  36.400  1.00  0.00     0.173 A 
ATOM     52  F   UNL A   1      40.650  33.941  34.750  1.00  0.00    -0.203 F 
ATOM     53  C   UNL A   1      39.358  34.139  36.710  1.00  0.00     0.198 A 
ATOM     54  C   UNL A   1      38.035  32.290  37.468  1.00  0.00     0.198 A 
ATOM     55  F   UNL A   1      38.070  30.259  36.289  1.00  0.00    -0.203 F 
ATOM     56  F   UNL A   1      39.808  35.389  36.879  1.00  0.00    -0.200 F 
ATOM     57  C   UNL A   1      38.474  33.594  37.629  1.00  0.00     0.200 A 
ATOM     58  F   UNL A   1      37.165  31.762  38.340  1.00  0.00    -0.200 F 
ATOM     59  F   UNL A   1      38.054  34.320  38.674  1.00  0.00    -0.200 F 
ENDBRANCH  25  49
BRANCH  37  60
ATOM     60  C   UNL A   1      44.604  27.528  34.489  1.00  0.00     0.064 A 
ATOM     61  C   UNL A   1      44.457  26.379  35.278  1.00  0.00     0.173 A 
ATOM     62  C   UNL A   1      45.827  28.213  34.530  1.00  0.00     0.173 A 
ATOM     63  F   UNL A   1      43.296  25.706  35.282  1.00  0.00    -0.203 F 
ATOM     64  C   UNL A   1      45.492  25.944  36.097  1.00  0.00     0.198 A 
ATOM     65  C   UNL A   1      46.872  27.754  35.322  1.00  0.00     0.198 A 
ATOM     66  F   UNL A   1      46.012  29.314  33.787  1.00  0.00    -0.203 F 
ATOM     67  F   UNL A   1      45.317  24.874  36.882  1.00  0.00    -0.200 F 
ATOM     68  C   UNL A   1      46.702  26.625  36.110  1.00  0.00     0.200 A 
ATOM     69  F   UNL A   1      48.044  28.402  35.321  1.00  0.00    -0.200 F 
ATOM     70  F   UNL A   1      47.703  26.196  36.890  1.00  0.00    -0.200 F 
ENDBRANCH  37  60
ENDBRANCH  11  12
ENDBRANCH   4   6
ENDBRANCH   3   4
ENDBRANCH   2   3
ENDBRANCH   1   2
BRANCH   1  71
ATOM     71  O   UNL A   1      30.683  28.057  24.180  1.00  0.00    -0.374 OA
BRANCH  71  72
ATOM     72  C   UNL A   1      30.585  26.670  23.840  1.00  0.00     0.202 C 
BRANCH  72  73
ATOM     73  C   UNL A   1      30.526  25.816  25.101  1.00  0.00     0.261 C 
BRANCH  73  74
ATOM     74  O   UNL A   1      31.559  24.807  25.054  1.00  0.00    -0.463 OA
BRANCH  74  75
ATOM     75  C   UNL A   1      32.031  24.437  26.271  1.00  0.00     0.309 C 
ATOM     76  O   UNL A   1      31.343  24.244  27.268  1.00  0.00    -0.252 OA
BRANCH  75  77
ATOM     77  C   UNL A   1      33.527  24.245  26.297  1.00  0.00     0.110 C 
ATOM     78  C   UNL A   1      34.388  25.135  25.394  1.00  0.00     0.020 C 
ATOM     79  C   UNL A   1      34.113  22.843  26.068  1.00  0.00     0.070 C 
ATOM     80  C   UNL A   1      35.576  24.203  25.040  1.00  0.00    -0.002 C 
ATOM     81  C   UNL A   1      34.174  22.451  24.589  1.00  0.00     0.137 C 
ATOM     82  C   UNL A   1      35.600  23.190  26.200  1.00  0.00     0.016 C 
ATOM     83  C   UNL A   1      35.165  23.313  23.860  1.00  0.00     0.079 C 
ATOM     84  O   UNL A   1      33.592  21.508  24.069  1.00  0.00    -0.299 OA
ENDBRANCH  75  77
ENDBRANCH  74  75
ENDBRANCH  73  74
ENDBRANCH  72  73
ENDBRANCH  71  72
ENDBRANCH   1  71
TORSDOF 14
ENDMDL
MODEL 2
REMARK VINA RESULT:     -11.0      0.955      1.661
REMARK SMILES O=C(OCCOCCOC(=O)[C@@H]1C[C@@H]2CC(=O)[C@H]1C2)c1ccc(-c2c3nc(c(-c4c(F)c(F)c(F)c(F)c4F)c4ccc([nH]4)c(-c4c(F)c(F)c(F)c(F)c4F)c4nc(c(-c5c(F)c(F)c(F)c(F)c5F)c5ccc2[nH]5)C=C4)C=C3)cc1
REMARK SMILES IDX 5 1 4 2 3 3 2 4 1 5 20 6 21 7 82 8 22 9 81 10 23 11 24 12
REMARK SMILES IDX 25 13 75 14 26 15 80 16 74 17 76 18 27 19 79 20 73 21 72 22
REMARK SMILES IDX 28 24 60 25 40 26 59 27 41 28 44 29 58 30 77 31 42 32 43 33
REMARK SMILES IDX 57 35 78 36 45 37 29 38 30 39 38 40 31 41 32 42 36 43 39 44
REMARK SMILES IDX 33 45 34 46 37 47 35 48 61 49 62 50 70 51 63 52 64 53 68 54
REMARK SMILES IDX 71 55 65 56 66 57 69 58 67 59 46 60 47 61 55 62 48 63 49 64
REMARK SMILES IDX 53 65 56 66 50 67 51 68 54 69 52 70 6 71 7 72 8 73 9 74
REMARK SMILES IDX 10 75 11 76 12 77 13 78 18 79 14 80 16 81 19 82 15 83 17 84
REMARK H PARENT 76 23 44 34
REMARK Flexibility Score: inf
ROOT
ATOM      1  C   UNL A   1      31.366  29.229  24.949  1.00  0.00     0.202 C 
ENDROOT
BRANCH   1   2
ATOM      2  C   UNL A   1      31.648  30.482  25.790  1.00  0.00     0.261 C 
BRANCH   2   3
ATOM      3  O   UNL A   1      32.984  30.467  26.346  1.00  0.00    -0.460 OA
BRANCH   3   4
ATOM      4  C   UNL A   1      33.534  31.397  27.171  1.00  0.00     0.338 C 
ATOM      5  O   UNL A   1      32.960  32.447  27.419  1.00  0.00    -0.246 OA
BRANCH   4   6
ATOM      6  C   UNL A   1      34.832  31.108  27.817  1.00  0.00     0.060 A 
ATOM      7  C   UNL A   1      35.131  29.828  28.251  1.00  0.00     0.016 A 
ATOM      8  C   UNL A   1      35.786  32.109  27.988  1.00  0.00     0.016 A 
ATOM      9  C   UNL A   1      36.189  29.568  29.072  1.00  0.00     0.010 A 
ATOM     10  C   UNL A   1      36.981  31.807  28.649  1.00  0.00     0.010 A 
ATOM     11  C   UNL A   1      37.165  30.535  29.216  1.00  0.00    -0.014 A 
BRANCH  11  12
ATOM     12  C   UNL A   1      38.332  30.147  30.014  1.00  0.00     0.031 A 
ATOM     13  C   UNL A   1      39.387  29.324  29.361  1.00  0.00     0.074 A 
ATOM     14  C   UNL A   1      38.488  30.688  31.239  1.00  0.00     0.049 A 
ATOM     15  N   UNL A   1      40.433  28.758  29.892  1.00  0.00    -0.248 NA
ATOM     16  C   UNL A   1      39.250  29.107  27.909  1.00  0.00     0.031 C 
ATOM     17  C   UNL A   1      37.568  31.648  31.868  1.00  0.00     0.029 A 
ATOM     18  N   UNL A   1      39.493  30.556  32.156  1.00  0.00    -0.354 N 
ATOM     19  C   UNL A   1      41.038  28.060  28.859  1.00  0.00     0.074 A 
ATOM     20  C   UNL A   1      40.258  28.285  27.664  1.00  0.00     0.031 C 
ATOM     21  C   UNL A   1      38.080  32.056  33.036  1.00  0.00     0.029 A 
ATOM     22  C   UNL A   1      39.280  31.284  33.302  1.00  0.00     0.049 A 
ATOM     23  H   UNL A   1      40.289  29.997  32.009  1.00  0.00     0.167 HD
ATOM     24  C   UNL A   1      42.140  27.284  28.936  1.00  0.00     0.037 A 
ATOM     25  C   UNL A   1      39.951  31.260  34.466  1.00  0.00     0.037 A 
ATOM     26  C   UNL A   1      42.883  27.122  30.156  1.00  0.00     0.049 A 
ATOM     27  C   UNL A   1      41.112  30.311  34.554  1.00  0.00     0.074 A 
ATOM     28  C   UNL A   1      43.973  26.314  30.411  1.00  0.00     0.029 A 
ATOM     29  N   UNL A   1      42.598  27.802  31.337  1.00  0.00    -0.354 N 
ATOM     30  N   UNL A   1      41.622  29.545  33.618  1.00  0.00    -0.248 NA
ATOM     31  C   UNL A   1      41.770  30.196  35.857  1.00  0.00     0.031 C 
ATOM     32  C   UNL A   1      44.316  26.470  31.758  1.00  0.00     0.029 A 
ATOM     33  C   UNL A   1      43.483  27.422  32.329  1.00  0.00     0.049 A 
ATOM     34  H   UNL A   1      41.874  28.459  31.449  1.00  0.00     0.167 HD
ATOM     35  C   UNL A   1      42.673  28.866  34.209  1.00  0.00     0.074 A 
ATOM     36  C   UNL A   1      42.738  29.332  35.583  1.00  0.00     0.031 C 
ATOM     37  C   UNL A   1      43.506  27.937  33.677  1.00  0.00     0.037 A 
BRANCH  24  38
ATOM     38  C   UNL A   1      42.515  26.503  27.713  1.00  0.00     0.064 A 
ATOM     39  C   UNL A   1      41.976  25.239  27.432  1.00  0.00     0.173 A 
ATOM     40  C   UNL A   1      43.481  27.012  26.831  1.00  0.00     0.173 A 
ATOM     41  F   UNL A   1      41.076  24.689  28.262  1.00  0.00    -0.203 F 
ATOM     42  C   UNL A   1      42.413  24.500  26.334  1.00  0.00     0.198 A 
ATOM     43  C   UNL A   1      43.894  26.284  25.718  1.00  0.00     0.198 A 
ATOM     44  F   UNL A   1      44.042  28.209  27.059  1.00  0.00    -0.203 F 
ATOM     45  F   UNL A   1      41.936  23.266  26.126  1.00  0.00    -0.200 F 
ATOM     46  C   UNL A   1      43.369  25.025  25.477  1.00  0.00     0.200 A 
ATOM     47  F   UNL A   1      44.817  26.796  24.891  1.00  0.00    -0.200 F 
ATOM     48  F   UNL A   1      43.796  24.310  24.427  1.00  0.00    -0.200 F 
ENDBRANCH  24  38
BRANCH  25  49
ATOM     49  C   UNL A   1      39.489  32.067  35.627  1.00  0.00     0.064 A 
ATOM     50  C   UNL A   1      39.985  33.356  35.861  1.00  0.00     0.173 A 
ATOM     51  C   UNL A   1      38.540  31.566  36.536  1.00  0.00     0.173 A 
ATOM     52  F   UNL A   1      40.903  33.879  35.036  1.00  0.00    -0.203 F 
ATOM     53  C   UNL A   1      39.569  34.101  36.965  1.00  0.00     0.198 A 
ATOM     54  C   UNL A   1      38.097  32.325  37.617  1.00  0.00     0.198 A 
ATOM     55  F   UNL A   1      38.025  30.339  36.366  1.00  0.00    -0.203 F 
ATOM     56  F   UNL A   1      40.100  35.309  37.192  1.00  0.00    -0.200 F 
ATOM     57  C   UNL A   1      38.621  33.588  37.838  1.00  0.00     0.200 A 
ATOM     58  F   UNL A   1      37.166  31.830  38.445  1.00  0.00    -0.200 F 
ATOM     59  F   UNL A   1      38.222  34.306  38.897  1.00  0.00    -0.200 F 
ENDBRANCH  25  49
BRANCH  37  60
ATOM     60  C   UNL A   1      44.582  27.418  34.578  1.00  0.00     0.064 A 
ATOM     61  C   UNL A   1      45.815  28.073  34.707  1.00  0.00     0.173 A 
ATOM     62  C   UNL A   1      44.350  26.275  35.358  1.00  0.00     0.173 A 
ATOM     63  F   UNL A   1      46.085  29.158  33.966  1.00  0.00    -0.203 F 
ATOM     64  C   UNL A   1      46.789  27.586  35.572  1.00  0.00     0.198 A 
ATOM     65  C   UNL A   1      45.312  25.814  36.247  1.00  0.00     0.198 A 
ATOM     66  F   UNL A   1      43.182  25.621  35.269  1.00  0.00    -0.203 F 
ATOM     67  F   UNL A   1      47.979  28.195  35.644  1.00  0.00    -0.200 F 
ATOM     68  C   UNL A   1      46.533  26.465  36.348  1.00  0.00     0.200 A 
ATOM     69  F   UNL A   1      45.057  24.742  37.008  1.00  0.00    -0.200 F 
ATOM     70  F   UNL A   1      47.468  26.006  37.191  1.00  0.00    -0.200 F 
ENDBRANCH  37  60
ENDBRANCH  11  12
ENDBRANCH   4   6
ENDBRANCH   3   4
ENDBRANCH   2   3
ENDBRANCH   1   2
BRANCH   1  71
ATOM     71  O   UNL A   1      32.035  29.088  23.698  1.00  0.00    -0.374 OA
BRANCH  71  72
ATOM     72  C   UNL A   1      31.370  28.237  22.759  1.00  0.00     0.202 C 
BRANCH  72  73
ATOM     73  C   UNL A   1      31.623  26.772  23.097  1.00  0.00     0.261 C 
BRANCH  73  74
ATOM     74  O   UNL A   1      33.020  26.580  23.412  1.00  0.00    -0.463 OA
BRANCH  74  75
ATOM     75  C   UNL A   1      33.532  25.400  22.980  1.00  0.00     0.309 C 
ATOM     76  O   UNL A   1      33.769  25.117  21.810  1.00  0.00    -0.252 OA
BRANCH  75  77
ATOM     77  C   UNL A   1      33.824  24.431  24.099  1.00  0.00     0.110 C 
ATOM     78  C   UNL A   1      34.594  24.946  25.320  1.00  0.00     0.020 C 
ATOM     79  C   UNL A   1      34.522  23.099  23.781  1.00  0.00     0.070 C 
ATOM     80  C   UNL A   1      35.391  23.692  25.767  1.00  0.00    -0.002 C 
ATOM     81  C   UNL A   1      36.038  23.239  23.619  1.00  0.00     0.137 C 
ATOM     82  C   UNL A   1      34.569  22.520  25.199  1.00  0.00     0.016 C 
ATOM     83  C   UNL A   1      36.674  23.605  24.930  1.00  0.00     0.079 C 
ATOM     84  O   UNL A   1      36.681  22.990  22.606  1.00  0.00    -0.299 OA
ENDBRANCH  75  77
ENDBRANCH  74  75
ENDBRANCH  73  74
ENDBRANCH  72  73
ENDBRANCH  71  72
ENDBRANCH   1  71
TORSDOF 14
ENDMDL
MODEL 3
REMARK VINA RESULT:     -10.9      4.639      9.992
REMARK SMILES O=C(OCCOCCOC(=O)[C@@H]1C[C@@H]2CC(=O)[C@H]1C2)c1ccc(-c2c3nc(c(-c4c(F)c(F)c(F)c(F)c4F)c4ccc([nH]4)c(-c4c(F)c(F)c(F)c(F)c4F)c4nc(c(-c5c(F)c(F)c(F)c(F)c5F)c5ccc2[nH]5)C=C4)C=C3)cc1
REMARK SMILES IDX 5 1 4 2 3 3 2 4 1 5 20 6 21 7 82 8 22 9 81 10 23 11 24 12
REMARK SMILES IDX 25 13 75 14 26 15 80 16 74 17 76 18 27 19 79 20 73 21 72 22
REMARK SMILES IDX 28 24 60 25 40 26 59 27 41 28 44 29 58 30 77 31 42 32 43 33
REMARK SMILES IDX 57 35 78 36 45 37 29 38 30 39 38 40 31 41 32 42 36 43 39 44
REMARK SMILES IDX 33 45 34 46 37 47 35 48 61 49 62 50 70 51 63 52 64 53 68 54
REMARK SMILES IDX 71 55 65 56 66 57 69 58 67 59 46 60 47 61 55 62 48 63 49 64
REMARK SMILES IDX 53 65 56 66 50 67 51 68 54 69 52 70 6 71 7 72 8 73 9 74
REMARK SMILES IDX 10 75 11 76 12 77 13 78 18 79 14 80 16 81 19 82 15 83 17 84
REMARK H PARENT 76 23 44 34
REMARK Flexibility Score: inf
ROOT
ATOM      1  C   UNL A   1      36.752  22.272  23.902  1.00  0.00     0.202 C 
ENDROOT
BRANCH   1   2
ATOM      2  C   UNL A   1      37.364  21.179  24.789  1.00  0.00     0.261 C 
BRANCH   2   3
ATOM      3  O   UNL A   1      37.957  21.730  25.988  1.00  0.00    -0.460 OA
BRANCH   3   4
ATOM      4  C   UNL A   1      39.269  21.683  26.344  1.00  0.00     0.338 C 
ATOM      5  O   UNL A   1      39.918  20.651  26.251  1.00  0.00    -0.246 OA
BRANCH   4   6
ATOM      6  C   UNL A   1      39.934  22.919  26.806  1.00  0.00     0.060 A 
ATOM      7  C   UNL A   1      39.591  24.146  26.264  1.00  0.00     0.016 A 
ATOM      8  C   UNL A   1      40.904  22.880  27.805  1.00  0.00     0.016 A 
ATOM      9  C   UNL A   1      40.344  25.266  26.467  1.00  0.00     0.010 A 
ATOM     10  C   UNL A   1      41.545  24.066  28.180  1.00  0.00     0.010 A 
ATOM     11  C   UNL A   1      41.279  25.256  27.484  1.00  0.00    -0.014 A 
BRANCH  11  12
ATOM     12  C   UNL A   1      41.967  26.528  27.727  1.00  0.00     0.031 A 
ATOM     13  C   UNL A   1      41.313  27.519  28.626  1.00  0.00     0.074 A 
ATOM     14  C   UNL A   1      43.228  26.678  27.275  1.00  0.00     0.049 A 
ATOM     15  N   UNL A   1      41.662  28.747  28.885  1.00  0.00    -0.248 NA
ATOM     16  C   UNL A   1      40.101  27.069  29.333  1.00  0.00     0.031 C 
ATOM     17  C   UNL A   1      43.993  25.663  26.534  1.00  0.00     0.029 A 
ATOM     18  N   UNL A   1      44.111  27.711  27.411  1.00  0.00    -0.354 N 
ATOM     19  C   UNL A   1      40.677  29.239  29.725  1.00  0.00     0.074 A 
ATOM     20  C   UNL A   1      39.724  28.177  29.951  1.00  0.00     0.031 C 
ATOM     21  C   UNL A   1      45.241  26.105  26.332  1.00  0.00     0.029 A 
ATOM     22  C   UNL A   1      45.319  27.478  26.797  1.00  0.00     0.049 A 
ATOM     23  H   UNL A   1      43.904  28.540  27.899  1.00  0.00     0.167 HD
ATOM     24  C   UNL A   1      40.588  30.488  30.232  1.00  0.00     0.037 A 
ATOM     25  C   UNL A   1      46.342  28.320  26.575  1.00  0.00     0.037 A 
ATOM     26  C   UNL A   1      41.586  31.492  29.983  1.00  0.00     0.049 A 
ATOM     27  C   UNL A   1      46.170  29.731  27.062  1.00  0.00     0.074 A 
ATOM     28  C   UNL A   1      41.599  32.819  30.364  1.00  0.00     0.029 A 
ATOM     29  N   UNL A   1      42.765  31.260  29.281  1.00  0.00    -0.354 N 
ATOM     30  N   UNL A   1      45.181  30.248  27.753  1.00  0.00    -0.248 NA
ATOM     31  C   UNL A   1      47.230  30.680  26.717  1.00  0.00     0.031 C 
ATOM     32  C   UNL A   1      42.764  33.400  29.849  1.00  0.00     0.029 A 
ATOM     33  C   UNL A   1      43.509  32.423  29.204  1.00  0.00     0.049 A 
ATOM     34  H   UNL A   1      43.033  30.393  28.897  1.00  0.00     0.167 HD
ATOM     35  C   UNL A   1      45.503  31.580  27.942  1.00  0.00     0.074 A 
ATOM     36  C   UNL A   1      46.794  31.783  27.310  1.00  0.00     0.031 C 
ATOM     37  C   UNL A   1      44.800  32.556  28.572  1.00  0.00     0.037 A 
BRANCH  24  38
ATOM     38  C   UNL A   1      39.343  30.830  30.992  1.00  0.00     0.064 A 
ATOM     39  C   UNL A   1      39.203  30.574  32.364  1.00  0.00     0.173 A 
ATOM     40  C   UNL A   1      38.241  31.376  30.315  1.00  0.00     0.173 A 
ATOM     41  F   UNL A   1      40.212  30.018  33.053  1.00  0.00    -0.203 F 
ATOM     42  C   UNL A   1      38.000  30.821  33.022  1.00  0.00     0.198 A 
ATOM     43  C   UNL A   1      37.049  31.650  30.981  1.00  0.00     0.198 A 
ATOM     44  F   UNL A   1      38.313  31.627  28.998  1.00  0.00    -0.203 F 
ATOM     45  F   UNL A   1      37.867  30.503  34.317  1.00  0.00    -0.200 F 
ATOM     46  C   UNL A   1      36.926  31.362  32.330  1.00  0.00     0.200 A 
ATOM     47  F   UNL A   1      36.015  32.174  30.309  1.00  0.00    -0.200 F 
ATOM     48  F   UNL A   1      35.766  31.590  32.962  1.00  0.00    -0.200 F 
ENDBRANCH  24  38
BRANCH  25  49
ATOM     49  C   UNL A   1      47.532  27.883  25.796  1.00  0.00     0.064 A 
ATOM     50  C   UNL A   1      48.737  27.555  26.431  1.00  0.00     0.173 A 
ATOM     51  C   UNL A   1      47.494  27.786  24.394  1.00  0.00     0.173 A 
ATOM     52  F   UNL A   1      48.836  27.645  27.765  1.00  0.00    -0.203 F 
ATOM     53  C   UNL A   1      49.859  27.171  25.697  1.00  0.00     0.198 A 
ATOM     54  C   UNL A   1      48.604  27.365  23.664  1.00  0.00     0.198 A 
ATOM     55  F   UNL A   1      46.369  28.084  23.727  1.00  0.00    -0.203 F 
ATOM     56  F   UNL A   1      51.013  26.915  26.328  1.00  0.00    -0.200 F 
ATOM     57  C   UNL A   1      49.790  27.070  24.315  1.00  0.00     0.200 A 
ATOM     58  F   UNL A   1      48.523  27.251  22.331  1.00  0.00    -0.200 F 
ATOM     59  F   UNL A   1      50.869  26.698  23.612  1.00  0.00    -0.200 F 
ENDBRANCH  25  49
BRANCH  37  60
ATOM     60  C   UNL A   1      45.451  33.901  28.644  1.00  0.00     0.064 A 
ATOM     61  C   UNL A   1      45.227  34.882  27.669  1.00  0.00     0.173 A 
ATOM     62  C   UNL A   1      46.271  34.221  29.737  1.00  0.00     0.173 A 
ATOM     63  F   UNL A   1      44.465  34.610  26.599  1.00  0.00    -0.203 F 
ATOM     64  C   UNL A   1      45.822  36.134  27.774  1.00  0.00     0.198 A 
ATOM     65  C   UNL A   1      46.834  35.485  29.855  1.00  0.00     0.198 A 
ATOM     66  F   UNL A   1      46.507  33.313  30.695  1.00  0.00    -0.203 F 
ATOM     67  F   UNL A   1      45.639  37.042  26.807  1.00  0.00    -0.200 F 
ATOM     68  C   UNL A   1      46.616  36.438  28.871  1.00  0.00     0.200 A 
ATOM     69  F   UNL A   1      47.586  35.783  30.923  1.00  0.00    -0.200 F 
ATOM     70  F   UNL A   1      47.178  37.650  28.976  1.00  0.00    -0.200 F 
ENDBRANCH  37  60
ENDBRANCH  11  12
ENDBRANCH   4   6
ENDBRANCH   3   4
ENDBRANCH   2   3
ENDBRANCH   1   2
BRANCH   1  71
ATOM     71  O   UNL A   1      35.565  22.922  24.350  1.00  0.00    -0.374 OA
BRANCH  71  72
ATOM     72  C   UNL A   1      34.799  23.546  23.314  1.00  0.00     0.202 C 
BRANCH  72  73
ATOM     73  C   UNL A   1      33.312  23.283  23.521  1.00  0.00     0.261 C 
BRANCH  73  74
ATOM     74  O   UNL A   1      33.136  22.129  24.372  1.00  0.00    -0.463 OA
BRANCH  74  75
ATOM     75  C   UNL A   1      32.650  21.034  23.734  1.00  0.00     0.309 C 
ATOM     76  O   UNL A   1      32.087  21.043  22.644  1.00  0.00    -0.252 OA
BRANCH  75  77
ATOM     77  C   UNL A   1      32.889  19.750  24.487  1.00  0.00     0.110 C 
ATOM     78  C   UNL A   1      34.331  19.254  24.636  1.00  0.00     0.020 C 
ATOM     79  C   UNL A   1      32.124  18.481  24.076  1.00  0.00     0.070 C 
ATOM     80  C   UNL A   1      34.157  17.713  24.646  1.00  0.00    -0.002 C 
ATOM     81  C   UNL A   1      32.731  17.781  22.857  1.00  0.00     0.137 C 
ATOM     82  C   UNL A   1      32.704  17.516  25.116  1.00  0.00     0.016 C 
ATOM     83  C   UNL A   1      34.083  17.220  23.195  1.00  0.00     0.079 C 
ATOM     84  O   UNL A   1      32.176  17.596  21.782  1.00  0.00    -0.299 OA
ENDBRANCH  75  77
ENDBRANCH  74  75
ENDBRANCH  73  74
ENDBRANCH  72  73
ENDBRANCH  71  72
ENDBRANCH   1  71
TORSDOF 14
ENDMDL
