MODEL 1
REMARK VINA RESULT:     -10.3      0.000      0.000
REMARK SMILES Cc1ccc(CC(=O)OCCOCCOC(=O)c2ccc(-c3c4nc(c(-c5c(F)c(F)c(F)c(F)c5F)c5ccc([nH]5)c(-c5c(F)c(F)c(F)c(F)c5F)c5nc(c(-c6c(F)c(F)c(F)c(F)c6F)c6ccc3[nH]6)C=C5)C=C4)cc2)cc1Br
REMARK SMILES IDX 13 1 12 2 11 3 10 4 9 5 7 6 8 7 6 8 5 9 1 10 2 11 3 12 82 13
REMARK SMILES IDX 4 14 81 15 83 16 14 17 15 18 16 19 17 20 18 21 19 22 80 23
REMARK SMILES IDX 20 24 79 25 21 26 22 27 23 28 73 29 24 30 78 31 72 32 74 33
REMARK SMILES IDX 25 34 77 35 71 36 70 37 26 39 58 40 38 41 57 42 39 43 42 44
REMARK SMILES IDX 56 45 75 46 40 47 41 48 55 50 76 51 43 52 27 53 28 54 36 55
REMARK SMILES IDX 29 56 30 57 34 58 37 59 31 60 32 61 35 62 33 63 59 64 60 65
REMARK SMILES IDX 68 66 61 67 62 68 66 69 69 70 63 71 64 72 67 73 65 74 44 75
REMARK SMILES IDX 45 76 53 77 46 78 47 79 51 80 54 81 48 82 49 83 52 84 50 85
REMARK H PARENT 74 38 42 49
REMARK Flexibility Score: inf
ROOT
ATOM      1  C   UNL A   1      45.590  22.942  26.112  1.00  0.00     0.202 C 
ENDROOT
BRANCH   1   2
ATOM      2  O   UNL A   1      45.958  21.581  25.883  1.00  0.00    -0.374 OA
BRANCH   2   3
ATOM      3  C   UNL A   1      45.564  21.006  24.640  1.00  0.00     0.202 C 
BRANCH   3   4
ATOM      4  C   UNL A   1      44.630  19.795  24.716  1.00  0.00     0.261 C 
BRANCH   4   5
ATOM      5  O   UNL A   1      43.335  20.125  25.257  1.00  0.00    -0.463 OA
BRANCH   5   6
ATOM      6  C   UNL A   1      42.748  19.153  26.004  1.00  0.00     0.310 C 
ATOM      7  O   UNL A   1      42.657  17.977  25.662  1.00  0.00    -0.252 OA
BRANCH   6   8
ATOM      8  C   UNL A   1      42.151  19.633  27.304  1.00  0.00     0.158 C 
BRANCH   8   9
ATOM      9  C   UNL A   1      41.446  20.970  27.345  1.00  0.00    -0.036 A 
ATOM     10  C   UNL A   1      39.652  24.917  27.183  1.00  0.00     0.045 C 
ATOM     11  C   UNL A   1      40.240  23.535  27.234  1.00  0.00    -0.037 A 
ATOM     12  C   UNL A   1      41.450  23.333  27.914  1.00  0.00     0.005 A 
ATOM     13  C   UNL A   1      39.622  22.427  26.639  1.00  0.00     0.021 A 
ATOM     14  C   UNL A   1      42.044  22.068  27.974  1.00  0.00     0.004 A 
ATOM     15  C   UNL A   1      40.224  21.162  26.685  1.00  0.00     0.020 A 
ATOM     16  Br  UNL A   1      37.960  22.573  25.728  1.00  0.00    -0.051 Br
ENDBRANCH   8   9
ENDBRANCH   6   8
ENDBRANCH   5   6
ENDBRANCH   4   5
ENDBRANCH   3   4
ENDBRANCH   2   3
ENDBRANCH   1   2
BRANCH   1  17
ATOM     17  C   UNL A   1      46.124  23.966  25.104  1.00  0.00     0.261 C 
BRANCH  17  18
ATOM     18  O   UNL A   1      45.142  24.967  24.780  1.00  0.00    -0.460 OA
BRANCH  18  19
ATOM     19  C   UNL A   1      45.512  26.240  25.050  1.00  0.00     0.338 C 
ATOM     20  O   UNL A   1      46.318  26.928  24.438  1.00  0.00    -0.246 OA
BRANCH  19  21
ATOM     21  C   UNL A   1      44.660  26.797  26.116  1.00  0.00     0.060 A 
ATOM     22  C   UNL A   1      44.868  28.135  26.478  1.00  0.00     0.016 A 
ATOM     23  C   UNL A   1      43.724  26.014  26.794  1.00  0.00     0.016 A 
ATOM     24  C   UNL A   1      44.158  28.688  27.542  1.00  0.00     0.010 A 
ATOM     25  C   UNL A   1      43.024  26.569  27.872  1.00  0.00     0.010 A 
ATOM     26  C   UNL A   1      43.253  27.900  28.265  1.00  0.00    -0.014 A 
BRANCH  26  27
ATOM     27  C   UNL A   1      42.616  28.441  29.490  1.00  0.00     0.031 A 
ATOM     28  C   UNL A   1      41.250  29.058  29.400  1.00  0.00     0.074 A 
ATOM     29  C   UNL A   1      43.252  28.375  30.673  1.00  0.00     0.049 A 
ATOM     30  N   UNL A   1      40.543  29.647  30.332  1.00  0.00    -0.248 NA
ATOM     31  C   UNL A   1      40.592  29.004  28.087  1.00  0.00     0.031 C 
ATOM     32  C   UNL A   1      44.561  27.761  30.892  1.00  0.00     0.029 A 
ATOM     33  N   UNL A   1      42.887  28.841  31.911  1.00  0.00    -0.354 N 
ATOM     34  C   UNL A   1      39.360  30.036  29.717  1.00  0.00     0.074 A 
ATOM     35  C   UNL A   1      39.453  29.638  28.327  1.00  0.00     0.031 C 
ATOM     36  C   UNL A   1      44.898  27.906  32.184  1.00  0.00     0.029 A 
ATOM     37  C   UNL A   1      43.848  28.653  32.873  1.00  0.00     0.049 A 
ATOM     38  H   UNL A   1      42.018  29.268  32.091  1.00  0.00     0.167 HD
ATOM     39  C   UNL A   1      38.293  30.663  30.266  1.00  0.00     0.037 A 
ATOM     40  C   UNL A   1      43.888  29.068  34.154  1.00  0.00     0.037 A 
ATOM     41  C   UNL A   1      38.203  31.055  31.648  1.00  0.00     0.049 A 
ATOM     42  C   UNL A   1      42.727  29.848  34.716  1.00  0.00     0.074 A 
ATOM     43  C   UNL A   1      37.147  31.658  32.307  1.00  0.00     0.029 A 
ATOM     44  N   UNL A   1      39.218  30.895  32.580  1.00  0.00    -0.354 N 
ATOM     45  N   UNL A   1      41.599  30.182  34.139  1.00  0.00    -0.248 NA
ATOM     46  C   UNL A   1      42.849  30.315  36.104  1.00  0.00     0.031 C 
ATOM     47  C   UNL A   1      37.543  31.913  33.625  1.00  0.00     0.029 A 
ATOM     48  C   UNL A   1      38.829  31.426  33.799  1.00  0.00     0.049 A 
ATOM     49  H   UNL A   1      40.087  30.467  32.401  1.00  0.00     0.167 HD
ATOM     50  C   UNL A   1      40.873  30.882  35.093  1.00  0.00     0.074 A 
ATOM     51  C   UNL A   1      41.681  30.911  36.294  1.00  0.00     0.031 C 
ATOM     52  C   UNL A   1      39.649  31.453  34.983  1.00  0.00     0.037 A 
BRANCH  39  53
ATOM     53  C   UNL A   1      37.138  30.990  29.365  1.00  0.00     0.064 A 
ATOM     54  C   UNL A   1      36.173  30.030  29.026  1.00  0.00     0.173 A 
ATOM     55  C   UNL A   1      36.971  32.293  28.872  1.00  0.00     0.173 A 
ATOM     56  F   UNL A   1      36.293  28.768  29.462  1.00  0.00    -0.203 F 
ATOM     57  C   UNL A   1      35.093  30.359  28.209  1.00  0.00     0.198 A 
ATOM     58  C   UNL A   1      35.878  32.625  28.077  1.00  0.00     0.198 A 
ATOM     59  F   UNL A   1      37.864  33.248  29.173  1.00  0.00    -0.203 F 
ATOM     60  F   UNL A   1      34.203  29.418  27.868  1.00  0.00    -0.200 F 
ATOM     61  C   UNL A   1      34.943  31.656  27.743  1.00  0.00     0.200 A 
ATOM     62  F   UNL A   1      35.727  33.881  27.637  1.00  0.00    -0.200 F 
ATOM     63  F   UNL A   1      33.899  31.973  26.964  1.00  0.00    -0.200 F 
ENDBRANCH  39  53
BRANCH  40  64
ATOM     64  C   UNL A   1      45.086  28.787  34.986  1.00  0.00     0.064 A 
ATOM     65  C   UNL A   1      45.162  27.639  35.785  1.00  0.00     0.173 A 
ATOM     66  C   UNL A   1      46.176  29.672  35.009  1.00  0.00     0.173 A 
ATOM     67  F   UNL A   1      44.134  26.778  35.817  1.00  0.00    -0.203 F 
ATOM     68  C   UNL A   1      46.276  27.390  36.584  1.00  0.00     0.198 A 
ATOM     69  C   UNL A   1      47.301  29.408  35.788  1.00  0.00     0.198 A 
ATOM     70  F   UNL A   1      46.151  30.789  34.267  1.00  0.00    -0.203 F 
ATOM     71  F   UNL A   1      46.305  26.306  37.371  1.00  0.00    -0.200 F 
ATOM     72  C   UNL A   1      47.348  28.272  36.580  1.00  0.00     0.200 A 
ATOM     73  F   UNL A   1      48.337  30.258  35.773  1.00  0.00    -0.200 F 
ATOM     74  F   UNL A   1      48.420  28.029  37.345  1.00  0.00    -0.200 F 
ENDBRANCH  40  64
BRANCH  52  75
ATOM     75  C   UNL A   1      39.100  32.153  36.192  1.00  0.00     0.064 A 
ATOM     76  C   UNL A   1      39.424  33.489  36.471  1.00  0.00     0.173 A 
ATOM     77  C   UNL A   1      38.200  31.502  37.049  1.00  0.00     0.173 A 
ATOM     78  F   UNL A   1      40.294  34.149  35.691  1.00  0.00    -0.203 F 
ATOM     79  C   UNL A   1      38.876  34.143  37.572  1.00  0.00     0.198 A 
ATOM     80  C   UNL A   1      37.632  32.167  38.132  1.00  0.00     0.198 A 
ATOM     81  F   UNL A   1      37.854  30.225  36.822  1.00  0.00    -0.203 F 
ATOM     82  F   UNL A   1      39.227  35.409  37.839  1.00  0.00    -0.200 F 
ATOM     83  C   UNL A   1      37.975  33.485  38.395  1.00  0.00     0.200 A 
ATOM     84  F   UNL A   1      36.752  31.534  38.919  1.00  0.00    -0.200 F 
ATOM     85  F   UNL A   1      37.438  34.121  39.445  1.00  0.00    -0.200 F 
ENDBRANCH  52  75
ENDBRANCH  26  27
ENDBRANCH  19  21
ENDBRANCH  18  19
ENDBRANCH  17  18
ENDBRANCH   1  17
TORSDOF 15
ENDMDL
MODEL 2
REMARK VINA RESULT:     -10.3      4.831      9.333
REMARK SMILES Cc1ccc(CC(=O)OCCOCCOC(=O)c2ccc(-c3c4nc(c(-c5c(F)c(F)c(F)c(F)c5F)c5ccc([nH]5)c(-c5c(F)c(F)c(F)c(F)c5F)c5nc(c(-c6c(F)c(F)c(F)c(F)c6F)c6ccc3[nH]6)C=C5)C=C4)cc2)cc1Br
REMARK SMILES IDX 13 1 12 2 11 3 10 4 9 5 7 6 8 7 6 8 5 9 1 10 2 11 3 12 82 13
REMARK SMILES IDX 4 14 81 15 83 16 14 17 15 18 16 19 17 20 18 21 19 22 80 23
REMARK SMILES IDX 20 24 79 25 21 26 22 27 23 28 73 29 24 30 78 31 72 32 74 33
REMARK SMILES IDX 25 34 77 35 71 36 70 37 26 39 58 40 38 41 57 42 39 43 42 44
REMARK SMILES IDX 56 45 75 46 40 47 41 48 55 50 76 51 43 52 27 53 28 54 36 55
REMARK SMILES IDX 29 56 30 57 34 58 37 59 31 60 32 61 35 62 33 63 59 64 60 65
REMARK SMILES IDX 68 66 61 67 62 68 66 69 69 70 63 71 64 72 67 73 65 74 44 75
REMARK SMILES IDX 45 76 53 77 46 78 47 79 51 80 54 81 48 82 49 83 52 84 50 85
REMARK H PARENT 74 38 42 49
REMARK Flexibility Score: inf
ROOT
ATOM      1  C   UNL A   1      31.030  29.717  24.702  1.00  0.00     0.202 C 
ENDROOT
BRANCH   1   2
ATOM      2  O   UNL A   1      31.176  28.672  23.740  1.00  0.00    -0.374 OA
BRANCH   2   3
ATOM      3  C   UNL A   1      32.343  28.707  22.920  1.00  0.00     0.202 C 
BRANCH   3   4
ATOM      4  C   UNL A   1      33.279  27.499  23.018  1.00  0.00     0.261 C 
BRANCH   4   5
ATOM      5  O   UNL A   1      33.657  26.984  21.727  1.00  0.00    -0.463 OA
BRANCH   5   6
ATOM      6  C   UNL A   1      33.046  25.827  21.357  1.00  0.00     0.310 C 
ATOM      7  O   UNL A   1      32.903  25.461  20.194  1.00  0.00    -0.252 OA
BRANCH   6   8
ATOM      8  C   UNL A   1      32.489  25.016  22.501  1.00  0.00     0.158 C 
BRANCH   8   9
ATOM      9  C   UNL A   1      33.303  23.870  23.060  1.00  0.00    -0.036 A 
ATOM     10  C   UNL A   1      35.601  20.744  25.001  1.00  0.00     0.045 C 
ATOM     11  C   UNL A   1      34.782  21.801  24.315  1.00  0.00    -0.037 A 
ATOM     12  C   UNL A   1      35.384  23.026  23.989  1.00  0.00     0.005 A 
ATOM     13  C   UNL A   1      33.437  21.612  23.972  1.00  0.00     0.021 A 
ATOM     14  C   UNL A   1      34.657  24.045  23.365  1.00  0.00     0.004 A 
ATOM     15  C   UNL A   1      32.703  22.640  23.362  1.00  0.00     0.020 A 
ATOM     16  Br  UNL A   1      32.529  19.980  24.326  1.00  0.00    -0.051 Br
ENDBRANCH   8   9
ENDBRANCH   6   8
ENDBRANCH   5   6
ENDBRANCH   4   5
ENDBRANCH   3   4
ENDBRANCH   2   3
ENDBRANCH   1   2
BRANCH   1  17
ATOM     17  C   UNL A   1      31.862  29.579  25.982  1.00  0.00     0.261 C 
BRANCH  17  18
ATOM     18  O   UNL A   1      33.114  30.285  25.890  1.00  0.00    -0.460 OA
BRANCH  18  19
ATOM     19  C   UNL A   1      33.340  31.178  26.880  1.00  0.00     0.338 C 
ATOM     20  O   UNL A   1      32.557  32.000  27.336  1.00  0.00    -0.246 OA
BRANCH  19  21
ATOM     21  C   UNL A   1      34.651  30.920  27.502  1.00  0.00     0.060 A 
ATOM     22  C   UNL A   1      34.991  29.586  27.765  1.00  0.00     0.016 A 
ATOM     23  C   UNL A   1      35.503  31.958  27.881  1.00  0.00     0.016 A 
ATOM     24  C   UNL A   1      36.175  29.287  28.437  1.00  0.00     0.010 A 
ATOM     25  C   UNL A   1      36.684  31.655  28.569  1.00  0.00     0.010 A 
ATOM     26  C   UNL A   1      37.015  30.321  28.870  1.00  0.00    -0.014 A 
BRANCH  26  27
ATOM     27  C   UNL A   1      38.191  30.013  29.718  1.00  0.00     0.031 A 
ATOM     28  C   UNL A   1      39.237  29.061  29.211  1.00  0.00     0.074 A 
ATOM     29  C   UNL A   1      38.325  30.585  30.928  1.00  0.00     0.049 A 
ATOM     30  N   UNL A   1      40.305  28.606  29.815  1.00  0.00    -0.248 NA
ATOM     31  C   UNL A   1      39.056  28.557  27.843  1.00  0.00     0.031 C 
ATOM     32  C   UNL A   1      37.399  31.555  31.508  1.00  0.00     0.029 A 
ATOM     33  N   UNL A   1      39.289  30.419  31.892  1.00  0.00    -0.354 N 
ATOM     34  C   UNL A   1      40.921  27.759  28.902  1.00  0.00     0.074 A 
ATOM     35  C   UNL A   1      40.096  27.745  27.713  1.00  0.00     0.031 C 
ATOM     36  C   UNL A   1      37.829  31.886  32.737  1.00  0.00     0.029 A 
ATOM     37  C   UNL A   1      39.038  31.123  33.043  1.00  0.00     0.049 A 
ATOM     38  H   UNL A   1      40.084  29.851  31.768  1.00  0.00     0.167 HD
ATOM     39  C   UNL A   1      42.073  27.062  29.045  1.00  0.00     0.037 A 
ATOM     40  C   UNL A   1      39.692  31.125  34.221  1.00  0.00     0.037 A 
ATOM     41  C   UNL A   1      42.892  27.079  30.228  1.00  0.00     0.049 A 
ATOM     42  C   UNL A   1      40.919  30.266  34.386  1.00  0.00     0.074 A 
ATOM     43  C   UNL A   1      44.098  26.440  30.453  1.00  0.00     0.029 A 
ATOM     44  N   UNL A   1      42.578  27.763  31.394  1.00  0.00    -0.354 N 
ATOM     45  N   UNL A   1      41.513  29.496  33.509  1.00  0.00    -0.248 NA
ATOM     46  C   UNL A   1      41.561  30.272  35.709  1.00  0.00     0.031 C 
ATOM     47  C   UNL A   1      44.487  26.692  31.774  1.00  0.00     0.029 A 
ATOM     48  C   UNL A   1      43.547  27.527  32.356  1.00  0.00     0.049 A 
ATOM     49  H   UNL A   1      41.784  28.332  31.518  1.00  0.00     0.167 HD
ATOM     50  C   UNL A   1      42.604  28.939  34.164  1.00  0.00     0.074 A 
ATOM     51  C   UNL A   1      42.600  29.473  35.510  1.00  0.00     0.031 C 
ATOM     52  C   UNL A   1      43.524  28.061  33.694  1.00  0.00     0.037 A 
BRANCH  39  53
ATOM     53  C   UNL A   1      42.510  26.197  27.899  1.00  0.00     0.064 A 
ATOM     54  C   UNL A   1      42.007  24.900  27.722  1.00  0.00     0.173 A 
ATOM     55  C   UNL A   1      43.410  26.690  26.942  1.00  0.00     0.173 A 
ATOM     56  F   UNL A   1      41.153  24.379  28.615  1.00  0.00    -0.203 F 
ATOM     57  C   UNL A   1      42.404  24.120  26.638  1.00  0.00     0.198 A 
ATOM     58  C   UNL A   1      43.785  25.918  25.846  1.00  0.00     0.198 A 
ATOM     59  F   UNL A   1      43.916  27.926  27.064  1.00  0.00    -0.203 F 
ATOM     60  F   UNL A   1      41.939  22.871  26.508  1.00  0.00    -0.200 F 
ATOM     61  C   UNL A   1      43.286  24.632  25.698  1.00  0.00     0.200 A 
ATOM     62  F   UNL A   1      44.629  26.418  24.933  1.00  0.00    -0.200 F 
ATOM     63  F   UNL A   1      43.661  23.884  24.651  1.00  0.00    -0.200 F 
ENDBRANCH  39  53
BRANCH  40  64
ATOM     64  C   UNL A   1      39.177  31.939  35.353  1.00  0.00     0.064 A 
ATOM     65  C   UNL A   1      39.507  33.294  35.480  1.00  0.00     0.173 A 
ATOM     66  C   UNL A   1      38.355  31.371  36.339  1.00  0.00     0.173 A 
ATOM     67  F   UNL A   1      40.312  33.874  34.577  1.00  0.00    -0.203 F 
ATOM     68  C   UNL A   1      39.044  34.049  36.556  1.00  0.00     0.198 A 
ATOM     69  C   UNL A   1      37.871  32.134  37.399  1.00  0.00     0.198 A 
ATOM     70  F   UNL A   1      38.015  30.076  36.267  1.00  0.00    -0.203 F 
ATOM     71  F   UNL A   1      39.409  35.333  36.676  1.00  0.00    -0.200 F 
ATOM     72  C   UNL A   1      38.221  33.470  37.511  1.00  0.00     0.200 A 
ATOM     73  F   UNL A   1      37.068  31.572  38.314  1.00  0.00    -0.200 F 
ATOM     74  F   UNL A   1      37.774  34.198  38.542  1.00  0.00    -0.200 F 
ENDBRANCH  40  64
BRANCH  52  75
ATOM     75  C   UNL A   1      44.608  27.625  34.636  1.00  0.00     0.064 A 
ATOM     76  C   UNL A   1      44.494  26.442  35.381  1.00  0.00     0.173 A 
ATOM     77  C   UNL A   1      45.795  28.364  34.751  1.00  0.00     0.173 A 
ATOM     78  F   UNL A   1      43.372  25.710  35.317  1.00  0.00    -0.203 F 
ATOM     79  C   UNL A   1      45.525  26.024  36.220  1.00  0.00     0.198 A 
ATOM     80  C   UNL A   1      46.834  27.928  35.569  1.00  0.00     0.198 A 
ATOM     81  F   UNL A   1      45.954  29.500  34.055  1.00  0.00    -0.203 F 
ATOM     82  F   UNL A   1      45.380  24.909  36.950  1.00  0.00    -0.200 F 
ATOM     83  C   UNL A   1      46.696  26.761  36.306  1.00  0.00     0.200 A 
ATOM     84  F   UNL A   1      47.970  28.636  35.641  1.00  0.00    -0.200 F 
ATOM     85  F   UNL A   1      47.691  26.350  37.102  1.00  0.00    -0.200 F 
ENDBRANCH  52  75
ENDBRANCH  26  27
ENDBRANCH  19  21
ENDBRANCH  18  19
ENDBRANCH  17  18
ENDBRANCH   1  17
TORSDOF 15
ENDMDL
MODEL 3
REMARK VINA RESULT:     -10.2      5.693     11.810
REMARK SMILES Cc1ccc(CC(=O)OCCOCCOC(=O)c2ccc(-c3c4nc(c(-c5c(F)c(F)c(F)c(F)c5F)c5ccc([nH]5)c(-c5c(F)c(F)c(F)c(F)c5F)c5nc(c(-c6c(F)c(F)c(F)c(F)c6F)c6ccc3[nH]6)C=C5)C=C4)cc2)cc1Br
REMARK SMILES IDX 13 1 12 2 11 3 10 4 9 5 7 6 8 7 6 8 5 9 1 10 2 11 3 12 82 13
REMARK SMILES IDX 4 14 81 15 83 16 14 17 15 18 16 19 17 20 18 21 19 22 80 23
REMARK SMILES IDX 20 24 79 25 21 26 22 27 23 28 73 29 24 30 78 31 72 32 74 33
REMARK SMILES IDX 25 34 77 35 71 36 70 37 26 39 58 40 38 41 57 42 39 43 42 44
REMARK SMILES IDX 56 45 75 46 40 47 41 48 55 50 76 51 43 52 27 53 28 54 36 55
REMARK SMILES IDX 29 56 30 57 34 58 37 59 31 60 32 61 35 62 33 63 59 64 60 65
REMARK SMILES IDX 68 66 61 67 62 68 66 69 69 70 63 71 64 72 67 73 65 74 44 75
REMARK SMILES IDX 45 76 53 77 46 78 47 79 51 80 54 81 48 82 49 83 52 84 50 85
REMARK H PARENT 74 38 42 49
REMARK Flexibility Score: inf
ROOT
ATOM      1  C   UNL A   1      33.382  34.104  28.062  1.00  0.00     0.202 C 
ENDROOT
BRANCH   1   2
ATOM      2  O   UNL A   1      32.551  34.890  28.916  1.00  0.00    -0.374 OA
BRANCH   2   3
ATOM      3  C   UNL A   1      33.115  36.091  29.439  1.00  0.00     0.202 C 
BRANCH   3   4
ATOM      4  C   UNL A   1      32.845  36.380  30.919  1.00  0.00     0.261 C 
BRANCH   4   5
ATOM      5  O   UNL A   1      32.833  35.186  31.725  1.00  0.00    -0.463 OA
BRANCH   5   6
ATOM      6  C   UNL A   1      33.944  34.980  32.481  1.00  0.00     0.310 C 
ATOM      7  O   UNL A   1      34.884  35.765  32.560  1.00  0.00    -0.252 OA
BRANCH   6   8
ATOM      8  C   UNL A   1      33.973  33.656  33.207  1.00  0.00     0.158 C 
BRANCH   8   9
ATOM      9  C   UNL A   1      35.305  33.064  33.609  1.00  0.00    -0.036 A 
ATOM     10  C   UNL A   1      39.285  31.593  34.513  1.00  0.00     0.045 C 
ATOM     11  C   UNL A   1      37.902  32.111  34.236  1.00  0.00    -0.037 A 
ATOM     12  C   UNL A   1      37.209  31.637  33.112  1.00  0.00     0.005 A 
ATOM     13  C   UNL A   1      37.262  33.043  35.064  1.00  0.00     0.021 A 
ATOM     14  C   UNL A   1      35.926  32.103  32.805  1.00  0.00     0.004 A 
ATOM     15  C   UNL A   1      35.983  33.522  34.747  1.00  0.00     0.020 A 
ATOM     16  Br  UNL A   1      38.087  33.722  36.636  1.00  0.00    -0.051 Br
ENDBRANCH   8   9
ENDBRANCH   6   8
ENDBRANCH   5   6
ENDBRANCH   4   5
ENDBRANCH   3   4
ENDBRANCH   2   3
ENDBRANCH   1   2
BRANCH   1  17
ATOM     17  C   UNL A   1      34.206  33.006  28.744  1.00  0.00     0.261 C 
BRANCH  17  18
ATOM     18  O   UNL A   1      34.893  32.176  27.789  1.00  0.00    -0.460 OA
BRANCH  18  19
ATOM     19  C   UNL A   1      34.737  30.845  27.972  1.00  0.00     0.338 C 
ATOM     20  O   UNL A   1      33.721  30.184  27.807  1.00  0.00    -0.246 OA
BRANCH  19  21
ATOM     21  C   UNL A   1      36.043  30.216  28.236  1.00  0.00     0.060 A 
ATOM     22  C   UNL A   1      36.255  29.675  29.511  1.00  0.00     0.016 A 
ATOM     23  C   UNL A   1      37.064  30.211  27.284  1.00  0.00     0.016 A 
ATOM     24  C   UNL A   1      37.503  29.152  29.849  1.00  0.00     0.010 A 
ATOM     25  C   UNL A   1      38.319  29.699  27.631  1.00  0.00     0.010 A 
ATOM     26  C   UNL A   1      38.551  29.187  28.921  1.00  0.00    -0.014 A 
BRANCH  26  27
ATOM     27  C   UNL A   1      39.915  28.775  29.331  1.00  0.00     0.031 A 
ATOM     28  C   UNL A   1      40.727  29.683  30.209  1.00  0.00     0.074 A 
ATOM     29  C   UNL A   1      40.420  27.596  28.926  1.00  0.00     0.049 A 
ATOM     30  N   UNL A   1      41.960  29.546  30.628  1.00  0.00    -0.248 NA
ATOM     31  C   UNL A   1      40.063  30.907  30.679  1.00  0.00     0.031 C 
ATOM     32  C   UNL A   1      39.711  26.613  28.109  1.00  0.00     0.029 A 
ATOM     33  N   UNL A   1      41.653  27.033  29.137  1.00  0.00    -0.354 N 
ATOM     34  C   UNL A   1      42.219  30.667  31.407  1.00  0.00     0.074 A 
ATOM     35  C   UNL A   1      41.025  31.485  31.384  1.00  0.00     0.031 C 
ATOM     36  C   UNL A   1      40.528  25.575  27.871  1.00  0.00     0.029 A 
ATOM     37  C   UNL A   1      41.827  25.836  28.487  1.00  0.00     0.049 A 
ATOM     38  H   UNL A   1      42.345  27.447  29.702  1.00  0.00     0.167 HD
ATOM     39  C   UNL A   1      43.351  30.979  32.083  1.00  0.00     0.037 A 
ATOM     40  C   UNL A   1      42.923  25.059  28.376  1.00  0.00     0.037 A 
ATOM     41  C   UNL A   1      44.536  30.162  32.105  1.00  0.00     0.049 A 
ATOM     42  C   UNL A   1      44.199  25.477  29.060  1.00  0.00     0.074 A 
ATOM     43  C   UNL A   1      45.717  30.373  32.794  1.00  0.00     0.029 A 
ATOM     44  N   UNL A   1      44.693  28.983  31.391  1.00  0.00    -0.354 N 
ATOM     45  N   UNL A   1      44.426  26.519  29.821  1.00  0.00    -0.248 NA
ATOM     46  C   UNL A   1      45.372  24.614  28.861  1.00  0.00     0.031 C 
ATOM     47  C   UNL A   1      46.610  29.350  32.454  1.00  0.00     0.029 A 
ATOM     48  C   UNL A   1      45.967  28.476  31.590  1.00  0.00     0.049 A 
ATOM     49  H   UNL A   1      44.001  28.567  30.827  1.00  0.00     0.167 HD
ATOM     50  C   UNL A   1      45.757  26.431  30.204  1.00  0.00     0.074 A 
ATOM     51  C   UNL A   1      46.285  25.222  29.606  1.00  0.00     0.031 C 
ATOM     52  C   UNL A   1      46.479  27.276  30.980  1.00  0.00     0.037 A 
BRANCH  39  53
ATOM     53  C   UNL A   1      43.375  32.274  32.839  1.00  0.00     0.064 A 
ATOM     54  C   UNL A   1      43.760  33.477  32.228  1.00  0.00     0.173 A 
ATOM     55  C   UNL A   1      42.965  32.320  34.180  1.00  0.00     0.173 A 
ATOM     56  F   UNL A   1      44.171  33.485  30.951  1.00  0.00    -0.203 F 
ATOM     57  C   UNL A   1      43.751  34.675  32.939  1.00  0.00     0.198 A 
ATOM     58  C   UNL A   1      42.933  33.523  34.880  1.00  0.00     0.198 A 
ATOM     59  F   UNL A   1      42.583  31.198  34.808  1.00  0.00    -0.203 F 
ATOM     60  F   UNL A   1      44.157  35.806  32.346  1.00  0.00    -0.200 F 
ATOM     61  C   UNL A   1      43.331  34.698  34.261  1.00  0.00     0.200 A 
ATOM     62  F   UNL A   1      42.517  33.545  36.153  1.00  0.00    -0.200 F 
ATOM     63  F   UNL A   1      43.316  35.853  34.940  1.00  0.00    -0.200 F 
ENDBRANCH  39  53
BRANCH  40  64
ATOM     64  C   UNL A   1      42.873  23.823  27.552  1.00  0.00     0.064 A 
ATOM     65  C   UNL A   1      43.206  23.845  26.192  1.00  0.00     0.173 A 
ATOM     66  C   UNL A   1      42.476  22.597  28.109  1.00  0.00     0.173 A 
ATOM     67  F   UNL A   1      43.565  24.998  25.609  1.00  0.00    -0.203 F 
ATOM     68  C   UNL A   1      43.134  22.690  25.415  1.00  0.00     0.198 A 
ATOM     69  C   UNL A   1      42.430  21.438  27.337  1.00  0.00     0.198 A 
ATOM     70  F   UNL A   1      42.141  22.524  29.405  1.00  0.00    -0.203 F 
ATOM     71  F   UNL A   1      43.418  22.746  24.107  1.00  0.00    -0.200 F 
ATOM     72  C   UNL A   1      42.753  21.486  25.990  1.00  0.00     0.200 A 
ATOM     73  F   UNL A   1      42.071  20.276  27.900  1.00  0.00    -0.200 F 
ATOM     74  F   UNL A   1      42.688  20.376  25.244  1.00  0.00    -0.200 F 
ENDBRANCH  40  64
BRANCH  52  75
ATOM     75  C   UNL A   1      47.916  26.925  31.234  1.00  0.00     0.064 A 
ATOM     76  C   UNL A   1      48.280  26.027  32.248  1.00  0.00     0.173 A 
ATOM     77  C   UNL A   1      48.934  27.447  30.421  1.00  0.00     0.173 A 
ATOM     78  F   UNL A   1      47.345  25.514  33.063  1.00  0.00    -0.203 F 
ATOM     79  C   UNL A   1      49.613  25.675  32.447  1.00  0.00     0.198 A 
ATOM     80  C   UNL A   1      50.261  27.071  30.604  1.00  0.00     0.198 A 
ATOM     81  F   UNL A   1      48.636  28.306  29.434  1.00  0.00    -0.203 F 
ATOM     82  F   UNL A   1      49.942  24.842  33.445  1.00  0.00    -0.200 F 
ATOM     83  C   UNL A   1      50.600  26.190  31.620  1.00  0.00     0.200 A 
ATOM     84  F   UNL A   1      51.212  27.560  29.797  1.00  0.00    -0.200 F 
ATOM     85  F   UNL A   1      51.880  25.839  31.805  1.00  0.00    -0.200 F 
ENDBRANCH  52  75
ENDBRANCH  26  27
ENDBRANCH  19  21
ENDBRANCH  18  19
ENDBRANCH  17  18
ENDBRANCH   1  17
TORSDOF 15
ENDMDL
