MODEL 1
REMARK VINA RESULT:     -11.7      0.000      0.000
REMARK SMILES C[C@H](NC(=O)N1CC[C@@H](C(=O)OCCOCCOC(=O)c2ccc(-c3c4nc(c(-c5c(F)c(F)c(F)c(F)c5F)c5ccc([nH]5)c(-c5c(F)c(F)c(F)c(F)c5F)c5nc(c(-c6c(F)c(F)c(F)c(F)c6F)c6ccc3[nH]6)C=C5)C=C4)cc2)[C@H]1C)c1ccc(Cl)cc1
REMARK SMILES IDX 14 1 13 2 12 3 10 4 11 5 9 6 6 7 7 8 84 9 8 10 85 11 4 12
REMARK SMILES IDX 3 13 5 15 2 16 1 17 86 18 87 19 92 20 88 21 91 22 89 23
REMARK SMILES IDX 90 24 15 25 16 26 17 27 18 28 19 29 20 30 21 31 22 32 83 33
REMARK SMILES IDX 23 34 82 35 24 36 25 37 26 38 76 39 27 40 81 41 75 42 77 43
REMARK SMILES IDX 28 44 80 45 74 46 73 47 29 49 61 50 41 51 60 52 42 53 45 54
REMARK SMILES IDX 59 55 78 56 43 57 44 58 58 60 79 61 46 62 30 63 31 64 39 65
REMARK SMILES IDX 32 66 33 67 37 68 40 69 34 70 35 71 38 72 36 73 62 74 63 75
REMARK SMILES IDX 71 76 64 77 65 78 69 79 72 80 66 81 67 82 70 83 68 84 47 85
REMARK SMILES IDX 48 86 56 87 49 88 50 89 54 90 57 91 51 92 52 93 55 94 53 95
REMARK H PARENT 3 14 77 48 45 59
REMARK Flexibility Score: inf
ROOT
ATOM      1  C   UNL A   1      36.462  21.500  25.419  1.00  0.00     0.202 C 
ENDROOT
BRANCH   1   2
ATOM      2  C   UNL A   1      35.567  20.329  25.001  1.00  0.00     0.261 C 
BRANCH   2   3
ATOM      3  O   UNL A   1      34.295  20.809  24.525  1.00  0.00    -0.463 OA
BRANCH   3   4
ATOM      4  C   UNL A   1      33.211  20.442  25.248  1.00  0.00     0.311 C 
ATOM      5  O   UNL A   1      33.090  19.368  25.823  1.00  0.00    -0.252 OA
BRANCH   4   6
ATOM      6  C   UNL A   1      32.135  21.501  25.282  1.00  0.00     0.123 C 
ATOM      7  N   UNL A   1      31.384  23.703  25.773  1.00  0.00    -0.321 N 
ATOM      8  C   UNL A   1      31.031  23.369  24.404  1.00  0.00     0.122 C 
ATOM      9  C   UNL A   1      32.110  22.571  26.396  1.00  0.00     0.098 C 
ATOM     10  C   UNL A   1      32.048  22.318  24.002  1.00  0.00     0.039 C 
ATOM     11  C   UNL A   1      33.445  23.035  26.957  1.00  0.00     0.032 C 
BRANCH   7  12
ATOM     12  C   UNL A   1      30.509  24.472  26.498  1.00  0.00     0.318 C 
ATOM     13  N   UNL A   1      30.601  25.819  26.366  1.00  0.00    -0.331 N 
ATOM     14  H   UNL A   1      30.128  26.349  27.047  1.00  0.00     0.165 HD
ATOM     15  O   UNL A   1      29.622  23.994  27.201  1.00  0.00    -0.249 OA
BRANCH  13  16
ATOM     16  C   UNL A   1      31.308  26.583  25.349  1.00  0.00     0.111 C 
ATOM     17  C   UNL A   1      30.361  26.962  24.211  1.00  0.00     0.036 C 
BRANCH  16  18
ATOM     18  C   UNL A   1      32.005  27.816  25.909  1.00  0.00    -0.026 A 
ATOM     19  C   UNL A   1      33.188  27.647  26.648  1.00  0.00     0.007 A 
ATOM     20  C   UNL A   1      31.499  29.119  25.755  1.00  0.00     0.007 A 
ATOM     21  C   UNL A   1      33.855  28.744  27.191  1.00  0.00     0.021 A 
ATOM     22  C   UNL A   1      32.152  30.216  26.324  1.00  0.00     0.021 A 
ATOM     23  C   UNL A   1      33.333  30.025  27.032  1.00  0.00     0.041 A 
ATOM     24  Cl  UNL A   1      34.142  31.373  27.733  1.00  0.00    -0.084 Cl
ENDBRANCH  16  18
ENDBRANCH  13  16
ENDBRANCH   7  12
ENDBRANCH   4   6
ENDBRANCH   3   4
ENDBRANCH   2   3
ENDBRANCH   1   2
BRANCH   1  25
ATOM     25  O   UNL A   1      37.781  21.488  24.871  1.00  0.00    -0.374 OA
BRANCH  25  26
ATOM     26  C   UNL A   1      38.852  21.151  25.748  1.00  0.00     0.202 C 
BRANCH  26  27
ATOM     27  C   UNL A   1      39.476  19.756  25.573  1.00  0.00     0.261 C 
BRANCH  27  28
ATOM     28  O   UNL A   1      40.377  19.394  26.630  1.00  0.00    -0.460 OA
BRANCH  28  29
ATOM     29  C   UNL A   1      41.675  19.281  26.257  1.00  0.00     0.338 C 
ATOM     30  O   UNL A   1      42.218  18.310  25.751  1.00  0.00    -0.246 OA
BRANCH  29  31
ATOM     31  C   UNL A   1      42.352  20.585  26.411  1.00  0.00     0.060 A 
ATOM     32  C   UNL A   1      42.426  21.160  27.685  1.00  0.00     0.016 A 
ATOM     33  C   UNL A   1      42.874  21.261  25.311  1.00  0.00     0.016 A 
ATOM     34  C   UNL A   1      42.970  22.437  27.846  1.00  0.00     0.010 A 
ATOM     35  C   UNL A   1      43.442  22.528  25.479  1.00  0.00     0.010 A 
ATOM     36  C   UNL A   1      43.453  23.150  26.737  1.00  0.00    -0.014 A 
BRANCH  36  37
ATOM     37  C   UNL A   1      43.869  24.575  26.875  1.00  0.00     0.031 A 
ATOM     38  C   UNL A   1      42.877  25.609  27.348  1.00  0.00     0.074 A 
ATOM     39  C   UNL A   1      45.128  24.955  26.581  1.00  0.00     0.049 A 
ATOM     40  N   UNL A   1      43.061  26.883  27.602  1.00  0.00    -0.248 NA
ATOM     41  C   UNL A   1      41.488  25.163  27.530  1.00  0.00     0.031 C 
ATOM     42  C   UNL A   1      46.169  24.080  26.045  1.00  0.00     0.029 A 
ATOM     43  N   UNL A   1      45.742  26.178  26.692  1.00  0.00    -0.354 N 
ATOM     44  C   UNL A   1      41.814  27.383  27.958  1.00  0.00     0.074 A 
ATOM     45  C   UNL A   1      40.870  26.298  27.815  1.00  0.00     0.031 C 
ATOM     46  C   UNL A   1      47.303  24.787  25.902  1.00  0.00     0.029 A 
ATOM     47  C   UNL A   1      47.065  26.168  26.321  1.00  0.00     0.049 A 
ATOM     48  H   UNL A   1      45.280  26.987  27.009  1.00  0.00     0.167 HD
ATOM     49  C   UNL A   1      41.485  28.621  28.399  1.00  0.00     0.037 A 
ATOM     50  C   UNL A   1      47.985  27.153  26.329  1.00  0.00     0.037 A 
ATOM     51  C   UNL A   1      42.427  29.697  28.567  1.00  0.00     0.049 A 
ATOM     52  C   UNL A   1      47.611  28.517  26.849  1.00  0.00     0.074 A 
ATOM     53  C   UNL A   1      42.210  30.961  29.087  1.00  0.00     0.029 A 
ATOM     54  N   UNL A   1      43.764  29.638  28.204  1.00  0.00    -0.354 N 
ATOM     55  N   UNL A   1      46.454  28.945  27.293  1.00  0.00    -0.248 NA
ATOM     56  C   UNL A   1      48.677  29.528  26.889  1.00  0.00     0.031 C 
ATOM     57  C   UNL A   1      43.402  31.688  28.980  1.00  0.00     0.029 A 
ATOM     58  C   UNL A   1      44.378  30.854  28.459  1.00  0.00     0.049 A 
ATOM     59  H   UNL A   1      44.211  28.849  27.821  1.00  0.00     0.167 HD
ATOM     60  C   UNL A   1      46.659  30.260  27.693  1.00  0.00     0.074 A 
ATOM     61  C   UNL A   1      48.055  30.555  27.451  1.00  0.00     0.031 C 
ATOM     62  C   UNL A   1      45.770  31.141  28.219  1.00  0.00     0.037 A 
BRANCH  49  63
ATOM     63  C   UNL A   1      40.040  28.880  28.734  1.00  0.00     0.064 A 
ATOM     64  C   UNL A   1      39.122  29.317  27.765  1.00  0.00     0.173 A 
ATOM     65  C   UNL A   1      39.562  28.670  30.036  1.00  0.00     0.173 A 
ATOM     66  F   UNL A   1      39.524  29.539  26.504  1.00  0.00    -0.203 F 
ATOM     67  C   UNL A   1      37.796  29.579  28.098  1.00  0.00     0.198 A 
ATOM     68  C   UNL A   1      38.225  28.895  30.356  1.00  0.00     0.198 A 
ATOM     69  F   UNL A   1      40.389  28.241  31.002  1.00  0.00    -0.203 F 
ATOM     70  F   UNL A   1      36.957  30.061  27.171  1.00  0.00    -0.200 F 
ATOM     71  C   UNL A   1      37.346  29.362  29.391  1.00  0.00     0.200 A 
ATOM     72  F   UNL A   1      37.788  28.665  31.603  1.00  0.00    -0.200 F 
ATOM     73  F   UNL A   1      36.068  29.610  29.709  1.00  0.00    -0.200 F 
ENDBRANCH  49  63
BRANCH  50  74
ATOM     74  C   UNL A   1      49.372  26.865  25.874  1.00  0.00     0.064 A 
ATOM     75  C   UNL A   1      49.779  27.152  24.564  1.00  0.00     0.173 A 
ATOM     76  C   UNL A   1      50.322  26.312  26.746  1.00  0.00     0.173 A 
ATOM     77  F   UNL A   1      48.902  27.663  23.687  1.00  0.00    -0.203 F 
ATOM     78  C   UNL A   1      51.079  26.885  24.138  1.00  0.00     0.198 A 
ATOM     79  C   UNL A   1      51.630  26.072  26.328  1.00  0.00     0.198 A 
ATOM     80  F   UNL A   1      49.985  26.024  28.011  1.00  0.00    -0.203 F 
ATOM     81  F   UNL A   1      51.430  27.133  22.869  1.00  0.00    -0.200 F 
ATOM     82  C   UNL A   1      52.005  26.353  25.022  1.00  0.00     0.200 A 
ATOM     83  F   UNL A   1      52.526  25.575  27.190  1.00  0.00    -0.200 F 
ATOM     84  F   UNL A   1      53.259  26.109  24.617  1.00  0.00    -0.200 F 
ENDBRANCH  50  74
BRANCH  62  85
ATOM     85  C   UNL A   1      46.282  32.499  28.609  1.00  0.00     0.064 A 
ATOM     86  C   UNL A   1      46.302  33.573  27.707  1.00  0.00     0.173 A 
ATOM     87  C   UNL A   1      46.717  32.740  29.922  1.00  0.00     0.173 A 
ATOM     88  F   UNL A   1      45.907  33.396  26.437  1.00  0.00    -0.203 F 
ATOM     89  C   UNL A   1      46.766  34.828  28.096  1.00  0.00     0.198 A 
ATOM     90  C   UNL A   1      47.148  34.004  30.317  1.00  0.00     0.198 A 
ATOM     91  F   UNL A   1      46.711  31.752  30.829  1.00  0.00    -0.203 F 
ATOM     92  F   UNL A   1      46.825  35.825  27.202  1.00  0.00    -0.200 F 
ATOM     93  C   UNL A   1      47.180  35.044  29.402  1.00  0.00     0.200 A 
ATOM     94  F   UNL A   1      47.530  34.214  31.584  1.00  0.00    -0.200 F 
ATOM     95  F   UNL A   1      47.618  36.255  29.776  1.00  0.00    -0.200 F 
ENDBRANCH  62  85
ENDBRANCH  36  37
ENDBRANCH  29  31
ENDBRANCH  28  29
ENDBRANCH  27  28
ENDBRANCH  26  27
ENDBRANCH  25  26
ENDBRANCH   1  25
TORSDOF 17
ENDMDL
MODEL 2
REMARK VINA RESULT:     -11.4      1.259      7.244
REMARK SMILES C[C@H](NC(=O)N1CC[C@@H](C(=O)OCCOCCOC(=O)c2ccc(-c3c4nc(c(-c5c(F)c(F)c(F)c(F)c5F)c5ccc([nH]5)c(-c5c(F)c(F)c(F)c(F)c5F)c5nc(c(-c6c(F)c(F)c(F)c(F)c6F)c6ccc3[nH]6)C=C5)C=C4)cc2)[C@H]1C)c1ccc(Cl)cc1
REMARK SMILES IDX 14 1 13 2 12 3 10 4 11 5 9 6 6 7 7 8 84 9 8 10 85 11 4 12
REMARK SMILES IDX 3 13 5 15 2 16 1 17 86 18 87 19 92 20 88 21 91 22 89 23
REMARK SMILES IDX 90 24 15 25 16 26 17 27 18 28 19 29 20 30 21 31 22 32 83 33
REMARK SMILES IDX 23 34 82 35 24 36 25 37 26 38 76 39 27 40 81 41 75 42 77 43
REMARK SMILES IDX 28 44 80 45 74 46 73 47 29 49 61 50 41 51 60 52 42 53 45 54
REMARK SMILES IDX 59 55 78 56 43 57 44 58 58 60 79 61 46 62 30 63 31 64 39 65
REMARK SMILES IDX 32 66 33 67 37 68 40 69 34 70 35 71 38 72 36 73 62 74 63 75
REMARK SMILES IDX 71 76 64 77 65 78 69 79 72 80 66 81 67 82 70 83 68 84 47 85
REMARK SMILES IDX 48 86 56 87 49 88 50 89 54 90 57 91 51 92 52 93 55 94 53 95
REMARK H PARENT 3 14 77 48 45 59
REMARK Flexibility Score: inf
ROOT
ATOM      1  C   UNL A   1      38.947  23.235  26.213  1.00  0.00     0.202 C 
ENDROOT
BRANCH   1   2
ATOM      2  C   UNL A   1      37.609  23.975  26.124  1.00  0.00     0.261 C 
BRANCH   2   3
ATOM      3  O   UNL A   1      36.510  23.048  26.234  1.00  0.00    -0.463 OA
BRANCH   3   4
ATOM      4  C   UNL A   1      35.762  22.876  25.120  1.00  0.00     0.311 C 
ATOM      5  O   UNL A   1      36.211  22.818  23.983  1.00  0.00    -0.252 OA
BRANCH   4   6
ATOM      6  C   UNL A   1      34.285  22.759  25.410  1.00  0.00     0.123 C 
ATOM      7  N   UNL A   1      32.115  23.708  25.623  1.00  0.00    -0.321 N 
ATOM      8  C   UNL A   1      32.049  22.548  24.750  1.00  0.00     0.122 C 
ATOM      9  C   UNL A   1      33.511  23.923  26.070  1.00  0.00     0.098 C 
ATOM     10  C   UNL A   1      33.450  22.428  24.182  1.00  0.00     0.039 C 
ATOM     11  C   UNL A   1      33.964  25.339  25.751  1.00  0.00     0.032 C 
BRANCH   7  12
ATOM     12  C   UNL A   1      31.055  23.949  26.460  1.00  0.00     0.318 C 
ATOM     13  N   UNL A   1      30.426  25.146  26.346  1.00  0.00    -0.331 N 
ATOM     14  H   UNL A   1      29.826  25.386  27.088  1.00  0.00     0.165 HD
ATOM     15  O   UNL A   1      30.623  23.114  27.251  1.00  0.00    -0.249 OA
BRANCH  13  16
ATOM     16  C   UNL A   1      30.523  26.121  25.270  1.00  0.00     0.111 C 
ATOM     17  C   UNL A   1      29.159  26.328  24.613  1.00  0.00     0.036 C 
BRANCH  16  18
ATOM     18  C   UNL A   1      31.115  27.449  25.724  1.00  0.00    -0.026 A 
ATOM     19  C   UNL A   1      31.404  27.630  27.087  1.00  0.00     0.007 A 
ATOM     20  C   UNL A   1      31.352  28.522  24.846  1.00  0.00     0.007 A 
ATOM     21  C   UNL A   1      31.934  28.833  27.551  1.00  0.00     0.021 A 
ATOM     22  C   UNL A   1      31.857  29.738  25.317  1.00  0.00     0.021 A 
ATOM     23  C   UNL A   1      32.155  29.885  26.667  1.00  0.00     0.041 A 
ATOM     24  Cl  UNL A   1      32.779  31.379  27.251  1.00  0.00    -0.084 Cl
ENDBRANCH  16  18
ENDBRANCH  13  16
ENDBRANCH   7  12
ENDBRANCH   4   6
ENDBRANCH   3   4
ENDBRANCH   2   3
ENDBRANCH   1   2
BRANCH   1  25
ATOM     25  O   UNL A   1      38.855  21.839  26.502  1.00  0.00    -0.374 OA
BRANCH  25  26
ATOM     26  C   UNL A   1      38.878  20.939  25.397  1.00  0.00     0.202 C 
BRANCH  26  27
ATOM     27  C   UNL A   1      39.443  19.533  25.665  1.00  0.00     0.261 C 
BRANCH  27  28
ATOM     28  O   UNL A   1      40.508  19.517  26.629  1.00  0.00    -0.460 OA
BRANCH  28  29
ATOM     29  C   UNL A   1      41.753  19.601  26.100  1.00  0.00     0.338 C 
ATOM     30  O   UNL A   1      42.311  18.781  25.386  1.00  0.00    -0.246 OA
BRANCH  29  31
ATOM     31  C   UNL A   1      42.327  20.931  26.390  1.00  0.00     0.060 A 
ATOM     32  C   UNL A   1      42.632  21.260  27.714  1.00  0.00     0.016 A 
ATOM     33  C   UNL A   1      42.528  21.866  25.376  1.00  0.00     0.016 A 
ATOM     34  C   UNL A   1      43.081  22.545  28.031  1.00  0.00     0.010 A 
ATOM     35  C   UNL A   1      43.002  23.142  25.692  1.00  0.00     0.010 A 
ATOM     36  C   UNL A   1      43.238  23.512  27.025  1.00  0.00    -0.014 A 
BRANCH  36  37
ATOM     37  C   UNL A   1      43.545  24.928  27.377  1.00  0.00     0.031 A 
ATOM     38  C   UNL A   1      44.918  25.493  27.109  1.00  0.00     0.074 A 
ATOM     39  C   UNL A   1      42.606  25.716  27.936  1.00  0.00     0.049 A 
ATOM     40  N   UNL A   1      45.361  26.717  27.275  1.00  0.00    -0.248 NA
ATOM     41  C   UNL A   1      45.938  24.554  26.620  1.00  0.00     0.031 C 
ATOM     42  C   UNL A   1      41.262  25.286  28.318  1.00  0.00     0.029 A 
ATOM     43  N   UNL A   1      42.641  27.046  28.279  1.00  0.00    -0.354 N 
ATOM     44  C   UNL A   1      46.706  26.684  26.923  1.00  0.00     0.074 A 
ATOM     45  C   UNL A   1      47.025  25.310  26.608  1.00  0.00     0.031 C 
ATOM     46  C   UNL A   1      40.591  26.338  28.815  1.00  0.00     0.029 A 
ATOM     47  C   UNL A   1      41.460  27.513  28.801  1.00  0.00     0.049 A 
ATOM     48  H   UNL A   1      43.438  27.612  28.161  1.00  0.00     0.167 HD
ATOM     49  C   UNL A   1      47.589  27.708  26.834  1.00  0.00     0.037 A 
ATOM     50  C   UNL A   1      41.112  28.750  29.211  1.00  0.00     0.037 A 
ATOM     51  C   UNL A   1      47.268  29.081  27.122  1.00  0.00     0.049 A 
ATOM     52  C   UNL A   1      42.097  29.883  29.079  1.00  0.00     0.074 A 
ATOM     53  C   UNL A   1      48.067  30.202  26.981  1.00  0.00     0.029 A 
ATOM     54  N   UNL A   1      46.052  29.518  27.625  1.00  0.00    -0.354 N 
ATOM     55  N   UNL A   1      43.330  29.860  28.634  1.00  0.00    -0.248 NA
ATOM     56  C   UNL A   1      41.633  31.217  29.486  1.00  0.00     0.031 C 
ATOM     57  C   UNL A   1      47.355  31.309  27.458  1.00  0.00     0.029 A 
ATOM     58  C   UNL A   1      46.088  30.888  27.829  1.00  0.00     0.049 A 
ATOM     59  H   UNL A   1      45.276  28.939  27.810  1.00  0.00     0.167 HD
ATOM     60  C   UNL A   1      43.777  31.175  28.678  1.00  0.00     0.074 A 
ATOM     61  C   UNL A   1      42.679  31.972  29.180  1.00  0.00     0.031 C 
ATOM     62  C   UNL A   1      44.989  31.677  28.327  1.00  0.00     0.037 A 
BRANCH  49  63
ATOM     63  C   UNL A   1      48.994  27.379  26.404  1.00  0.00     0.064 A 
ATOM     64  C   UNL A   1      49.364  27.336  25.050  1.00  0.00     0.173 A 
ATOM     65  C   UNL A   1      49.989  27.120  27.359  1.00  0.00     0.173 A 
ATOM     66  F   UNL A   1      48.453  27.571  24.092  1.00  0.00    -0.203 F 
ATOM     67  C   UNL A   1      50.661  27.002  24.669  1.00  0.00     0.198 A 
ATOM     68  C   UNL A   1      51.295  26.825  26.975  1.00  0.00     0.198 A 
ATOM     69  F   UNL A   1      49.698  27.158  28.668  1.00  0.00    -0.203 F 
ATOM     70  F   UNL A   1      50.970  26.901  23.369  1.00  0.00    -0.200 F 
ATOM     71  C   UNL A   1      51.627  26.753  25.631  1.00  0.00     0.200 A 
ATOM     72  F   UNL A   1      52.233  26.604  27.908  1.00  0.00    -0.200 F 
ATOM     73  F   UNL A   1      52.876  26.435  25.263  1.00  0.00    -0.200 F 
ENDBRANCH  49  63
BRANCH  50  74
ATOM     74  C   UNL A   1      39.742  28.989  29.738  1.00  0.00     0.064 A 
ATOM     75  C   UNL A   1      38.699  29.391  28.892  1.00  0.00     0.173 A 
ATOM     76  C   UNL A   1      39.444  28.805  31.097  1.00  0.00     0.173 A 
ATOM     77  F   UNL A   1      38.938  29.601  27.589  1.00  0.00    -0.203 F 
ATOM     78  C   UNL A   1      37.415  29.613  29.386  1.00  0.00     0.198 A 
ATOM     79  C   UNL A   1      38.153  28.998  31.584  1.00  0.00     0.198 A 
ATOM     80  F   UNL A   1      40.404  28.414  31.948  1.00  0.00    -0.203 F 
ATOM     81  F   UNL A   1      36.447  30.034  28.561  1.00  0.00    -0.200 F 
ATOM     82  C   UNL A   1      37.141  29.408  30.729  1.00  0.00     0.200 A 
ATOM     83  F   UNL A   1      37.888  28.781  32.880  1.00  0.00    -0.200 F 
ATOM     84  F   UNL A   1      35.903  29.608  31.201  1.00  0.00    -0.200 F 
ENDBRANCH  50  74
BRANCH  62  85
ATOM     85  C   UNL A   1      45.186  33.163  28.433  1.00  0.00     0.064 A 
ATOM     86  C   UNL A   1      44.795  34.039  27.410  1.00  0.00     0.173 A 
ATOM     87  C   UNL A   1      45.734  33.722  29.598  1.00  0.00     0.173 A 
ATOM     88  F   UNL A   1      44.274  33.558  26.271  1.00  0.00    -0.203 F 
ATOM     89  C   UNL A   1      44.972  35.415  27.538  1.00  0.00     0.198 A 
ATOM     90  C   UNL A   1      45.879  35.100  29.737  1.00  0.00     0.198 A 
ATOM     91  F   UNL A   1      46.118  32.932  30.613  1.00  0.00    -0.203 F 
ATOM     92  F   UNL A   1      44.639  36.229  26.525  1.00  0.00    -0.200 F 
ATOM     93  C   UNL A   1      45.506  35.945  28.703  1.00  0.00     0.200 A 
ATOM     94  F   UNL A   1      46.378  35.609  30.871  1.00  0.00    -0.200 F 
ATOM     95  F   UNL A   1      45.668  37.269  28.827  1.00  0.00    -0.200 F 
ENDBRANCH  62  85
ENDBRANCH  36  37
ENDBRANCH  29  31
ENDBRANCH  28  29
ENDBRANCH  27  28
ENDBRANCH  26  27
ENDBRANCH  25  26
ENDBRANCH   1  25
TORSDOF 17
ENDMDL
MODEL 3
REMARK VINA RESULT:     -11.4      1.434      7.432
REMARK SMILES C[C@H](NC(=O)N1CC[C@@H](C(=O)OCCOCCOC(=O)c2ccc(-c3c4nc(c(-c5c(F)c(F)c(F)c(F)c5F)c5ccc([nH]5)c(-c5c(F)c(F)c(F)c(F)c5F)c5nc(c(-c6c(F)c(F)c(F)c(F)c6F)c6ccc3[nH]6)C=C5)C=C4)cc2)[C@H]1C)c1ccc(Cl)cc1
REMARK SMILES IDX 14 1 13 2 12 3 10 4 11 5 9 6 6 7 7 8 84 9 8 10 85 11 4 12
REMARK SMILES IDX 3 13 5 15 2 16 1 17 86 18 87 19 92 20 88 21 91 22 89 23
REMARK SMILES IDX 90 24 15 25 16 26 17 27 18 28 19 29 20 30 21 31 22 32 83 33
REMARK SMILES IDX 23 34 82 35 24 36 25 37 26 38 76 39 27 40 81 41 75 42 77 43
REMARK SMILES IDX 28 44 80 45 74 46 73 47 29 49 61 50 41 51 60 52 42 53 45 54
REMARK SMILES IDX 59 55 78 56 43 57 44 58 58 60 79 61 46 62 30 63 31 64 39 65
REMARK SMILES IDX 32 66 33 67 37 68 40 69 34 70 35 71 38 72 36 73 62 74 63 75
REMARK SMILES IDX 71 76 64 77 65 78 69 79 72 80 66 81 67 82 70 83 68 84 47 85
REMARK SMILES IDX 48 86 56 87 49 88 50 89 54 90 57 91 51 92 52 93 55 94 53 95
REMARK H PARENT 3 14 77 48 45 59
REMARK Flexibility Score: inf
ROOT
ATOM      1  C   UNL A   1      38.802  23.142  26.118  1.00  0.00     0.202 C 
ENDROOT
BRANCH   1   2
ATOM      2  C   UNL A   1      37.375  23.700  26.111  1.00  0.00     0.261 C 
BRANCH   2   3
ATOM      3  O   UNL A   1      36.456  22.731  25.571  1.00  0.00    -0.463 OA
BRANCH   3   4
ATOM      4  C   UNL A   1      35.932  23.018  24.357  1.00  0.00     0.311 C 
ATOM      5  O   UNL A   1      36.589  23.346  23.377  1.00  0.00    -0.252 OA
BRANCH   4   6
ATOM      6  C   UNL A   1      34.428  22.896  24.315  1.00  0.00     0.123 C 
ATOM      7  N   UNL A   1      32.249  23.810  24.578  1.00  0.00    -0.321 N 
ATOM      8  C   UNL A   1      32.350  23.176  23.274  1.00  0.00     0.122 C 
ATOM      9  C   UNL A   1      33.540  23.694  25.296  1.00  0.00     0.098 C 
ATOM     10  C   UNL A   1      33.832  23.218  22.953  1.00  0.00     0.039 C 
ATOM     11  C   UNL A   1      34.033  25.063  25.738  1.00  0.00     0.032 C 
BRANCH   7  12
ATOM     12  C   UNL A   1      31.054  23.729  25.246  1.00  0.00     0.318 C 
ATOM     13  N   UNL A   1      30.284  24.846  25.293  1.00  0.00    -0.331 N 
ATOM     14  H   UNL A   1      29.553  24.835  25.952  1.00  0.00     0.165 HD
ATOM     15  O   UNL A   1      30.632  22.686  25.741  1.00  0.00    -0.249 OA
BRANCH  13  16
ATOM     16  C   UNL A   1      30.400  26.059  24.497  1.00  0.00     0.111 C 
ATOM     17  C   UNL A   1      29.035  26.466  23.943  1.00  0.00     0.036 C 
BRANCH  16  18
ATOM     18  C   UNL A   1      31.042  27.211  25.260  1.00  0.00    -0.026 A 
ATOM     19  C   UNL A   1      31.484  28.334  24.540  1.00  0.00     0.007 A 
ATOM     20  C   UNL A   1      31.247  27.189  26.651  1.00  0.00     0.007 A 
ATOM     21  C   UNL A   1      32.089  29.408  25.193  1.00  0.00     0.021 A 
ATOM     22  C   UNL A   1      31.878  28.254  27.301  1.00  0.00     0.021 A 
ATOM     23  C   UNL A   1      32.288  29.363  26.570  1.00  0.00     0.041 A 
ATOM     24  Cl  UNL A   1      33.065  30.677  27.366  1.00  0.00    -0.084 Cl
ENDBRANCH  16  18
ENDBRANCH  13  16
ENDBRANCH   7  12
ENDBRANCH   4   6
ENDBRANCH   3   4
ENDBRANCH   2   3
ENDBRANCH   1   2
BRANCH   1  25
ATOM     25  O   UNL A   1      38.911  21.748  26.413  1.00  0.00    -0.374 OA
BRANCH  25  26
ATOM     26  C   UNL A   1      38.928  20.844  25.312  1.00  0.00     0.202 C 
BRANCH  26  27
ATOM     27  C   UNL A   1      39.460  19.427  25.590  1.00  0.00     0.261 C 
BRANCH  27  28
ATOM     28  O   UNL A   1      40.483  19.387  26.596  1.00  0.00    -0.460 OA
BRANCH  28  29
ATOM     29  C   UNL A   1      41.750  19.484  26.122  1.00  0.00     0.338 C 
ATOM     30  O   UNL A   1      42.322  18.702  25.377  1.00  0.00    -0.246 OA
BRANCH  29  31
ATOM     31  C   UNL A   1      42.332  20.782  26.520  1.00  0.00     0.060 A 
ATOM     32  C   UNL A   1      42.472  21.069  27.881  1.00  0.00     0.016 A 
ATOM     33  C   UNL A   1      42.701  21.729  25.567  1.00  0.00     0.016 A 
ATOM     34  C   UNL A   1      42.925  22.327  28.288  1.00  0.00     0.010 A 
ATOM     35  C   UNL A   1      43.179  22.976  25.977  1.00  0.00     0.010 A 
ATOM     36  C   UNL A   1      43.251  23.308  27.339  1.00  0.00    -0.014 A 
BRANCH  36  37
ATOM     37  C   UNL A   1      43.564  24.702  27.765  1.00  0.00     0.031 A 
ATOM     38  C   UNL A   1      44.995  25.177  27.804  1.00  0.00     0.074 A 
ATOM     39  C   UNL A   1      42.578  25.549  28.121  1.00  0.00     0.049 A 
ATOM     40  N   UNL A   1      45.469  26.370  28.076  1.00  0.00    -0.248 NA
ATOM     41  C   UNL A   1      46.035  24.174  27.532  1.00  0.00     0.031 C 
ATOM     42  C   UNL A   1      41.159  25.206  28.201  1.00  0.00     0.029 A 
ATOM     43  N   UNL A   1      42.623  26.874  28.480  1.00  0.00    -0.354 N 
ATOM     44  C   UNL A   1      46.852  26.251  28.020  1.00  0.00     0.074 A 
ATOM     45  C   UNL A   1      47.144  24.859  27.763  1.00  0.00     0.031 C 
ATOM     46  C   UNL A   1      40.465  26.299  28.557  1.00  0.00     0.029 A 
ATOM     47  C   UNL A   1      41.389  27.417  28.744  1.00  0.00     0.049 A 
ATOM     48  H   UNL A   1      43.460  27.387  28.542  1.00  0.00     0.167 HD
ATOM     49  C   UNL A   1      47.797  27.216  28.134  1.00  0.00     0.037 A 
ATOM     50  C   UNL A   1      41.040  28.673  29.085  1.00  0.00     0.037 A 
ATOM     51  C   UNL A   1      47.509  28.607  28.365  1.00  0.00     0.049 A 
ATOM     52  C   UNL A   1      42.099  29.740  29.181  1.00  0.00     0.074 A 
ATOM     53  C   UNL A   1      48.388  29.675  28.412  1.00  0.00     0.029 A 
ATOM     54  N   UNL A   1      46.243  29.121  28.601  1.00  0.00    -0.354 N 
ATOM     55  N   UNL A   1      43.395  29.638  29.010  1.00  0.00    -0.248 NA
ATOM     56  C   UNL A   1      41.643  31.102  29.496  1.00  0.00     0.031 C 
ATOM     57  C   UNL A   1      47.661  30.825  28.739  1.00  0.00     0.029 A 
ATOM     58  C   UNL A   1      46.320  30.486  28.826  1.00  0.00     0.049 A 
ATOM     59  H   UNL A   1      45.411  28.594  28.609  1.00  0.00     0.167 HD
ATOM     60  C   UNL A   1      43.904  30.922  29.164  1.00  0.00     0.074 A 
ATOM     61  C   UNL A   1      42.776  31.789  29.430  1.00  0.00     0.031 C 
ATOM     62  C   UNL A   1      45.192  31.345  29.087  1.00  0.00     0.037 A 
BRANCH  49  63
ATOM     63  C   UNL A   1      49.238  26.797  28.010  1.00  0.00     0.064 A 
ATOM     64  C   UNL A   1      50.025  26.507  29.136  1.00  0.00     0.173 A 
ATOM     65  C   UNL A   1      49.835  26.664  26.747  1.00  0.00     0.173 A 
ATOM     66  F   UNL A   1      49.508  26.621  30.370  1.00  0.00    -0.203 F 
ATOM     67  C   UNL A   1      51.364  26.149  29.005  1.00  0.00     0.198 A 
ATOM     68  C   UNL A   1      51.164  26.267  26.618  1.00  0.00     0.198 A 
ATOM     69  F   UNL A   1      49.129  26.915  25.634  1.00  0.00    -0.203 F 
ATOM     70  F   UNL A   1      52.111  25.946  30.099  1.00  0.00    -0.200 F 
ATOM     71  C   UNL A   1      51.931  26.023  27.747  1.00  0.00     0.200 A 
ATOM     72  F   UNL A   1      51.704  26.126  25.399  1.00  0.00    -0.200 F 
ATOM     73  F   UNL A   1      53.219  25.674  27.622  1.00  0.00    -0.200 F 
ENDBRANCH  49  63
BRANCH  50  74
ATOM     74  C   UNL A   1      39.606  29.000  29.311  1.00  0.00     0.064 A 
ATOM     75  C   UNL A   1      38.766  29.351  28.245  1.00  0.00     0.173 A 
ATOM     76  C   UNL A   1      39.043  28.952  30.595  1.00  0.00     0.173 A 
ATOM     77  F   UNL A   1      39.262  29.431  27.000  1.00  0.00    -0.203 F 
ATOM     78  C   UNL A   1      37.423  29.655  28.455  1.00  0.00     0.198 A 
ATOM     79  C   UNL A   1      37.693  29.228  30.801  1.00  0.00     0.198 A 
ATOM     80  F   UNL A   1      39.802  28.616  31.648  1.00  0.00    -0.203 F 
ATOM     81  F   UNL A   1      36.653  30.026  27.423  1.00  0.00    -0.200 F 
ATOM     82  C   UNL A   1      36.886  29.585  29.732  1.00  0.00     0.200 A 
ATOM     83  F   UNL A   1      37.174  29.141  32.033  1.00  0.00    -0.200 F 
ATOM     84  F   UNL A   1      35.590  29.864  29.932  1.00  0.00    -0.200 F 
ENDBRANCH  50  74
BRANCH  62  85
ATOM     85  C   UNL A   1      45.454  32.815  29.252  1.00  0.00     0.064 A 
ATOM     86  C   UNL A   1      45.762  33.381  30.498  1.00  0.00     0.173 A 
ATOM     87  C   UNL A   1      45.443  33.665  28.134  1.00  0.00     0.173 A 
ATOM     88  F   UNL A   1      45.776  32.616  31.601  1.00  0.00    -0.203 F 
ATOM     89  C   UNL A   1      46.018  34.744  30.624  1.00  0.00     0.198 A 
ATOM     90  C   UNL A   1      45.733  35.021  28.258  1.00  0.00     0.198 A 
ATOM     91  F   UNL A   1      45.165  33.177  26.916  1.00  0.00    -0.203 F 
ATOM     92  F   UNL A   1      46.257  35.270  31.834  1.00  0.00    -0.200 F 
ATOM     93  C   UNL A   1      46.012  35.561  29.503  1.00  0.00     0.200 A 
ATOM     94  F   UNL A   1      45.744  35.804  27.170  1.00  0.00    -0.200 F 
ATOM     95  F   UNL A   1      46.267  36.871  29.626  1.00  0.00    -0.200 F 
ENDBRANCH  62  85
ENDBRANCH  36  37
ENDBRANCH  29  31
ENDBRANCH  28  29
ENDBRANCH  27  28
ENDBRANCH  26  27
ENDBRANCH  25  26
ENDBRANCH   1  25
TORSDOF 17
ENDMDL
