MODEL 1
REMARK VINA RESULT:     -11.1      0.000      0.000
REMARK SMILES N#C[C@@H]1CN(C(=O)Nc2cccc(F)c2C(=O)OCCOCCOC(=O)c2ccc(-c3c4nc(c(-c5c(F)c(F)c(F)c(F)c5F)c5ccc([nH]5)c(-c5c(F)c(F)c(F)c(F)c5F)c5nc(c(-c6c(F)c(F)c(F)c(F)c6F)c6ccc3[nH]6)C=C5)C=C4)cc2)CCO1
REMARK SMILES IDX 20 1 19 2 18 3 16 4 17 5 15 6 9 7 10 8 11 9 13 10 12 11
REMARK SMILES IDX 14 12 8 13 6 14 7 15 5 17 3 18 4 19 92 20 91 21 90 22 2 23
REMARK SMILES IDX 1 24 21 25 22 26 23 27 24 28 25 29 26 30 27 31 28 32 89 33
REMARK SMILES IDX 29 34 88 35 30 36 31 37 32 38 82 39 33 40 87 41 81 42 83 43
REMARK SMILES IDX 34 44 86 45 80 46 79 47 35 49 67 50 47 51 66 52 48 53 51 54
REMARK SMILES IDX 65 55 84 56 49 57 50 58 64 60 85 61 52 62 36 63 37 64 45 65
REMARK SMILES IDX 38 66 39 67 43 68 46 69 40 70 41 71 44 72 42 73 68 74 69 75
REMARK SMILES IDX 77 76 70 77 71 78 75 79 78 80 72 81 73 82 76 83 74 84 53 85
REMARK SMILES IDX 54 86 62 87 55 88 56 89 60 90 63 91 57 92 58 93 61 94 59 95
REMARK H PARENT 8 16 83 48 51 59
REMARK Flexibility Score: inf
ROOT
ATOM      1  C   UNL A   1      34.635  29.947  26.928  1.00  0.00     0.202 C 
ENDROOT
BRANCH   1   2
ATOM      2  C   UNL A   1      33.992  28.698  27.539  1.00  0.00     0.261 C 
BRANCH   2   3
ATOM      3  O   UNL A   1      33.215  27.998  26.549  1.00  0.00    -0.460 OA
BRANCH   3   4
ATOM      4  C   UNL A   1      31.927  27.786  26.898  1.00  0.00     0.343 C 
ATOM      5  O   UNL A   1      31.444  28.008  27.998  1.00  0.00    -0.246 OA
BRANCH   4   6
ATOM      6  C   UNL A   1      31.092  27.595  25.691  1.00  0.00     0.119 A 
ATOM      7  C   UNL A   1      30.353  26.401  25.550  1.00  0.00     0.060 A 
ATOM      8  C   UNL A   1      29.482  26.239  24.462  1.00  0.00     0.027 A 
ATOM      9  C   UNL A   1      29.428  27.211  23.462  1.00  0.00     0.005 A 
ATOM     10  C   UNL A   1      31.038  28.549  24.679  1.00  0.00     0.139 A 
ATOM     11  C   UNL A   1      30.224  28.353  23.560  1.00  0.00     0.040 A 
ATOM     12  F   UNL A   1      31.797  29.652  24.723  1.00  0.00    -0.206 F 
BRANCH   7  13
ATOM     13  N   UNL A   1      30.532  25.353  26.468  1.00  0.00    -0.307 N 
ATOM     14  C   UNL A   1      30.963  24.074  26.304  1.00  0.00     0.322 C 
ATOM     15  O   UNL A   1      30.693  23.267  27.196  1.00  0.00    -0.248 OA
ATOM     16  H   UNL A   1      30.306  25.587  27.397  1.00  0.00     0.171 HD
BRANCH  14  17
ATOM     17  N   UNL A   1      31.825  23.754  25.280  1.00  0.00    -0.319 N 
ATOM     18  C   UNL A   1      34.086  22.755  25.356  1.00  0.00     0.240 C 
ATOM     19  C   UNL A   1      33.265  24.015  25.187  1.00  0.00     0.169 C 
ATOM     20  O   UNL A   1      33.676  21.792  24.343  1.00  0.00    -0.360 OA
ATOM     21  C   UNL A   1      32.268  21.479  24.430  1.00  0.00     0.183 C 
ATOM     22  C   UNL A   1      31.394  22.739  24.306  1.00  0.00     0.150 C 
BRANCH  18  23
ATOM     23  C   UNL A   1      34.052  22.118  26.736  1.00  0.00     0.096 C 
ATOM     24  N   UNL A   1      34.025  21.590  27.880  1.00  0.00    -0.195 NA
ENDBRANCH  18  23
ENDBRANCH  14  17
ENDBRANCH   7  13
ENDBRANCH   4   6
ENDBRANCH   3   4
ENDBRANCH   2   3
ENDBRANCH   1   2
BRANCH   1  25
ATOM     25  O   UNL A   1      34.143  31.216  27.370  1.00  0.00    -0.374 OA
BRANCH  25  26
ATOM     26  C   UNL A   1      32.742  31.457  27.283  1.00  0.00     0.202 C 
BRANCH  26  27
ATOM     27  C   UNL A   1      32.275  32.916  27.251  1.00  0.00     0.261 C 
BRANCH  27  28
ATOM     28  O   UNL A   1      33.372  33.838  27.320  1.00  0.00    -0.460 OA
BRANCH  28  29
ATOM     29  C   UNL A   1      33.341  34.643  28.408  1.00  0.00     0.338 C 
ATOM     30  O   UNL A   1      32.522  35.516  28.662  1.00  0.00    -0.246 OA
BRANCH  29  31
ATOM     31  C   UNL A   1      34.361  34.225  29.385  1.00  0.00     0.060 A 
ATOM     32  C   UNL A   1      35.699  34.336  28.987  1.00  0.00     0.016 A 
ATOM     33  C   UNL A   1      34.030  33.673  30.624  1.00  0.00     0.016 A 
ATOM     34  C   UNL A   1      36.709  33.835  29.800  1.00  0.00     0.010 A 
ATOM     35  C   UNL A   1      35.047  33.162  31.438  1.00  0.00     0.010 A 
ATOM     36  C   UNL A   1      36.386  33.206  31.011  1.00  0.00    -0.014 A 
BRANCH  36  37
ATOM     37  C   UNL A   1      37.456  32.488  31.743  1.00  0.00     0.031 A 
ATOM     38  C   UNL A   1      38.150  31.331  31.080  1.00  0.00     0.074 A 
ATOM     39  C   UNL A   1      37.862  32.921  32.949  1.00  0.00     0.049 A 
ATOM     40  N   UNL A   1      39.158  30.614  31.509  1.00  0.00    -0.248 NA
ATOM     41  C   UNL A   1      37.648  30.928  29.756  1.00  0.00     0.031 C 
ATOM     42  C   UNL A   1      37.284  34.049  33.677  1.00  0.00     0.029 A 
ATOM     43  N   UNL A   1      38.866  32.469  33.769  1.00  0.00    -0.354 N 
ATOM     44  C   UNL A   1      39.415  29.686  30.509  1.00  0.00     0.074 A 
ATOM     45  C   UNL A   1      38.438  29.905  29.464  1.00  0.00     0.031 C 
ATOM     46  C   UNL A   1      37.944  34.204  34.837  1.00  0.00     0.029 A 
ATOM     47  C   UNL A   1      38.980  33.177  34.940  1.00  0.00     0.049 A 
ATOM     48  H   UNL A   1      39.448  31.710  33.539  1.00  0.00     0.167 HD
ATOM     49  C   UNL A   1      40.390  28.750  30.460  1.00  0.00     0.037 A 
ATOM     50  C   UNL A   1      39.823  33.010  35.977  1.00  0.00     0.037 A 
ATOM     51  C   UNL A   1      41.370  28.541  31.493  1.00  0.00     0.049 A 
ATOM     52  C   UNL A   1      40.871  31.931  35.915  1.00  0.00     0.074 A 
ATOM     53  C   UNL A   1      42.412  27.631  31.518  1.00  0.00     0.029 A 
ATOM     54  N   UNL A   1      41.428  29.251  32.682  1.00  0.00    -0.354 N 
ATOM     55  N   UNL A   1      41.125  31.080  34.950  1.00  0.00    -0.248 NA
ATOM     56  C   UNL A   1      41.756  31.792  37.081  1.00  0.00     0.031 C 
ATOM     57  C   UNL A   1      43.074  27.760  32.742  1.00  0.00     0.029 A 
ATOM     58  C   UNL A   1      42.475  28.782  33.459  1.00  0.00     0.049 A 
ATOM     59  H   UNL A   1      40.817  29.981  32.936  1.00  0.00     0.167 HD
ATOM     60  C   UNL A   1      42.202  30.319  35.384  1.00  0.00     0.074 A 
ATOM     61  C   UNL A   1      42.570  30.822  36.691  1.00  0.00     0.031 C 
ATOM     62  C   UNL A   1      42.826  29.291  34.758  1.00  0.00     0.037 A 
BRANCH  49  63
ATOM     63  C   UNL A   1      40.460  27.866  29.252  1.00  0.00     0.064 A 
ATOM     64  C   UNL A   1      41.250  28.230  28.152  1.00  0.00     0.173 A 
ATOM     65  C   UNL A   1      39.666  26.715  29.143  1.00  0.00     0.173 A 
ATOM     66  F   UNL A   1      42.024  29.324  28.209  1.00  0.00    -0.203 F 
ATOM     67  C   UNL A   1      41.225  27.486  26.976  1.00  0.00     0.198 A 
ATOM     68  C   UNL A   1      39.659  25.962  27.972  1.00  0.00     0.198 A 
ATOM     69  F   UNL A   1      38.904  26.321  30.173  1.00  0.00    -0.203 F 
ATOM     70  F   UNL A   1      41.959  27.873  25.924  1.00  0.00    -0.200 F 
ATOM     71  C   UNL A   1      40.428  26.355  26.887  1.00  0.00     0.200 A 
ATOM     72  F   UNL A   1      38.903  24.859  27.891  1.00  0.00    -0.200 F 
ATOM     73  F   UNL A   1      40.401  25.642  25.751  1.00  0.00    -0.200 F 
ENDBRANCH  49  63
BRANCH  50  74
ATOM     74  C   UNL A   1      39.708  33.889  37.170  1.00  0.00     0.064 A 
ATOM     75  C   UNL A   1      38.898  33.527  38.257  1.00  0.00     0.173 A 
ATOM     76  C   UNL A   1      40.406  35.102  37.250  1.00  0.00     0.173 A 
ATOM     77  F   UNL A   1      38.212  32.376  38.231  1.00  0.00    -0.203 F 
ATOM     78  C   UNL A   1      38.783  34.352  39.374  1.00  0.00     0.198 A 
ATOM     79  C   UNL A   1      40.311  35.913  38.380  1.00  0.00     0.198 A 
ATOM     80  F   UNL A   1      41.211  35.478  36.246  1.00  0.00    -0.203 F 
ATOM     81  F   UNL A   1      37.987  33.993  40.390  1.00  0.00    -0.200 F 
ATOM     82  C   UNL A   1      39.495  35.541  39.438  1.00  0.00     0.200 A 
ATOM     83  F   UNL A   1      41.023  37.045  38.450  1.00  0.00    -0.200 F 
ATOM     84  F   UNL A   1      39.401  36.322  40.522  1.00  0.00    -0.200 F 
ENDBRANCH  50  74
BRANCH  62  85
ATOM     85  C   UNL A   1      43.974  28.640  35.471  1.00  0.00     0.064 A 
ATOM     86  C   UNL A   1      43.750  27.584  36.368  1.00  0.00     0.173 A 
ATOM     87  C   UNL A   1      45.288  29.106  35.319  1.00  0.00     0.173 A 
ATOM     88  F   UNL A   1      42.510  27.109  36.558  1.00  0.00    -0.203 F 
ATOM     89  C   UNL A   1      44.800  27.025  37.093  1.00  0.00     0.198 A 
ATOM     90  C   UNL A   1      46.338  28.527  36.024  1.00  0.00     0.198 A 
ATOM     91  F   UNL A   1      45.553  30.107  34.464  1.00  0.00    -0.203 F 
ATOM     92  F   UNL A   1      44.559  26.038  37.967  1.00  0.00    -0.200 F 
ATOM     93  C   UNL A   1      46.093  27.494  36.916  1.00  0.00     0.200 A 
ATOM     94  F   UNL A   1      47.591  28.966  35.836  1.00  0.00    -0.200 F 
ATOM     95  F   UNL A   1      47.105  26.948  37.605  1.00  0.00    -0.200 F 
ENDBRANCH  62  85
ENDBRANCH  36  37
ENDBRANCH  29  31
ENDBRANCH  28  29
ENDBRANCH  27  28
ENDBRANCH  26  27
ENDBRANCH  25  26
ENDBRANCH   1  25
TORSDOF 17
ENDMDL
MODEL 2
REMARK VINA RESULT:     -11.1      1.719      7.846
REMARK SMILES N#C[C@@H]1CN(C(=O)Nc2cccc(F)c2C(=O)OCCOCCOC(=O)c2ccc(-c3c4nc(c(-c5c(F)c(F)c(F)c(F)c5F)c5ccc([nH]5)c(-c5c(F)c(F)c(F)c(F)c5F)c5nc(c(-c6c(F)c(F)c(F)c(F)c6F)c6ccc3[nH]6)C=C5)C=C4)cc2)CCO1
REMARK SMILES IDX 20 1 19 2 18 3 16 4 17 5 15 6 9 7 10 8 11 9 13 10 12 11
REMARK SMILES IDX 14 12 8 13 6 14 7 15 5 17 3 18 4 19 92 20 91 21 90 22 2 23
REMARK SMILES IDX 1 24 21 25 22 26 23 27 24 28 25 29 26 30 27 31 28 32 89 33
REMARK SMILES IDX 29 34 88 35 30 36 31 37 32 38 82 39 33 40 87 41 81 42 83 43
REMARK SMILES IDX 34 44 86 45 80 46 79 47 35 49 67 50 47 51 66 52 48 53 51 54
REMARK SMILES IDX 65 55 84 56 49 57 50 58 64 60 85 61 52 62 36 63 37 64 45 65
REMARK SMILES IDX 38 66 39 67 43 68 46 69 40 70 41 71 44 72 42 73 68 74 69 75
REMARK SMILES IDX 77 76 70 77 71 78 75 79 78 80 72 81 73 82 76 83 74 84 53 85
REMARK SMILES IDX 54 86 62 87 55 88 56 89 60 90 63 91 57 92 58 93 61 94 59 95
REMARK H PARENT 8 16 83 48 51 59
REMARK Flexibility Score: inf
ROOT
ATOM      1  C   UNL A   1      34.916  29.846  27.474  1.00  0.00     0.202 C 
ENDROOT
BRANCH   1   2
ATOM      2  C   UNL A   1      34.184  29.386  26.209  1.00  0.00     0.261 C 
BRANCH   2   3
ATOM      3  O   UNL A   1      34.193  27.948  26.122  1.00  0.00    -0.460 OA
BRANCH   3   4
ATOM      4  C   UNL A   1      33.645  27.454  24.989  1.00  0.00     0.343 C 
ATOM      5  O   UNL A   1      34.103  27.584  23.863  1.00  0.00    -0.246 OA
BRANCH   4   6
ATOM      6  C   UNL A   1      32.624  26.434  25.314  1.00  0.00     0.119 A 
ATOM      7  C   UNL A   1      31.296  26.846  25.557  1.00  0.00     0.060 A 
ATOM      8  C   UNL A   1      30.293  25.889  25.774  1.00  0.00     0.027 A 
ATOM      9  C   UNL A   1      30.627  24.536  25.858  1.00  0.00     0.005 A 
ATOM     10  C   UNL A   1      32.943  25.083  25.415  1.00  0.00     0.139 A 
ATOM     11  C   UNL A   1      31.955  24.138  25.702  1.00  0.00     0.040 A 
ATOM     12  F   UNL A   1      34.207  24.656  25.289  1.00  0.00    -0.206 F 
BRANCH   7  13
ATOM     13  N   UNL A   1      30.991  28.214  25.639  1.00  0.00    -0.307 N 
ATOM     14  C   UNL A   1      30.743  29.143  24.676  1.00  0.00     0.322 C 
ATOM     15  O   UNL A   1      30.854  30.329  24.992  1.00  0.00    -0.248 OA
ATOM     16  H   UNL A   1      30.948  28.564  26.557  1.00  0.00     0.171 HD
BRANCH  14  17
ATOM     17  N   UNL A   1      30.208  28.767  23.465  1.00  0.00    -0.319 N 
ATOM     18  C   UNL A   1      27.985  29.242  22.492  1.00  0.00     0.240 C 
ATOM     19  C   UNL A   1      28.872  28.232  23.187  1.00  0.00     0.169 C 
ATOM     20  O   UNL A   1      28.635  29.659  21.256  1.00  0.00    -0.360 OA
ATOM     21  C   UNL A   1      29.940  30.230  21.494  1.00  0.00     0.183 C 
ATOM     22  C   UNL A   1      30.864  29.251  22.240  1.00  0.00     0.150 C 
BRANCH  18  23
ATOM     23  C   UNL A   1      27.585  30.455  23.314  1.00  0.00     0.096 C 
ATOM     24  N   UNL A   1      27.252  31.462  23.997  1.00  0.00    -0.195 NA
ENDBRANCH  18  23
ENDBRANCH  14  17
ENDBRANCH   7  13
ENDBRANCH   4   6
ENDBRANCH   3   4
ENDBRANCH   2   3
ENDBRANCH   1   2
BRANCH   1  25
ATOM     25  O   UNL A   1      34.475  31.069  28.073  1.00  0.00    -0.374 OA
BRANCH  25  26
ATOM     26  C   UNL A   1      33.232  31.615  27.641  1.00  0.00     0.202 C 
BRANCH  26  27
ATOM     27  C   UNL A   1      33.193  33.109  27.306  1.00  0.00     0.261 C 
BRANCH  27  28
ATOM     28  O   UNL A   1      32.377  33.850  28.225  1.00  0.00    -0.460 OA
BRANCH  28  29
ATOM     29  C   UNL A   1      33.002  34.919  28.771  1.00  0.00     0.338 C 
ATOM     30  O   UNL A   1      32.626  36.083  28.762  1.00  0.00    -0.246 OA
BRANCH  29  31
ATOM     31  C   UNL A   1      34.166  34.485  29.561  1.00  0.00     0.060 A 
ATOM     32  C   UNL A   1      35.424  34.630  28.964  1.00  0.00     0.016 A 
ATOM     33  C   UNL A   1      34.039  33.885  30.816  1.00  0.00     0.016 A 
ATOM     34  C   UNL A   1      36.554  34.117  29.591  1.00  0.00     0.010 A 
ATOM     35  C   UNL A   1      35.176  33.363  31.443  1.00  0.00     0.010 A 
ATOM     36  C   UNL A   1      36.431  33.443  30.814  1.00  0.00    -0.014 A 
BRANCH  36  37
ATOM     37  C   UNL A   1      37.610  32.718  31.344  1.00  0.00     0.031 A 
ATOM     38  C   UNL A   1      38.126  33.060  32.714  1.00  0.00     0.074 A 
ATOM     39  C   UNL A   1      38.157  31.707  30.646  1.00  0.00     0.049 A 
ATOM     40  N   UNL A   1      39.094  32.502  33.398  1.00  0.00    -0.248 NA
ATOM     41  C   UNL A   1      37.464  34.173  33.413  1.00  0.00     0.031 C 
ATOM     42  C   UNL A   1      37.724  31.269  29.321  1.00  0.00     0.029 A 
ATOM     43  N   UNL A   1      39.189  30.859  30.963  1.00  0.00    -0.354 N 
ATOM     44  C   UNL A   1      39.149  33.187  34.603  1.00  0.00     0.074 A 
ATOM     45  C   UNL A   1      38.143  34.226  34.550  1.00  0.00     0.031 C 
ATOM     46  C   UNL A   1      38.483  30.229  28.937  1.00  0.00     0.029 A 
ATOM     47  C   UNL A   1      39.466  29.941  29.980  1.00  0.00     0.049 A 
ATOM     48  H   UNL A   1      39.683  30.906  31.812  1.00  0.00     0.167 HD
ATOM     49  C   UNL A   1      39.956  32.958  35.665  1.00  0.00     0.037 A 
ATOM     50  C   UNL A   1      40.408  28.979  29.931  1.00  0.00     0.037 A 
ATOM     51  C   UNL A   1      40.947  31.917  35.724  1.00  0.00     0.049 A 
ATOM     52  C   UNL A   1      41.321  28.775  31.111  1.00  0.00     0.074 A 
ATOM     53  C   UNL A   1      41.793  31.593  36.770  1.00  0.00     0.029 A 
ATOM     54  N   UNL A   1      41.225  31.031  34.694  1.00  0.00    -0.354 N 
ATOM     55  N   UNL A   1      41.343  29.408  32.258  1.00  0.00    -0.248 NA
ATOM     56  C   UNL A   1      42.334  27.716  30.994  1.00  0.00     0.031 C 
ATOM     57  C   UNL A   1      42.615  30.541  36.357  1.00  0.00     0.029 A 
ATOM     58  C   UNL A   1      42.248  30.177  35.072  1.00  0.00     0.049 A 
ATOM     59  H   UNL A   1      40.764  31.012  33.824  1.00  0.00     0.167 HD
ATOM     60  C   UNL A   1      42.357  28.819  33.002  1.00  0.00     0.074 A 
ATOM     61  C   UNL A   1      42.913  27.761  32.185  1.00  0.00     0.031 C 
ATOM     62  C   UNL A   1      42.792  29.131  34.247  1.00  0.00     0.037 A 
BRANCH  49  63
ATOM     63  C   UNL A   1      39.812  33.844  36.865  1.00  0.00     0.064 A 
ATOM     64  C   UNL A   1      38.970  33.475  37.923  1.00  0.00     0.173 A 
ATOM     65  C   UNL A   1      40.427  35.103  36.918  1.00  0.00     0.173 A 
ATOM     66  F   UNL A   1      38.358  32.281  37.914  1.00  0.00    -0.203 F 
ATOM     67  C   UNL A   1      38.728  34.345  38.982  1.00  0.00     0.198 A 
ATOM     68  C   UNL A   1      40.198  35.963  37.990  1.00  0.00     0.198 A 
ATOM     69  F   UNL A   1      41.250  35.496  35.935  1.00  0.00    -0.203 F 
ATOM     70  F   UNL A   1      37.889  33.986  39.963  1.00  0.00    -0.200 F 
ATOM     71  C   UNL A   1      39.340  35.588  39.013  1.00  0.00     0.200 A 
ATOM     72  F   UNL A   1      40.803  37.158  38.029  1.00  0.00    -0.200 F 
ATOM     73  F   UNL A   1      39.102  36.427  40.032  1.00  0.00    -0.200 F 
ENDBRANCH  49  63
BRANCH  50  74
ATOM     74  C   UNL A   1      40.537  28.135  28.715  1.00  0.00     0.064 A 
ATOM     75  C   UNL A   1      39.870  26.905  28.616  1.00  0.00     0.173 A 
ATOM     76  C   UNL A   1      41.322  28.542  27.628  1.00  0.00     0.173 A 
ATOM     77  F   UNL A   1      39.104  26.472  29.628  1.00  0.00    -0.203 F 
ATOM     78  C   UNL A   1      39.993  26.109  27.479  1.00  0.00     0.198 A 
ATOM     79  C   UNL A   1      41.423  27.757  26.480  1.00  0.00     0.198 A 
ATOM     80  F   UNL A   1      41.959  29.721  27.666  1.00  0.00    -0.203 F 
ATOM     81  F   UNL A   1      39.362  24.929  27.419  1.00  0.00    -0.200 F 
ATOM     82  C   UNL A   1      40.764  26.539  26.409  1.00  0.00     0.200 A 
ATOM     83  F   UNL A   1      42.145  28.189  25.438  1.00  0.00    -0.200 F 
ATOM     84  F   UNL A   1      40.865  25.783  25.308  1.00  0.00    -0.200 F 
ENDBRANCH  50  74
BRANCH  62  85
ATOM     85  C   UNL A   1      43.922  28.320  34.810  1.00  0.00     0.064 A 
ATOM     86  C   UNL A   1      43.664  27.157  35.553  1.00  0.00     0.173 A 
ATOM     87  C   UNL A   1      45.255  28.731  34.673  1.00  0.00     0.173 A 
ATOM     88  F   UNL A   1      42.405  26.728  35.723  1.00  0.00    -0.203 F 
ATOM     89  C   UNL A   1      44.702  26.442  36.146  1.00  0.00     0.198 A 
ATOM     90  C   UNL A   1      46.292  27.999  35.243  1.00  0.00     0.198 A 
ATOM     91  F   UNL A   1      45.552  29.831  33.962  1.00  0.00    -0.203 F 
ATOM     92  F   UNL A   1      44.431  25.352  36.876  1.00  0.00    -0.200 F 
ATOM     93  C   UNL A   1      46.014  26.860  35.986  1.00  0.00     0.200 A 
ATOM     94  F   UNL A   1      47.561  28.392  35.069  1.00  0.00    -0.200 F 
ATOM     95  F   UNL A   1      47.013  26.165  36.546  1.00  0.00    -0.200 F 
ENDBRANCH  62  85
ENDBRANCH  36  37
ENDBRANCH  29  31
ENDBRANCH  28  29
ENDBRANCH  27  28
ENDBRANCH  26  27
ENDBRANCH  25  26
ENDBRANCH   1  25
TORSDOF 17
ENDMDL
MODEL 3
REMARK VINA RESULT:     -11.1      0.877      1.886
REMARK SMILES N#C[C@@H]1CN(C(=O)Nc2cccc(F)c2C(=O)OCCOCCOC(=O)c2ccc(-c3c4nc(c(-c5c(F)c(F)c(F)c(F)c5F)c5ccc([nH]5)c(-c5c(F)c(F)c(F)c(F)c5F)c5nc(c(-c6c(F)c(F)c(F)c(F)c6F)c6ccc3[nH]6)C=C5)C=C4)cc2)CCO1
REMARK SMILES IDX 20 1 19 2 18 3 16 4 17 5 15 6 9 7 10 8 11 9 13 10 12 11
REMARK SMILES IDX 14 12 8 13 6 14 7 15 5 17 3 18 4 19 92 20 91 21 90 22 2 23
REMARK SMILES IDX 1 24 21 25 22 26 23 27 24 28 25 29 26 30 27 31 28 32 89 33
REMARK SMILES IDX 29 34 88 35 30 36 31 37 32 38 82 39 33 40 87 41 81 42 83 43
REMARK SMILES IDX 34 44 86 45 80 46 79 47 35 49 67 50 47 51 66 52 48 53 51 54
REMARK SMILES IDX 65 55 84 56 49 57 50 58 64 60 85 61 52 62 36 63 37 64 45 65
REMARK SMILES IDX 38 66 39 67 43 68 46 69 40 70 41 71 44 72 42 73 68 74 69 75
REMARK SMILES IDX 77 76 70 77 71 78 75 79 78 80 72 81 73 82 76 83 74 84 53 85
REMARK SMILES IDX 54 86 62 87 55 88 56 89 60 90 63 91 57 92 58 93 61 94 59 95
REMARK H PARENT 8 16 83 48 51 59
REMARK Flexibility Score: inf
ROOT
ATOM      1  C   UNL A   1      33.385  30.709  27.059  1.00  0.00     0.202 C 
ENDROOT
BRANCH   1   2
ATOM      2  C   UNL A   1      33.740  29.230  27.242  1.00  0.00     0.261 C 
BRANCH   2   3
ATOM      3  O   UNL A   1      33.054  28.426  26.263  1.00  0.00    -0.460 OA
BRANCH   3   4
ATOM      4  C   UNL A   1      31.911  27.858  26.707  1.00  0.00     0.343 C 
ATOM      5  O   UNL A   1      31.539  27.829  27.871  1.00  0.00    -0.246 OA
BRANCH   4   6
ATOM      6  C   UNL A   1      30.993  27.598  25.577  1.00  0.00     0.119 A 
ATOM      7  C   UNL A   1      30.298  26.371  25.527  1.00  0.00     0.060 A 
ATOM      8  C   UNL A   1      29.351  26.140  24.516  1.00  0.00     0.027 A 
ATOM      9  C   UNL A   1      29.177  27.079  23.499  1.00  0.00     0.005 A 
ATOM     10  C   UNL A   1      30.818  28.518  24.547  1.00  0.00     0.139 A 
ATOM     11  C   UNL A   1      29.928  28.255  23.503  1.00  0.00     0.040 A 
ATOM     12  F   UNL A   1      31.529  29.652  24.500  1.00  0.00    -0.206 F 
BRANCH   7  13
ATOM     13  N   UNL A   1      30.594  25.359  26.455  1.00  0.00    -0.307 N 
ATOM     14  C   UNL A   1      31.117  24.113  26.297  1.00  0.00     0.322 C 
ATOM     15  O   UNL A   1      30.945  23.306  27.212  1.00  0.00    -0.248 OA
ATOM     16  H   UNL A   1      30.387  25.593  27.388  1.00  0.00     0.171 HD
BRANCH  14  17
ATOM     17  N   UNL A   1      31.960  23.840  25.244  1.00  0.00    -0.319 N 
ATOM     18  C   UNL A   1      34.160  22.711  25.219  1.00  0.00     0.240 C 
ATOM     19  C   UNL A   1      33.413  24.026  25.169  1.00  0.00     0.169 C 
ATOM     20  O   UNL A   1      33.697  21.869  24.124  1.00  0.00    -0.360 OA
ATOM     21  C   UNL A   1      32.274  21.630  24.188  1.00  0.00     0.183 C 
ATOM     22  C   UNL A   1      31.473  22.944  24.183  1.00  0.00     0.150 C 
BRANCH  18  23
ATOM     23  C   UNL A   1      34.089  21.954  26.535  1.00  0.00     0.096 C 
ATOM     24  N   UNL A   1      34.030  21.326  27.627  1.00  0.00    -0.195 NA
ENDBRANCH  18  23
ENDBRANCH  14  17
ENDBRANCH   7  13
ENDBRANCH   4   6
ENDBRANCH   3   4
ENDBRANCH   2   3
ENDBRANCH   1   2
BRANCH   1  25
ATOM     25  O   UNL A   1      31.995  31.042  26.985  1.00  0.00    -0.374 OA
BRANCH  25  26
ATOM     26  C   UNL A   1      31.642  32.418  26.883  1.00  0.00     0.202 C 
BRANCH  26  27
ATOM     27  C   UNL A   1      32.714  33.452  27.240  1.00  0.00     0.261 C 
BRANCH  27  28
ATOM     28  O   UNL A   1      32.233  34.434  28.170  1.00  0.00    -0.460 OA
BRANCH  28  29
ATOM     29  C   UNL A   1      33.214  35.162  28.752  1.00  0.00     0.338 C 
ATOM     30  O   UNL A   1      33.176  36.345  29.062  1.00  0.00    -0.246 OA
BRANCH  29  31
ATOM     31  C   UNL A   1      34.337  34.292  29.141  1.00  0.00     0.060 A 
ATOM     32  C   UNL A   1      34.028  33.180  29.934  1.00  0.00     0.016 A 
ATOM     33  C   UNL A   1      35.662  34.585  28.808  1.00  0.00     0.016 A 
ATOM     34  C   UNL A   1      35.050  32.393  30.452  1.00  0.00     0.010 A 
ATOM     35  C   UNL A   1      36.689  33.795  29.337  1.00  0.00     0.010 A 
ATOM     36  C   UNL A   1      36.388  32.720  30.192  1.00  0.00    -0.014 A 
BRANCH  36  37
ATOM     37  C   UNL A   1      37.450  32.001  30.935  1.00  0.00     0.031 A 
ATOM     38  C   UNL A   1      38.236  30.927  30.236  1.00  0.00     0.074 A 
ATOM     39  C   UNL A   1      37.767  32.365  32.190  1.00  0.00     0.049 A 
ATOM     40  N   UNL A   1      39.253  30.227  30.672  1.00  0.00    -0.248 NA
ATOM     41  C   UNL A   1      37.829  30.598  28.860  1.00  0.00     0.031 C 
ATOM     42  C   UNL A   1      37.094  33.410  32.958  1.00  0.00     0.029 A 
ATOM     43  N   UNL A   1      38.745  31.902  33.034  1.00  0.00    -0.354 N 
ATOM     44  C   UNL A   1      39.611  29.387  29.627  1.00  0.00     0.074 A 
ATOM     45  C   UNL A   1      38.683  29.635  28.544  1.00  0.00     0.031 C 
ATOM     46  C   UNL A   1      37.681  33.512  34.163  1.00  0.00     0.029 A 
ATOM     47  C   UNL A   1      38.758  32.528  34.255  1.00  0.00     0.049 A 
ATOM     48  H   UNL A   1      39.376  31.188  32.787  1.00  0.00     0.167 HD
ATOM     49  C   UNL A   1      40.631  28.501  29.572  1.00  0.00     0.037 A 
ATOM     50  C   UNL A   1      39.551  32.326  35.326  1.00  0.00     0.037 A 
ATOM     51  C   UNL A   1      41.562  28.264  30.643  1.00  0.00     0.049 A 
ATOM     52  C   UNL A   1      40.652  31.303  35.251  1.00  0.00     0.074 A 
ATOM     53  C   UNL A   1      42.645  27.403  30.667  1.00  0.00     0.029 A 
ATOM     54  N   UNL A   1      41.519  28.889  31.880  1.00  0.00    -0.354 N 
ATOM     55  N   UNL A   1      41.001  30.536  34.247  1.00  0.00    -0.248 NA
ATOM     56  C   UNL A   1      41.477  31.122  36.455  1.00  0.00     0.031 C 
ATOM     57  C   UNL A   1      43.232  27.474  31.934  1.00  0.00     0.029 A 
ATOM     58  C   UNL A   1      42.543  28.414  32.683  1.00  0.00     0.049 A 
ATOM     59  H   UNL A   1      40.860  29.570  32.147  1.00  0.00     0.167 HD
ATOM     60  C   UNL A   1      42.089  29.795  34.690  1.00  0.00     0.074 A 
ATOM     61  C   UNL A   1      42.358  30.220  36.047  1.00  0.00     0.031 C 
ATOM     62  C   UNL A   1      42.797  28.845  34.033  1.00  0.00     0.037 A 
BRANCH  49  63
ATOM     63  C   UNL A   1      40.812  27.710  28.312  1.00  0.00     0.064 A 
ATOM     64  C   UNL A   1      40.234  26.440  28.183  1.00  0.00     0.173 A 
ATOM     65  C   UNL A   1      41.643  28.166  27.279  1.00  0.00     0.173 A 
ATOM     66  F   UNL A   1      39.435  25.959  29.147  1.00  0.00    -0.203 F 
ATOM     67  C   UNL A   1      40.500  25.642  27.074  1.00  0.00     0.198 A 
ATOM     68  C   UNL A   1      41.890  27.374  26.160  1.00  0.00     0.198 A 
ATOM     69  F   UNL A   1      42.209  29.380  27.352  1.00  0.00    -0.203 F 
ATOM     70  F   UNL A   1      39.967  24.416  26.988  1.00  0.00    -0.200 F 
ATOM     71  C   UNL A   1      41.329  26.109  26.065  1.00  0.00     0.200 A 
ATOM     72  F   UNL A   1      42.678  27.832  25.177  1.00  0.00    -0.200 F 
ATOM     73  F   UNL A   1      41.589  25.338  24.999  1.00  0.00    -0.200 F 
ENDBRANCH  49  63
BRANCH  50  74
ATOM     74  C   UNL A   1      39.326  33.112  36.568  1.00  0.00     0.064 A 
ATOM     75  C   UNL A   1      38.440  32.660  37.557  1.00  0.00     0.173 A 
ATOM     76  C   UNL A   1      39.994  34.323  36.793  1.00  0.00     0.173 A 
ATOM     77  F   UNL A   1      37.778  31.505  37.391  1.00  0.00    -0.203 F 
ATOM     78  C   UNL A   1      38.223  33.396  38.719  1.00  0.00     0.198 A 
ATOM     79  C   UNL A   1      39.796  35.045  37.968  1.00  0.00     0.198 A 
ATOM     80  F   UNL A   1      40.869  34.783  35.887  1.00  0.00    -0.203 F 
ATOM     81  F   UNL A   1      37.355  32.952  39.639  1.00  0.00    -0.200 F 
ATOM     82  C   UNL A   1      38.907  34.585  38.928  1.00  0.00     0.200 A 
ATOM     83  F   UNL A   1      40.480  36.178  38.179  1.00  0.00    -0.200 F 
ATOM     84  F   UNL A   1      38.714  35.282  40.055  1.00  0.00    -0.200 F 
ENDBRANCH  50  74
BRANCH  62  85
ATOM     85  C   UNL A   1      43.935  28.197  34.765  1.00  0.00     0.064 A 
ATOM     86  C   UNL A   1      45.227  28.740  34.698  1.00  0.00     0.173 A 
ATOM     87  C   UNL A   1      43.759  27.001  35.476  1.00  0.00     0.173 A 
ATOM     88  F   UNL A   1      45.450  29.876  34.021  1.00  0.00    -0.203 F 
ATOM     89  C   UNL A   1      46.304  28.102  35.310  1.00  0.00     0.198 A 
ATOM     90  C   UNL A   1      44.832  26.382  36.109  1.00  0.00     0.198 A 
ATOM     91  F   UNL A   1      42.540  26.450  35.577  1.00  0.00    -0.203 F 
ATOM     92  F   UNL A   1      47.535  28.622  35.208  1.00  0.00    -0.200 F 
ATOM     93  C   UNL A   1      46.104  26.928  36.019  1.00  0.00     0.200 A 
ATOM     94  F   UNL A   1      44.634  25.258  36.813  1.00  0.00    -0.200 F 
ATOM     95  F   UNL A   1      47.138  26.321  36.618  1.00  0.00    -0.200 F 
ENDBRANCH  62  85
ENDBRANCH  36  37
ENDBRANCH  29  31
ENDBRANCH  28  29
ENDBRANCH  27  28
ENDBRANCH  26  27
ENDBRANCH  25  26
ENDBRANCH   1  25
TORSDOF 17
ENDMDL
