MODEL 1
REMARK VINA RESULT:     -10.9      0.000      0.000
REMARK SMILES COc1cc(C[N@@H+]2CCO[C@@H](CC(=O)OCCOCCOC(=O)c3ccc(-c4c5nc(c(-c6c(F)c(F)c(F)c(F)c6F)c6ccc([nH]6)c(-c6c(F)c(F)c(F)c(F)c6F)c6nc(c(-c7c(F)c(F)c(F)c(F)c7F)c7ccc4[nH]7)C=C6)C=C5)cc3)C2)ccc1O
REMARK SMILES IDX 17 1 16 2 15 3 13 4 14 5 12 6 11 7 7 8 8 9 87 10 9 12 10 13
REMARK SMILES IDX 6 14 5 15 3 16 4 17 90 18 89 19 88 20 2 21 1 22 91 23 18 25
REMARK SMILES IDX 19 26 20 27 21 28 22 29 23 30 24 31 25 32 86 33 26 34 85 35
REMARK SMILES IDX 27 36 28 37 29 38 79 39 30 40 84 41 78 42 80 43 31 44 83 45
REMARK SMILES IDX 77 46 76 47 32 49 64 50 44 51 63 52 45 53 48 54 62 55 81 56
REMARK SMILES IDX 46 57 47 58 61 60 82 61 49 62 33 63 34 64 42 65 35 66 36 67
REMARK SMILES IDX 40 68 43 69 37 70 38 71 41 72 39 73 65 74 66 75 74 76 67 77
REMARK SMILES IDX 68 78 72 79 75 80 69 81 70 82 73 83 71 84 50 85 51 86 59 87
REMARK SMILES IDX 52 88 53 89 57 90 60 91 54 92 55 93 58 94 56 95
REMARK H PARENT 7 11 91 24 80 48 48 59
REMARK Flexibility Score: inf
ROOT
ATOM      1  C   UNL A   1      41.125  20.737  27.503  1.00  0.00     0.202 C 
ENDROOT
BRANCH   1   2
ATOM      2  C   UNL A   1      40.512  21.477  26.312  1.00  0.00     0.261 C 
BRANCH   2   3
ATOM      3  O   UNL A   1      39.176  21.058  25.957  1.00  0.00    -0.463 OA
BRANCH   3   4
ATOM      4  C   UNL A   1      38.338  22.065  25.590  1.00  0.00     0.308 C 
ATOM      5  O   UNL A   1      38.248  23.141  26.172  1.00  0.00    -0.252 OA
BRANCH   4   6
ATOM      6  C   UNL A   1      37.400  21.676  24.487  1.00  0.00     0.160 C 
BRANCH   6   7
ATOM      7  C   UNL A   1      35.899  21.944  24.584  1.00  0.00     0.184 C 
ATOM      8  N   UNL A   1      33.960  22.331  26.214  1.00  0.00    -0.327 N 
ATOM      9  C   UNL A   1      33.896  23.693  25.683  1.00  0.00     0.291 C 
ATOM     10  C   UNL A   1      35.269  21.698  25.979  1.00  0.00     0.295 C 
ATOM     11  H   UNL A   1      33.936  22.415  27.230  1.00  0.00     0.348 HD
ATOM     12  C   UNL A   1      34.508  23.864  24.288  1.00  0.00     0.222 C 
ATOM     13  O   UNL A   1      35.832  23.350  24.238  1.00  0.00    -0.366 OA
BRANCH   8  14
ATOM     14  C   UNL A   1      32.742  21.524  26.107  1.00  0.00     0.299 C 
BRANCH  14  15
ATOM     15  C   UNL A   1      32.672  20.480  25.019  1.00  0.00     0.010 A 
ATOM     16  C   UNL A   1      32.590  18.125  24.339  1.00  0.00     0.160 A 
ATOM     17  C   UNL A   1      32.854  19.120  25.290  1.00  0.00     0.060 A 
ATOM     18  C   UNL A   1      32.250  18.526  23.048  1.00  0.00     0.157 A 
ATOM     19  C   UNL A   1      32.250  19.878  22.709  1.00  0.00     0.051 A 
ATOM     20  C   UNL A   1      32.465  20.848  23.689  1.00  0.00     0.013 A 
BRANCH  16  21
ATOM     21  O   UNL A   1      32.712  16.870  24.860  1.00  0.00    -0.493 OA
ATOM     22  C   UNL A   1      33.999  16.321  25.069  1.00  0.00     0.278 C 
ENDBRANCH  16  21
BRANCH  18  23
ATOM     23  O   UNL A   1      31.899  17.672  22.045  1.00  0.00    -0.504 OA
ATOM     24  H   UNL A   1      31.070  17.236  22.069  1.00  0.00     0.293 HD
ENDBRANCH  18  23
ENDBRANCH  14  15
ENDBRANCH   8  14
ENDBRANCH   6   7
ENDBRANCH   4   6
ENDBRANCH   3   4
ENDBRANCH   2   3
ENDBRANCH   1   2
BRANCH   1  25
ATOM     25  O   UNL A   1      42.259  19.915  27.249  1.00  0.00    -0.374 OA
BRANCH  25  26
ATOM     26  C   UNL A   1      42.223  19.080  26.099  1.00  0.00     0.202 C 
BRANCH  26  27
ATOM     27  C   UNL A   1      43.565  18.523  25.624  1.00  0.00     0.261 C 
BRANCH  27  28
ATOM     28  O   UNL A   1      43.922  18.958  24.297  1.00  0.00    -0.460 OA
BRANCH  28  29
ATOM     29  C   UNL A   1      45.076  19.659  24.215  1.00  0.00     0.338 C 
ATOM     30  O   UNL A   1      46.127  19.303  23.696  1.00  0.00    -0.246 OA
BRANCH  29  31
ATOM     31  C   UNL A   1      44.895  21.017  24.754  1.00  0.00     0.060 A 
ATOM     32  C   UNL A   1      44.484  22.037  23.885  1.00  0.00     0.016 A 
ATOM     33  C   UNL A   1      45.261  21.316  26.066  1.00  0.00     0.016 A 
ATOM     34  C   UNL A   1      44.455  23.362  24.325  1.00  0.00     0.010 A 
ATOM     35  C   UNL A   1      45.234  22.644  26.505  1.00  0.00     0.010 A 
ATOM     36  C   UNL A   1      44.857  23.678  25.631  1.00  0.00    -0.014 A 
BRANCH  36  37
ATOM     37  C   UNL A   1      45.008  25.093  26.056  1.00  0.00     0.031 A 
ATOM     38  C   UNL A   1      46.366  25.738  25.994  1.00  0.00     0.074 A 
ATOM     39  C   UNL A   1      43.953  25.792  26.510  1.00  0.00     0.049 A 
ATOM     40  N   UNL A   1      46.746  26.918  26.413  1.00  0.00    -0.248 NA
ATOM     41  C   UNL A   1      47.440  24.942  25.381  1.00  0.00     0.031 C 
ATOM     42  C   UNL A   1      42.582  25.296  26.584  1.00  0.00     0.029 A 
ATOM     43  N   UNL A   1      43.879  27.067  27.015  1.00  0.00    -0.354 N 
ATOM     44  C   UNL A   1      48.101  27.002  26.127  1.00  0.00     0.074 A 
ATOM     45  C   UNL A   1      48.484  25.747  25.515  1.00  0.00     0.031 C 
ATOM     46  C   UNL A   1      41.803  26.250  27.122  1.00  0.00     0.029 A 
ATOM     47  C   UNL A   1      42.628  27.407  27.466  1.00  0.00     0.049 A 
ATOM     48  H   UNL A   1      44.650  27.679  27.052  1.00  0.00     0.167 HD
ATOM     49  C   UNL A   1      48.950  28.036  26.348  1.00  0.00     0.037 A 
ATOM     50  C   UNL A   1      42.204  28.512  28.109  1.00  0.00     0.037 A 
ATOM     51  C   UNL A   1      48.570  29.286  26.950  1.00  0.00     0.049 A 
ATOM     52  C   UNL A   1      43.182  29.619  28.412  1.00  0.00     0.074 A 
ATOM     53  C   UNL A   1      49.353  30.399  27.196  1.00  0.00     0.029 A 
ATOM     54  N   UNL A   1      47.295  29.583  27.408  1.00  0.00    -0.354 N 
ATOM     55  N   UNL A   1      44.457  29.699  28.117  1.00  0.00    -0.248 NA
ATOM     56  C   UNL A   1      42.662  30.787  29.139  1.00  0.00     0.031 C 
ATOM     57  C   UNL A   1      48.565  31.355  27.845  1.00  0.00     0.029 A 
ATOM     58  C   UNL A   1      47.277  30.855  27.958  1.00  0.00     0.049 A 
ATOM     59  H   UNL A   1      46.519  28.982  27.351  1.00  0.00     0.167 HD
ATOM     60  C   UNL A   1      44.883  30.932  28.593  1.00  0.00     0.074 A 
ATOM     61  C   UNL A   1      43.731  31.571  29.194  1.00  0.00     0.031 C 
ATOM     62  C   UNL A   1      46.118  31.486  28.534  1.00  0.00     0.037 A 
BRANCH  49  63
ATOM     63  C   UNL A   1      50.387  27.849  25.957  1.00  0.00     0.064 A 
ATOM     64  C   UNL A   1      50.818  28.022  24.635  1.00  0.00     0.173 A 
ATOM     65  C   UNL A   1      51.350  27.538  26.928  1.00  0.00     0.173 A 
ATOM     66  F   UNL A   1      49.932  28.310  23.668  1.00  0.00    -0.203 F 
ATOM     67  C   UNL A   1      52.159  27.866  24.293  1.00  0.00     0.198 A 
ATOM     68  C   UNL A   1      52.693  27.407  26.588  1.00  0.00     0.198 A 
ATOM     69  F   UNL A   1      50.990  27.368  28.209  1.00  0.00    -0.203 F 
ATOM     70  F   UNL A   1      52.543  27.996  23.016  1.00  0.00    -0.200 F 
ATOM     71  C   UNL A   1      53.096  27.566  25.270  1.00  0.00     0.200 A 
ATOM     72  F   UNL A   1      53.600  27.129  27.535  1.00  0.00    -0.200 F 
ATOM     73  F   UNL A   1      54.387  27.424  24.941  1.00  0.00    -0.200 F 
ENDBRANCH  49  63
BRANCH  50  74
ATOM     74  C   UNL A   1      40.783  28.624  28.532  1.00  0.00     0.064 A 
ATOM     75  C   UNL A   1      39.805  29.116  27.657  1.00  0.00     0.173 A 
ATOM     76  C   UNL A   1      40.379  28.256  29.823  1.00  0.00     0.173 A 
ATOM     77  F   UNL A   1      40.148  29.507  26.421  1.00  0.00    -0.203 F 
ATOM     78  C   UNL A   1      38.478  29.248  28.062  1.00  0.00     0.198 A 
ATOM     79  C   UNL A   1      39.047  28.364  30.219  1.00  0.00     0.198 A 
ATOM     80  F   UNL A   1      41.277  27.785  30.700  1.00  0.00    -0.203 F 
ATOM     81  F   UNL A   1      37.571  29.759  27.220  1.00  0.00    -0.200 F 
ATOM     82  C   UNL A   1      38.099  28.865  29.340  1.00  0.00     0.200 A 
ATOM     83  F   UNL A   1      38.683  27.984  31.451  1.00  0.00    -0.200 F 
ATOM     84  F   UNL A   1      36.822  28.988  29.727  1.00  0.00    -0.200 F 
ENDBRANCH  50  74
BRANCH  62  85
ATOM     85  C   UNL A   1      46.290  32.871  29.086  1.00  0.00     0.064 A 
ATOM     86  C   UNL A   1      46.108  34.010  28.288  1.00  0.00     0.173 A 
ATOM     87  C   UNL A   1      46.566  33.060  30.449  1.00  0.00     0.173 A 
ATOM     88  F   UNL A   1      45.856  33.881  26.976  1.00  0.00    -0.203 F 
ATOM     89  C   UNL A   1      46.205  35.287  28.833  1.00  0.00     0.198 A 
ATOM     90  C   UNL A   1      46.637  34.337  30.995  1.00  0.00     0.198 A 
ATOM     91  F   UNL A   1      46.742  32.003  31.255  1.00  0.00    -0.203 F 
ATOM     92  F   UNL A   1      46.055  36.362  28.047  1.00  0.00    -0.200 F 
ATOM     93  C   UNL A   1      46.460  35.450  30.186  1.00  0.00     0.200 A 
ATOM     94  F   UNL A   1      46.871  34.492  32.306  1.00  0.00    -0.200 F 
ATOM     95  F   UNL A   1      46.537  36.680  30.713  1.00  0.00    -0.200 F 
ENDBRANCH  62  85
ENDBRANCH  36  37
ENDBRANCH  29  31
ENDBRANCH  28  29
ENDBRANCH  27  28
ENDBRANCH  26  27
ENDBRANCH  25  26
ENDBRANCH   1  25
TORSDOF 19
ENDMDL
MODEL 2
REMARK VINA RESULT:     -10.8      6.052     10.660
REMARK SMILES COc1cc(C[N@@H+]2CCO[C@@H](CC(=O)OCCOCCOC(=O)c3ccc(-c4c5nc(c(-c6c(F)c(F)c(F)c(F)c6F)c6ccc([nH]6)c(-c6c(F)c(F)c(F)c(F)c6F)c6nc(c(-c7c(F)c(F)c(F)c(F)c7F)c7ccc4[nH]7)C=C6)C=C5)cc3)C2)ccc1O
REMARK SMILES IDX 17 1 16 2 15 3 13 4 14 5 12 6 11 7 7 8 8 9 87 10 9 12 10 13
REMARK SMILES IDX 6 14 5 15 3 16 4 17 90 18 89 19 88 20 2 21 1 22 91 23 18 25
REMARK SMILES IDX 19 26 20 27 21 28 22 29 23 30 24 31 25 32 86 33 26 34 85 35
REMARK SMILES IDX 27 36 28 37 29 38 79 39 30 40 84 41 78 42 80 43 31 44 83 45
REMARK SMILES IDX 77 46 76 47 32 49 64 50 44 51 63 52 45 53 48 54 62 55 81 56
REMARK SMILES IDX 46 57 47 58 61 60 82 61 49 62 33 63 34 64 42 65 35 66 36 67
REMARK SMILES IDX 40 68 43 69 37 70 38 71 41 72 39 73 65 74 66 75 74 76 67 77
REMARK SMILES IDX 68 78 72 79 75 80 69 81 70 82 73 83 71 84 50 85 51 86 59 87
REMARK SMILES IDX 52 88 53 89 57 90 60 91 54 92 55 93 58 94 56 95
REMARK H PARENT 7 11 91 24 80 48 48 59
REMARK Flexibility Score: inf
ROOT
ATOM      1  C   UNL A   1      34.417  29.819  27.014  1.00  0.00     0.202 C 
ENDROOT
BRANCH   1   2
ATOM      2  C   UNL A   1      33.625  28.570  27.409  1.00  0.00     0.261 C 
BRANCH   2   3
ATOM      3  O   UNL A   1      33.023  27.857  26.307  1.00  0.00    -0.463 OA
BRANCH   3   4
ATOM      4  C   UNL A   1      31.749  27.431  26.526  1.00  0.00     0.308 C 
ATOM      5  O   UNL A   1      31.173  27.491  27.607  1.00  0.00    -0.252 OA
BRANCH   4   6
ATOM      6  C   UNL A   1      31.154  26.725  25.345  1.00  0.00     0.160 C 
BRANCH   6   7
ATOM      7  C   UNL A   1      32.030  26.152  24.233  1.00  0.00     0.184 C 
ATOM      8  N   UNL A   1      32.110  24.448  22.321  1.00  0.00    -0.327 N 
ATOM      9  C   UNL A   1      32.172  25.594  21.413  1.00  0.00     0.291 C 
ATOM     10  C   UNL A   1      31.552  24.803  23.637  1.00  0.00     0.295 C 
ATOM     11  H   UNL A   1      31.401  23.819  21.944  1.00  0.00     0.348 HD
ATOM     12  C   UNL A   1      32.682  26.890  22.055  1.00  0.00     0.222 C 
ATOM     13  O   UNL A   1      31.955  27.202  23.235  1.00  0.00    -0.366 OA
BRANCH   8  14
ATOM     14  C   UNL A   1      33.212  23.486  22.244  1.00  0.00     0.299 C 
BRANCH  14  15
ATOM     15  C   UNL A   1      33.292  22.407  23.296  1.00  0.00     0.010 A 
ATOM     16  C   UNL A   1      34.282  21.520  25.357  1.00  0.00     0.160 A 
ATOM     17  C   UNL A   1      34.308  22.388  24.256  1.00  0.00     0.060 A 
ATOM     18  C   UNL A   1      33.265  20.570  25.420  1.00  0.00     0.157 A 
ATOM     19  C   UNL A   1      32.351  20.450  24.374  1.00  0.00     0.051 A 
ATOM     20  C   UNL A   1      32.369  21.361  23.317  1.00  0.00     0.013 A 
BRANCH  16  21
ATOM     21  O   UNL A   1      35.304  21.763  26.228  1.00  0.00    -0.493 OA
ATOM     22  C   UNL A   1      36.116  22.909  26.053  1.00  0.00     0.278 C 
ENDBRANCH  16  21
BRANCH  18  23
ATOM     23  O   UNL A   1      33.075  19.714  26.463  1.00  0.00    -0.504 OA
ATOM     24  H   UNL A   1      33.812  19.338  26.901  1.00  0.00     0.293 HD
ENDBRANCH  18  23
ENDBRANCH  14  15
ENDBRANCH   8  14
ENDBRANCH   6   7
ENDBRANCH   4   6
ENDBRANCH   3   4
ENDBRANCH   2   3
ENDBRANCH   1   2
BRANCH   1  25
ATOM     25  O   UNL A   1      33.887  31.080  27.407  1.00  0.00    -0.374 OA
BRANCH  25  26
ATOM     26  C   UNL A   1      32.519  31.338  27.121  1.00  0.00     0.202 C 
BRANCH  26  27
ATOM     27  C   UNL A   1      32.041  32.774  27.337  1.00  0.00     0.261 C 
BRANCH  27  28
ATOM     28  O   UNL A   1      33.114  33.736  27.329  1.00  0.00    -0.460 OA
BRANCH  28  29
ATOM     29  C   UNL A   1      33.174  34.536  28.418  1.00  0.00     0.338 C 
ATOM     30  O   UNL A   1      32.352  35.373  28.773  1.00  0.00    -0.246 OA
BRANCH  29  31
ATOM     31  C   UNL A   1      34.350  34.204  29.240  1.00  0.00     0.060 A 
ATOM     32  C   UNL A   1      35.626  34.456  28.721  1.00  0.00     0.016 A 
ATOM     33  C   UNL A   1      34.202  33.525  30.450  1.00  0.00     0.016 A 
ATOM     34  C   UNL A   1      36.760  34.010  29.404  1.00  0.00     0.010 A 
ATOM     35  C   UNL A   1      35.339  33.078  31.131  1.00  0.00     0.010 A 
ATOM     36  C   UNL A   1      36.623  33.293  30.601  1.00  0.00    -0.014 A 
BRANCH  36  37
ATOM     37  C   UNL A   1      37.801  32.655  31.243  1.00  0.00     0.031 A 
ATOM     38  C   UNL A   1      38.480  31.505  30.552  1.00  0.00     0.074 A 
ATOM     39  C   UNL A   1      38.250  33.083  32.435  1.00  0.00     0.049 A 
ATOM     40  N   UNL A   1      39.451  30.736  30.977  1.00  0.00    -0.248 NA
ATOM     41  C   UNL A   1      37.997  31.175  29.203  1.00  0.00     0.031 C 
ATOM     42  C   UNL A   1      37.705  34.209  33.188  1.00  0.00     0.029 A 
ATOM     43  N   UNL A   1      39.261  32.601  33.232  1.00  0.00    -0.354 N 
ATOM     44  C   UNL A   1      39.686  29.826  29.955  1.00  0.00     0.074 A 
ATOM     45  C   UNL A   1      38.745  30.124  28.897  1.00  0.00     0.031 C 
ATOM     46  C   UNL A   1      38.375  34.322  34.348  1.00  0.00     0.029 A 
ATOM     47  C   UNL A   1      39.368  33.253  34.436  1.00  0.00     0.049 A 
ATOM     48  H   UNL A   1      39.851  31.859  32.966  1.00  0.00     0.167 HD
ATOM     49  C   UNL A   1      40.608  28.834  29.903  1.00  0.00     0.037 A 
ATOM     50  C   UNL A   1      40.156  32.997  35.498  1.00  0.00     0.037 A 
ATOM     51  C   UNL A   1      41.548  28.540  30.951  1.00  0.00     0.049 A 
ATOM     52  C   UNL A   1      41.123  31.841  35.446  1.00  0.00     0.074 A 
ATOM     53  C   UNL A   1      42.533  27.569  30.980  1.00  0.00     0.029 A 
ATOM     54  N   UNL A   1      41.612  29.213  32.162  1.00  0.00    -0.354 N 
ATOM     55  N   UNL A   1      41.354  30.999  34.467  1.00  0.00    -0.248 NA
ATOM     56  C   UNL A   1      41.937  31.598  36.646  1.00  0.00     0.031 C 
ATOM     57  C   UNL A   1      43.165  27.624  32.227  1.00  0.00     0.029 A 
ATOM     58  C   UNL A   1      42.605  28.662  32.955  1.00  0.00     0.049 A 
ATOM     59  H   UNL A   1      41.038  29.970  32.419  1.00  0.00     0.167 HD
ATOM     60  C   UNL A   1      42.356  30.151  34.921  1.00  0.00     0.074 A 
ATOM     61  C   UNL A   1      42.694  30.579  36.262  1.00  0.00     0.031 C 
ATOM     62  C   UNL A   1      42.945  29.112  34.280  1.00  0.00     0.037 A 
BRANCH  49  63
ATOM     63  C   UNL A   1      40.630  27.973  28.674  1.00  0.00     0.064 A 
ATOM     64  C   UNL A   1      41.388  28.319  27.546  1.00  0.00     0.173 A 
ATOM     65  C   UNL A   1      39.920  26.764  28.643  1.00  0.00     0.173 A 
ATOM     66  F   UNL A   1      42.076  29.472  27.523  1.00  0.00    -0.203 F 
ATOM     67  C   UNL A   1      41.414  27.498  26.422  1.00  0.00     0.198 A 
ATOM     68  C   UNL A   1      39.969  25.933  27.528  1.00  0.00     0.198 A 
ATOM     69  F   UNL A   1      39.185  26.384  29.699  1.00  0.00    -0.203 F 
ATOM     70  F   UNL A   1      42.113  27.868  25.340  1.00  0.00    -0.200 F 
ATOM     71  C   UNL A   1      40.711  26.303  26.416  1.00  0.00     0.200 A 
ATOM     72  F   UNL A   1      39.298  24.772  27.528  1.00  0.00    -0.200 F 
ATOM     73  F   UNL A   1      40.744  25.510  25.336  1.00  0.00    -0.200 F 
ENDBRANCH  49  63
BRANCH  50  74
ATOM     74  C   UNL A   1      40.053  33.840  36.718  1.00  0.00     0.064 A 
ATOM     75  C   UNL A   1      39.209  33.479  37.776  1.00  0.00     0.173 A 
ATOM     76  C   UNL A   1      40.785  35.030  36.842  1.00  0.00     0.173 A 
ATOM     77  F   UNL A   1      38.469  32.364  37.691  1.00  0.00    -0.203 F 
ATOM     78  C   UNL A   1      39.090  34.283  38.908  1.00  0.00     0.198 A 
ATOM     79  C   UNL A   1      40.685  35.820  37.985  1.00  0.00     0.198 A 
ATOM     80  F   UNL A   1      41.603  35.422  35.854  1.00  0.00    -0.203 F 
ATOM     81  F   UNL A   1      38.245  33.937  39.888  1.00  0.00    -0.200 F 
ATOM     82  C   UNL A   1      39.834  35.449  39.014  1.00  0.00     0.200 A 
ATOM     83  F   UNL A   1      41.412  36.941  38.088  1.00  0.00    -0.200 F 
ATOM     84  F   UNL A   1      39.722  36.220  40.105  1.00  0.00    -0.200 F 
ENDBRANCH  50  74
BRANCH  62  85
ATOM     85  C   UNL A   1      44.051  28.390  34.992  1.00  0.00     0.064 A 
ATOM     86  C   UNL A   1      43.805  27.248  35.768  1.00  0.00     0.173 A 
ATOM     87  C   UNL A   1      45.382  28.803  34.833  1.00  0.00     0.173 A 
ATOM     88  F   UNL A   1      42.548  26.821  35.960  1.00  0.00    -0.203 F 
ATOM     89  C   UNL A   1      44.852  26.552  36.367  1.00  0.00     0.198 A 
ATOM     90  C   UNL A   1      46.428  28.091  35.412  1.00  0.00     0.198 A 
ATOM     91  F   UNL A   1      45.670  29.886  34.096  1.00  0.00    -0.203 F 
ATOM     92  F   UNL A   1      44.592  25.479  37.126  1.00  0.00    -0.200 F 
ATOM     93  C   UNL A   1      46.162  26.968  36.181  1.00  0.00     0.200 A 
ATOM     94  F   UNL A   1      47.694  28.487  35.221  1.00  0.00    -0.200 F 
ATOM     95  F   UNL A   1      47.169  26.286  36.744  1.00  0.00    -0.200 F 
ENDBRANCH  62  85
ENDBRANCH  36  37
ENDBRANCH  29  31
ENDBRANCH  28  29
ENDBRANCH  27  28
ENDBRANCH  26  27
ENDBRANCH  25  26
ENDBRANCH   1  25
TORSDOF 19
ENDMDL
MODEL 3
REMARK VINA RESULT:     -10.7      6.177     11.921
REMARK SMILES COc1cc(C[N@@H+]2CCO[C@@H](CC(=O)OCCOCCOC(=O)c3ccc(-c4c5nc(c(-c6c(F)c(F)c(F)c(F)c6F)c6ccc([nH]6)c(-c6c(F)c(F)c(F)c(F)c6F)c6nc(c(-c7c(F)c(F)c(F)c(F)c7F)c7ccc4[nH]7)C=C6)C=C5)cc3)C2)ccc1O
REMARK SMILES IDX 17 1 16 2 15 3 13 4 14 5 12 6 11 7 7 8 8 9 87 10 9 12 10 13
REMARK SMILES IDX 6 14 5 15 3 16 4 17 90 18 89 19 88 20 2 21 1 22 91 23 18 25
REMARK SMILES IDX 19 26 20 27 21 28 22 29 23 30 24 31 25 32 86 33 26 34 85 35
REMARK SMILES IDX 27 36 28 37 29 38 79 39 30 40 84 41 78 42 80 43 31 44 83 45
REMARK SMILES IDX 77 46 76 47 32 49 64 50 44 51 63 52 45 53 48 54 62 55 81 56
REMARK SMILES IDX 46 57 47 58 61 60 82 61 49 62 33 63 34 64 42 65 35 66 36 67
REMARK SMILES IDX 40 68 43 69 37 70 38 71 41 72 39 73 65 74 66 75 74 76 67 77
REMARK SMILES IDX 68 78 72 79 75 80 69 81 70 82 73 83 71 84 50 85 51 86 59 87
REMARK SMILES IDX 52 88 53 89 57 90 60 91 54 92 55 93 58 94 56 95
REMARK H PARENT 7 11 91 24 80 48 48 59
REMARK Flexibility Score: inf
ROOT
ATOM      1  C   UNL A   1      32.856  36.127  29.428  1.00  0.00     0.202 C 
ENDROOT
BRANCH   1   2
ATOM      2  C   UNL A   1      33.219  36.771  30.768  1.00  0.00     0.261 C 
BRANCH   2   3
ATOM      3  O   UNL A   1      33.547  35.841  31.822  1.00  0.00    -0.463 OA
BRANCH   3   4
ATOM      4  C   UNL A   1      34.139  36.395  32.914  1.00  0.00     0.308 C 
ATOM      5  O   UNL A   1      34.459  37.576  33.006  1.00  0.00    -0.252 OA
BRANCH   4   6
ATOM      6  C   UNL A   1      34.520  35.385  33.954  1.00  0.00     0.160 C 
BRANCH   6   7
ATOM      7  C   UNL A   1      35.589  34.328  33.687  1.00  0.00     0.184 C 
ATOM      8  N   UNL A   1      36.173  32.278  32.263  1.00  0.00    -0.327 N 
ATOM      9  C   UNL A   1      37.218  33.104  31.654  1.00  0.00     0.291 C 
ATOM     10  C   UNL A   1      35.112  33.087  32.889  1.00  0.00     0.295 C 
ATOM     11  H   UNL A   1      35.679  31.824  31.495  1.00  0.00     0.348 HD
ATOM     12  C   UNL A   1      37.667  34.296  32.506  1.00  0.00     0.222 C 
ATOM     13  O   UNL A   1      36.558  35.084  32.917  1.00  0.00    -0.366 OA
BRANCH   8  14
ATOM     14  C   UNL A   1      36.607  31.038  32.910  1.00  0.00     0.299 C 
BRANCH  14  15
ATOM     15  C   UNL A   1      37.807  31.093  33.825  1.00  0.00     0.010 A 
ATOM     16  C   UNL A   1      38.826  31.766  35.952  1.00  0.00     0.160 A 
ATOM     17  C   UNL A   1      37.808  31.864  34.992  1.00  0.00     0.060 A 
ATOM     18  C   UNL A   1      39.924  30.959  35.664  1.00  0.00     0.157 A 
ATOM     19  C   UNL A   1      40.029  30.332  34.423  1.00  0.00     0.051 A 
ATOM     20  C   UNL A   1      38.978  30.404  33.508  1.00  0.00     0.013 A 
BRANCH  16  21
ATOM     21  O   UNL A   1      38.557  32.511  37.063  1.00  0.00    -0.493 OA
ATOM     22  C   UNL A   1      37.561  32.080  37.971  1.00  0.00     0.278 C 
ENDBRANCH  16  21
BRANCH  18  23
ATOM     23  O   UNL A   1      40.948  30.715  36.530  1.00  0.00    -0.504 OA
ATOM     24  H   UNL A   1      41.339  31.421  37.005  1.00  0.00     0.293 HD
ENDBRANCH  18  23
ENDBRANCH  14  15
ENDBRANCH   8  14
ENDBRANCH   6   7
ENDBRANCH   4   6
ENDBRANCH   3   4
ENDBRANCH   2   3
ENDBRANCH   1   2
BRANCH   1  25
ATOM     25  O   UNL A   1      32.724  34.710  29.399  1.00  0.00    -0.374 OA
BRANCH  25  26
ATOM     26  C   UNL A   1      33.392  34.007  28.360  1.00  0.00     0.202 C 
BRANCH  26  27
ATOM     27  C   UNL A   1      34.497  33.045  28.795  1.00  0.00     0.261 C 
BRANCH  27  28
ATOM     28  O   UNL A   1      34.969  32.202  27.727  1.00  0.00    -0.460 OA
BRANCH  28  29
ATOM     29  C   UNL A   1      34.766  30.877  27.910  1.00  0.00     0.338 C 
ATOM     30  O   UNL A   1      33.708  30.267  27.811  1.00  0.00    -0.246 OA
BRANCH  29  31
ATOM     31  C   UNL A   1      36.042  30.185  28.153  1.00  0.00     0.060 A 
ATOM     32  C   UNL A   1      36.285  29.647  29.423  1.00  0.00     0.016 A 
ATOM     33  C   UNL A   1      37.047  30.188  27.185  1.00  0.00     0.016 A 
ATOM     34  C   UNL A   1      37.543  29.125  29.734  1.00  0.00     0.010 A 
ATOM     35  C   UNL A   1      38.307  29.667  27.499  1.00  0.00     0.010 A 
ATOM     36  C   UNL A   1      38.572  29.158  28.782  1.00  0.00    -0.014 A 
BRANCH  36  37
ATOM     37  C   UNL A   1      39.960  28.779  29.152  1.00  0.00     0.031 A 
ATOM     38  C   UNL A   1      40.801  29.747  29.937  1.00  0.00     0.074 A 
ATOM     39  C   UNL A   1      40.472  27.594  28.777  1.00  0.00     0.049 A 
ATOM     40  N   UNL A   1      42.064  29.669  30.272  1.00  0.00    -0.248 NA
ATOM     41  C   UNL A   1      40.129  30.969  30.401  1.00  0.00     0.031 C 
ATOM     42  C   UNL A   1      39.750  26.554  28.049  1.00  0.00     0.029 A 
ATOM     43  N   UNL A   1      41.734  27.075  28.945  1.00  0.00    -0.354 N 
ATOM     44  C   UNL A   1      42.340  30.834  30.975  1.00  0.00     0.074 A 
ATOM     45  C   UNL A   1      41.120  31.612  31.003  1.00  0.00     0.031 C 
ATOM     46  C   UNL A   1      40.585  25.527  27.814  1.00  0.00     0.029 A 
ATOM     47  C   UNL A   1      41.909  25.854  28.341  1.00  0.00     0.049 A 
ATOM     48  H   UNL A   1      42.444  27.535  29.447  1.00  0.00     0.167 HD
ATOM     49  C   UNL A   1      43.506  31.217  31.552  1.00  0.00     0.037 A 
ATOM     50  C   UNL A   1      43.018  25.102  28.204  1.00  0.00     0.037 A 
ATOM     51  C   UNL A   1      44.717  30.442  31.530  1.00  0.00     0.049 A 
ATOM     52  C   UNL A   1      44.322  25.584  28.789  1.00  0.00     0.074 A 
ATOM     53  C   UNL A   1      45.941  30.737  32.104  1.00  0.00     0.029 A 
ATOM     54  N   UNL A   1      44.858  29.218  30.893  1.00  0.00    -0.354 N 
ATOM     55  N   UNL A   1      44.568  26.676  29.470  1.00  0.00    -0.248 NA
ATOM     56  C   UNL A   1      45.501  24.729  28.582  1.00  0.00     0.031 C 
ATOM     57  C   UNL A   1      46.837  29.714  31.776  1.00  0.00     0.029 A 
ATOM     58  C   UNL A   1      46.156  28.757  31.039  1.00  0.00     0.049 A 
ATOM     59  H   UNL A   1      44.142  28.747  30.410  1.00  0.00     0.167 HD
ATOM     60  C   UNL A   1      45.917  26.625  29.799  1.00  0.00     0.074 A 
ATOM     61  C   UNL A   1      46.438  25.393  29.245  1.00  0.00     0.031 C 
ATOM     62  C   UNL A   1      46.655  27.519  30.501  1.00  0.00     0.037 A 
BRANCH  49  63
ATOM     63  C   UNL A   1      43.534  32.551  32.237  1.00  0.00     0.064 A 
ATOM     64  C   UNL A   1      43.338  32.672  33.620  1.00  0.00     0.173 A 
ATOM     65  C   UNL A   1      43.805  33.718  31.507  1.00  0.00     0.173 A 
ATOM     66  F   UNL A   1      43.065  31.587  34.361  1.00  0.00    -0.203 F 
ATOM     67  C   UNL A   1      43.389  33.916  34.244  1.00  0.00     0.198 A 
ATOM     68  C   UNL A   1      43.880  34.956  32.137  1.00  0.00     0.198 A 
ATOM     69  F   UNL A   1      44.006  33.655  30.182  1.00  0.00    -0.203 F 
ATOM     70  F   UNL A   1      43.160  34.014  35.561  1.00  0.00    -0.200 F 
ATOM     71  C   UNL A   1      43.667  35.056  33.504  1.00  0.00     0.200 A 
ATOM     72  F   UNL A   1      44.160  36.055  31.422  1.00  0.00    -0.200 F 
ATOM     73  F   UNL A   1      43.723  36.251  34.107  1.00  0.00    -0.200 F 
ENDBRANCH  49  63
BRANCH  50  74
ATOM     74  C   UNL A   1      42.954  23.816  27.461  1.00  0.00     0.064 A 
ATOM     75  C   UNL A   1      43.263  23.754  26.095  1.00  0.00     0.173 A 
ATOM     76  C   UNL A   1      42.567  22.628  28.097  1.00  0.00     0.173 A 
ATOM     77  F   UNL A   1      43.611  24.869  25.437  1.00  0.00    -0.203 F 
ATOM     78  C   UNL A   1      43.176  22.554  25.391  1.00  0.00     0.198 A 
ATOM     79  C   UNL A   1      42.506  21.424  27.399  1.00  0.00     0.198 A 
ATOM     80  F   UNL A   1      42.256  22.635  29.402  1.00  0.00    -0.203 F 
ATOM     81  F   UNL A   1      43.438  22.530  24.078  1.00  0.00    -0.200 F 
ATOM     82  C   UNL A   1      42.804  21.389  26.046  1.00  0.00     0.200 A 
ATOM     83  F   UNL A   1      42.155  20.299  28.036  1.00  0.00    -0.200 F 
ATOM     84  F   UNL A   1      42.724  20.235  25.369  1.00  0.00    -0.200 F 
ENDBRANCH  50  74
BRANCH  62  85
ATOM     85  C   UNL A   1      48.095  27.185  30.759  1.00  0.00     0.064 A 
ATOM     86  C   UNL A   1      49.122  27.661  29.930  1.00  0.00     0.173 A 
ATOM     87  C   UNL A   1      48.457  26.442  31.893  1.00  0.00     0.173 A 
ATOM     88  F   UNL A   1      48.826  28.363  28.826  1.00  0.00    -0.203 F 
ATOM     89  C   UNL A   1      50.457  27.396  30.222  1.00  0.00     0.198 A 
ATOM     90  C   UNL A   1      49.793  26.201  32.196  1.00  0.00     0.198 A 
ATOM     91  F   UNL A   1      47.513  25.970  32.720  1.00  0.00    -0.203 F 
ATOM     92  F   UNL A   1      51.420  27.837  29.402  1.00  0.00    -0.200 F 
ATOM     93  C   UNL A   1      50.792  26.675  31.359  1.00  0.00     0.200 A 
ATOM     94  F   UNL A   1      50.115  25.516  33.302  1.00  0.00    -0.200 F 
ATOM     95  F   UNL A   1      52.079  26.436  31.648  1.00  0.00    -0.200 F 
ENDBRANCH  62  85
ENDBRANCH  36  37
ENDBRANCH  29  31
ENDBRANCH  28  29
ENDBRANCH  27  28
ENDBRANCH  26  27
ENDBRANCH  25  26
ENDBRANCH   1  25
TORSDOF 19
ENDMDL
