MODEL 1
REMARK VINA RESULT:     -11.6      0.000      0.000
REMARK SMILES O=C(OCCOCCOC(=O)c1ccc(CN2CC(=O)N3CCCC[C@@H]3C2=O)o1)c1ccc(-c2c3nc(c(-c4c(F)c(F)c(F)c(F)c4F)c4ccc([nH]4)c(-c4c(F)c(F)c(F)c(F)c4F)c4nc(c(-c5c(F)c(F)c(F)c(F)c5F)c5ccc2[nH]5)C=C4)C=C3)cc1
REMARK SMILES IDX 6 1 5 2 4 3 3 4 2 5 1 6 30 7 31 8 92 9 32 10 91 11 33 12
REMARK SMILES IDX 34 13 35 14 85 15 36 16 90 17 84 18 86 19 37 20 89 21 83 22
REMARK SMILES IDX 82 23 38 25 70 26 50 27 69 28 51 29 54 30 68 31 87 32 52 33
REMARK SMILES IDX 53 34 67 36 88 37 55 38 39 39 40 40 48 41 41 42 42 43 46 44
REMARK SMILES IDX 49 45 43 46 44 47 47 48 45 49 71 50 72 51 80 52 73 53 74 54
REMARK SMILES IDX 78 55 81 56 75 57 76 58 79 59 77 60 56 61 57 62 65 63 58 64
REMARK SMILES IDX 59 65 63 66 66 67 60 68 61 69 64 70 62 71 7 72 8 73 9 74
REMARK SMILES IDX 10 75 11 76 12 77 13 78 29 79 14 80 15 81 16 82 17 83 18 84
REMARK SMILES IDX 27 85 19 86 26 87 28 88 20 89 21 90 25 91 22 92 24 93 23 94
REMARK H PARENT 86 24 54 35
REMARK Flexibility Score: inf
ROOT
ATOM      1  O   UNL A   1      43.176  20.135  25.010  1.00  0.00    -0.374 OA
ENDROOT
BRANCH   1   2
ATOM      2  C   UNL A   1      44.161  21.107  25.375  1.00  0.00     0.202 C 
BRANCH   2   3
ATOM      3  C   UNL A   1      44.470  22.098  24.249  1.00  0.00     0.261 C 
BRANCH   3   4
ATOM      4  O   UNL A   1      43.754  23.328  24.480  1.00  0.00    -0.460 OA
BRANCH   4   5
ATOM      5  C   UNL A   1      44.207  24.492  24.992  1.00  0.00     0.338 C 
ATOM      6  O   UNL A   1      45.232  24.987  24.525  1.00  0.00    -0.246 OA
BRANCH   5   7
ATOM      7  C   UNL A   1      43.522  25.239  26.087  1.00  0.00     0.060 A 
ATOM      8  C   UNL A   1      42.645  24.666  27.011  1.00  0.00     0.016 A 
ATOM      9  C   UNL A   1      43.902  26.580  26.274  1.00  0.00     0.016 A 
ATOM     10  C   UNL A   1      42.107  25.425  28.054  1.00  0.00     0.010 A 
ATOM     11  C   UNL A   1      43.410  27.328  27.349  1.00  0.00     0.010 A 
ATOM     12  C   UNL A   1      42.499  26.756  28.243  1.00  0.00    -0.014 A 
BRANCH  12  13
ATOM     13  C   UNL A   1      41.991  27.518  29.407  1.00  0.00     0.031 A 
ATOM     14  C   UNL A   1      42.741  27.523  30.705  1.00  0.00     0.074 A 
ATOM     15  C   UNL A   1      40.860  28.238  29.281  1.00  0.00     0.049 A 
ATOM     16  N   UNL A   1      42.452  28.140  31.822  1.00  0.00    -0.248 NA
ATOM     17  C   UNL A   1      43.980  26.734  30.753  1.00  0.00     0.031 C 
ATOM     18  C   UNL A   1      40.044  28.323  28.070  1.00  0.00     0.029 A 
ATOM     19  N   UNL A   1      40.217  29.055  30.177  1.00  0.00    -0.354 N 
ATOM     20  C   UNL A   1      43.465  27.809  32.709  1.00  0.00     0.074 A 
ATOM     21  C   UNL A   1      44.373  26.927  32.005  1.00  0.00     0.031 C 
ATOM     22  C   UNL A   1      39.034  29.181  28.283  1.00  0.00     0.029 A 
ATOM     23  C   UNL A   1      39.116  29.683  29.651  1.00  0.00     0.049 A 
ATOM     24  H   UNL A   1      40.516  29.178  31.107  1.00  0.00     0.167 HD
ATOM     25  C   UNL A   1      43.627  28.209  33.993  1.00  0.00     0.037 A 
ATOM     26  C   UNL A   1      38.271  30.570  30.208  1.00  0.00     0.037 A 
ATOM     27  C   UNL A   1      42.738  29.092  34.698  1.00  0.00     0.049 A 
ATOM     28  C   UNL A   1      38.470  30.990  31.635  1.00  0.00     0.074 A 
ATOM     29  C   UNL A   1      42.809  29.527  36.010  1.00  0.00     0.029 A 
ATOM     30  N   UNL A   1      41.617  29.685  34.140  1.00  0.00    -0.354 N 
ATOM     31  N   UNL A   1      39.413  30.641  32.473  1.00  0.00    -0.248 NA
ATOM     32  C   UNL A   1      37.477  31.917  32.196  1.00  0.00     0.031 C 
ATOM     33  C   UNL A   1      41.727  30.383  36.247  1.00  0.00     0.029 A 
ATOM     34  C   UNL A   1      40.989  30.486  35.080  1.00  0.00     0.049 A 
ATOM     35  H   UNL A   1      41.311  29.556  33.212  1.00  0.00     0.167 HD
ATOM     36  C   UNL A   1      39.131  31.302  33.658  1.00  0.00     0.074 A 
ATOM     37  C   UNL A   1      37.934  32.085  33.430  1.00  0.00     0.031 C 
ATOM     38  C   UNL A   1      39.800  31.256  34.834  1.00  0.00     0.037 A 
BRANCH  25  39
ATOM     39  C   UNL A   1      44.822  27.681  34.720  1.00  0.00     0.064 A 
ATOM     40  C   UNL A   1      44.760  26.470  35.423  1.00  0.00     0.173 A 
ATOM     41  C   UNL A   1      46.037  28.378  34.699  1.00  0.00     0.173 A 
ATOM     42  F   UNL A   1      43.610  25.781  35.478  1.00  0.00    -0.203 F 
ATOM     43  C   UNL A   1      45.877  25.977  36.092  1.00  0.00     0.198 A 
ATOM     44  C   UNL A   1      47.154  27.880  35.363  1.00  0.00     0.198 A 
ATOM     45  F   UNL A   1      46.135  29.545  34.043  1.00  0.00    -0.203 F 
ATOM     46  F   UNL A   1      45.795  24.828  36.777  1.00  0.00    -0.200 F 
ATOM     47  C   UNL A   1      47.073  26.681  36.059  1.00  0.00     0.200 A 
ATOM     48  F   UNL A   1      48.309  28.559  35.336  1.00  0.00    -0.200 F 
ATOM     49  F   UNL A   1      48.147  26.210  36.706  1.00  0.00    -0.200 F 
ENDBRANCH  25  39
BRANCH  26  50
ATOM     50  C   UNL A   1      37.169  31.135  29.398  1.00  0.00     0.064 A 
ATOM     51  C   UNL A   1      36.058  30.349  29.063  1.00  0.00     0.173 A 
ATOM     52  C   UNL A   1      37.197  32.466  28.963  1.00  0.00     0.173 A 
ATOM     53  F   UNL A   1      36.011  29.065  29.448  1.00  0.00    -0.203 F 
ATOM     54  C   UNL A   1      35.006  30.876  28.317  1.00  0.00     0.198 A 
ATOM     55  C   UNL A   1      36.142  32.996  28.225  1.00  0.00     0.198 A 
ATOM     56  F   UNL A   1      38.247  33.246  29.260  1.00  0.00    -0.203 F 
ATOM     57  F   UNL A   1      33.959  30.105  27.994  1.00  0.00    -0.200 F 
ATOM     58  C   UNL A   1      35.050  32.201  27.902  1.00  0.00     0.200 A 
ATOM     59  F   UNL A   1      36.179  34.275  27.823  1.00  0.00    -0.200 F 
ATOM     60  F   UNL A   1      34.039  32.711  27.187  1.00  0.00    -0.200 F 
ENDBRANCH  26  50
BRANCH  38  61
ATOM     61  C   UNL A   1      39.250  32.072  35.959  1.00  0.00     0.064 A 
ATOM     62  C   UNL A   1      38.335  31.521  36.866  1.00  0.00     0.173 A 
ATOM     63  C   UNL A   1      39.658  33.399  36.146  1.00  0.00     0.173 A 
ATOM     64  F   UNL A   1      37.910  30.258  36.710  1.00  0.00    -0.203 F 
ATOM     65  C   UNL A   1      37.841  32.276  37.925  1.00  0.00     0.198 A 
ATOM     66  C   UNL A   1      39.168  34.151  37.209  1.00  0.00     0.198 A 
ATOM     67  F   UNL A   1      40.527  33.965  35.293  1.00  0.00    -0.203 F 
ATOM     68  F   UNL A   1      36.954  31.739  38.775  1.00  0.00    -0.200 F 
ATOM     69  C   UNL A   1      38.259  33.588  38.096  1.00  0.00     0.200 A 
ATOM     70  F   UNL A   1      39.566  35.420  37.375  1.00  0.00    -0.200 F 
ATOM     71  F   UNL A   1      37.780  34.315  39.114  1.00  0.00    -0.200 F 
ENDBRANCH  38  61
ENDBRANCH  12  13
ENDBRANCH   5   7
ENDBRANCH   4   5
ENDBRANCH   3   4
ENDBRANCH   2   3
ENDBRANCH   1   2
BRANCH   1  72
ATOM     72  C   UNL A   1      42.907  19.140  26.008  1.00  0.00     0.202 C 
BRANCH  72  73
ATOM     73  C   UNL A   1      41.588  19.473  26.717  1.00  0.00     0.261 C 
BRANCH  73  74
ATOM     74  O   UNL A   1      41.045  20.669  26.132  1.00  0.00    -0.457 OA
BRANCH  74  75
ATOM     75  C   UNL A   1      40.571  21.569  27.044  1.00  0.00     0.374 C 
ATOM     76  O   UNL A   1      41.084  21.801  28.132  1.00  0.00    -0.242 OA
BRANCH  75  77
ATOM     77  C   UNL A   1      39.477  22.293  26.449  1.00  0.00     0.211 A 
ATOM     78  C   UNL A   1      39.007  23.587  26.583  1.00  0.00     0.058 A 
ATOM     79  O   UNL A   1      38.616  21.587  25.660  1.00  0.00    -0.452 OA
ATOM     80  C   UNL A   1      37.792  23.662  25.853  1.00  0.00     0.048 A 
ATOM     81  C   UNL A   1      37.574  22.403  25.332  1.00  0.00     0.124 A 
BRANCH  81  82
ATOM     82  C   UNL A   1      36.460  21.775  24.564  1.00  0.00     0.195 C 
BRANCH  82  83
ATOM     83  N   UNL A   1      35.212  22.421  24.931  1.00  0.00    -0.324 N 
ATOM     84  C   UNL A   1      34.444  21.865  26.026  1.00  0.00     0.220 C 
ATOM     85  C   UNL A   1      34.691  23.425  24.128  1.00  0.00     0.246 C 
ATOM     86  C   UNL A   1      33.459  22.795  26.726  1.00  0.00     0.242 C 
ATOM     87  C   UNL A   1      33.784  24.420  24.892  1.00  0.00     0.174 C 
ATOM     88  O   UNL A   1      35.128  23.658  23.001  1.00  0.00    -0.272 OA
ATOM     89  O   UNL A   1      33.007  22.505  27.834  1.00  0.00    -0.273 OA
ATOM     90  N   UNL A   1      32.942  23.822  25.940  1.00  0.00    -0.329 N 
ATOM     91  C   UNL A   1      32.956  25.225  23.880  1.00  0.00     0.035 C 
ATOM     92  C   UNL A   1      31.928  24.674  26.552  1.00  0.00     0.120 C 
ATOM     93  C   UNL A   1      31.996  26.192  24.563  1.00  0.00     0.004 C 
ATOM     94  C   UNL A   1      31.098  25.436  25.531  1.00  0.00     0.022 C 
ENDBRANCH  82  83
ENDBRANCH  81  82
ENDBRANCH  75  77
ENDBRANCH  74  75
ENDBRANCH  73  74
ENDBRANCH  72  73
ENDBRANCH   1  72
TORSDOF 16
ENDMDL
MODEL 2
REMARK VINA RESULT:     -11.5      0.506      7.255
REMARK SMILES O=C(OCCOCCOC(=O)c1ccc(CN2CC(=O)N3CCCC[C@@H]3C2=O)o1)c1ccc(-c2c3nc(c(-c4c(F)c(F)c(F)c(F)c4F)c4ccc([nH]4)c(-c4c(F)c(F)c(F)c(F)c4F)c4nc(c(-c5c(F)c(F)c(F)c(F)c5F)c5ccc2[nH]5)C=C4)C=C3)cc1
REMARK SMILES IDX 6 1 5 2 4 3 3 4 2 5 1 6 30 7 31 8 92 9 32 10 91 11 33 12
REMARK SMILES IDX 34 13 35 14 85 15 36 16 90 17 84 18 86 19 37 20 89 21 83 22
REMARK SMILES IDX 82 23 38 25 70 26 50 27 69 28 51 29 54 30 68 31 87 32 52 33
REMARK SMILES IDX 53 34 67 36 88 37 55 38 39 39 40 40 48 41 41 42 42 43 46 44
REMARK SMILES IDX 49 45 43 46 44 47 47 48 45 49 71 50 72 51 80 52 73 53 74 54
REMARK SMILES IDX 78 55 81 56 75 57 76 58 79 59 77 60 56 61 57 62 65 63 58 64
REMARK SMILES IDX 59 65 63 66 66 67 60 68 61 69 64 70 62 71 7 72 8 73 9 74
REMARK SMILES IDX 10 75 11 76 12 77 13 78 29 79 14 80 15 81 16 82 17 83 18 84
REMARK SMILES IDX 27 85 19 86 26 87 28 88 20 89 21 90 25 91 22 92 24 93 23 94
REMARK H PARENT 86 24 54 35
REMARK Flexibility Score: inf
ROOT
ATOM      1  O   UNL A   1      43.053  20.234  25.243  1.00  0.00    -0.374 OA
ENDROOT
BRANCH   1   2
ATOM      2  C   UNL A   1      43.882  21.334  25.633  1.00  0.00     0.202 C 
BRANCH   2   3
ATOM      3  C   UNL A   1      44.221  22.269  24.470  1.00  0.00     0.261 C 
BRANCH   3   4
ATOM      4  O   UNL A   1      43.530  23.523  24.644  1.00  0.00    -0.460 OA
BRANCH   4   5
ATOM      5  C   UNL A   1      44.003  24.695  25.122  1.00  0.00     0.338 C 
ATOM      6  O   UNL A   1      45.023  25.170  24.626  1.00  0.00    -0.246 OA
BRANCH   5   7
ATOM      7  C   UNL A   1      43.344  25.471  26.212  1.00  0.00     0.060 A 
ATOM      8  C   UNL A   1      42.484  24.925  27.168  1.00  0.00     0.016 A 
ATOM      9  C   UNL A   1      43.733  26.815  26.358  1.00  0.00     0.016 A 
ATOM     10  C   UNL A   1      41.971  25.712  28.202  1.00  0.00     0.010 A 
ATOM     11  C   UNL A   1      43.267  27.592  27.424  1.00  0.00     0.010 A 
ATOM     12  C   UNL A   1      42.373  27.046  28.351  1.00  0.00    -0.014 A 
BRANCH  12  13
ATOM     13  C   UNL A   1      41.891  27.839  29.506  1.00  0.00     0.031 A 
ATOM     14  C   UNL A   1      40.625  28.634  29.413  1.00  0.00     0.074 A 
ATOM     15  C   UNL A   1      42.586  27.813  30.659  1.00  0.00     0.049 A 
ATOM     16  N   UNL A   1      40.048  29.376  30.323  1.00  0.00    -0.248 NA
ATOM     17  C   UNL A   1      39.911  28.589  28.128  1.00  0.00     0.031 C 
ATOM     18  C   UNL A   1      43.827  27.070  30.880  1.00  0.00     0.029 A 
ATOM     19  N   UNL A   1      42.331  28.408  31.868  1.00  0.00    -0.354 N 
ATOM     20  C   UNL A   1      38.909  29.893  29.724  1.00  0.00     0.074 A 
ATOM     21  C   UNL A   1      38.880  29.390  28.366  1.00  0.00     0.031 C 
ATOM     22  C   UNL A   1      44.202  27.217  32.161  1.00  0.00     0.029 A 
ATOM     23  C   UNL A   1      43.245  28.085  32.840  1.00  0.00     0.049 A 
ATOM     24  H   UNL A   1      41.568  29.010  32.024  1.00  0.00     0.167 HD
ATOM     25  C   UNL A   1      37.970  30.709  30.259  1.00  0.00     0.037 A 
ATOM     26  C   UNL A   1      43.300  28.443  34.136  1.00  0.00     0.037 A 
ATOM     27  C   UNL A   1      37.983  31.205  31.608  1.00  0.00     0.049 A 
ATOM     28  C   UNL A   1      42.251  29.354  34.701  1.00  0.00     0.074 A 
ATOM     29  C   UNL A   1      37.088  32.061  32.225  1.00  0.00     0.029 A 
ATOM     30  N   UNL A   1      38.942  30.879  32.554  1.00  0.00    -0.354 N 
ATOM     31  N   UNL A   1      41.198  29.864  34.112  1.00  0.00    -0.248 NA
ATOM     32  C   UNL A   1      42.405  29.749  36.108  1.00  0.00     0.031 C 
ATOM     33  C   UNL A   1      37.506  32.254  33.547  1.00  0.00     0.029 A 
ATOM     34  C   UNL A   1      38.657  31.512  33.753  1.00  0.00     0.049 A 
ATOM     35  H   UNL A   1      39.711  30.284  32.398  1.00  0.00     0.167 HD
ATOM     36  C   UNL A   1      40.565  30.639  35.071  1.00  0.00     0.074 A 
ATOM     37  C   UNL A   1      41.343  30.524  36.287  1.00  0.00     0.031 C 
ATOM     38  C   UNL A   1      39.443  31.386  34.950  1.00  0.00     0.037 A 
BRANCH  25  39
ATOM     39  C   UNL A   1      36.843  31.118  29.366  1.00  0.00     0.064 A 
ATOM     40  C   UNL A   1      36.771  32.419  28.848  1.00  0.00     0.173 A 
ATOM     41  C   UNL A   1      35.841  30.204  29.014  1.00  0.00     0.173 A 
ATOM     42  F   UNL A   1      37.703  33.327  29.174  1.00  0.00    -0.203 F 
ATOM     43  C   UNL A   1      35.724  32.795  28.010  1.00  0.00     0.198 A 
ATOM     44  C   UNL A   1      34.800  30.581  28.171  1.00  0.00     0.198 A 
ATOM     45  F   UNL A   1      35.870  28.952  29.495  1.00  0.00    -0.203 F 
ATOM     46  F   UNL A   1      35.659  34.049  27.540  1.00  0.00    -0.200 F 
ATOM     47  C   UNL A   1      34.742  31.875  27.671  1.00  0.00     0.200 A 
ATOM     48  F   UNL A   1      33.848  29.695  27.844  1.00  0.00    -0.200 F 
ATOM     49  F   UNL A   1      33.732  32.237  26.869  1.00  0.00    -0.200 F 
ENDBRANCH  25  39
BRANCH  26  50
ATOM     50  C   UNL A   1      44.386  27.915  34.993  1.00  0.00     0.064 A 
ATOM     51  C   UNL A   1      45.576  28.637  35.156  1.00  0.00     0.173 A 
ATOM     52  C   UNL A   1      44.248  26.699  35.673  1.00  0.00     0.173 A 
ATOM     53  F   UNL A   1      45.746  29.796  34.502  1.00  0.00    -0.203 F 
ATOM     54  C   UNL A   1      46.598  28.159  35.974  1.00  0.00     0.198 A 
ATOM     55  C   UNL A   1      45.265  26.225  36.497  1.00  0.00     0.198 A 
ATOM     56  F   UNL A   1      43.125  25.979  35.535  1.00  0.00    -0.203 F 
ATOM     57  F   UNL A   1      47.734  28.856  36.106  1.00  0.00    -0.200 F 
ATOM     58  C   UNL A   1      46.437  26.955  36.645  1.00  0.00     0.200 A 
ATOM     59  F   UNL A   1      45.114  25.063  37.149  1.00  0.00    -0.200 F 
ATOM     60  F   UNL A   1      47.417  26.494  37.435  1.00  0.00    -0.200 F 
ENDBRANCH  26  50
BRANCH  38  61
ATOM     61  C   UNL A   1      38.995  32.137  36.163  1.00  0.00     0.064 A 
ATOM     62  C   UNL A   1      38.166  31.531  37.116  1.00  0.00     0.173 A 
ATOM     63  C   UNL A   1      39.417  33.454  36.385  1.00  0.00     0.173 A 
ATOM     64  F   UNL A   1      37.730  30.276  36.930  1.00  0.00    -0.203 F 
ATOM     65  C   UNL A   1      37.768  32.225  38.255  1.00  0.00     0.198 A 
ATOM     66  C   UNL A   1      39.023  34.144  37.528  1.00  0.00     0.198 A 
ATOM     67  F   UNL A   1      40.206  34.070  35.490  1.00  0.00    -0.203 F 
ATOM     68  F   UNL A   1      36.961  31.637  39.150  1.00  0.00    -0.200 F 
ATOM     69  C   UNL A   1      38.198  33.528  38.460  1.00  0.00     0.200 A 
ATOM     70  F   UNL A   1      39.434  35.404  37.727  1.00  0.00    -0.200 F 
ATOM     71  F   UNL A   1      37.812  34.196  39.555  1.00  0.00    -0.200 F 
ENDBRANCH  38  61
ENDBRANCH  12  13
ENDBRANCH   5   7
ENDBRANCH   4   5
ENDBRANCH   3   4
ENDBRANCH   2   3
ENDBRANCH   1   2
BRANCH   1  72
ATOM     72  C   UNL A   1      42.703  19.332  26.303  1.00  0.00     0.202 C 
BRANCH  72  73
ATOM     73  C   UNL A   1      41.235  19.548  26.692  1.00  0.00     0.261 C 
BRANCH  73  74
ATOM     74  O   UNL A   1      40.770  20.755  26.066  1.00  0.00    -0.457 OA
BRANCH  74  75
ATOM     75  C   UNL A   1      40.343  21.709  26.945  1.00  0.00     0.374 C 
ATOM     76  O   UNL A   1      40.885  21.974  28.011  1.00  0.00    -0.242 OA
BRANCH  75  77
ATOM     77  C   UNL A   1      39.257  22.438  26.340  1.00  0.00     0.211 A 
ATOM     78  C   UNL A   1      38.752  23.714  26.516  1.00  0.00     0.058 A 
ATOM     79  O   UNL A   1      38.445  21.754  25.483  1.00  0.00    -0.452 OA
ATOM     80  C   UNL A   1      37.566  23.799  25.740  1.00  0.00     0.048 A 
ATOM     81  C   UNL A   1      37.399  22.563  25.151  1.00  0.00     0.124 A 
BRANCH  81  82
ATOM     82  C   UNL A   1      36.333  21.949  24.307  1.00  0.00     0.195 C 
BRANCH  82  83
ATOM     83  N   UNL A   1      35.035  22.338  24.833  1.00  0.00    -0.324 N 
ATOM     84  C   UNL A   1      34.546  21.670  26.022  1.00  0.00     0.220 C 
ATOM     85  C   UNL A   1      34.219  23.189  24.102  1.00  0.00     0.246 C 
ATOM     86  C   UNL A   1      33.487  22.401  26.843  1.00  0.00     0.242 C 
ATOM     87  C   UNL A   1      33.231  24.000  24.975  1.00  0.00     0.174 C 
ATOM     88  O   UNL A   1      34.450  23.471  22.926  1.00  0.00    -0.272 OA
ATOM     89  O   UNL A   1      33.252  22.060  28.002  1.00  0.00    -0.273 OA
ATOM     90  N   UNL A   1      32.673  23.276  26.127  1.00  0.00    -0.329 N 
ATOM     91  C   UNL A   1      32.132  24.587  24.078  1.00  0.00     0.035 C 
ATOM     92  C   UNL A   1      31.592  23.920  26.864  1.00  0.00     0.120 C 
ATOM     93  C   UNL A   1      31.088  25.358  24.878  1.00  0.00     0.004 C 
ATOM     94  C   UNL A   1      30.498  24.465  25.959  1.00  0.00     0.022 C 
ENDBRANCH  82  83
ENDBRANCH  81  82
ENDBRANCH  75  77
ENDBRANCH  74  75
ENDBRANCH  73  74
ENDBRANCH  72  73
ENDBRANCH   1  72
TORSDOF 16
ENDMDL
MODEL 3
REMARK VINA RESULT:     -11.5      5.131     11.741
REMARK SMILES O=C(OCCOCCOC(=O)c1ccc(CN2CC(=O)N3CCCC[C@@H]3C2=O)o1)c1ccc(-c2c3nc(c(-c4c(F)c(F)c(F)c(F)c4F)c4ccc([nH]4)c(-c4c(F)c(F)c(F)c(F)c4F)c4nc(c(-c5c(F)c(F)c(F)c(F)c5F)c5ccc2[nH]5)C=C4)C=C3)cc1
REMARK SMILES IDX 6 1 5 2 4 3 3 4 2 5 1 6 30 7 31 8 92 9 32 10 91 11 33 12
REMARK SMILES IDX 34 13 35 14 85 15 36 16 90 17 84 18 86 19 37 20 89 21 83 22
REMARK SMILES IDX 82 23 38 25 70 26 50 27 69 28 51 29 54 30 68 31 87 32 52 33
REMARK SMILES IDX 53 34 67 36 88 37 55 38 39 39 40 40 48 41 41 42 42 43 46 44
REMARK SMILES IDX 49 45 43 46 44 47 47 48 45 49 71 50 72 51 80 52 73 53 74 54
REMARK SMILES IDX 78 55 81 56 75 57 76 58 79 59 77 60 56 61 57 62 65 63 58 64
REMARK SMILES IDX 59 65 63 66 66 67 60 68 61 69 64 70 62 71 7 72 8 73 9 74
REMARK SMILES IDX 10 75 11 76 12 77 13 78 29 79 14 80 15 81 16 82 17 83 18 84
REMARK SMILES IDX 27 85 19 86 26 87 28 88 20 89 21 90 25 91 22 92 24 93 23 94
REMARK H PARENT 86 24 54 35
REMARK Flexibility Score: inf
ROOT
ATOM      1  O   UNL A   1      33.086  34.572  29.672  1.00  0.00    -0.374 OA
ENDROOT
BRANCH   1   2
ATOM      2  C   UNL A   1      33.673  34.346  28.386  1.00  0.00     0.202 C 
BRANCH   2   3
ATOM      3  C   UNL A   1      33.275  32.999  27.774  1.00  0.00     0.261 C 
BRANCH   3   4
ATOM      4  O   UNL A   1      34.026  31.943  28.405  1.00  0.00    -0.460 OA
BRANCH   4   5
ATOM      5  C   UNL A   1      34.508  30.802  27.866  1.00  0.00     0.338 C 
ATOM      6  O   UNL A   1      33.829  30.209  27.029  1.00  0.00    -0.246 OA
BRANCH   5   7
ATOM      7  C   UNL A   1      35.838  30.221  28.208  1.00  0.00     0.060 A 
ATOM      8  C   UNL A   1      36.963  30.267  27.380  1.00  0.00     0.016 A 
ATOM      9  C   UNL A   1      35.993  29.718  29.513  1.00  0.00     0.016 A 
ATOM     10  C   UNL A   1      38.192  29.764  27.813  1.00  0.00     0.010 A 
ATOM     11  C   UNL A   1      37.235  29.265  29.971  1.00  0.00     0.010 A 
ATOM     12  C   UNL A   1      38.344  29.277  29.118  1.00  0.00    -0.014 A 
BRANCH  12  13
ATOM     13  C   UNL A   1      39.676  28.834  29.591  1.00  0.00     0.031 A 
ATOM     14  C   UNL A   1      40.377  29.565  30.695  1.00  0.00     0.074 A 
ATOM     15  C   UNL A   1      40.242  27.743  29.041  1.00  0.00     0.049 A 
ATOM     16  N   UNL A   1      41.539  29.314  31.243  1.00  0.00    -0.248 NA
ATOM     17  C   UNL A   1      39.682  30.730  31.261  1.00  0.00     0.031 C 
ATOM     18  C   UNL A   1      39.657  26.939  27.967  1.00  0.00     0.029 A 
ATOM     19  N   UNL A   1      41.423  27.109  29.329  1.00  0.00    -0.354 N 
ATOM     20  C   UNL A   1      41.720  30.290  32.211  1.00  0.00     0.074 A 
ATOM     21  C   UNL A   1      40.553  31.148  32.169  1.00  0.00     0.031 C 
ATOM     22  C   UNL A   1      40.460  25.893  27.717  1.00  0.00     0.029 A 
ATOM     23  C   UNL A   1      41.626  25.968  28.592  1.00  0.00     0.049 A 
ATOM     24  H   UNL A   1      42.065  27.439  29.999  1.00  0.00     0.167 HD
ATOM     25  C   UNL A   1      42.761  30.454  33.060  1.00  0.00     0.037 A 
ATOM     26  C   UNL A   1      42.636  25.080  28.624  1.00  0.00     0.037 A 
ATOM     27  C   UNL A   1      43.918  29.604  33.117  1.00  0.00     0.049 A 
ATOM     28  C   UNL A   1      43.781  25.290  29.570  1.00  0.00     0.074 A 
ATOM     29  C   UNL A   1      45.036  29.712  33.927  1.00  0.00     0.029 A 
ATOM     30  N   UNL A   1      44.101  28.475  32.334  1.00  0.00    -0.354 N 
ATOM     31  N   UNL A   1      43.956  26.239  30.456  1.00  0.00    -0.248 NA
ATOM     32  C   UNL A   1      44.876  24.312  29.511  1.00  0.00     0.031 C 
ATOM     33  C   UNL A   1      45.897  28.649  33.632  1.00  0.00     0.029 A 
ATOM     34  C   UNL A   1      45.311  27.875  32.644  1.00  0.00     0.049 A 
ATOM     35  H   UNL A   1      43.465  28.147  31.657  1.00  0.00     0.167 HD
ATOM     36  C   UNL A   1      45.176  25.975  31.059  1.00  0.00     0.074 A 
ATOM     37  C   UNL A   1      45.696  24.769  30.448  1.00  0.00     0.031 C 
ATOM     38  C   UNL A   1      45.811  26.677  32.026  1.00  0.00     0.037 A 
BRANCH  25  39
ATOM     39  C   UNL A   1      42.690  31.613  34.002  1.00  0.00     0.064 A 
ATOM     40  C   UNL A   1      42.195  31.455  35.304  1.00  0.00     0.173 A 
ATOM     41  C   UNL A   1      43.133  32.883  33.607  1.00  0.00     0.173 A 
ATOM     42  F   UNL A   1      41.747  30.258  35.713  1.00  0.00    -0.203 F 
ATOM     43  C   UNL A   1      42.137  32.535  36.180  1.00  0.00     0.198 A 
ATOM     44  C   UNL A   1      43.081  33.959  34.488  1.00  0.00     0.198 A 
ATOM     45  F   UNL A   1      43.606  33.078  32.367  1.00  0.00    -0.203 F 
ATOM     46  F   UNL A   1      41.642  32.370  37.415  1.00  0.00    -0.200 F 
ATOM     47  C   UNL A   1      42.582  33.785  35.772  1.00  0.00     0.200 A 
ATOM     48  F   UNL A   1      43.506  35.168  34.095  1.00  0.00    -0.200 F 
ATOM     49  F   UNL A   1      42.523  34.825  36.614  1.00  0.00    -0.200 F 
ENDBRANCH  25  39
BRANCH  26  50
ATOM     50  C   UNL A   1      42.593  23.895  27.738  1.00  0.00     0.064 A 
ATOM     51  C   UNL A   1      42.122  22.666  28.219  1.00  0.00     0.173 A 
ATOM     52  C   UNL A   1      43.001  23.973  26.401  1.00  0.00     0.173 A 
ATOM     53  F   UNL A   1      41.743  22.554  29.501  1.00  0.00    -0.203 F 
ATOM     54  C   UNL A   1      42.061  21.548  27.390  1.00  0.00     0.198 A 
ATOM     55  C   UNL A   1      42.931  22.858  25.569  1.00  0.00     0.198 A 
ATOM     56  F   UNL A   1      43.463  25.132  25.909  1.00  0.00    -0.203 F 
ATOM     57  F   UNL A   1      41.621  20.377  27.872  1.00  0.00    -0.200 F 
ATOM     58  C   UNL A   1      42.463  21.649  26.065  1.00  0.00     0.200 A 
ATOM     59  F   UNL A   1      43.317  22.952  24.288  1.00  0.00    -0.200 F 
ATOM     60  F   UNL A   1      42.401  20.576  25.264  1.00  0.00    -0.200 F 
ENDBRANCH  26  50
BRANCH  38  61
ATOM     61  C   UNL A   1      47.138  26.158  32.479  1.00  0.00     0.064 A 
ATOM     62  C   UNL A   1      47.226  25.225  33.520  1.00  0.00     0.173 A 
ATOM     63  C   UNL A   1      48.320  26.574  31.854  1.00  0.00     0.173 A 
ATOM     64  F   UNL A   1      46.116  24.815  34.153  1.00  0.00    -0.203 F 
ATOM     65  C   UNL A   1      48.460  24.727  33.926  1.00  0.00     0.198 A 
ATOM     66  C   UNL A   1      49.553  26.070  32.256  1.00  0.00     0.198 A 
ATOM     67  F   UNL A   1      48.277  27.473  30.858  1.00  0.00    -0.203 F 
ATOM     68  F   UNL A   1      48.529  23.847  34.935  1.00  0.00    -0.200 F 
ATOM     69  C   UNL A   1      49.620  25.148  33.293  1.00  0.00     0.200 A 
ATOM     70  F   UNL A   1      50.676  26.478  31.650  1.00  0.00    -0.200 F 
ATOM     71  F   UNL A   1      50.808  24.670  33.686  1.00  0.00    -0.200 F 
ENDBRANCH  38  61
ENDBRANCH  12  13
ENDBRANCH   5   7
ENDBRANCH   4   5
ENDBRANCH   3   4
ENDBRANCH   2   3
ENDBRANCH   1   2
BRANCH   1  72
ATOM     72  C   UNL A   1      32.994  35.948  30.063  1.00  0.00     0.202 C 
BRANCH  72  73
ATOM     73  C   UNL A   1      32.514  36.034  31.517  1.00  0.00     0.261 C 
BRANCH  73  74
ATOM     74  O   UNL A   1      33.263  35.089  32.301  1.00  0.00    -0.457 OA
BRANCH  74  75
ATOM     75  C   UNL A   1      34.385  35.611  32.879  1.00  0.00     0.374 C 
ATOM     76  O   UNL A   1      34.403  36.580  33.627  1.00  0.00    -0.242 OA
BRANCH  75  77
ATOM     77  C   UNL A   1      35.499  34.745  32.583  1.00  0.00     0.211 A 
ATOM     78  C   UNL A   1      35.630  33.579  31.851  1.00  0.00     0.058 A 
ATOM     79  O   UNL A   1      36.680  35.010  33.212  1.00  0.00    -0.452 OA
ATOM     80  C   UNL A   1      36.952  33.107  32.063  1.00  0.00     0.048 A 
ATOM     81  C   UNL A   1      37.548  33.998  32.931  1.00  0.00     0.124 A 
BRANCH  81  82
ATOM     82  C   UNL A   1      38.867  34.046  33.627  1.00  0.00     0.195 C 
BRANCH  82  83
ATOM     83  N   UNL A   1      38.649  33.907  35.057  1.00  0.00    -0.324 N 
ATOM     84  C   UNL A   1      37.901  32.761  35.531  1.00  0.00     0.220 C 
ATOM     85  C   UNL A   1      38.989  34.944  35.913  1.00  0.00     0.246 C 
ATOM     86  C   UNL A   1      38.114  32.346  36.984  1.00  0.00     0.242 C 
ATOM     87  C   UNL A   1      39.309  34.479  37.354  1.00  0.00     0.174 C 
ATOM     88  O   UNL A   1      39.278  36.068  35.501  1.00  0.00    -0.272 OA
ATOM     89  O   UNL A   1      37.770  31.229  37.370  1.00  0.00    -0.273 OA
ATOM     90  N   UNL A   1      38.477  33.373  37.853  1.00  0.00    -0.329 N 
ATOM     91  C   UNL A   1      39.276  35.692  38.295  1.00  0.00     0.035 C 
ATOM     92  C   UNL A   1      38.598  33.028  39.265  1.00  0.00     0.120 C 
ATOM     93  C   UNL A   1      39.529  35.301  39.745  1.00  0.00     0.004 C 
ATOM     94  C   UNL A   1      38.529  34.240  40.180  1.00  0.00     0.022 C 
ENDBRANCH  82  83
ENDBRANCH  81  82
ENDBRANCH  75  77
ENDBRANCH  74  75
ENDBRANCH  73  74
ENDBRANCH  72  73
ENDBRANCH   1  72
TORSDOF 16
ENDMDL
