MODEL 1
REMARK VINA RESULT:      -9.1      0.000      0.000
REMARK SMILES CCCCCCNC(=O)Oc1cccc(-c2ccc([C@@H](C)C(=O)OCCOCCOC(=O)c3ccc(-c4c5nc(c(-c6c(F)c(F)c(F)c(F)c6F)c6ccc([nH]6)c(-c6c(F)c(F)c(F)c(F)c6F)c6nc(c(-c7c(F)c(F)c(F)c(F)c7F)c7ccc4[nH]7)C=C6)C=C5)cc3)cc2F)c1
REMARK SMILES IDX 22 1 23 2 20 3 21 4 19 5 16 6 17 7 97 8 18 9 96 10 98 11
REMARK SMILES IDX 15 12 11 13 12 14 99 15 13 16 14 17 10 18 8 19 7 20 9 22
REMARK SMILES IDX 6 23 5 24 4 25 3 26 2 27 1 28 24 29 25 30 26 31 27 32 28 33
REMARK SMILES IDX 29 34 30 35 31 36 32 37 33 38 34 39 95 40 35 41 94 42 36 43
REMARK SMILES IDX 37 44 38 45 88 46 39 47 93 48 87 49 89 50 40 51 92 52 86 53
REMARK SMILES IDX 85 54 41 56 73 57 53 58 72 59 54 60 57 61 71 62 90 63 55 64
REMARK SMILES IDX 56 65 70 67 91 68 58 69 42 70 43 71 51 72 44 73 45 74 49 75
REMARK SMILES IDX 52 76 46 77 47 78 50 79 48 80 74 81 75 82 83 83 76 84 77 85
REMARK SMILES IDX 81 86 84 87 78 88 79 89 82 90 80 91 59 92 60 93 68 94 61 95
REMARK SMILES IDX 62 96 66 97 69 98 63 99 64 100 67 101 65 102
REMARK H PARENT 7 21 89 55 57 66
REMARK Flexibility Score: inf
ROOT
ATOM      1  C   UNL A   1      39.857  24.416  27.263  1.00  0.00     0.313 C 
ATOM      2  O   UNL A   1      38.911  24.461  28.043  1.00  0.00    -0.252 OA
ENDROOT
BRANCH   1   3
ATOM      3  C   UNL A   1      41.011  25.403  27.345  1.00  0.00     0.126 C 
ATOM      4  C   UNL A   1      42.164  24.755  28.108  1.00  0.00     0.025 C 
BRANCH   3   5
ATOM      5  C   UNL A   1      40.718  26.814  27.849  1.00  0.00    -0.031 A 
ATOM      6  C   UNL A   1      39.955  29.364  28.894  1.00  0.00     0.018 A 
ATOM      7  C   UNL A   1      39.984  29.118  27.511  1.00  0.00     0.012 A 
ATOM      8  C   UNL A   1      40.359  28.318  29.734  1.00  0.00     0.131 A 
ATOM      9  C   UNL A   1      40.357  27.865  26.997  1.00  0.00     0.005 A 
ATOM     10  C   UNL A   1      40.734  27.070  29.229  1.00  0.00     0.044 A 
ATOM     11  F   UNL A   1      40.354  28.478  31.067  1.00  0.00    -0.206 F 
BRANCH   6  12
ATOM     12  C   UNL A   1      39.459  30.646  29.432  1.00  0.00    -0.012 A 
ATOM     13  C   UNL A   1      37.696  32.287  29.769  1.00  0.00     0.133 A 
ATOM     14  C   UNL A   1      38.582  33.154  30.404  1.00  0.00     0.047 A 
ATOM     15  C   UNL A   1      38.122  31.051  29.273  1.00  0.00     0.056 A 
ATOM     16  C   UNL A   1      39.909  32.769  30.571  1.00  0.00     0.004 A 
ATOM     17  C   UNL A   1      40.339  31.529  30.090  1.00  0.00     0.009 A 
BRANCH  13  18
ATOM     18  O   UNL A   1      36.395  32.773  29.550  1.00  0.00    -0.410 OA
BRANCH  18  19
ATOM     19  C   UNL A   1      35.336  32.128  30.166  1.00  0.00     0.412 C 
ATOM     20  N   UNL A   1      34.421  31.624  29.285  1.00  0.00    -0.321 N 
ATOM     21  H   UNL A   1      33.662  31.131  29.673  1.00  0.00     0.167 HD
ATOM     22  O   UNL A   1      35.174  32.006  31.380  1.00  0.00    -0.224 OA
BRANCH  20  23
ATOM     23  C   UNL A   1      34.448  31.736  27.838  1.00  0.00     0.119 C 
BRANCH  23  24
ATOM     24  C   UNL A   1      33.335  30.925  27.174  1.00  0.00     0.021 C 
BRANCH  24  25
ATOM     25  C   UNL A   1      33.549  29.406  27.179  1.00  0.00     0.002 C 
BRANCH  25  26
ATOM     26  C   UNL A   1      32.300  28.559  27.448  1.00  0.00    -0.000 C 
BRANCH  26  27
ATOM     27  C   UNL A   1      32.193  27.264  26.638  1.00  0.00    -0.003 C 
ATOM     28  C   UNL A   1      33.525  26.792  26.075  1.00  0.00     0.004 C 
ENDBRANCH  26  27
ENDBRANCH  25  26
ENDBRANCH  24  25
ENDBRANCH  23  24
ENDBRANCH  20  23
ENDBRANCH  18  19
ENDBRANCH  13  18
ENDBRANCH   6  12
ENDBRANCH   3   5
ENDBRANCH   1   3
BRANCH   1  29
ATOM     29  O   UNL A   1      39.965  23.526  26.242  1.00  0.00    -0.463 OA
BRANCH  29  30
ATOM     30  C   UNL A   1      40.049  22.140  26.623  1.00  0.00     0.261 C 
BRANCH  30  31
ATOM     31  C   UNL A   1      41.469  21.601  26.436  1.00  0.00     0.202 C 
BRANCH  31  32
ATOM     32  O   UNL A   1      42.209  22.137  25.341  1.00  0.00    -0.374 OA
BRANCH  32  33
ATOM     33  C   UNL A   1      43.596  22.404  25.547  1.00  0.00     0.202 C 
BRANCH  33  34
ATOM     34  C   UNL A   1      44.274  23.356  24.554  1.00  0.00     0.261 C 
BRANCH  34  35
ATOM     35  O   UNL A   1      44.088  24.739  24.903  1.00  0.00    -0.460 OA
BRANCH  35  36
ATOM     36  C   UNL A   1      45.239  25.433  25.068  1.00  0.00     0.338 C 
ATOM     37  O   UNL A   1      46.322  25.205  24.554  1.00  0.00    -0.246 OA
BRANCH  36  38
ATOM     38  C   UNL A   1      44.990  26.671  25.832  1.00  0.00     0.060 A 
ATOM     39  C   UNL A   1      45.937  27.014  26.805  1.00  0.00     0.016 A 
ATOM     40  C   UNL A   1      43.821  27.419  25.685  1.00  0.00     0.016 A 
ATOM     41  C   UNL A   1      45.684  28.060  27.687  1.00  0.00     0.010 A 
ATOM     42  C   UNL A   1      43.567  28.473  26.575  1.00  0.00     0.010 A 
ATOM     43  C   UNL A   1      44.475  28.764  27.610  1.00  0.00    -0.014 A 
BRANCH  43  44
ATOM     44  C   UNL A   1      44.110  29.670  28.729  1.00  0.00     0.031 A 
ATOM     45  C   UNL A   1      43.880  29.083  30.096  1.00  0.00     0.074 A 
ATOM     46  C   UNL A   1      44.076  31.003  28.556  1.00  0.00     0.049 A 
ATOM     47  N   UNL A   1      43.613  29.687  31.228  1.00  0.00    -0.248 NA
ATOM     48  C   UNL A   1      43.966  27.617  30.204  1.00  0.00     0.031 C 
ATOM     49  C   UNL A   1      44.324  31.696  27.294  1.00  0.00     0.029 A 
ATOM     50  N   UNL A   1      43.829  32.012  29.453  1.00  0.00    -0.354 N 
ATOM     51  C   UNL A   1      43.503  28.678  32.178  1.00  0.00     0.074 A 
ATOM     52  C   UNL A   1      43.692  27.422  31.485  1.00  0.00     0.031 C 
ATOM     53  C   UNL A   1      44.222  33.020  27.498  1.00  0.00     0.029 A 
ATOM     54  C   UNL A   1      43.879  33.267  28.898  1.00  0.00     0.049 A 
ATOM     55  H   UNL A   1      43.635  31.852  30.405  1.00  0.00     0.167 HD
ATOM     56  C   UNL A   1      43.283  28.789  33.509  1.00  0.00     0.037 A 
ATOM     57  C   UNL A   1      43.664  34.474  29.456  1.00  0.00     0.037 A 
ATOM     58  C   UNL A   1      43.100  30.038  34.202  1.00  0.00     0.049 A 
ATOM     59  C   UNL A   1      43.350  34.565  30.927  1.00  0.00     0.074 A 
ATOM     60  C   UNL A   1      42.884  30.253  35.552  1.00  0.00     0.029 A 
ATOM     61  N   UNL A   1      43.106  31.284  33.593  1.00  0.00    -0.354 N 
ATOM     62  N   UNL A   1      43.277  33.609  31.821  1.00  0.00    -0.248 NA
ATOM     63  C   UNL A   1      43.095  35.908  31.467  1.00  0.00     0.031 C 
ATOM     64  C   UNL A   1      42.710  31.627  35.753  1.00  0.00     0.029 A 
ATOM     65  C   UNL A   1      42.870  32.272  34.538  1.00  0.00     0.049 A 
ATOM     66  H   UNL A   1      43.254  31.444  32.634  1.00  0.00     0.167 HD
ATOM     67  C   UNL A   1      42.997  34.234  33.030  1.00  0.00     0.074 A 
ATOM     68  C   UNL A   1      42.930  35.655  32.758  1.00  0.00     0.031 C 
ATOM     69  C   UNL A   1      42.811  33.682  34.254  1.00  0.00     0.037 A 
BRANCH  56  70
ATOM     70  C   UNL A   1      43.207  27.519  34.306  1.00  0.00     0.064 A 
ATOM     71  C   UNL A   1      44.352  26.931  34.866  1.00  0.00     0.173 A 
ATOM     72  C   UNL A   1      41.970  26.900  34.538  1.00  0.00     0.173 A 
ATOM     73  F   UNL A   1      45.560  27.477  34.662  1.00  0.00    -0.203 F 
ATOM     74  C   UNL A   1      44.263  25.756  35.608  1.00  0.00     0.198 A 
ATOM     75  C   UNL A   1      41.881  25.740  35.305  1.00  0.00     0.198 A 
ATOM     76  F   UNL A   1      40.845  27.424  34.030  1.00  0.00    -0.203 F 
ATOM     77  F   UNL A   1      45.375  25.187  36.096  1.00  0.00    -0.200 F 
ATOM     78  C   UNL A   1      43.028  25.165  35.833  1.00  0.00     0.200 A 
ATOM     79  F   UNL A   1      40.687  25.178  35.531  1.00  0.00    -0.200 F 
ATOM     80  F   UNL A   1      42.943  24.038  36.553  1.00  0.00    -0.200 F 
ENDBRANCH  56  70
BRANCH  57  81
ATOM     81  C   UNL A   1      43.734  35.702  28.621  1.00  0.00     0.064 A 
ATOM     82  C   UNL A   1      42.581  36.262  28.054  1.00  0.00     0.173 A 
ATOM     83  C   UNL A   1      44.962  36.325  28.351  1.00  0.00     0.173 A 
ATOM     84  F   UNL A   1      41.387  35.687  28.260  1.00  0.00    -0.203 F 
ATOM     85  C   UNL A   1      42.655  37.385  27.232  1.00  0.00     0.198 A 
ATOM     86  C   UNL A   1      45.032  37.464  27.552  1.00  0.00     0.198 A 
ATOM     87  F   UNL A   1      46.096  35.826  28.866  1.00  0.00    -0.203 F 
ATOM     88  F   UNL A   1      41.545  37.869  26.661  1.00  0.00    -0.200 F 
ATOM     89  C   UNL A   1      43.880  37.988  26.986  1.00  0.00     0.200 A 
ATOM     90  F   UNL A   1      46.215  38.049  27.327  1.00  0.00    -0.200 F 
ATOM     91  F   UNL A   1      43.951  39.068  26.196  1.00  0.00    -0.200 F 
ENDBRANCH  57  81
BRANCH  69  92
ATOM     92  C   UNL A   1      42.549  34.618  35.400  1.00  0.00     0.064 A 
ATOM     93  C   UNL A   1      43.589  35.104  36.206  1.00  0.00     0.173 A 
ATOM     94  C   UNL A   1      41.246  35.060  35.674  1.00  0.00     0.173 A 
ATOM     95  F   UNL A   1      44.852  34.702  35.994  1.00  0.00    -0.203 F 
ATOM     96  C   UNL A   1      43.330  35.973  37.263  1.00  0.00     0.198 A 
ATOM     97  C   UNL A   1      40.994  35.953  36.712  1.00  0.00     0.198 A 
ATOM     98  F   UNL A   1      40.215  34.633  34.928  1.00  0.00    -0.203 F 
ATOM     99  F   UNL A   1      44.333  36.383  38.051  1.00  0.00    -0.200 F 
ATOM    100  C   UNL A   1      42.035  36.402  37.510  1.00  0.00     0.200 A 
ATOM    101  F   UNL A   1      39.744  36.378  36.941  1.00  0.00    -0.200 F 
ATOM    102  F   UNL A   1      41.788  37.241  38.525  1.00  0.00    -0.200 F 
ENDBRANCH  69  92
ENDBRANCH  43  44
ENDBRANCH  36  38
ENDBRANCH  35  36
ENDBRANCH  34  35
ENDBRANCH  33  34
ENDBRANCH  32  33
ENDBRANCH  31  32
ENDBRANCH  30  31
ENDBRANCH  29  30
ENDBRANCH   1  29
TORSDOF 23
ENDMDL
MODEL 2
REMARK VINA RESULT:      -8.9      4.014      7.725
REMARK SMILES CCCCCCNC(=O)Oc1cccc(-c2ccc([C@@H](C)C(=O)OCCOCCOC(=O)c3ccc(-c4c5nc(c(-c6c(F)c(F)c(F)c(F)c6F)c6ccc([nH]6)c(-c6c(F)c(F)c(F)c(F)c6F)c6nc(c(-c7c(F)c(F)c(F)c(F)c7F)c7ccc4[nH]7)C=C6)C=C5)cc3)cc2F)c1
REMARK SMILES IDX 22 1 23 2 20 3 21 4 19 5 16 6 17 7 97 8 18 9 96 10 98 11
REMARK SMILES IDX 15 12 11 13 12 14 99 15 13 16 14 17 10 18 8 19 7 20 9 22
REMARK SMILES IDX 6 23 5 24 4 25 3 26 2 27 1 28 24 29 25 30 26 31 27 32 28 33
REMARK SMILES IDX 29 34 30 35 31 36 32 37 33 38 34 39 95 40 35 41 94 42 36 43
REMARK SMILES IDX 37 44 38 45 88 46 39 47 93 48 87 49 89 50 40 51 92 52 86 53
REMARK SMILES IDX 85 54 41 56 73 57 53 58 72 59 54 60 57 61 71 62 90 63 55 64
REMARK SMILES IDX 56 65 70 67 91 68 58 69 42 70 43 71 51 72 44 73 45 74 49 75
REMARK SMILES IDX 52 76 46 77 47 78 50 79 48 80 74 81 75 82 83 83 76 84 77 85
REMARK SMILES IDX 81 86 84 87 78 88 79 89 82 90 80 91 59 92 60 93 68 94 61 95
REMARK SMILES IDX 62 96 66 97 69 98 63 99 64 100 67 101 65 102
REMARK H PARENT 7 21 89 55 57 66
REMARK Flexibility Score: inf
ROOT
ATOM      1  C   UNL A   1      42.599  21.559  26.065  1.00  0.00     0.313 C 
ATOM      2  O   UNL A   1      43.147  22.619  26.353  1.00  0.00    -0.252 OA
ENDROOT
BRANCH   1   3
ATOM      3  C   UNL A   1      41.345  21.085  26.781  1.00  0.00     0.126 C 
ATOM      4  C   UNL A   1      41.334  19.557  26.803  1.00  0.00     0.025 C 
BRANCH   3   5
ATOM      5  C   UNL A   1      40.001  21.655  26.337  1.00  0.00    -0.031 A 
ATOM      6  C   UNL A   1      37.416  22.729  25.750  1.00  0.00     0.018 A 
ATOM      7  C   UNL A   1      37.765  21.418  25.384  1.00  0.00     0.012 A 
ATOM      8  C   UNL A   1      38.406  23.499  26.374  1.00  0.00     0.131 A 
ATOM      9  C   UNL A   1      39.033  20.888  25.674  1.00  0.00     0.005 A 
ATOM     10  C   UNL A   1      39.671  22.980  26.663  1.00  0.00     0.044 A 
ATOM     11  F   UNL A   1      38.145  24.759  26.755  1.00  0.00    -0.206 F 
BRANCH   6  12
ATOM     12  C   UNL A   1      36.048  23.243  25.540  1.00  0.00    -0.012 A 
ATOM     13  C   UNL A   1      34.352  24.314  24.167  1.00  0.00     0.133 A 
ATOM     14  C   UNL A   1      33.442  24.294  25.220  1.00  0.00     0.047 A 
ATOM     15  C   UNL A   1      35.647  23.810  24.318  1.00  0.00     0.056 A 
ATOM     16  C   UNL A   1      33.822  23.736  26.437  1.00  0.00     0.004 A 
ATOM     17  C   UNL A   1      35.110  23.216  26.592  1.00  0.00     0.009 A 
BRANCH  13  18
ATOM     18  O   UNL A   1      33.939  24.974  22.996  1.00  0.00    -0.410 OA
BRANCH  18  19
ATOM     19  C   UNL A   1      33.088  24.310  22.128  1.00  0.00     0.412 C 
ATOM     20  N   UNL A   1      32.097  25.106  21.624  1.00  0.00    -0.321 N 
ATOM     21  H   UNL A   1      31.482  24.687  20.980  1.00  0.00     0.167 HD
ATOM     22  O   UNL A   1      33.159  23.121  21.818  1.00  0.00    -0.224 OA
BRANCH  20  23
ATOM     23  C   UNL A   1      31.854  26.501  21.938  1.00  0.00     0.119 C 
BRANCH  23  24
ATOM     24  C   UNL A   1      30.625  26.689  22.827  1.00  0.00     0.021 C 
BRANCH  24  25
ATOM     25  C   UNL A   1      30.755  27.790  23.888  1.00  0.00     0.002 C 
BRANCH  25  26
ATOM     26  C   UNL A   1      31.110  27.311  25.301  1.00  0.00    -0.000 C 
BRANCH  26  27
ATOM     27  C   UNL A   1      32.402  27.886  25.888  1.00  0.00    -0.003 C 
ATOM     28  C   UNL A   1      33.538  27.969  24.881  1.00  0.00     0.004 C 
ENDBRANCH  26  27
ENDBRANCH  25  26
ENDBRANCH  24  25
ENDBRANCH  23  24
ENDBRANCH  20  23
ENDBRANCH  18  19
ENDBRANCH  13  18
ENDBRANCH   6  12
ENDBRANCH   3   5
ENDBRANCH   1   3
BRANCH   1  29
ATOM     29  O   UNL A   1      43.055  20.695  25.121  1.00  0.00    -0.463 OA
BRANCH  29  30
ATOM     30  C   UNL A   1      44.349  20.117  25.371  1.00  0.00     0.261 C 
BRANCH  30  31
ATOM     31  C   UNL A   1      45.398  20.675  24.405  1.00  0.00     0.202 C 
BRANCH  31  32
ATOM     32  O   UNL A   1      46.263  21.682  24.925  1.00  0.00    -0.374 OA
BRANCH  32  33
ATOM     33  C   UNL A   1      45.996  23.036  24.563  1.00  0.00     0.202 C 
BRANCH  33  34
ATOM     34  C   UNL A   1      46.964  24.101  25.095  1.00  0.00     0.261 C 
BRANCH  34  35
ATOM     35  O   UNL A   1      46.347  24.973  26.058  1.00  0.00    -0.460 OA
BRANCH  35  36
ATOM     36  C   UNL A   1      45.923  26.155  25.550  1.00  0.00     0.338 C 
ATOM     37  O   UNL A   1      46.164  26.617  24.447  1.00  0.00    -0.246 OA
BRANCH  36  38
ATOM     38  C   UNL A   1      44.935  26.778  26.451  1.00  0.00     0.060 A 
ATOM     39  C   UNL A   1      44.954  28.176  26.541  1.00  0.00     0.016 A 
ATOM     40  C   UNL A   1      44.087  26.027  27.267  1.00  0.00     0.016 A 
ATOM     41  C   UNL A   1      44.182  28.825  27.499  1.00  0.00     0.010 A 
ATOM     42  C   UNL A   1      43.309  26.683  28.233  1.00  0.00     0.010 A 
ATOM     43  C   UNL A   1      43.393  28.079  28.385  1.00  0.00    -0.014 A 
BRANCH  43  44
ATOM     44  C   UNL A   1      42.812  28.766  29.567  1.00  0.00     0.031 A 
ATOM     45  C   UNL A   1      41.420  29.331  29.471  1.00  0.00     0.074 A 
ATOM     46  C   UNL A   1      43.474  28.805  30.737  1.00  0.00     0.049 A 
ATOM     47  N   UNL A   1      40.693  29.915  30.391  1.00  0.00    -0.248 NA
ATOM     48  C   UNL A   1      40.755  29.219  28.163  1.00  0.00     0.031 C 
ATOM     49  C   UNL A   1      44.808  28.255  30.970  1.00  0.00     0.029 A 
ATOM     50  N   UNL A   1      43.104  29.323  31.953  1.00  0.00    -0.354 N 
ATOM     51  C   UNL A   1      39.490  30.235  29.775  1.00  0.00     0.074 A 
ATOM     52  C   UNL A   1      39.597  29.819  28.393  1.00  0.00     0.031 C 
ATOM     53  C   UNL A   1      45.144  28.461  32.255  1.00  0.00     0.029 A 
ATOM     54  C   UNL A   1      44.060  29.176  32.928  1.00  0.00     0.049 A 
ATOM     55  H   UNL A   1      42.236  29.759  32.112  1.00  0.00     0.167 HD
ATOM     56  C   UNL A   1      38.388  30.809  30.315  1.00  0.00     0.037 A 
ATOM     57  C   UNL A   1      44.062  29.581  34.212  1.00  0.00     0.037 A 
ATOM     58  C   UNL A   1      38.276  31.220  31.690  1.00  0.00     0.049 A 
ATOM     59  C   UNL A   1      42.849  30.280  34.770  1.00  0.00     0.074 A 
ATOM     60  C   UNL A   1      37.196  31.799  32.334  1.00  0.00     0.029 A 
ATOM     61  N   UNL A   1      39.287  31.101  32.632  1.00  0.00    -0.354 N 
ATOM     62  N   UNL A   1      41.706  30.552  34.188  1.00  0.00    -0.248 NA
ATOM     63  C   UNL A   1      42.926  30.724  36.170  1.00  0.00     0.031 C 
ATOM     64  C   UNL A   1      37.570  32.074  33.654  1.00  0.00     0.029 A 
ATOM     65  C   UNL A   1      38.864  31.620  33.847  1.00  0.00     0.049 A 
ATOM     66  H   UNL A   1      40.172  30.707  32.464  1.00  0.00     0.167 HD
ATOM     67  C   UNL A   1      40.921  31.171  35.153  1.00  0.00     0.074 A 
ATOM     68  C   UNL A   1      41.713  31.218  36.366  1.00  0.00     0.031 C 
ATOM     69  C   UNL A   1      39.660  31.656  35.046  1.00  0.00     0.037 A 
BRANCH  56  70
ATOM     70  C   UNL A   1      37.216  31.045  29.407  1.00  0.00     0.064 A 
ATOM     71  C   UNL A   1      36.308  30.022  29.094  1.00  0.00     0.173 A 
ATOM     72  C   UNL A   1      36.981  32.319  28.868  1.00  0.00     0.173 A 
ATOM     73  F   UNL A   1      36.496  28.783  29.574  1.00  0.00    -0.203 F 
ATOM     74  C   UNL A   1      35.222  30.260  28.255  1.00  0.00     0.198 A 
ATOM     75  C   UNL A   1      35.878  32.560  28.053  1.00  0.00     0.198 A 
ATOM     76  F   UNL A   1      37.815  33.333  29.140  1.00  0.00    -0.203 F 
ATOM     77  F   UNL A   1      34.393  29.257  27.935  1.00  0.00    -0.200 F 
ATOM     78  C   UNL A   1      35.004  31.529  27.741  1.00  0.00     0.200 A 
ATOM     79  F   UNL A   1      35.661  33.790  27.567  1.00  0.00    -0.200 F 
ATOM     80  F   UNL A   1      33.954  31.758  26.940  1.00  0.00    -0.200 F 
ENDBRANCH  56  70
BRANCH  57  81
ATOM     81  C   UNL A   1      45.254  29.337  35.068  1.00  0.00     0.064 A 
ATOM     82  C   UNL A   1      45.394  28.147  35.796  1.00  0.00     0.173 A 
ATOM     83  C   UNL A   1      46.262  30.304  35.196  1.00  0.00     0.173 A 
ATOM     84  F   UNL A   1      44.442  27.205  35.728  1.00  0.00    -0.203 F 
ATOM     85  C   UNL A   1      46.487  27.942  36.635  1.00  0.00     0.198 A 
ATOM     86  C   UNL A   1      47.370  30.085  36.013  1.00  0.00     0.198 A 
ATOM     87  F   UNL A   1      46.173  31.461  34.524  1.00  0.00    -0.203 F 
ATOM     88  F   UNL A   1      46.572  26.818  37.358  1.00  0.00    -0.200 F 
ATOM     89  C   UNL A   1      47.476  28.909  36.738  1.00  0.00     0.200 A 
ATOM     90  F   UNL A   1      48.327  31.017  36.102  1.00  0.00    -0.200 F 
ATOM     91  F   UNL A   1      48.528  28.711  37.545  1.00  0.00    -0.200 F 
ENDBRANCH  57  81
BRANCH  69  92
ATOM     92  C   UNL A   1      39.043  32.253  36.280  1.00  0.00     0.064 A 
ATOM     93  C   UNL A   1      39.282  33.583  36.652  1.00  0.00     0.173 A 
ATOM     94  C   UNL A   1      38.178  31.492  37.081  1.00  0.00     0.173 A 
ATOM     95  F   UNL A   1      40.113  34.349  35.928  1.00  0.00    -0.203 F 
ATOM     96  C   UNL A   1      38.701  34.122  37.798  1.00  0.00     0.198 A 
ATOM     97  C   UNL A   1      37.574  32.043  38.208  1.00  0.00     0.198 A 
ATOM     98  F   UNL A   1      37.908  30.216  36.765  1.00  0.00    -0.203 F 
ATOM     99  F   UNL A   1      38.985  35.380  38.162  1.00  0.00    -0.200 F 
ATOM    100  C   UNL A   1      37.842  33.354  38.570  1.00  0.00     0.200 A 
ATOM    101  F   UNL A   1      36.733  31.304  38.945  1.00  0.00    -0.200 F 
ATOM    102  F   UNL A   1      37.281  33.875  39.669  1.00  0.00    -0.200 F 
ENDBRANCH  69  92
ENDBRANCH  43  44
ENDBRANCH  36  38
ENDBRANCH  35  36
ENDBRANCH  34  35
ENDBRANCH  33  34
ENDBRANCH  32  33
ENDBRANCH  31  32
ENDBRANCH  30  31
ENDBRANCH  29  30
ENDBRANCH   1  29
TORSDOF 23
ENDMDL
MODEL 3
REMARK VINA RESULT:      -8.8      4.425     10.108
REMARK SMILES CCCCCCNC(=O)Oc1cccc(-c2ccc([C@@H](C)C(=O)OCCOCCOC(=O)c3ccc(-c4c5nc(c(-c6c(F)c(F)c(F)c(F)c6F)c6ccc([nH]6)c(-c6c(F)c(F)c(F)c(F)c6F)c6nc(c(-c7c(F)c(F)c(F)c(F)c7F)c7ccc4[nH]7)C=C6)C=C5)cc3)cc2F)c1
REMARK SMILES IDX 22 1 23 2 20 3 21 4 19 5 16 6 17 7 97 8 18 9 96 10 98 11
REMARK SMILES IDX 15 12 11 13 12 14 99 15 13 16 14 17 10 18 8 19 7 20 9 22
REMARK SMILES IDX 6 23 5 24 4 25 3 26 2 27 1 28 24 29 25 30 26 31 27 32 28 33
REMARK SMILES IDX 29 34 30 35 31 36 32 37 33 38 34 39 95 40 35 41 94 42 36 43
REMARK SMILES IDX 37 44 38 45 88 46 39 47 93 48 87 49 89 50 40 51 92 52 86 53
REMARK SMILES IDX 85 54 41 56 73 57 53 58 72 59 54 60 57 61 71 62 90 63 55 64
REMARK SMILES IDX 56 65 70 67 91 68 58 69 42 70 43 71 51 72 44 73 45 74 49 75
REMARK SMILES IDX 52 76 46 77 47 78 50 79 48 80 74 81 75 82 83 83 76 84 77 85
REMARK SMILES IDX 81 86 84 87 78 88 79 89 82 90 80 91 59 92 60 93 68 94 61 95
REMARK SMILES IDX 62 96 66 97 69 98 63 99 64 100 67 101 65 102
REMARK H PARENT 7 21 89 55 57 66
REMARK Flexibility Score: inf
ROOT
ATOM      1  C   UNL A   1      32.119  27.965  24.335  1.00  0.00     0.313 C 
ATOM      2  O   UNL A   1      31.127  27.321  24.006  1.00  0.00    -0.252 OA
ENDROOT
BRANCH   1   3
ATOM      3  C   UNL A   1      33.516  27.575  23.878  1.00  0.00     0.126 C 
ATOM      4  C   UNL A   1      33.737  28.098  22.460  1.00  0.00     0.025 C 
BRANCH   3   5
ATOM      5  C   UNL A   1      33.938  26.115  24.016  1.00  0.00    -0.031 A 
ATOM      6  C   UNL A   1      34.956  23.464  24.357  1.00  0.00     0.018 A 
ATOM      7  C   UNL A   1      34.683  23.986  23.081  1.00  0.00     0.012 A 
ATOM      8  C   UNL A   1      34.664  24.284  25.454  1.00  0.00     0.131 A 
ATOM      9  C   UNL A   1      34.185  25.289  22.912  1.00  0.00     0.005 A 
ATOM     10  C   UNL A   1      34.166  25.580  25.294  1.00  0.00     0.044 A 
ATOM     11  F   UNL A   1      34.901  23.855  26.703  1.00  0.00    -0.206 F 
BRANCH   6  12
ATOM     12  C   UNL A   1      35.579  22.137  24.522  1.00  0.00    -0.012 A 
ATOM     13  C   UNL A   1      35.441  19.740  24.910  1.00  0.00     0.133 A 
ATOM     14  C   UNL A   1      36.829  19.631  24.923  1.00  0.00     0.047 A 
ATOM     15  C   UNL A   1      34.813  20.976  24.727  1.00  0.00     0.056 A 
ATOM     16  C   UNL A   1      37.603  20.769  24.722  1.00  0.00     0.004 A 
ATOM     17  C   UNL A   1      36.983  22.006  24.523  1.00  0.00     0.009 A 
BRANCH  13  18
ATOM     18  O   UNL A   1      34.719  18.572  25.212  1.00  0.00    -0.410 OA
BRANCH  18  19
ATOM     19  C   UNL A   1      34.409  17.701  24.180  1.00  0.00     0.412 C 
ATOM     20  N   UNL A   1      33.208  17.969  23.585  1.00  0.00    -0.321 N 
ATOM     21  H   UNL A   1      32.955  17.394  22.828  1.00  0.00     0.167 HD
ATOM     22  O   UNL A   1      35.101  16.754  23.805  1.00  0.00    -0.224 OA
BRANCH  20  23
ATOM     23  C   UNL A   1      32.266  19.009  23.951  1.00  0.00     0.119 C 
BRANCH  23  24
ATOM     24  C   UNL A   1      31.787  19.808  22.739  1.00  0.00     0.021 C 
BRANCH  24  25
ATOM     25  C   UNL A   1      32.467  21.170  22.552  1.00  0.00     0.002 C 
BRANCH  25  26
ATOM     26  C   UNL A   1      31.639  22.391  22.972  1.00  0.00    -0.000 C 
BRANCH  26  27
ATOM     27  C   UNL A   1      31.541  22.635  24.480  1.00  0.00    -0.003 C 
ATOM     28  C   UNL A   1      30.798  23.913  24.838  1.00  0.00     0.004 C 
ENDBRANCH  26  27
ENDBRANCH  25  26
ENDBRANCH  24  25
ENDBRANCH  23  24
ENDBRANCH  20  23
ENDBRANCH  18  19
ENDBRANCH  13  18
ENDBRANCH   6  12
ENDBRANCH   3   5
ENDBRANCH   1   3
BRANCH   1  29
ATOM     29  O   UNL A   1      32.089  29.052  25.150  1.00  0.00    -0.463 OA
BRANCH  29  30
ATOM     30  C   UNL A   1      33.177  29.165  26.086  1.00  0.00     0.261 C 
BRANCH  30  31
ATOM     31  C   UNL A   1      33.143  30.513  26.811  1.00  0.00     0.202 C 
BRANCH  31  32
ATOM     32  O   UNL A   1      31.860  30.974  27.228  1.00  0.00    -0.374 OA
BRANCH  32  33
ATOM     33  C   UNL A   1      31.351  32.159  26.617  1.00  0.00     0.202 C 
BRANCH  33  34
ATOM     34  C   UNL A   1      32.054  33.477  26.970  1.00  0.00     0.261 C 
BRANCH  34  35
ATOM     35  O   UNL A   1      32.404  33.559  28.362  1.00  0.00    -0.460 OA
BRANCH  35  36
ATOM     36  C   UNL A   1      33.473  34.349  28.624  1.00  0.00     0.338 C 
ATOM     37  O   UNL A   1      33.472  35.550  28.836  1.00  0.00    -0.246 OA
BRANCH  36  38
ATOM     38  C   UNL A   1      34.684  33.529  28.819  1.00  0.00     0.060 A 
ATOM     39  C   UNL A   1      34.525  32.320  29.508  1.00  0.00     0.016 A 
ATOM     40  C   UNL A   1      35.954  33.969  28.442  1.00  0.00     0.016 A 
ATOM     41  C   UNL A   1      35.641  31.582  29.889  1.00  0.00     0.010 A 
ATOM     42  C   UNL A   1      37.079  33.224  28.827  1.00  0.00     0.010 A 
ATOM     43  C   UNL A   1      36.927  32.055  29.595  1.00  0.00    -0.014 A 
BRANCH  43  44
ATOM     44  C   UNL A   1      38.088  31.406  30.257  1.00  0.00     0.031 A 
ATOM     45  C   UNL A   1      38.385  31.736  31.696  1.00  0.00     0.074 A 
ATOM     46  C   UNL A   1      38.812  30.468  29.620  1.00  0.00     0.049 A 
ATOM     47  N   UNL A   1      39.305  31.247  32.490  1.00  0.00    -0.248 NA
ATOM     48  C   UNL A   1      37.525  32.751  32.327  1.00  0.00     0.031 C 
ATOM     49  C   UNL A   1      38.597  30.029  28.243  1.00  0.00     0.029 A 
ATOM     50  N   UNL A   1      39.868  29.709  30.057  1.00  0.00    -0.354 N 
ATOM     51  C   UNL A   1      39.133  31.890  33.709  1.00  0.00     0.074 A 
ATOM     52  C   UNL A   1      38.048  32.834  33.541  1.00  0.00     0.031 C 
ATOM     53  C   UNL A   1      39.492  29.071  27.948  1.00  0.00     0.029 A 
ATOM     54  C   UNL A   1      40.356  28.846  29.106  1.00  0.00     0.049 A 
ATOM     55  H   UNL A   1      40.241  29.775  30.966  1.00  0.00     0.167 HD
ATOM     56  C   UNL A   1      39.806  31.701  34.869  1.00  0.00     0.037 A 
ATOM     57  C   UNL A   1      41.388  27.983  29.163  1.00  0.00     0.037 A 
ATOM     58  C   UNL A   1      40.881  30.760  35.041  1.00  0.00     0.049 A 
ATOM     59  C   UNL A   1      42.166  27.843  30.446  1.00  0.00     0.074 A 
ATOM     60  C   UNL A   1      41.616  30.488  36.182  1.00  0.00     0.029 A 
ATOM     61  N   UNL A   1      41.381  29.943  34.038  1.00  0.00    -0.354 N 
ATOM     62  N   UNL A   1      41.978  28.434  31.601  1.00  0.00    -0.248 NA
ATOM     63  C   UNL A   1      43.300  26.906  30.433  1.00  0.00     0.031 C 
ATOM     64  C   UNL A   1      42.593  29.540  35.857  1.00  0.00     0.029 A 
ATOM     65  C   UNL A   1      42.432  29.183  34.528  1.00  0.00     0.049 A 
ATOM     66  H   UNL A   1      41.040  29.908  33.116  1.00  0.00     0.167 HD
ATOM     67  C   UNL A   1      42.946  27.923  32.456  1.00  0.00     0.074 A 
ATOM     68  C   UNL A   1      43.711  26.959  31.692  1.00  0.00     0.031 C 
ATOM     69  C   UNL A   1      43.182  28.225  33.757  1.00  0.00     0.037 A 
BRANCH  56  70
ATOM     70  C   UNL A   1      39.408  32.547  36.045  1.00  0.00     0.064 A 
ATOM     71  C   UNL A   1      38.492  32.091  37.005  1.00  0.00     0.173 A 
ATOM     72  C   UNL A   1      39.976  33.816  36.230  1.00  0.00     0.173 A 
ATOM     73  F   UNL A   1      37.911  30.889  36.866  1.00  0.00    -0.203 F 
ATOM     74  C   UNL A   1      38.139  32.885  38.092  1.00  0.00     0.198 A 
ATOM     75  C   UNL A   1      39.643  34.596  37.335  1.00  0.00     0.198 A 
ATOM     76  F   UNL A   1      40.862  34.297  35.346  1.00  0.00    -0.203 F 
ATOM     77  F   UNL A   1      37.228  32.447  38.973  1.00  0.00    -0.200 F 
ATOM     78  C   UNL A   1      38.720  34.133  38.261  1.00  0.00     0.200 A 
ATOM     79  F   UNL A   1      40.214  35.796  37.503  1.00  0.00    -0.200 F 
ATOM     80  F   UNL A   1      38.385  34.893  39.313  1.00  0.00    -0.200 F 
ENDBRANCH  56  70
BRANCH  57  81
ATOM     81  C   UNL A   1      41.753  27.179  27.966  1.00  0.00     0.064 A 
ATOM     82  C   UNL A   1      42.701  27.642  27.043  1.00  0.00     0.173 A 
ATOM     83  C   UNL A   1      41.139  25.945  27.708  1.00  0.00     0.173 A 
ATOM     84  F   UNL A   1      43.296  28.829  27.231  1.00  0.00    -0.203 F 
ATOM     85  C   UNL A   1      43.005  26.910  25.897  1.00  0.00     0.198 A 
ATOM     86  C   UNL A   1      41.465  25.200  26.577  1.00  0.00     0.198 A 
ATOM     87  F   UNL A   1      40.222  25.460  28.559  1.00  0.00    -0.203 F 
ATOM     88  F   UNL A   1      43.877  27.398  25.005  1.00  0.00    -0.200 F 
ATOM     89  C   UNL A   1      42.391  25.687  25.668  1.00  0.00     0.200 A 
ATOM     90  F   UNL A   1      40.877  24.016  26.366  1.00  0.00    -0.200 F 
ATOM     91  F   UNL A   1      42.684  24.984  24.566  1.00  0.00    -0.200 F 
ENDBRANCH  57  81
BRANCH  69  92
ATOM     92  C   UNL A   1      44.291  27.483  34.447  1.00  0.00     0.064 A 
ATOM     93  C   UNL A   1      45.594  27.998  34.507  1.00  0.00     0.173 A 
ATOM     94  C   UNL A   1      44.039  26.258  35.084  1.00  0.00     0.173 A 
ATOM     95  F   UNL A   1      45.891  29.158  33.902  1.00  0.00    -0.203 F 
ATOM     96  C   UNL A   1      46.612  27.298  35.153  1.00  0.00     0.198 A 
ATOM     97  C   UNL A   1      45.051  25.577  35.755  1.00  0.00     0.198 A 
ATOM     98  F   UNL A   1      42.808  25.726  35.065  1.00  0.00    -0.203 F 
ATOM     99  F   UNL A   1      47.860  27.784  35.152  1.00  0.00    -0.200 F 
ATOM    100  C   UNL A   1      46.338  26.094  35.782  1.00  0.00     0.200 A 
ATOM    101  F   UNL A   1      44.782  24.420  36.375  1.00  0.00    -0.200 F 
ATOM    102  F   UNL A   1      47.317  25.424  36.405  1.00  0.00    -0.200 F 
ENDBRANCH  69  92
ENDBRANCH  43  44
ENDBRANCH  36  38
ENDBRANCH  35  36
ENDBRANCH  34  35
ENDBRANCH  33  34
ENDBRANCH  32  33
ENDBRANCH  31  32
ENDBRANCH  30  31
ENDBRANCH  29  30
ENDBRANCH   1  29
TORSDOF 23
ENDMDL
