MODEL 1
REMARK VINA RESULT:     -12.6      0.000      0.000
REMARK SMILES O=C(C[C@@H](c1cccc([N+](=O)[O-])c1)N1Cc2ccccc2C1=O)OCCOCCOC(=O)c1ccc(-c2c3nc(c(-c4c(F)c(F)c(F)c(F)c4F)c4ccc([nH]4)c(-c4c(F)c(F)c(F)c(F)c4F)c4nc(c(-c5c(F)c(F)c(F)c(F)c5F)c5ccc2[nH]5)C=C4)C=C3)cc1
REMARK SMILES IDX 26 1 25 2 24 3 2 4 1 5 3 6 4 7 5 8 6 9 13 10 7 11 9 12 8 13
REMARK SMILES IDX 10 14 11 15 12 16 14 17 15 18 22 19 16 20 21 21 23 22 17 23
REMARK SMILES IDX 20 24 18 25 19 26 27 27 28 28 29 29 30 30 31 31 32 32 33 33
REMARK SMILES IDX 34 34 95 35 35 36 94 37 36 38 37 39 38 40 88 41 39 42 93 43
REMARK SMILES IDX 87 44 89 45 40 46 92 47 86 48 85 49 41 51 73 52 53 53 72 54
REMARK SMILES IDX 54 55 57 56 71 57 90 58 55 59 56 60 70 62 91 63 58 64 42 65
REMARK SMILES IDX 43 66 51 67 44 68 45 69 49 70 52 71 46 72 47 73 50 74 48 75
REMARK SMILES IDX 74 76 75 77 83 78 76 79 77 80 81 81 84 82 78 83 79 84 82 85
REMARK SMILES IDX 80 86 59 87 60 88 68 89 61 90 62 91 66 92 69 93 63 94 64 95
REMARK SMILES IDX 67 96 65 97
REMARK H PARENT 89 50 57 61
REMARK Flexibility Score: inf
ROOT
ATOM      1  C   UNL A   1      33.629  28.416  22.394  1.00  0.00     0.202 C 
ENDROOT
BRANCH   1   2
ATOM      2  C   UNL A   1      33.059  27.000  22.518  1.00  0.00     0.261 C 
BRANCH   2   3
ATOM      3  O   UNL A   1      33.872  26.019  21.870  1.00  0.00    -0.463 OA
BRANCH   3   4
ATOM      4  C   UNL A   1      33.165  24.909  21.530  1.00  0.00     0.308 C 
ATOM      5  O   UNL A   1      32.933  24.598  20.370  1.00  0.00    -0.252 OA
BRANCH   4   6
ATOM      6  C   UNL A   1      32.662  24.166  22.736  1.00  0.00     0.152 C 
BRANCH   6   7
ATOM      7  C   UNL A   1      33.470  22.905  23.029  1.00  0.00     0.127 C 
BRANCH   7   8
ATOM      8  C   UNL A   1      34.623  23.074  24.052  1.00  0.00    -0.018 A 
ATOM      9  C   UNL A   1      34.697  24.245  24.829  1.00  0.00     0.006 A 
ATOM     10  C   UNL A   1      35.626  22.113  24.277  1.00  0.00     0.091 A 
ATOM     11  C   UNL A   1      35.735  24.458  25.753  1.00  0.00     0.007 A 
ATOM     12  C   UNL A   1      36.711  22.363  25.135  1.00  0.00     0.269 A 
ATOM     13  C   UNL A   1      36.762  23.526  25.894  1.00  0.00     0.085 A 
BRANCH  12  14
ATOM     14  N   UNL A   1      37.812  21.394  25.202  1.00  0.00     0.062 N 
ATOM     15  O   UNL A   1      37.621  20.264  24.732  1.00  0.00    -0.258 OA
ATOM     16  O   UNL A   1      38.873  21.763  25.725  1.00  0.00    -0.258 OA
ENDBRANCH  12  14
ENDBRANCH   7   8
BRANCH   7  17
ATOM     17  N   UNL A   1      32.556  21.797  23.381  1.00  0.00    -0.327 N 
ATOM     18  C   UNL A   1      32.479  21.207  24.706  1.00  0.00     0.157 C 
ATOM     19  C   UNL A   1      32.148  20.854  22.432  1.00  0.00     0.255 C 
ATOM     20  C   UNL A   1      32.783  19.789  24.375  1.00  0.00    -0.016 A 
ATOM     21  C   UNL A   1      32.276  19.537  23.098  1.00  0.00     0.045 A 
ATOM     22  O   UNL A   1      31.944  21.018  21.247  1.00  0.00    -0.269 OA
ATOM     23  C   UNL A   1      33.586  18.855  24.996  1.00  0.00     0.006 A 
ATOM     24  C   UNL A   1      32.347  18.300  22.493  1.00  0.00     0.014 A 
ATOM     25  C   UNL A   1      33.768  17.625  24.351  1.00  0.00     0.000 A 
ATOM     26  C   UNL A   1      33.100  17.327  23.146  1.00  0.00     0.001 A 
ENDBRANCH   7  17
ENDBRANCH   6   7
ENDBRANCH   4   6
ENDBRANCH   3   4
ENDBRANCH   2   3
ENDBRANCH   1   2
BRANCH   1  27
ATOM     27  O   UNL A   1      32.998  29.378  23.244  1.00  0.00    -0.374 OA
BRANCH  27  28
ATOM     28  C   UNL A   1      32.074  28.777  24.165  1.00  0.00     0.202 C 
BRANCH  28  29
ATOM     29  C   UNL A   1      31.656  29.742  25.284  1.00  0.00     0.261 C 
BRANCH  29  30
ATOM     30  O   UNL A   1      32.593  29.683  26.374  1.00  0.00    -0.460 OA
BRANCH  30  31
ATOM     31  C   UNL A   1      32.974  30.893  26.857  1.00  0.00     0.338 C 
ATOM     32  O   UNL A   1      32.306  31.916  26.875  1.00  0.00    -0.246 OA
BRANCH  31  33
ATOM     33  C   UNL A   1      34.276  30.765  27.557  1.00  0.00     0.060 A 
ATOM     34  C   UNL A   1      34.766  29.472  27.779  1.00  0.00     0.016 A 
ATOM     35  C   UNL A   1      35.036  31.871  27.948  1.00  0.00     0.016 A 
ATOM     36  C   UNL A   1      36.012  29.277  28.379  1.00  0.00     0.010 A 
ATOM     37  C   UNL A   1      36.276  31.677  28.567  1.00  0.00     0.010 A 
ATOM     38  C   UNL A   1      36.767  30.379  28.794  1.00  0.00    -0.014 A 
BRANCH  38  39
ATOM     39  C   UNL A   1      37.994  30.189  29.604  1.00  0.00     0.031 A 
ATOM     40  C   UNL A   1      39.071  29.290  29.068  1.00  0.00     0.074 A 
ATOM     41  C   UNL A   1      38.141  30.773  30.806  1.00  0.00     0.049 A 
ATOM     42  N   UNL A   1      40.146  28.838  29.659  1.00  0.00    -0.248 NA
ATOM     43  C   UNL A   1      38.910  28.838  27.676  1.00  0.00     0.031 C 
ATOM     44  C   UNL A   1      37.204  31.716  31.411  1.00  0.00     0.029 A 
ATOM     45  N   UNL A   1      39.132  30.633  31.747  1.00  0.00    -0.354 N 
ATOM     46  C   UNL A   1      40.778  28.035  28.720  1.00  0.00     0.074 A 
ATOM     47  C   UNL A   1      39.970  28.058  27.522  1.00  0.00     0.031 C 
ATOM     48  C   UNL A   1      37.646  32.042  32.640  1.00  0.00     0.029 A 
ATOM     49  C   UNL A   1      38.873  31.297  32.922  1.00  0.00     0.049 A 
ATOM     50  H   UNL A   1      39.950  30.106  31.595  1.00  0.00     0.167 HD
ATOM     51  C   UNL A   1      41.929  27.336  28.851  1.00  0.00     0.037 A 
ATOM     52  C   UNL A   1      39.529  31.267  34.101  1.00  0.00     0.037 A 
ATOM     53  C   UNL A   1      42.742  27.321  30.035  1.00  0.00     0.049 A 
ATOM     54  C   UNL A   1      40.759  30.404  34.247  1.00  0.00     0.074 A 
ATOM     55  C   UNL A   1      43.948  26.674  30.244  1.00  0.00     0.029 A 
ATOM     56  N   UNL A   1      42.428  27.976  31.215  1.00  0.00    -0.354 N 
ATOM     57  N   UNL A   1      41.362  29.659  33.353  1.00  0.00    -0.248 NA
ATOM     58  C   UNL A   1      41.389  30.364  35.578  1.00  0.00     0.031 C 
ATOM     59  C   UNL A   1      44.338  26.897  31.568  1.00  0.00     0.029 A 
ATOM     60  C   UNL A   1      43.396  27.716  32.170  1.00  0.00     0.049 A 
ATOM     61  H   UNL A   1      41.635  28.542  31.352  1.00  0.00     0.167 HD
ATOM     62  C   UNL A   1      42.445  29.081  34.004  1.00  0.00     0.074 A 
ATOM     63  C   UNL A   1      42.430  29.571  35.364  1.00  0.00     0.031 C 
ATOM     64  C   UNL A   1      43.368  28.214  33.518  1.00  0.00     0.037 A 
BRANCH  51  65
ATOM     65  C   UNL A   1      42.365  26.494  27.694  1.00  0.00     0.064 A 
ATOM     66  C   UNL A   1      43.298  26.955  26.756  1.00  0.00     0.173 A 
ATOM     67  C   UNL A   1      41.883  25.183  27.559  1.00  0.00     0.173 A 
ATOM     68  F   UNL A   1      43.773  28.206  26.836  1.00  0.00    -0.203 F 
ATOM     69  C   UNL A   1      43.730  26.134  25.719  1.00  0.00     0.198 A 
ATOM     70  C   UNL A   1      42.333  24.358  26.533  1.00  0.00     0.198 A 
ATOM     71  F   UNL A   1      40.987  24.699  28.432  1.00  0.00    -0.203 F 
ATOM     72  F   UNL A   1      44.606  26.601  24.817  1.00  0.00    -0.200 F 
ATOM     73  C   UNL A   1      43.255  24.834  25.613  1.00  0.00     0.200 A 
ATOM     74  F   UNL A   1      41.878  23.101  26.438  1.00  0.00    -0.200 F 
ATOM     75  F   UNL A   1      43.683  24.041  24.622  1.00  0.00    -0.200 F 
ENDBRANCH  51  65
BRANCH  52  76
ATOM     76  C   UNL A   1      39.004  32.017  35.273  1.00  0.00     0.064 A 
ATOM     77  C   UNL A   1      39.311  33.371  35.465  1.00  0.00     0.173 A 
ATOM     78  C   UNL A   1      38.244  31.374  36.262  1.00  0.00     0.173 A 
ATOM     79  F   UNL A   1      40.064  34.021  34.567  1.00  0.00    -0.203 F 
ATOM     80  C   UNL A   1      38.901  34.046  36.614  1.00  0.00     0.198 A 
ATOM     81  C   UNL A   1      37.809  32.057  37.395  1.00  0.00     0.198 A 
ATOM     82  F   UNL A   1      37.931  30.076  36.131  1.00  0.00    -0.203 F 
ATOM     83  F   UNL A   1      39.259  35.324  36.803  1.00  0.00    -0.200 F 
ATOM     84  C   UNL A   1      38.147  33.390  37.576  1.00  0.00     0.200 A 
ATOM     85  F   UNL A   1      37.077  31.419  38.319  1.00  0.00    -0.200 F 
ATOM     86  F   UNL A   1      37.761  34.036  38.685  1.00  0.00    -0.200 F 
ENDBRANCH  52  76
BRANCH  64  87
ATOM     87  C   UNL A   1      44.445  27.748  34.454  1.00  0.00     0.064 A 
ATOM     88  C   UNL A   1      44.279  26.602  35.244  1.00  0.00     0.173 A 
ATOM     89  C   UNL A   1      45.676  28.418  34.514  1.00  0.00     0.173 A 
ATOM     90  F   UNL A   1      43.115  25.936  35.231  1.00  0.00    -0.203 F 
ATOM     91  C   UNL A   1      45.304  26.149  36.070  1.00  0.00     0.198 A 
ATOM     92  C   UNL A   1      46.708  27.948  35.322  1.00  0.00     0.198 A 
ATOM     93  F   UNL A   1      45.886  29.516  33.772  1.00  0.00    -0.203 F 
ATOM     94  F   UNL A   1      45.114  25.070  36.841  1.00  0.00    -0.200 F 
ATOM     95  C   UNL A   1      46.519  26.817  36.102  1.00  0.00     0.200 A 
ATOM     96  F   UNL A   1      47.885  28.587  35.341  1.00  0.00    -0.200 F 
ATOM     97  F   UNL A   1      47.509  26.372  36.889  1.00  0.00    -0.200 F 
ENDBRANCH  64  87
ENDBRANCH  38  39
ENDBRANCH  31  33
ENDBRANCH  30  31
ENDBRANCH  29  30
ENDBRANCH  28  29
ENDBRANCH  27  28
ENDBRANCH   1  27
TORSDOF 18
ENDMDL
MODEL 2
REMARK VINA RESULT:     -12.5      4.156      9.983
REMARK SMILES O=C(C[C@@H](c1cccc([N+](=O)[O-])c1)N1Cc2ccccc2C1=O)OCCOCCOC(=O)c1ccc(-c2c3nc(c(-c4c(F)c(F)c(F)c(F)c4F)c4ccc([nH]4)c(-c4c(F)c(F)c(F)c(F)c4F)c4nc(c(-c5c(F)c(F)c(F)c(F)c5F)c5ccc2[nH]5)C=C4)C=C3)cc1
REMARK SMILES IDX 26 1 25 2 24 3 2 4 1 5 3 6 4 7 5 8 6 9 13 10 7 11 9 12 8 13
REMARK SMILES IDX 10 14 11 15 12 16 14 17 15 18 22 19 16 20 21 21 23 22 17 23
REMARK SMILES IDX 20 24 18 25 19 26 27 27 28 28 29 29 30 30 31 31 32 32 33 33
REMARK SMILES IDX 34 34 95 35 35 36 94 37 36 38 37 39 38 40 88 41 39 42 93 43
REMARK SMILES IDX 87 44 89 45 40 46 92 47 86 48 85 49 41 51 73 52 53 53 72 54
REMARK SMILES IDX 54 55 57 56 71 57 90 58 55 59 56 60 70 62 91 63 58 64 42 65
REMARK SMILES IDX 43 66 51 67 44 68 45 69 49 70 52 71 46 72 47 73 50 74 48 75
REMARK SMILES IDX 74 76 75 77 83 78 76 79 77 80 81 81 84 82 78 83 79 84 82 85
REMARK SMILES IDX 80 86 59 87 60 88 68 89 61 90 62 91 66 92 69 93 63 94 64 95
REMARK SMILES IDX 67 96 65 97
REMARK H PARENT 89 50 57 61
REMARK Flexibility Score: inf
ROOT
ATOM      1  C   UNL A   1      33.117  23.021  26.328  1.00  0.00     0.202 C 
ENDROOT
BRANCH   1   2
ATOM      2  C   UNL A   1      32.135  22.173  25.515  1.00  0.00     0.261 C 
BRANCH   2   3
ATOM      3  O   UNL A   1      30.926  22.871  25.209  1.00  0.00    -0.463 OA
BRANCH   3   4
ATOM      4  C   UNL A   1      31.040  23.627  24.084  1.00  0.00     0.308 C 
ATOM      5  O   UNL A   1      31.693  23.277  23.112  1.00  0.00    -0.252 OA
BRANCH   4   6
ATOM      6  C   UNL A   1      30.331  24.946  24.213  1.00  0.00     0.152 C 
BRANCH   6   7
ATOM      7  C   UNL A   1      31.282  26.136  24.130  1.00  0.00     0.127 C 
BRANCH   7   8
ATOM      8  C   UNL A   1      30.703  27.410  23.461  1.00  0.00    -0.018 A 
ATOM      9  C   UNL A   1      31.566  28.299  22.795  1.00  0.00     0.006 A 
ATOM     10  C   UNL A   1      29.338  27.750  23.462  1.00  0.00     0.091 A 
ATOM     11  C   UNL A   1      31.095  29.480  22.194  1.00  0.00     0.007 A 
ATOM     12  C   UNL A   1      28.879  28.972  22.939  1.00  0.00     0.269 A 
ATOM     13  C   UNL A   1      29.750  29.834  22.283  1.00  0.00     0.085 A 
BRANCH  12  14
ATOM     14  N   UNL A   1      27.471  29.346  23.117  1.00  0.00     0.062 N 
ATOM     15  O   UNL A   1      27.155  30.529  22.924  1.00  0.00    -0.258 OA
ATOM     16  O   UNL A   1      26.675  28.456  23.447  1.00  0.00    -0.258 OA
ENDBRANCH  12  14
ENDBRANCH   7   8
BRANCH   7  17
ATOM     17  N   UNL A   1      31.860  26.409  25.464  1.00  0.00    -0.327 N 
ATOM     18  C   UNL A   1      31.127  27.044  26.544  1.00  0.00     0.157 C 
ATOM     19  C   UNL A   1      33.228  26.641  25.636  1.00  0.00     0.255 C 
ATOM     20  C   UNL A   1      32.012  28.210  26.806  1.00  0.00    -0.016 A 
ATOM     21  C   UNL A   1      33.324  27.812  26.538  1.00  0.00     0.045 A 
ATOM     22  O   UNL A   1      34.158  26.158  25.023  1.00  0.00    -0.269 OA
ATOM     23  C   UNL A   1      31.730  29.538  27.047  1.00  0.00     0.006 A 
ATOM     24  C   UNL A   1      34.411  28.640  26.718  1.00  0.00     0.014 A 
ATOM     25  C   UNL A   1      32.809  30.427  27.125  1.00  0.00     0.000 A 
ATOM     26  C   UNL A   1      34.139  29.971  27.030  1.00  0.00     0.001 A 
ENDBRANCH   7  17
ENDBRANCH   6   7
ENDBRANCH   4   6
ENDBRANCH   3   4
ENDBRANCH   2   3
ENDBRANCH   1   2
BRANCH   1  27
ATOM     27  O   UNL A   1      34.463  22.984  25.845  1.00  0.00    -0.374 OA
BRANCH  27  28
ATOM     28  C   UNL A   1      34.741  21.800  25.080  1.00  0.00     0.202 C 
BRANCH  28  29
ATOM     29  C   UNL A   1      36.012  21.083  25.559  1.00  0.00     0.261 C 
BRANCH  29  30
ATOM     30  O   UNL A   1      37.179  21.855  25.225  1.00  0.00    -0.460 OA
BRANCH  30  31
ATOM     31  C   UNL A   1      38.337  21.386  25.757  1.00  0.00     0.338 C 
ATOM     32  O   UNL A   1      38.765  20.244  25.683  1.00  0.00    -0.246 OA
BRANCH  31  33
ATOM     33  C   UNL A   1      39.135  22.516  26.293  1.00  0.00     0.060 A 
ATOM     34  C   UNL A   1      38.663  23.813  26.052  1.00  0.00     0.016 A 
ATOM     35  C   UNL A   1      40.289  22.330  27.059  1.00  0.00     0.016 A 
ATOM     36  C   UNL A   1      39.330  24.922  26.577  1.00  0.00     0.010 A 
ATOM     37  C   UNL A   1      40.971  23.442  27.569  1.00  0.00     0.010 A 
ATOM     38  C   UNL A   1      40.500  24.744  27.324  1.00  0.00    -0.014 A 
BRANCH  38  39
ATOM     39  C   UNL A   1      41.324  25.910  27.720  1.00  0.00     0.031 A 
ATOM     40  C   UNL A   1      40.665  27.025  28.480  1.00  0.00     0.074 A 
ATOM     41  C   UNL A   1      42.625  25.998  27.387  1.00  0.00     0.049 A 
ATOM     42  N   UNL A   1      41.128  28.209  28.785  1.00  0.00    -0.248 NA
ATOM     43  C   UNL A   1      39.296  26.769  28.956  1.00  0.00     0.031 C 
ATOM     44  C   UNL A   1      43.399  24.961  26.711  1.00  0.00     0.029 A 
ATOM     45  N   UNL A   1      43.517  27.029  27.555  1.00  0.00    -0.354 N 
ATOM     46  C   UNL A   1      40.103  28.845  29.471  1.00  0.00     0.074 A 
ATOM     47  C   UNL A   1      38.993  27.921  29.537  1.00  0.00     0.031 C 
ATOM     48  C   UNL A   1      44.643  25.423  26.486  1.00  0.00     0.029 A 
ATOM     49  C   UNL A   1      44.737  26.802  26.965  1.00  0.00     0.049 A 
ATOM     50  H   UNL A   1      43.303  27.853  28.050  1.00  0.00     0.167 HD
ATOM     51  C   UNL A   1      40.089  30.093  29.994  1.00  0.00     0.037 A 
ATOM     52  C   UNL A   1      45.787  27.630  26.793  1.00  0.00     0.037 A 
ATOM     53  C   UNL A   1      41.194  31.009  29.941  1.00  0.00     0.049 A 
ATOM     54  C   UNL A   1      45.708  29.050  27.304  1.00  0.00     0.074 A 
ATOM     55  C   UNL A   1      41.284  32.281  30.481  1.00  0.00     0.029 A 
ATOM     56  N   UNL A   1      42.398  30.756  29.304  1.00  0.00    -0.354 N 
ATOM     57  N   UNL A   1      44.745  29.641  27.965  1.00  0.00    -0.248 NA
ATOM     58  C   UNL A   1      46.862  29.922  27.025  1.00  0.00     0.031 C 
ATOM     59  C   UNL A   1      42.527  32.817  30.126  1.00  0.00     0.029 A 
ATOM     60  C   UNL A   1      43.223  31.864  29.402  1.00  0.00     0.049 A 
ATOM     61  H   UNL A   1      42.631  29.915  28.850  1.00  0.00     0.167 HD
ATOM     62  C   UNL A   1      45.180  30.941  28.197  1.00  0.00     0.074 A 
ATOM     63  C   UNL A   1      46.501  31.050  27.620  1.00  0.00     0.031 C 
ATOM     64  C   UNL A   1      44.538  31.956  28.825  1.00  0.00     0.037 A 
BRANCH  51  65
ATOM     65  C   UNL A   1      38.823  30.561  30.638  1.00  0.00     0.064 A 
ATOM     66  C   UNL A   1      37.735  31.016  29.880  1.00  0.00     0.173 A 
ATOM     67  C   UNL A   1      38.678  30.496  32.031  1.00  0.00     0.173 A 
ATOM     68  F   UNL A   1      37.834  31.111  28.546  1.00  0.00    -0.203 F 
ATOM     69  C   UNL A   1      36.547  31.395  30.498  1.00  0.00     0.198 A 
ATOM     70  C   UNL A   1      37.482  30.856  32.643  1.00  0.00     0.198 A 
ATOM     71  F   UNL A   1      39.693  30.068  32.797  1.00  0.00    -0.203 F 
ATOM     72  F   UNL A   1      35.525  31.850  29.759  1.00  0.00    -0.200 F 
ATOM     73  C   UNL A   1      36.417  31.306  31.877  1.00  0.00     0.200 A 
ATOM     74  F   UNL A   1      37.357  30.762  33.975  1.00  0.00    -0.200 F 
ATOM     75  F   UNL A   1      35.268  31.659  32.468  1.00  0.00    -0.200 F 
ENDBRANCH  51  65
BRANCH  52  76
ATOM     76  C   UNL A   1      46.987  27.179  26.038  1.00  0.00     0.064 A 
ATOM     77  C   UNL A   1      48.050  26.532  26.684  1.00  0.00     0.173 A 
ATOM     78  C   UNL A   1      47.125  27.450  24.668  1.00  0.00     0.173 A 
ATOM     79  F   UNL A   1      47.981  26.283  27.999  1.00  0.00    -0.203 F 
ATOM     80  C   UNL A   1      49.215  26.198  25.995  1.00  0.00     0.198 A 
ATOM     81  C   UNL A   1      48.276  27.089  23.974  1.00  0.00     0.198 A 
ATOM     82  F   UNL A   1      46.141  28.076  24.005  1.00  0.00    -0.203 F 
ATOM     83  F   UNL A   1      50.240  25.635  26.649  1.00  0.00    -0.200 F 
ATOM     84  C   UNL A   1      49.326  26.473  24.640  1.00  0.00     0.200 A 
ATOM     85  F   UNL A   1      48.376  27.353  22.664  1.00  0.00    -0.200 F 
ATOM     86  F   UNL A   1      50.449  26.161  23.980  1.00  0.00    -0.200 F 
ENDBRANCH  52  76
BRANCH  64  87
ATOM     87  C   UNL A   1      45.255  33.269  28.937  1.00  0.00     0.064 A 
ATOM     88  C   UNL A   1      46.137  33.530  29.995  1.00  0.00     0.173 A 
ATOM     89  C   UNL A   1      45.106  34.250  27.945  1.00  0.00     0.173 A 
ATOM     90  F   UNL A   1      46.302  32.629  30.975  1.00  0.00    -0.203 F 
ATOM     91  C   UNL A   1      46.837  34.732  30.062  1.00  0.00     0.198 A 
ATOM     92  C   UNL A   1      45.827  35.440  28.002  1.00  0.00     0.198 A 
ATOM     93  F   UNL A   1      44.279  34.045  26.909  1.00  0.00    -0.203 F 
ATOM     94  F   UNL A   1      47.651  34.976  31.098  1.00  0.00    -0.200 F 
ATOM     95  C   UNL A   1      46.688  35.681  29.062  1.00  0.00     0.200 A 
ATOM     96  F   UNL A   1      45.691  36.350  27.028  1.00  0.00    -0.200 F 
ATOM     97  F   UNL A   1      47.372  36.833  29.121  1.00  0.00    -0.200 F 
ENDBRANCH  64  87
ENDBRANCH  38  39
ENDBRANCH  31  33
ENDBRANCH  30  31
ENDBRANCH  29  30
ENDBRANCH  28  29
ENDBRANCH  27  28
ENDBRANCH   1  27
TORSDOF 18
ENDMDL
MODEL 3
REMARK VINA RESULT:     -12.4      1.297      2.881
REMARK SMILES O=C(C[C@@H](c1cccc([N+](=O)[O-])c1)N1Cc2ccccc2C1=O)OCCOCCOC(=O)c1ccc(-c2c3nc(c(-c4c(F)c(F)c(F)c(F)c4F)c4ccc([nH]4)c(-c4c(F)c(F)c(F)c(F)c4F)c4nc(c(-c5c(F)c(F)c(F)c(F)c5F)c5ccc2[nH]5)C=C4)C=C3)cc1
REMARK SMILES IDX 26 1 25 2 24 3 2 4 1 5 3 6 4 7 5 8 6 9 13 10 7 11 9 12 8 13
REMARK SMILES IDX 10 14 11 15 12 16 14 17 15 18 22 19 16 20 21 21 23 22 17 23
REMARK SMILES IDX 20 24 18 25 19 26 27 27 28 28 29 29 30 30 31 31 32 32 33 33
REMARK SMILES IDX 34 34 95 35 35 36 94 37 36 38 37 39 38 40 88 41 39 42 93 43
REMARK SMILES IDX 87 44 89 45 40 46 92 47 86 48 85 49 41 51 73 52 53 53 72 54
REMARK SMILES IDX 54 55 57 56 71 57 90 58 55 59 56 60 70 62 91 63 58 64 42 65
REMARK SMILES IDX 43 66 51 67 44 68 45 69 49 70 52 71 46 72 47 73 50 74 48 75
REMARK SMILES IDX 74 76 75 77 83 78 76 79 77 80 81 81 84 82 78 83 79 84 82 85
REMARK SMILES IDX 80 86 59 87 60 88 68 89 61 90 62 91 66 92 69 93 63 94 64 95
REMARK SMILES IDX 67 96 65 97
REMARK H PARENT 89 50 57 61
REMARK Flexibility Score: inf
ROOT
ATOM      1  C   UNL A   1      31.014  27.081  25.134  1.00  0.00     0.202 C 
ENDROOT
BRANCH   1   2
ATOM      2  C   UNL A   1      30.809  25.611  24.759  1.00  0.00     0.261 C 
BRANCH   2   3
ATOM      3  O   UNL A   1      30.635  25.420  23.353  1.00  0.00    -0.463 OA
BRANCH   3   4
ATOM      4  C   UNL A   1      31.741  24.889  22.766  1.00  0.00     0.308 C 
ATOM      5  O   UNL A   1      32.537  25.558  22.123  1.00  0.00    -0.252 OA
BRANCH   4   6
ATOM      6  C   UNL A   1      31.821  23.399  22.950  1.00  0.00     0.152 C 
BRANCH   6   7
ATOM      7  C   UNL A   1      32.740  22.997  24.099  1.00  0.00     0.127 C 
BRANCH   7   8
ATOM      8  C   UNL A   1      32.802  21.478  24.405  1.00  0.00    -0.018 A 
ATOM      9  C   UNL A   1      33.138  21.044  25.701  1.00  0.00     0.006 A 
ATOM     10  C   UNL A   1      32.533  20.471  23.461  1.00  0.00     0.091 A 
ATOM     11  C   UNL A   1      33.232  19.678  26.024  1.00  0.00     0.007 A 
ATOM     12  C   UNL A   1      32.713  19.109  23.759  1.00  0.00     0.269 A 
ATOM     13  C   UNL A   1      33.043  18.703  25.047  1.00  0.00     0.085 A 
BRANCH  12  14
ATOM     14  N   UNL A   1      32.579  18.115  22.687  1.00  0.00     0.062 N 
ATOM     15  O   UNL A   1      32.846  16.935  22.953  1.00  0.00    -0.258 OA
ATOM     16  O   UNL A   1      32.201  18.513  21.576  1.00  0.00    -0.258 OA
ENDBRANCH  12  14
ENDBRANCH   7   8
BRANCH   7  17
ATOM     17  N   UNL A   1      34.079  23.592  23.900  1.00  0.00    -0.327 N 
ATOM     18  C   UNL A   1      35.085  23.032  23.015  1.00  0.00     0.157 C 
ATOM     19  C   UNL A   1      34.710  24.331  24.906  1.00  0.00     0.255 C 
ATOM     20  C   UNL A   1      36.197  22.832  23.982  1.00  0.00    -0.016 A 
ATOM     21  C   UNL A   1      36.108  23.845  24.941  1.00  0.00     0.045 A 
ATOM     22  O   UNL A   1      34.204  25.056  25.739  1.00  0.00    -0.269 OA
ATOM     23  C   UNL A   1      37.077  21.786  24.164  1.00  0.00     0.006 A 
ATOM     24  C   UNL A   1      37.015  23.986  25.969  1.00  0.00     0.014 A 
ATOM     25  C   UNL A   1      37.938  21.846  25.266  1.00  0.00     0.000 A 
ATOM     26  C   UNL A   1      37.954  22.967  26.120  1.00  0.00     0.001 A 
ENDBRANCH   7  17
ENDBRANCH   6   7
ENDBRANCH   4   6
ENDBRANCH   3   4
ENDBRANCH   2   3
ENDBRANCH   1   2
BRANCH   1  27
ATOM     27  O   UNL A   1      30.979  27.980  24.021  1.00  0.00    -0.374 OA
BRANCH  27  28
ATOM     28  C   UNL A   1      31.129  29.353  24.417  1.00  0.00     0.202 C 
BRANCH  28  29
ATOM     29  C   UNL A   1      31.677  29.491  25.845  1.00  0.00     0.261 C 
BRANCH  29  30
ATOM     30  O   UNL A   1      32.950  30.160  25.832  1.00  0.00    -0.460 OA
BRANCH  30  31
ATOM     31  C   UNL A   1      33.092  31.122  26.778  1.00  0.00     0.338 C 
ATOM     32  O   UNL A   1      32.244  31.926  27.137  1.00  0.00    -0.246 OA
BRANCH  31  33
ATOM     33  C   UNL A   1      34.387  30.945  27.481  1.00  0.00     0.060 A 
ATOM     34  C   UNL A   1      34.723  29.653  27.902  1.00  0.00     0.016 A 
ATOM     35  C   UNL A   1      35.286  31.996  27.684  1.00  0.00     0.016 A 
ATOM     36  C   UNL A   1      35.951  29.402  28.517  1.00  0.00     0.010 A 
ATOM     37  C   UNL A   1      36.509  31.750  28.318  1.00  0.00     0.010 A 
ATOM     38  C   UNL A   1      36.845  30.453  28.746  1.00  0.00    -0.014 A 
BRANCH  38  39
ATOM     39  C   UNL A   1      38.061  30.242  29.567  1.00  0.00     0.031 A 
ATOM     40  C   UNL A   1      39.110  29.296  29.059  1.00  0.00     0.074 A 
ATOM     41  C   UNL A   1      38.221  30.851  30.755  1.00  0.00     0.049 A 
ATOM     42  N   UNL A   1      40.167  28.823  29.667  1.00  0.00    -0.248 NA
ATOM     43  C   UNL A   1      38.941  28.815  27.678  1.00  0.00     0.031 C 
ATOM     44  C   UNL A   1      37.314  31.839  31.332  1.00  0.00     0.029 A 
ATOM     45  N   UNL A   1      39.203  30.701  31.705  1.00  0.00    -0.354 N 
ATOM     46  C   UNL A   1      40.776  27.976  28.751  1.00  0.00     0.074 A 
ATOM     47  C   UNL A   1      39.975  27.997  27.548  1.00  0.00     0.031 C 
ATOM     48  C   UNL A   1      37.760  32.180  32.555  1.00  0.00     0.029 A 
ATOM     49  C   UNL A   1      38.961  31.402  32.861  1.00  0.00     0.049 A 
ATOM     50  H   UNL A   1      40.004  30.144  31.570  1.00  0.00     0.167 HD
ATOM     51  C   UNL A   1      41.903  27.243  28.905  1.00  0.00     0.037 A 
ATOM     52  C   UNL A   1      39.609  31.379  34.044  1.00  0.00     0.037 A 
ATOM     53  C   UNL A   1      42.709  27.230  30.095  1.00  0.00     0.049 A 
ATOM     54  C   UNL A   1      40.809  30.479  34.219  1.00  0.00     0.074 A 
ATOM     55  C   UNL A   1      43.891  26.549  30.326  1.00  0.00     0.029 A 
ATOM     56  N   UNL A   1      42.411  27.924  31.256  1.00  0.00    -0.354 N 
ATOM     57  N   UNL A   1      41.391  29.693  33.347  1.00  0.00    -0.248 NA
ATOM     58  C   UNL A   1      41.431  30.451  35.553  1.00  0.00     0.031 C 
ATOM     59  C   UNL A   1      44.282  26.791  31.647  1.00  0.00     0.029 A 
ATOM     60  C   UNL A   1      43.365  27.655  32.222  1.00  0.00     0.049 A 
ATOM     61  H   UNL A   1      41.636  28.519  31.375  1.00  0.00     0.167 HD
ATOM     62  C   UNL A   1      42.452  29.095  34.017  1.00  0.00     0.074 A 
ATOM     63  C   UNL A   1      42.446  29.619  35.365  1.00  0.00     0.031 C 
ATOM     64  C   UNL A   1      43.347  28.187  33.559  1.00  0.00     0.037 A 
BRANCH  51  65
ATOM     65  C   UNL A   1      42.315  26.358  27.772  1.00  0.00     0.064 A 
ATOM     66  C   UNL A   1      41.717  25.110  27.557  1.00  0.00     0.173 A 
ATOM     67  C   UNL A   1      43.282  26.796  26.855  1.00  0.00     0.173 A 
ATOM     68  F   UNL A   1      40.800  24.643  28.416  1.00  0.00    -0.203 F 
ATOM     69  C   UNL A   1      42.077  24.327  26.464  1.00  0.00     0.198 A 
ATOM     70  C   UNL A   1      43.625  26.020  25.753  1.00  0.00     0.198 A 
ATOM     71  F   UNL A   1      43.883  27.984  27.022  1.00  0.00    -0.203 F 
ATOM     72  F   UNL A   1      41.511  23.125  26.287  1.00  0.00    -0.200 F 
ATOM     73  C   UNL A   1      43.023  24.786  25.558  1.00  0.00     0.200 A 
ATOM     74  F   UNL A   1      44.533  26.470  24.875  1.00  0.00    -0.200 F 
ATOM     75  F   UNL A   1      43.359  24.036  24.499  1.00  0.00    -0.200 F 
ENDBRANCH  51  65
BRANCH  52  76
ATOM     76  C   UNL A   1      39.104  32.175  35.195  1.00  0.00     0.064 A 
ATOM     77  C   UNL A   1      39.435  33.529  35.343  1.00  0.00     0.173 A 
ATOM     78  C   UNL A   1      38.339  31.576  36.209  1.00  0.00     0.173 A 
ATOM     79  F   UNL A   1      40.193  34.137  34.420  1.00  0.00    -0.203 F 
ATOM     80  C   UNL A   1      39.042  34.247  36.472  1.00  0.00     0.198 A 
ATOM     81  C   UNL A   1      37.923  32.302  37.322  1.00  0.00     0.198 A 
ATOM     82  F   UNL A   1      38.005  30.280  36.121  1.00  0.00    -0.203 F 
ATOM     83  F   UNL A   1      39.423  35.523  36.618  1.00  0.00    -0.200 F 
ATOM     84  C   UNL A   1      38.284  33.634  37.459  1.00  0.00     0.200 A 
ATOM     85  F   UNL A   1      37.186  31.706  38.270  1.00  0.00    -0.200 F 
ATOM     86  F   UNL A   1      37.916  34.321  38.548  1.00  0.00    -0.200 F 
ENDBRANCH  52  76
BRANCH  64  87
ATOM     87  C   UNL A   1      44.403  27.709  34.511  1.00  0.00     0.064 A 
ATOM     88  C   UNL A   1      44.239  26.528  35.249  1.00  0.00     0.173 A 
ATOM     89  C   UNL A   1      45.615  28.404  34.639  1.00  0.00     0.173 A 
ATOM     90  F   UNL A   1      43.093  25.836  35.170  1.00  0.00    -0.203 F 
ATOM     91  C   UNL A   1      45.247  26.066  36.091  1.00  0.00     0.198 A 
ATOM     92  C   UNL A   1      46.631  27.925  35.463  1.00  0.00     0.198 A 
ATOM     93  F   UNL A   1      45.823  29.535  33.949  1.00  0.00    -0.203 F 
ATOM     94  F   UNL A   1      45.058  24.952  36.812  1.00  0.00    -0.200 F 
ATOM     95  C   UNL A   1      46.444  26.759  36.191  1.00  0.00     0.200 A 
ATOM     96  F   UNL A   1      47.791  28.589  35.548  1.00  0.00    -0.200 F 
ATOM     97  F   UNL A   1      47.418  26.306  36.993  1.00  0.00    -0.200 F 
ENDBRANCH  64  87
ENDBRANCH  38  39
ENDBRANCH  31  33
ENDBRANCH  30  31
ENDBRANCH  29  30
ENDBRANCH  28  29
ENDBRANCH  27  28
ENDBRANCH   1  27
TORSDOF 18
ENDMDL
