MODEL 1
REMARK VINA RESULT:     -11.2      0.000      0.000
REMARK SMILES COc1ncccc1NS(=O)(=O)c1ccc(Br)c(C(=O)OCCOCCOC(=O)c2ccc(-c3c4nc(c(-c5c(F)c(F)c(F)c(F)c5F)c5ccc([nH]5)c(-c5c(F)c(F)c(F)c(F)c5F)c5nc(c(-c6c(F)c(F)c(F)c(F)c6F)c6ccc3[nH]6)C=C5)C=C4)cc2)c1
REMARK SMILES IDX 23 1 22 2 21 3 19 4 20 5 18 6 13 7 14 8 93 9 15 10 16 11
REMARK SMILES IDX 17 12 10 13 11 14 12 15 9 16 8 18 3 19 4 20 5 21 7 22 6 23
REMARK SMILES IDX 2 24 1 25 24 26 25 27 26 28 27 29 28 30 29 31 30 32 31 33
REMARK SMILES IDX 92 34 32 35 91 36 33 37 34 38 35 39 85 40 36 41 90 42 84 43
REMARK SMILES IDX 86 44 37 45 89 46 83 47 82 48 38 50 70 51 50 52 69 53 51 54
REMARK SMILES IDX 54 55 68 56 87 57 52 58 53 59 67 61 88 62 55 63 39 64 40 65
REMARK SMILES IDX 48 66 41 67 42 68 46 69 49 70 43 71 44 72 47 73 45 74 71 75
REMARK SMILES IDX 72 76 80 77 73 78 74 79 78 80 81 81 75 82 76 83 79 84 77 85
REMARK SMILES IDX 56 86 57 87 65 88 58 89 59 90 63 91 66 92 60 93 61 94 64 95
REMARK SMILES IDX 62 96
REMARK H PARENT 9 17 86 49 54 60
REMARK Flexibility Score: inf
ROOT
ATOM      1  C   UNL A   1      36.905  21.940  24.253  1.00  0.00     0.202 C 
ENDROOT
BRANCH   1   2
ATOM      2  C   UNL A   1      35.403  21.892  24.543  1.00  0.00     0.261 C 
BRANCH   2   3
ATOM      3  O   UNL A   1      34.815  23.205  24.585  1.00  0.00    -0.460 OA
BRANCH   3   4
ATOM      4  C   UNL A   1      34.333  23.540  25.804  1.00  0.00     0.339 C 
ATOM      5  O   UNL A   1      34.770  23.204  26.892  1.00  0.00    -0.246 OA
BRANCH   4   6
ATOM      6  C   UNL A   1      33.207  24.480  25.699  1.00  0.00     0.075 A 
ATOM      7  C   UNL A   1      32.524  26.786  26.006  1.00  0.00     0.088 A 
ATOM      8  C   UNL A   1      31.201  26.354  26.166  1.00  0.00     0.023 A 
ATOM      9  C   UNL A   1      33.518  25.852  25.726  1.00  0.00     0.039 A 
ATOM     10  C   UNL A   1      30.881  24.996  26.049  1.00  0.00     0.018 A 
ATOM     11  C   UNL A   1      31.887  24.051  25.834  1.00  0.00     0.032 A 
ATOM     12  Br  UNL A   1      31.403  22.220  25.776  1.00  0.00    -0.050 Br
BRANCH   7  13
ATOM     13  S   UNL A   1      32.851  28.516  26.270  1.00  0.00     0.262 S 
ATOM     14  O   UNL A   1      34.244  28.639  26.636  1.00  0.00    -0.201 OA
ATOM     15  O   UNL A   1      31.802  28.984  27.155  1.00  0.00    -0.201 OA
BRANCH  13  16
ATOM     16  N   UNL A   1      32.621  29.373  24.865  1.00  0.00    -0.274 N 
ATOM     17  H   UNL A   1      33.348  29.974  24.583  1.00  0.00     0.180 HD
BRANCH  16  18
ATOM     18  C   UNL A   1      31.471  29.318  24.032  1.00  0.00     0.111 A 
ATOM     19  C   UNL A   1      31.363  28.367  22.999  1.00  0.00     0.238 A 
ATOM     20  N   UNL A   1      30.318  28.316  22.147  1.00  0.00    -0.220 NA
ATOM     21  C   UNL A   1      29.316  29.193  22.347  1.00  0.00     0.115 A 
ATOM     22  C   UNL A   1      30.399  30.182  24.235  1.00  0.00     0.034 A 
ATOM     23  C   UNL A   1      29.297  30.115  23.380  1.00  0.00     0.023 A 
BRANCH  19  24
ATOM     24  O   UNL A   1      32.361  27.495  22.647  1.00  0.00    -0.480 OA
ATOM     25  C   UNL A   1      31.946  26.189  22.281  1.00  0.00     0.280 C 
ENDBRANCH  19  24
ENDBRANCH  16  18
ENDBRANCH  13  16
ENDBRANCH   7  13
ENDBRANCH   4   6
ENDBRANCH   3   4
ENDBRANCH   2   3
ENDBRANCH   1   2
BRANCH   1  26
ATOM     26  O   UNL A   1      37.761  21.291  25.190  1.00  0.00    -0.374 OA
BRANCH  26  27
ATOM     27  C   UNL A   1      38.065  19.913  24.975  1.00  0.00     0.202 C 
BRANCH  27  28
ATOM     28  C   UNL A   1      39.273  19.343  25.730  1.00  0.00     0.261 C 
BRANCH  28  29
ATOM     29  O   UNL A   1      40.386  20.254  25.797  1.00  0.00    -0.460 OA
BRANCH  29  30
ATOM     30  C   UNL A   1      40.971  20.347  27.018  1.00  0.00     0.338 C 
ATOM     31  O   UNL A   1      41.435  19.442  27.690  1.00  0.00    -0.246 OA
BRANCH  30  32
ATOM     32  C   UNL A   1      41.139  21.763  27.397  1.00  0.00     0.060 A 
ATOM     33  C   UNL A   1      40.613  22.736  26.537  1.00  0.00     0.016 A 
ATOM     34  C   UNL A   1      41.885  22.135  28.517  1.00  0.00     0.016 A 
ATOM     35  C   UNL A   1      40.862  24.087  26.775  1.00  0.00     0.010 A 
ATOM     36  C   UNL A   1      42.144  23.490  28.746  1.00  0.00     0.010 A 
ATOM     37  C   UNL A   1      41.659  24.470  27.860  1.00  0.00    -0.014 A 
BRANCH  37  38
ATOM     38  C   UNL A   1      42.093  25.882  27.991  1.00  0.00     0.031 A 
ATOM     39  C   UNL A   1      43.413  26.302  27.408  1.00  0.00     0.074 A 
ATOM     40  C   UNL A   1      41.309  26.787  28.603  1.00  0.00     0.049 A 
ATOM     41  N   UNL A   1      43.998  27.472  27.428  1.00  0.00    -0.248 NA
ATOM     42  C   UNL A   1      44.179  25.258  26.709  1.00  0.00     0.031 C 
ATOM     43  C   UNL A   1      39.993  26.511  29.175  1.00  0.00     0.029 A 
ATOM     44  N   UNL A   1      41.514  28.121  28.849  1.00  0.00    -0.354 N 
ATOM     45  C   UNL A   1      45.198  27.307  26.751  1.00  0.00     0.074 A 
ATOM     46  C   UNL A   1      45.273  25.916  26.356  1.00  0.00     0.031 C 
ATOM     47  C   UNL A   1      39.509  27.643  29.714  1.00  0.00     0.029 A 
ATOM     48  C   UNL A   1      40.493  28.713  29.550  1.00  0.00     0.049 A 
ATOM     49  H   UNL A   1      42.316  28.608  28.550  1.00  0.00     0.167 HD
ATOM     50  C   UNL A   1      46.149  28.232  26.477  1.00  0.00     0.037 A 
ATOM     51  C   UNL A   1      40.377  29.969  30.022  1.00  0.00     0.037 A 
ATOM     52  C   UNL A   1      46.075  29.615  26.871  1.00  0.00     0.049 A 
ATOM     53  C   UNL A   1      41.480  30.963  29.765  1.00  0.00     0.074 A 
ATOM     54  C   UNL A   1      46.975  30.635  26.616  1.00  0.00     0.029 A 
ATOM     55  N   UNL A   1      45.043  30.169  27.614  1.00  0.00    -0.354 N 
ATOM     56  N   UNL A   1      42.597  30.807  29.098  1.00  0.00    -0.248 NA
ATOM     57  C   UNL A   1      41.303  32.308  30.329  1.00  0.00     0.031 C 
ATOM     58  C   UNL A   1      46.511  31.796  27.247  1.00  0.00     0.029 A 
ATOM     59  C   UNL A   1      45.297  31.509  27.853  1.00  0.00     0.049 A 
ATOM     60  H   UNL A   1      44.247  29.681  27.926  1.00  0.00     0.167 HD
ATOM     61  C   UNL A   1      43.243  32.036  29.139  1.00  0.00     0.074 A 
ATOM     62  C   UNL A   1      42.387  32.932  29.889  1.00  0.00     0.031 C 
ATOM     63  C   UNL A   1      44.436  32.390  28.600  1.00  0.00     0.037 A 
BRANCH  50  64
ATOM     64  C   UNL A   1      47.368  27.768  25.736  1.00  0.00     0.064 A 
ATOM     65  C   UNL A   1      47.412  27.737  24.334  1.00  0.00     0.173 A 
ATOM     66  C   UNL A   1      48.516  27.370  26.438  1.00  0.00     0.173 A 
ATOM     67  F   UNL A   1      46.337  28.095  23.617  1.00  0.00    -0.203 F 
ATOM     68  C   UNL A   1      48.550  27.295  23.663  1.00  0.00     0.198 A 
ATOM     69  C   UNL A   1      49.661  26.954  25.764  1.00  0.00     0.198 A 
ATOM     70  F   UNL A   1      48.528  27.386  27.780  1.00  0.00    -0.203 F 
ATOM     71  F   UNL A   1      48.553  27.226  22.325  1.00  0.00    -0.200 F 
ATOM     72  C   UNL A   1      49.674  26.910  24.378  1.00  0.00     0.200 A 
ATOM     73  F   UNL A   1      50.750  26.593  26.456  1.00  0.00    -0.200 F 
ATOM     74  F   UNL A   1      50.769  26.486  23.731  1.00  0.00    -0.200 F 
ENDBRANCH  50  64
BRANCH  51  75
ATOM     75  C   UNL A   1      39.168  30.359  30.790  1.00  0.00     0.064 A 
ATOM     76  C   UNL A   1      39.097  30.156  32.174  1.00  0.00     0.173 A 
ATOM     77  C   UNL A   1      38.058  30.937  30.156  1.00  0.00     0.173 A 
ATOM     78  F   UNL A   1      40.122  29.580  32.820  1.00  0.00    -0.203 F 
ATOM     79  C   UNL A   1      37.957  30.506  32.895  1.00  0.00     0.198 A 
ATOM     80  C   UNL A   1      36.929  31.310  30.881  1.00  0.00     0.198 A 
ATOM     81  F   UNL A   1      38.076  31.146  28.832  1.00  0.00    -0.203 F 
ATOM     82  F   UNL A   1      37.899  30.266  34.212  1.00  0.00    -0.200 F 
ATOM     83  C   UNL A   1      36.877  31.090  32.249  1.00  0.00     0.200 A 
ATOM     84  F   UNL A   1      35.891  31.880  30.254  1.00  0.00    -0.200 F 
ATOM     85  F   UNL A   1      35.783  31.430  32.943  1.00  0.00    -0.200 F 
ENDBRANCH  51  75
BRANCH  63  86
ATOM     86  C   UNL A   1      44.875  33.815  28.775  1.00  0.00     0.064 A 
ATOM     87  C   UNL A   1      45.693  34.207  29.846  1.00  0.00     0.173 A 
ATOM     88  C   UNL A   1      44.508  34.792  27.837  1.00  0.00     0.173 A 
ATOM     89  F   UNL A   1      46.058  33.314  30.777  1.00  0.00    -0.203 F 
ATOM     90  C   UNL A   1      46.109  35.528  29.981  1.00  0.00     0.198 A 
ATOM     91  C   UNL A   1      44.949  36.107  27.960  1.00  0.00     0.198 A 
ATOM     92  F   UNL A   1      43.733  34.467  26.791  1.00  0.00    -0.203 F 
ATOM     93  F   UNL A   1      46.854  35.890  31.035  1.00  0.00    -0.200 F 
ATOM     94  C   UNL A   1      45.743  36.475  29.036  1.00  0.00     0.200 A 
ATOM     95  F   UNL A   1      44.605  37.017  27.040  1.00  0.00    -0.200 F 
ATOM     96  F   UNL A   1      46.150  37.746  29.165  1.00  0.00    -0.200 F 
ENDBRANCH  63  86
ENDBRANCH  37  38
ENDBRANCH  30  32
ENDBRANCH  29  30
ENDBRANCH  28  29
ENDBRANCH  27  28
ENDBRANCH  26  27
ENDBRANCH   1  26
TORSDOF 18
ENDMDL
MODEL 2
REMARK VINA RESULT:     -10.8      1.939      2.984
REMARK SMILES COc1ncccc1NS(=O)(=O)c1ccc(Br)c(C(=O)OCCOCCOC(=O)c2ccc(-c3c4nc(c(-c5c(F)c(F)c(F)c(F)c5F)c5ccc([nH]5)c(-c5c(F)c(F)c(F)c(F)c5F)c5nc(c(-c6c(F)c(F)c(F)c(F)c6F)c6ccc3[nH]6)C=C5)C=C4)cc2)c1
REMARK SMILES IDX 23 1 22 2 21 3 19 4 20 5 18 6 13 7 14 8 93 9 15 10 16 11
REMARK SMILES IDX 17 12 10 13 11 14 12 15 9 16 8 18 3 19 4 20 5 21 7 22 6 23
REMARK SMILES IDX 2 24 1 25 24 26 25 27 26 28 27 29 28 30 29 31 30 32 31 33
REMARK SMILES IDX 92 34 32 35 91 36 33 37 34 38 35 39 85 40 36 41 90 42 84 43
REMARK SMILES IDX 86 44 37 45 89 46 83 47 82 48 38 50 70 51 50 52 69 53 51 54
REMARK SMILES IDX 54 55 68 56 87 57 52 58 53 59 67 61 88 62 55 63 39 64 40 65
REMARK SMILES IDX 48 66 41 67 42 68 46 69 49 70 43 71 44 72 47 73 45 74 71 75
REMARK SMILES IDX 72 76 80 77 73 78 74 79 78 80 81 81 75 82 76 83 79 84 77 85
REMARK SMILES IDX 56 86 57 87 65 88 58 89 59 90 63 91 66 92 60 93 61 94 64 95
REMARK SMILES IDX 62 96
REMARK H PARENT 9 17 86 49 54 60
REMARK Flexibility Score: inf
ROOT
ATOM      1  C   UNL A   1      38.322  23.134  26.307  1.00  0.00     0.202 C 
ENDROOT
BRANCH   1   2
ATOM      2  C   UNL A   1      37.255  22.904  25.234  1.00  0.00     0.261 C 
BRANCH   2   3
ATOM      3  O   UNL A   1      36.190  22.056  25.700  1.00  0.00    -0.460 OA
BRANCH   3   4
ATOM      4  C   UNL A   1      35.007  22.699  25.827  1.00  0.00     0.339 C 
ATOM      5  O   UNL A   1      34.595  23.309  26.799  1.00  0.00    -0.246 OA
BRANCH   4   6
ATOM      6  C   UNL A   1      34.241  22.672  24.572  1.00  0.00     0.075 A 
ATOM      7  C   UNL A   1      33.092  24.033  22.928  1.00  0.00     0.088 A 
ATOM      8  C   UNL A   1      32.312  22.923  22.579  1.00  0.00     0.023 A 
ATOM      9  C   UNL A   1      34.087  23.893  23.891  1.00  0.00     0.039 A 
ATOM     10  C   UNL A   1      32.529  21.685  23.195  1.00  0.00     0.018 A 
ATOM     11  C   UNL A   1      33.482  21.559  24.209  1.00  0.00     0.032 A 
ATOM     12  Br  UNL A   1      33.665  19.880  25.066  1.00  0.00    -0.050 Br
BRANCH   7  13
ATOM     13  S   UNL A   1      32.679  25.588  22.164  1.00  0.00     0.262 S 
ATOM     14  O   UNL A   1      31.256  25.784  22.331  1.00  0.00    -0.201 OA
ATOM     15  O   UNL A   1      33.278  25.548  20.844  1.00  0.00    -0.201 OA
BRANCH  13  16
ATOM     16  N   UNL A   1      33.454  26.839  22.934  1.00  0.00    -0.274 N 
ATOM     17  H   UNL A   1      34.297  27.158  22.536  1.00  0.00     0.180 HD
BRANCH  16  18
ATOM     18  C   UNL A   1      33.014  27.493  24.116  1.00  0.00     0.111 A 
ATOM     19  C   UNL A   1      32.024  28.493  24.072  1.00  0.00     0.238 A 
ATOM     20  N   UNL A   1      31.618  29.181  25.159  1.00  0.00    -0.220 NA
ATOM     21  C   UNL A   1      32.162  28.840  26.343  1.00  0.00     0.115 A 
ATOM     22  C   UNL A   1      33.524  27.138  25.363  1.00  0.00     0.034 A 
ATOM     23  C   UNL A   1      33.086  27.820  26.499  1.00  0.00     0.023 A 
BRANCH  19  24
ATOM     24  O   UNL A   1      31.478  28.984  22.914  1.00  0.00    -0.480 OA
ATOM     25  C   UNL A   1      30.113  29.364  22.983  1.00  0.00     0.280 C 
ENDBRANCH  19  24
ENDBRANCH  16  18
ENDBRANCH  13  16
ENDBRANCH   7  13
ENDBRANCH   4   6
ENDBRANCH   3   4
ENDBRANCH   2   3
ENDBRANCH   1   2
BRANCH   1  26
ATOM     26  O   UNL A   1      39.363  22.164  26.397  1.00  0.00    -0.374 OA
BRANCH  26  27
ATOM     27  C   UNL A   1      39.278  21.013  25.558  1.00  0.00     0.202 C 
BRANCH  27  28
ATOM     28  C   UNL A   1      39.828  19.698  26.126  1.00  0.00     0.261 C 
BRANCH  28  29
ATOM     29  O   UNL A   1      40.940  19.174  25.377  1.00  0.00    -0.460 OA
BRANCH  29  30
ATOM     30  C   UNL A   1      42.091  19.042  26.084  1.00  0.00     0.338 C 
ATOM     31  O   UNL A   1      42.664  18.008  26.384  1.00  0.00    -0.246 OA
BRANCH  30  32
ATOM     32  C   UNL A   1      42.693  20.365  26.332  1.00  0.00     0.060 A 
ATOM     33  C   UNL A   1      42.591  20.898  27.624  1.00  0.00     0.016 A 
ATOM     34  C   UNL A   1      43.257  21.116  25.298  1.00  0.00     0.016 A 
ATOM     35  C   UNL A   1      43.020  22.200  27.879  1.00  0.00     0.010 A 
ATOM     36  C   UNL A   1      43.675  22.426  25.554  1.00  0.00     0.010 A 
ATOM     37  C   UNL A   1      43.530  22.984  26.837  1.00  0.00    -0.014 A 
BRANCH  37  38
ATOM     38  C   UNL A   1      43.789  24.426  27.063  1.00  0.00     0.031 A 
ATOM     39  C   UNL A   1      45.166  24.974  26.812  1.00  0.00     0.074 A 
ATOM     40  C   UNL A   1      42.803  25.246  27.467  1.00  0.00     0.049 A 
ATOM     41  N   UNL A   1      45.620  26.191  26.967  1.00  0.00    -0.248 NA
ATOM     42  C   UNL A   1      46.169  24.016  26.319  1.00  0.00     0.031 C 
ATOM     43  C   UNL A   1      41.420  24.843  27.709  1.00  0.00     0.029 A 
ATOM     44  N   UNL A   1      42.820  26.588  27.751  1.00  0.00    -0.354 N 
ATOM     45  C   UNL A   1      46.957  26.147  26.597  1.00  0.00     0.074 A 
ATOM     46  C   UNL A   1      47.251  24.776  26.235  1.00  0.00     0.031 C 
ATOM     47  C   UNL A   1      40.720  25.916  28.113  1.00  0.00     0.029 A 
ATOM     48  C   UNL A   1      41.612  27.073  28.186  1.00  0.00     0.049 A 
ATOM     49  H   UNL A   1      43.622  27.151  27.651  1.00  0.00     0.167 HD
ATOM     50  C   UNL A   1      47.857  27.159  26.555  1.00  0.00     0.037 A 
ATOM     51  C   UNL A   1      41.273  28.305  28.613  1.00  0.00     0.037 A 
ATOM     52  C   UNL A   1      47.566  28.521  26.916  1.00  0.00     0.049 A 
ATOM     53  C   UNL A   1      42.309  29.398  28.624  1.00  0.00     0.074 A 
ATOM     54  C   UNL A   1      48.402  29.623  26.880  1.00  0.00     0.029 A 
ATOM     55  N   UNL A   1      46.340  28.966  27.389  1.00  0.00    -0.354 N 
ATOM     56  N   UNL A   1      43.563  29.355  28.244  1.00  0.00    -0.248 NA
ATOM     57  C   UNL A   1      41.881  30.711  29.126  1.00  0.00     0.031 C 
ATOM     58  C   UNL A   1      47.697  30.725  27.378  1.00  0.00     0.029 A 
ATOM     59  C   UNL A   1      46.406  30.320  27.678  1.00  0.00     0.049 A 
ATOM     60  H   UNL A   1      45.540  28.403  27.503  1.00  0.00     0.167 HD
ATOM     61  C   UNL A   1      44.065  30.635  28.433  1.00  0.00     0.074 A 
ATOM     62  C   UNL A   1      42.977  31.437  28.954  1.00  0.00     0.031 C 
ATOM     63  C   UNL A   1      45.315  31.106  28.194  1.00  0.00     0.037 A 
BRANCH  50  64
ATOM     64  C   UNL A   1      49.255  26.820  26.128  1.00  0.00     0.064 A 
ATOM     65  C   UNL A   1      49.671  26.949  24.795  1.00  0.00     0.173 A 
ATOM     66  C   UNL A   1      50.197  26.380  27.070  1.00  0.00     0.173 A 
ATOM     67  F   UNL A   1      48.804  27.353  23.854  1.00  0.00    -0.203 F 
ATOM     68  C   UNL A   1      50.970  26.621  24.415  1.00  0.00     0.198 A 
ATOM     69  C   UNL A   1      51.503  26.079  26.692  1.00  0.00     0.198 A 
ATOM     70  F   UNL A   1      49.851  26.244  28.360  1.00  0.00    -0.203 F 
ATOM     71  F   UNL A   1      51.332  26.705  23.127  1.00  0.00    -0.200 F 
ATOM     72  C   UNL A   1      51.886  26.193  25.365  1.00  0.00     0.200 A 
ATOM     73  F   UNL A   1      52.389  25.675  27.612  1.00  0.00    -0.200 F 
ATOM     74  F   UNL A   1      53.137  25.880  24.998  1.00  0.00    -0.200 F 
ENDBRANCH  50  64
BRANCH  51  75
ATOM     75  C   UNL A   1      39.885  28.570  29.069  1.00  0.00     0.064 A 
ATOM     76  C   UNL A   1      38.918  29.066  28.185  1.00  0.00     0.173 A 
ATOM     77  C   UNL A   1      39.500  28.338  30.398  1.00  0.00     0.173 A 
ATOM     78  F   UNL A   1      39.247  29.329  26.911  1.00  0.00    -0.203 F 
ATOM     79  C   UNL A   1      37.619  29.330  28.615  1.00  0.00     0.198 A 
ATOM     80  C   UNL A   1      38.195  28.579  30.821  1.00  0.00     0.198 A 
ATOM     81  F   UNL A   1      40.391  27.870  31.283  1.00  0.00    -0.203 F 
ATOM     82  F   UNL A   1      36.723  29.840  27.759  1.00  0.00    -0.200 F 
ATOM     83  C   UNL A   1      37.257  29.080  29.931  1.00  0.00     0.200 A 
ATOM     84  F   UNL A   1      37.847  28.329  32.091  1.00  0.00    -0.200 F 
ATOM     85  F   UNL A   1      36.007  29.331  30.342  1.00  0.00    -0.200 F 
ENDBRANCH  51  75
BRANCH  63  86
ATOM     86  C   UNL A   1      45.567  32.560  28.465  1.00  0.00     0.064 A 
ATOM     87  C   UNL A   1      46.023  33.008  29.714  1.00  0.00     0.173 A 
ATOM     88  C   UNL A   1      45.391  33.513  27.449  1.00  0.00     0.173 A 
ATOM     89  F   UNL A   1      46.193  32.139  30.721  1.00  0.00    -0.203 F 
ATOM     90  C   UNL A   1      46.274  34.359  29.941  1.00  0.00     0.198 A 
ATOM     91  C   UNL A   1      45.669  34.859  27.673  1.00  0.00     0.198 A 
ATOM     92  F   UNL A   1      44.963  33.135  26.235  1.00  0.00    -0.203 F 
ATOM     93  F   UNL A   1      46.668  34.770  31.155  1.00  0.00    -0.200 F 
ATOM     94  C   UNL A   1      46.103  35.282  28.920  1.00  0.00     0.200 A 
ATOM     95  F   UNL A   1      45.515  35.747  26.681  1.00  0.00    -0.200 F 
ATOM     96  F   UNL A   1      46.351  36.580  29.140  1.00  0.00    -0.200 F 
ENDBRANCH  63  86
ENDBRANCH  37  38
ENDBRANCH  30  32
ENDBRANCH  29  30
ENDBRANCH  28  29
ENDBRANCH  27  28
ENDBRANCH  26  27
ENDBRANCH   1  26
TORSDOF 18
ENDMDL
MODEL 3
REMARK VINA RESULT:     -10.8      1.777      7.181
REMARK SMILES COc1ncccc1NS(=O)(=O)c1ccc(Br)c(C(=O)OCCOCCOC(=O)c2ccc(-c3c4nc(c(-c5c(F)c(F)c(F)c(F)c5F)c5ccc([nH]5)c(-c5c(F)c(F)c(F)c(F)c5F)c5nc(c(-c6c(F)c(F)c(F)c(F)c6F)c6ccc3[nH]6)C=C5)C=C4)cc2)c1
REMARK SMILES IDX 23 1 22 2 21 3 19 4 20 5 18 6 13 7 14 8 93 9 15 10 16 11
REMARK SMILES IDX 17 12 10 13 11 14 12 15 9 16 8 18 3 19 4 20 5 21 7 22 6 23
REMARK SMILES IDX 2 24 1 25 24 26 25 27 26 28 27 29 28 30 29 31 30 32 31 33
REMARK SMILES IDX 92 34 32 35 91 36 33 37 34 38 35 39 85 40 36 41 90 42 84 43
REMARK SMILES IDX 86 44 37 45 89 46 83 47 82 48 38 50 70 51 50 52 69 53 51 54
REMARK SMILES IDX 54 55 68 56 87 57 52 58 53 59 67 61 88 62 55 63 39 64 40 65
REMARK SMILES IDX 48 66 41 67 42 68 46 69 49 70 43 71 44 72 47 73 45 74 71 75
REMARK SMILES IDX 72 76 80 77 73 78 74 79 78 80 81 81 75 82 76 83 79 84 77 85
REMARK SMILES IDX 56 86 57 87 65 88 58 89 59 90 63 91 66 92 60 93 61 94 64 95
REMARK SMILES IDX 62 96
REMARK H PARENT 9 17 86 49 54 60
REMARK Flexibility Score: inf
ROOT
ATOM      1  C   UNL A   1      36.753  21.685  24.792  1.00  0.00     0.202 C 
ENDROOT
BRANCH   1   2
ATOM      2  C   UNL A   1      35.504  21.670  25.676  1.00  0.00     0.261 C 
BRANCH   2   3
ATOM      3  O   UNL A   1      34.615  22.762  25.378  1.00  0.00    -0.460 OA
BRANCH   3   4
ATOM      4  C   UNL A   1      33.959  23.232  26.464  1.00  0.00     0.339 C 
ATOM      5  O   UNL A   1      34.155  22.941  27.632  1.00  0.00    -0.246 OA
BRANCH   4   6
ATOM      6  C   UNL A   1      32.976  24.262  26.096  1.00  0.00     0.075 A 
ATOM      7  C   UNL A   1      32.517  26.642  26.090  1.00  0.00     0.088 A 
ATOM      8  C   UNL A   1      31.145  26.359  26.067  1.00  0.00     0.023 A 
ATOM      9  C   UNL A   1      33.430  25.592  26.058  1.00  0.00     0.039 A 
ATOM     10  C   UNL A   1      30.696  25.034  26.014  1.00  0.00     0.018 A 
ATOM     11  C   UNL A   1      31.611  23.979  26.048  1.00  0.00     0.032 A 
ATOM     12  Br  UNL A   1      30.939  22.208  26.066  1.00  0.00    -0.050 Br
BRANCH   7  13
ATOM     13  S   UNL A   1      32.991  28.350  26.257  1.00  0.00     0.262 S 
ATOM     14  O   UNL A   1      34.390  28.374  26.621  1.00  0.00    -0.201 OA
ATOM     15  O   UNL A   1      31.986  28.956  27.109  1.00  0.00    -0.201 OA
BRANCH  13  16
ATOM     16  N   UNL A   1      32.834  29.142  24.804  1.00  0.00    -0.274 N 
ATOM     17  H   UNL A   1      33.621  29.636  24.477  1.00  0.00     0.180 HD
BRANCH  16  18
ATOM     18  C   UNL A   1      31.671  29.170  23.990  1.00  0.00     0.111 A 
ATOM     19  C   UNL A   1      31.564  28.364  22.841  1.00  0.00     0.238 A 
ATOM     20  N   UNL A   1      30.504  28.402  22.007  1.00  0.00    -0.220 NA
ATOM     21  C   UNL A   1      29.487  29.220  22.337  1.00  0.00     0.115 A 
ATOM     22  C   UNL A   1      30.583  29.974  24.324  1.00  0.00     0.034 A 
ATOM     23  C   UNL A   1      29.467  29.995  23.485  1.00  0.00     0.023 A 
BRANCH  19  24
ATOM     24  O   UNL A   1      32.574  27.571  22.360  1.00  0.00    -0.480 OA
ATOM     25  C   UNL A   1      32.408  26.174  22.540  1.00  0.00     0.280 C 
ENDBRANCH  19  24
ENDBRANCH  16  18
ENDBRANCH  13  16
ENDBRANCH   7  13
ENDBRANCH   4   6
ENDBRANCH   3   4
ENDBRANCH   2   3
ENDBRANCH   1   2
BRANCH   1  26
ATOM     26  O   UNL A   1      37.856  22.464  25.251  1.00  0.00    -0.374 OA
BRANCH  26  27
ATOM     27  C   UNL A   1      38.843  21.817  26.053  1.00  0.00     0.202 C 
BRANCH  27  28
ATOM     28  C   UNL A   1      39.323  20.436  25.583  1.00  0.00     0.261 C 
BRANCH  28  29
ATOM     29  O   UNL A   1      40.185  19.779  26.530  1.00  0.00    -0.460 OA
BRANCH  29  30
ATOM     30  C   UNL A   1      41.480  19.667  26.138  1.00  0.00     0.338 C 
ATOM     31  O   UNL A   1      41.978  18.782  25.464  1.00  0.00    -0.246 OA
BRANCH  30  32
ATOM     32  C   UNL A   1      42.231  20.883  26.504  1.00  0.00     0.060 A 
ATOM     33  C   UNL A   1      42.305  21.222  27.861  1.00  0.00     0.016 A 
ATOM     34  C   UNL A   1      42.767  21.730  25.532  1.00  0.00     0.016 A 
ATOM     35  C   UNL A   1      42.883  22.430  28.250  1.00  0.00     0.010 A 
ATOM     36  C   UNL A   1      43.335  22.947  25.923  1.00  0.00     0.010 A 
ATOM     37  C   UNL A   1      43.368  23.316  27.280  1.00  0.00    -0.014 A 
BRANCH  37  38
ATOM     38  C   UNL A   1      43.789  24.680  27.678  1.00  0.00     0.031 A 
ATOM     39  C   UNL A   1      42.741  25.706  28.007  1.00  0.00     0.074 A 
ATOM     40  C   UNL A   1      45.093  24.998  27.767  1.00  0.00     0.049 A 
ATOM     41  N   UNL A   1      42.882  26.961  28.352  1.00  0.00    -0.248 NA
ATOM     42  C   UNL A   1      41.342  25.255  27.936  1.00  0.00     0.031 C 
ATOM     43  C   UNL A   1      46.202  24.083  27.510  1.00  0.00     0.029 A 
ATOM     44  N   UNL A   1      45.700  26.184  28.093  1.00  0.00    -0.354 N 
ATOM     45  C   UNL A   1      41.596  27.450  28.534  1.00  0.00     0.074 A 
ATOM     46  C   UNL A   1      40.684  26.365  28.236  1.00  0.00     0.031 C 
ATOM     47  C   UNL A   1      47.359  24.744  27.681  1.00  0.00     0.029 A 
ATOM     48  C   UNL A   1      47.070  26.135  28.030  1.00  0.00     0.049 A 
ATOM     49  H   UNL A   1      45.201  26.994  28.349  1.00  0.00     0.167 HD
ATOM     50  C   UNL A   1      41.209  28.689  28.923  1.00  0.00     0.037 A 
ATOM     51  C   UNL A   1      47.984  27.107  28.215  1.00  0.00     0.037 A 
ATOM     52  C   UNL A   1      42.116  29.767  29.219  1.00  0.00     0.049 A 
ATOM     53  C   UNL A   1      47.528  28.495  28.578  1.00  0.00     0.074 A 
ATOM     54  C   UNL A   1      41.822  31.050  29.648  1.00  0.00     0.029 A 
ATOM     55  N   UNL A   1      43.496  29.690  29.107  1.00  0.00    -0.354 N 
ATOM     56  N   UNL A   1      46.311  28.942  28.779  1.00  0.00    -0.248 NA
ATOM     57  C   UNL A   1      48.573  29.515  28.740  1.00  0.00     0.031 C 
ATOM     58  C   UNL A   1      43.022  31.764  29.747  1.00  0.00     0.029 A 
ATOM     59  C   UNL A   1      44.067  30.911  29.428  1.00  0.00     0.049 A 
ATOM     60  H   UNL A   1      43.997  28.886  28.838  1.00  0.00     0.167 HD
ATOM     61  C   UNL A   1      46.446  30.283  29.115  1.00  0.00     0.074 A 
ATOM     62  C   UNL A   1      47.864  30.576  29.102  1.00  0.00     0.031 C 
ATOM     63  C   UNL A   1      45.481  31.188  29.412  1.00  0.00     0.037 A 
BRANCH  50  64
ATOM     64  C   UNL A   1      39.736  28.950  29.023  1.00  0.00     0.064 A 
ATOM     65  C   UNL A   1      38.983  29.366  27.915  1.00  0.00     0.173 A 
ATOM     66  C   UNL A   1      39.063  28.762  30.240  1.00  0.00     0.173 A 
ATOM     67  F   UNL A   1      39.582  29.573  26.732  1.00  0.00    -0.203 F 
ATOM     68  C   UNL A   1      37.617  29.612  28.028  1.00  0.00     0.198 A 
ATOM     69  C   UNL A   1      37.692  28.983  30.343  1.00  0.00     0.198 A 
ATOM     70  F   UNL A   1      39.736  28.360  31.330  1.00  0.00    -0.203 F 
ATOM     71  F   UNL A   1      36.927  30.055  26.968  1.00  0.00    -0.200 F 
ATOM     72  C   UNL A   1      36.973  29.414  29.240  1.00  0.00     0.200 A 
ATOM     73  F   UNL A   1      37.069  28.782  31.513  1.00  0.00    -0.200 F 
ATOM     74  F   UNL A   1      35.657  29.650  29.348  1.00  0.00    -0.200 F 
ENDBRANCH  50  64
BRANCH  51  75
ATOM     75  C   UNL A   1      49.428  26.800  28.056  1.00  0.00     0.064 A 
ATOM     76  C   UNL A   1      50.227  26.496  29.166  1.00  0.00     0.173 A 
ATOM     77  C   UNL A   1      50.039  26.811  26.793  1.00  0.00     0.173 A 
ATOM     78  F   UNL A   1      49.694  26.501  30.397  1.00  0.00    -0.203 F 
ATOM     79  C   UNL A   1      51.586  26.223  29.020  1.00  0.00     0.198 A 
ATOM     80  C   UNL A   1      51.392  26.513  26.646  1.00  0.00     0.198 A 
ATOM     81  F   UNL A   1      49.317  27.103  25.701  1.00  0.00    -0.203 F 
ATOM     82  F   UNL A   1      52.337  25.972  30.102  1.00  0.00    -0.200 F 
ATOM     83  C   UNL A   1      52.165  26.225  27.760  1.00  0.00     0.200 A 
ATOM     84  F   UNL A   1      51.946  26.510  25.426  1.00  0.00    -0.200 F 
ATOM     85  F   UNL A   1      53.471  25.959  27.620  1.00  0.00    -0.200 F 
ENDBRANCH  51  75
BRANCH  63  86
ATOM     86  C   UNL A   1      45.925  32.575  29.776  1.00  0.00     0.064 A 
ATOM     87  C   UNL A   1      46.027  33.591  28.814  1.00  0.00     0.173 A 
ATOM     88  C   UNL A   1      46.213  32.902  31.110  1.00  0.00     0.173 A 
ATOM     89  F   UNL A   1      45.778  33.325  27.523  1.00  0.00    -0.203 F 
ATOM     90  C   UNL A   1      46.420  34.878  29.172  1.00  0.00     0.198 A 
ATOM     91  C   UNL A   1      46.578  34.197  31.468  1.00  0.00     0.198 A 
ATOM     92  F   UNL A   1      46.124  31.968  32.069  1.00  0.00    -0.203 F 
ATOM     93  F   UNL A   1      46.553  35.823  28.230  1.00  0.00    -0.200 F 
ATOM     94  C   UNL A   1      46.689  35.182  30.498  1.00  0.00     0.200 A 
ATOM     95  F   UNL A   1      46.825  34.491  32.752  1.00  0.00    -0.200 F 
ATOM     96  F   UNL A   1      47.061  36.423  30.841  1.00  0.00    -0.200 F 
ENDBRANCH  63  86
ENDBRANCH  37  38
ENDBRANCH  30  32
ENDBRANCH  29  30
ENDBRANCH  28  29
ENDBRANCH  27  28
ENDBRANCH  26  27
ENDBRANCH   1  26
TORSDOF 18
ENDMDL
