MODEL 1
REMARK VINA RESULT:     -10.9      0.000      0.000
REMARK SMILES CCC[C@@H](CNC(=O)NCc1c(C)nn(C)c1C)C(=O)OCCOCCOC(=O)c1ccc(-c2c3nc(c(-c4c(F)c(F)c(F)c(F)c4F)c4ccc([nH]4)c(-c4c(F)c(F)c(F)c(F)c4F)c4nc(c(-c5c(F)c(F)c(F)c(F)c5F)c5ccc2[nH]5)C=C4)C=C3)cc1
REMARK SMILES IDX 23 1 22 2 21 3 19 4 20 5 4 6 3 7 2 8 1 9 5 10 6 11 7 12 8 14
REMARK SMILES IDX 9 15 10 17 11 18 12 19 17 20 13 21 14 22 15 23 18 24 16 25
REMARK SMILES IDX 24 26 25 27 26 28 27 29 28 30 29 31 30 32 31 33 92 34 32 35
REMARK SMILES IDX 91 36 33 37 34 38 35 39 85 40 36 41 90 42 84 43 86 44 37 45
REMARK SMILES IDX 89 46 83 47 82 48 38 50 70 51 50 52 69 53 51 54 54 55 68 56
REMARK SMILES IDX 87 57 52 58 53 59 67 61 88 62 55 63 39 64 40 65 48 66 41 67
REMARK SMILES IDX 42 68 46 69 49 70 43 71 44 72 47 73 45 74 71 75 72 76 80 77
REMARK SMILES IDX 73 78 74 79 78 80 81 81 75 82 76 83 79 84 77 85 56 86 57 87
REMARK SMILES IDX 65 88 58 89 59 90 63 91 66 92 60 93 61 94 64 95 62 96
REMARK H PARENT 6 13 9 16 86 49 54 60
REMARK Flexibility Score: inf
ROOT
ATOM      1  C   UNL A   1      36.943  22.207  24.034  1.00  0.00     0.202 C 
ENDROOT
BRANCH   1   2
ATOM      2  C   UNL A   1      36.105  23.271  24.743  1.00  0.00     0.261 C 
BRANCH   2   3
ATOM      3  O   UNL A   1      34.704  22.942  24.774  1.00  0.00    -0.463 OA
BRANCH   3   4
ATOM      4  C   UNL A   1      34.377  21.804  25.443  1.00  0.00     0.310 C 
ATOM      5  O   UNL A   1      34.749  21.526  26.578  1.00  0.00    -0.252 OA
BRANCH   4   6
ATOM      6  C   UNL A   1      33.514  20.869  24.621  1.00  0.00     0.118 C 
BRANCH   6   7
ATOM      7  C   UNL A   1      33.829  19.382  24.868  1.00  0.00     0.017 C 
BRANCH   7   8
ATOM      8  C   UNL A   1      32.690  18.417  24.513  1.00  0.00    -0.002 C 
ATOM      9  C   UNL A   1      32.566  18.136  23.021  1.00  0.00     0.004 C 
ENDBRANCH   7   8
ENDBRANCH   6   7
BRANCH   6  10
ATOM     10  C   UNL A   1      32.035  21.229  24.782  1.00  0.00     0.133 C 
BRANCH  10  11
ATOM     11  N   UNL A   1      31.766  22.099  25.913  1.00  0.00    -0.337 N 
ATOM     12  C   UNL A   1      31.131  23.271  26.053  1.00  0.00     0.315 C 
ATOM     13  H   UNL A   1      32.129  21.754  26.760  1.00  0.00     0.165 HD
ATOM     14  O   UNL A   1      30.971  23.702  27.198  1.00  0.00    -0.249 OA
ATOM     15  N   UNL A   1      30.639  23.987  25.038  1.00  0.00    -0.334 N 
ATOM     16  H   UNL A   1      30.036  24.708  25.334  1.00  0.00     0.165 HD
BRANCH  15  17
ATOM     17  C   UNL A   1      30.793  23.938  23.605  1.00  0.00     0.157 C 
BRANCH  17  18
ATOM     18  C   UNL A   1      31.774  24.931  23.076  1.00  0.00     0.015 A 
ATOM     19  C   UNL A   1      32.879  24.583  22.240  1.00  0.00     0.065 A 
ATOM     20  C   UNL A   1      31.848  26.318  23.170  1.00  0.00     0.040 A 
ATOM     21  C   UNL A   1      33.261  23.248  21.708  1.00  0.00     0.069 C 
ATOM     22  N   UNL A   1      33.623  25.644  21.924  1.00  0.00    -0.178 NA
ATOM     23  N   UNL A   1      33.007  26.672  22.524  1.00  0.00    -0.272 N 
ATOM     24  C   UNL A   1      30.965  27.336  23.798  1.00  0.00     0.067 C 
ATOM     25  C   UNL A   1      33.618  27.977  22.420  1.00  0.00     0.174 C 
ENDBRANCH  17  18
ENDBRANCH  15  17
ENDBRANCH  10  11
ENDBRANCH   6  10
ENDBRANCH   4   6
ENDBRANCH   3   4
ENDBRANCH   2   3
ENDBRANCH   1   2
BRANCH   1  26
ATOM     26  O   UNL A   1      37.902  21.505  24.822  1.00  0.00    -0.374 OA
BRANCH  26  27
ATOM     27  C   UNL A   1      37.723  20.102  24.998  1.00  0.00     0.202 C 
BRANCH  27  28
ATOM     28  C   UNL A   1      38.974  19.280  25.331  1.00  0.00     0.261 C 
BRANCH  28  29
ATOM     29  O   UNL A   1      39.848  19.949  26.259  1.00  0.00    -0.460 OA
BRANCH  29  30
ATOM     30  C   UNL A   1      41.151  19.601  26.135  1.00  0.00     0.338 C 
ATOM     31  O   UNL A   1      41.595  18.532  25.736  1.00  0.00    -0.246 OA
BRANCH  30  32
ATOM     32  C   UNL A   1      42.044  20.740  26.414  1.00  0.00     0.060 A 
ATOM     33  C   UNL A   1      42.266  21.048  27.762  1.00  0.00     0.016 A 
ATOM     34  C   UNL A   1      42.524  21.578  25.405  1.00  0.00     0.016 A 
ATOM     35  C   UNL A   1      42.881  22.246  28.110  1.00  0.00     0.010 A 
ATOM     36  C   UNL A   1      43.142  22.786  25.758  1.00  0.00     0.010 A 
ATOM     37  C   UNL A   1      43.264  23.151  27.111  1.00  0.00    -0.014 A 
BRANCH  37  38
ATOM     38  C   UNL A   1      43.581  24.545  27.516  1.00  0.00     0.031 A 
ATOM     39  C   UNL A   1      44.975  25.068  27.282  1.00  0.00     0.074 A 
ATOM     40  C   UNL A   1      42.624  25.367  27.979  1.00  0.00     0.049 A 
ATOM     41  N   UNL A   1      45.451  26.276  27.454  1.00  0.00    -0.248 NA
ATOM     42  C   UNL A   1      45.963  24.100  26.779  1.00  0.00     0.031 C 
ATOM     43  C   UNL A   1      41.232  24.991  28.217  1.00  0.00     0.029 A 
ATOM     44  N   UNL A   1      42.679  26.697  28.312  1.00  0.00    -0.354 N 
ATOM     45  C   UNL A   1      46.787  26.212  27.077  1.00  0.00     0.074 A 
ATOM     46  C   UNL A   1      47.058  24.840  26.705  1.00  0.00     0.031 C 
ATOM     47  C   UNL A   1      40.560  26.072  28.652  1.00  0.00     0.029 A 
ATOM     48  C   UNL A   1      41.477  27.209  28.733  1.00  0.00     0.049 A 
ATOM     49  H   UNL A   1      43.502  27.234  28.255  1.00  0.00     0.167 HD
ATOM     50  C   UNL A   1      47.702  27.208  27.026  1.00  0.00     0.037 A 
ATOM     51  C   UNL A   1      41.156  28.453  29.135  1.00  0.00     0.037 A 
ATOM     52  C   UNL A   1      47.438  28.575  27.387  1.00  0.00     0.049 A 
ATOM     53  C   UNL A   1      42.204  29.535  29.114  1.00  0.00     0.074 A 
ATOM     54  C   UNL A   1      48.296  29.660  27.355  1.00  0.00     0.029 A 
ATOM     55  N   UNL A   1      46.217  29.043  27.850  1.00  0.00    -0.354 N 
ATOM     56  N   UNL A   1      43.455  29.471  28.724  1.00  0.00    -0.248 NA
ATOM     57  C   UNL A   1      41.790  30.867  29.579  1.00  0.00     0.031 C 
ATOM     58  C   UNL A   1      47.606  30.778  27.840  1.00  0.00     0.029 A 
ATOM     59  C   UNL A   1      46.305  30.398  28.130  1.00  0.00     0.049 A 
ATOM     60  H   UNL A   1      45.408  28.495  27.964  1.00  0.00     0.167 HD
ATOM     61  C   UNL A   1      43.968  30.753  28.875  1.00  0.00     0.074 A 
ATOM     62  C   UNL A   1      42.889  31.579  29.373  1.00  0.00     0.031 C 
ATOM     63  C   UNL A   1      45.221  31.207  28.625  1.00  0.00     0.037 A 
BRANCH  50  64
ATOM     64  C   UNL A   1      49.088  26.850  26.574  1.00  0.00     0.064 A 
ATOM     65  C   UNL A   1      50.054  26.375  27.474  1.00  0.00     0.173 A 
ATOM     66  C   UNL A   1      49.445  26.961  25.223  1.00  0.00     0.173 A 
ATOM     67  F   UNL A   1      49.765  26.265  28.779  1.00  0.00    -0.203 F 
ATOM     68  C   UNL A   1      51.336  26.047  27.038  1.00  0.00     0.198 A 
ATOM     69  C   UNL A   1      50.720  26.608  24.788  1.00  0.00     0.198 A 
ATOM     70  F   UNL A   1      48.557  27.409  24.322  1.00  0.00    -0.203 F 
ATOM     71  F   UNL A   1      52.257  25.636  27.921  1.00  0.00    -0.200 F 
ATOM     72  C   UNL A   1      51.665  26.158  25.696  1.00  0.00     0.200 A 
ATOM     73  F   UNL A   1      51.034  26.708  23.489  1.00  0.00    -0.200 F 
ATOM     74  F   UNL A   1      52.898  25.838  25.279  1.00  0.00    -0.200 F 
ENDBRANCH  50  64
BRANCH  51  75
ATOM     75  C   UNL A   1      39.772  28.752  29.586  1.00  0.00     0.064 A 
ATOM     76  C   UNL A   1      39.380  28.539  30.914  1.00  0.00     0.173 A 
ATOM     77  C   UNL A   1      38.807  29.235  28.689  1.00  0.00     0.173 A 
ATOM     78  F   UNL A   1      40.260  28.051  31.802  1.00  0.00    -0.203 F 
ATOM     79  C   UNL A   1      38.071  28.780  31.325  1.00  0.00     0.198 A 
ATOM     80  C   UNL A   1      37.506  29.499  29.107  1.00  0.00     0.198 A 
ATOM     81  F   UNL A   1      39.132  29.449  27.405  1.00  0.00    -0.203 F 
ATOM     82  F   UNL A   1      37.710  28.523  32.589  1.00  0.00    -0.200 F 
ATOM     83  C   UNL A   1      37.136  29.265  30.423  1.00  0.00     0.200 A 
ATOM     84  F   UNL A   1      36.607  29.973  28.233  1.00  0.00    -0.200 F 
ATOM     85  F   UNL A   1      35.877  29.494  30.818  1.00  0.00    -0.200 F 
ENDBRANCH  51  75
BRANCH  63  86
ATOM     86  C   UNL A   1      45.485  32.664  28.866  1.00  0.00     0.064 A 
ATOM     87  C   UNL A   1      45.983  33.127  30.093  1.00  0.00     0.173 A 
ATOM     88  C   UNL A   1      45.261  33.605  27.849  1.00  0.00     0.173 A 
ATOM     89  F   UNL A   1      46.200  32.268  31.100  1.00  0.00    -0.203 F 
ATOM     90  C   UNL A   1      46.216  34.483  30.304  1.00  0.00     0.198 A 
ATOM     91  C   UNL A   1      45.522  34.958  28.055  1.00  0.00     0.198 A 
ATOM     92  F   UNL A   1      44.793  33.214  26.656  1.00  0.00    -0.203 F 
ATOM     93  F   UNL A   1      46.644  34.909  31.501  1.00  0.00    -0.200 F 
ATOM     94  C   UNL A   1      45.992  35.396  29.284  1.00  0.00     0.200 A 
ATOM     95  F   UNL A   1      45.316  35.837  27.066  1.00  0.00    -0.200 F 
ATOM     96  F   UNL A   1      46.218  36.701  29.489  1.00  0.00    -0.200 F 
ENDBRANCH  63  86
ENDBRANCH  37  38
ENDBRANCH  30  32
ENDBRANCH  29  30
ENDBRANCH  28  29
ENDBRANCH  27  28
ENDBRANCH  26  27
ENDBRANCH   1  26
TORSDOF 20
ENDMDL
MODEL 2
REMARK VINA RESULT:     -10.9      4.870     10.337
REMARK SMILES CCC[C@@H](CNC(=O)NCc1c(C)nn(C)c1C)C(=O)OCCOCCOC(=O)c1ccc(-c2c3nc(c(-c4c(F)c(F)c(F)c(F)c4F)c4ccc([nH]4)c(-c4c(F)c(F)c(F)c(F)c4F)c4nc(c(-c5c(F)c(F)c(F)c(F)c5F)c5ccc2[nH]5)C=C4)C=C3)cc1
REMARK SMILES IDX 23 1 22 2 21 3 19 4 20 5 4 6 3 7 2 8 1 9 5 10 6 11 7 12 8 14
REMARK SMILES IDX 9 15 10 17 11 18 12 19 17 20 13 21 14 22 15 23 18 24 16 25
REMARK SMILES IDX 24 26 25 27 26 28 27 29 28 30 29 31 30 32 31 33 92 34 32 35
REMARK SMILES IDX 91 36 33 37 34 38 35 39 85 40 36 41 90 42 84 43 86 44 37 45
REMARK SMILES IDX 89 46 83 47 82 48 38 50 70 51 50 52 69 53 51 54 54 55 68 56
REMARK SMILES IDX 87 57 52 58 53 59 67 61 88 62 55 63 39 64 40 65 48 66 41 67
REMARK SMILES IDX 42 68 46 69 49 70 43 71 44 72 47 73 45 74 71 75 72 76 80 77
REMARK SMILES IDX 73 78 74 79 78 80 81 81 75 82 76 83 79 84 77 85 56 86 57 87
REMARK SMILES IDX 65 88 58 89 59 90 63 91 66 92 60 93 61 94 64 95 62 96
REMARK H PARENT 6 13 9 16 86 49 54 60
REMARK Flexibility Score: inf
ROOT
ATOM      1  C   UNL A   1      33.287  29.501  26.173  1.00  0.00     0.202 C 
ENDROOT
BRANCH   1   2
ATOM      2  C   UNL A   1      33.717  28.148  26.740  1.00  0.00     0.261 C 
BRANCH   2   3
ATOM      3  O   UNL A   1      32.838  27.079  26.346  1.00  0.00    -0.463 OA
BRANCH   3   4
ATOM      4  C   UNL A   1      31.534  27.220  26.706  1.00  0.00     0.310 C 
ATOM      5  O   UNL A   1      31.146  27.569  27.816  1.00  0.00    -0.252 OA
BRANCH   4   6
ATOM      6  C   UNL A   1      30.575  26.864  25.589  1.00  0.00     0.118 C 
BRANCH   6   7
ATOM      7  C   UNL A   1      30.766  27.730  24.329  1.00  0.00     0.017 C 
BRANCH   7   8
ATOM      8  C   UNL A   1      30.338  27.059  23.017  1.00  0.00    -0.002 C 
ATOM      9  C   UNL A   1      31.502  26.710  22.099  1.00  0.00     0.004 C 
ENDBRANCH   7   8
ENDBRANCH   6   7
BRANCH   6  10
ATOM     10  C   UNL A   1      30.605  25.358  25.320  1.00  0.00     0.133 C 
BRANCH  10  11
ATOM     11  N   UNL A   1      30.020  24.564  26.386  1.00  0.00    -0.337 N 
ATOM     12  C   UNL A   1      30.158  23.290  26.779  1.00  0.00     0.315 C 
ATOM     13  H   UNL A   1      29.385  25.072  26.940  1.00  0.00     0.165 HD
ATOM     14  O   UNL A   1      29.594  22.949  27.822  1.00  0.00    -0.249 OA
ATOM     15  N   UNL A   1      30.886  22.377  26.130  1.00  0.00    -0.334 N 
ATOM     16  H   UNL A   1      31.037  21.561  26.660  1.00  0.00     0.165 HD
BRANCH  15  17
ATOM     17  C   UNL A   1      31.498  22.320  24.826  1.00  0.00     0.157 C 
BRANCH  17  18
ATOM     18  C   UNL A   1      32.940  21.936  24.859  1.00  0.00     0.015 A 
ATOM     19  C   UNL A   1      34.011  22.867  24.692  1.00  0.00     0.065 A 
ATOM     20  C   UNL A   1      33.582  20.726  25.105  1.00  0.00     0.040 A 
ATOM     21  C   UNL A   1      33.943  24.340  24.497  1.00  0.00     0.069 C 
ATOM     22  N   UNL A   1      35.204  22.273  24.734  1.00  0.00    -0.178 NA
ATOM     23  N   UNL A   1      34.923  20.979  24.946  1.00  0.00    -0.272 N 
ATOM     24  C   UNL A   1      33.083  19.372  25.460  1.00  0.00     0.067 C 
ATOM     25  C   UNL A   1      36.027  20.048  24.980  1.00  0.00     0.174 C 
ENDBRANCH  17  18
ENDBRANCH  15  17
ENDBRANCH  10  11
ENDBRANCH   6  10
ENDBRANCH   4   6
ENDBRANCH   3   4
ENDBRANCH   2   3
ENDBRANCH   1   2
BRANCH   1  26
ATOM     26  O   UNL A   1      32.691  30.424  27.082  1.00  0.00    -0.374 OA
BRANCH  26  27
ATOM     27  C   UNL A   1      31.859  31.448  26.543  1.00  0.00     0.202 C 
BRANCH  27  28
ATOM     28  C   UNL A   1      31.817  32.779  27.303  1.00  0.00     0.261 C 
BRANCH  28  29
ATOM     29  O   UNL A   1      33.067  33.491  27.247  1.00  0.00    -0.460 OA
BRANCH  29  30
ATOM     30  C   UNL A   1      33.661  33.656  28.452  1.00  0.00     0.338 C 
ATOM     31  O   UNL A   1      33.193  34.217  29.435  1.00  0.00    -0.246 OA
BRANCH  30  32
ATOM     32  C   UNL A   1      34.947  32.941  28.524  1.00  0.00     0.060 A 
ATOM     33  C   UNL A   1      34.898  31.600  28.926  1.00  0.00     0.016 A 
ATOM     34  C   UNL A   1      36.174  33.588  28.362  1.00  0.00     0.016 A 
ATOM     35  C   UNL A   1      36.070  30.931  29.264  1.00  0.00     0.010 A 
ATOM     36  C   UNL A   1      37.353  32.913  28.705  1.00  0.00     0.010 A 
ATOM     37  C   UNL A   1      37.298  31.604  29.217  1.00  0.00    -0.014 A 
BRANCH  37  38
ATOM     38  C   UNL A   1      38.458  30.990  29.911  1.00  0.00     0.031 A 
ATOM     39  C   UNL A   1      38.689  31.316  31.365  1.00  0.00     0.074 A 
ATOM     40  C   UNL A   1      39.226  30.072  29.298  1.00  0.00     0.049 A 
ATOM     41  N   UNL A   1      39.567  30.819  32.200  1.00  0.00    -0.248 NA
ATOM     42  C   UNL A   1      37.807  32.334  31.957  1.00  0.00     0.031 C 
ATOM     43  C   UNL A   1      39.083  29.647  27.908  1.00  0.00     0.029 A 
ATOM     44  N   UNL A   1      40.269  29.321  29.779  1.00  0.00    -0.354 N 
ATOM     45  C   UNL A   1      39.339  31.460  33.412  1.00  0.00     0.074 A 
ATOM     46  C   UNL A   1      38.269  32.409  33.195  1.00  0.00     0.031 C 
ATOM     47  C   UNL A   1      40.003  28.700  27.649  1.00  0.00     0.029 A 
ATOM     48  C   UNL A   1      40.803  28.464  28.850  1.00  0.00     0.049 A 
ATOM     49  H   UNL A   1      40.603  29.391  30.702  1.00  0.00     0.167 HD
ATOM     50  C   UNL A   1      39.951  31.264  34.604  1.00  0.00     0.037 A 
ATOM     51  C   UNL A   1      41.820  27.588  28.960  1.00  0.00     0.037 A 
ATOM     52  C   UNL A   1      41.010  30.317  34.828  1.00  0.00     0.049 A 
ATOM     53  C   UNL A   1      42.517  27.422  30.285  1.00  0.00     0.074 A 
ATOM     54  C   UNL A   1      41.684  30.035  36.002  1.00  0.00     0.029 A 
ATOM     55  N   UNL A   1      41.552  29.497  33.848  1.00  0.00    -0.354 N 
ATOM     56  N   UNL A   1      42.271  28.008  31.432  1.00  0.00    -0.248 NA
ATOM     57  C   UNL A   1      43.628  26.459  30.331  1.00  0.00     0.031 C 
ATOM     58  C   UNL A   1      42.664  29.074  35.725  1.00  0.00     0.029 A 
ATOM     59  C   UNL A   1      42.568  28.725  34.388  1.00  0.00     0.049 A 
ATOM     60  H   UNL A   1      41.258  29.469  32.910  1.00  0.00     0.167 HD
ATOM     61  C   UNL A   1      43.177  27.472  32.337  1.00  0.00     0.074 A 
ATOM     62  C   UNL A   1      43.966  26.499  31.612  1.00  0.00     0.031 C 
ATOM     63  C   UNL A   1      43.344  27.760  33.652  1.00  0.00     0.037 A 
BRANCH  50  64
ATOM     64  C   UNL A   1      39.496  32.106  35.760  1.00  0.00     0.064 A 
ATOM     65  C   UNL A   1      38.505  31.660  36.648  1.00  0.00     0.173 A 
ATOM     66  C   UNL A   1      40.073  33.362  35.994  1.00  0.00     0.173 A 
ATOM     67  F   UNL A   1      37.912  30.473  36.457  1.00  0.00    -0.203 F 
ATOM     68  C   UNL A   1      38.094  32.454  37.716  1.00  0.00     0.198 A 
ATOM     69  C   UNL A   1      39.677  34.141  37.077  1.00  0.00     0.198 A 
ATOM     70  F   UNL A   1      41.026  33.832  35.174  1.00  0.00    -0.203 F 
ATOM     71  F   UNL A   1      37.116  32.028  38.527  1.00  0.00    -0.200 F 
ATOM     72  C   UNL A   1      38.684  33.690  37.933  1.00  0.00     0.200 A 
ATOM     73  F   UNL A   1      40.254  35.332  37.291  1.00  0.00    -0.200 F 
ATOM     74  F   UNL A   1      38.289  34.451  38.963  1.00  0.00    -0.200 F 
ENDBRANCH  50  64
BRANCH  51  75
ATOM     75  C   UNL A   1      42.240  26.789  27.780  1.00  0.00     0.064 A 
ATOM     76  C   UNL A   1      41.689  25.527  27.525  1.00  0.00     0.173 A 
ATOM     77  C   UNL A   1      43.222  27.264  26.898  1.00  0.00     0.173 A 
ATOM     78  F   UNL A   1      40.767  25.018  28.358  1.00  0.00    -0.203 F 
ATOM     79  C   UNL A   1      42.115  24.761  26.442  1.00  0.00     0.198 A 
ATOM     80  C   UNL A   1      43.629  26.509  25.801  1.00  0.00     0.198 A 
ATOM     81  F   UNL A   1      43.785  28.464  27.103  1.00  0.00    -0.203 F 
ATOM     82  F   UNL A   1      41.606  23.537  26.248  1.00  0.00    -0.200 F 
ATOM     83  C   UNL A   1      43.081  25.254  25.578  1.00  0.00     0.200 A 
ATOM     84  F   UNL A   1      44.559  26.991  24.966  1.00  0.00    -0.200 F 
ATOM     85  F   UNL A   1      43.493  24.516  24.538  1.00  0.00    -0.200 F 
ENDBRANCH  51  75
BRANCH  63  86
ATOM     86  C   UNL A   1      44.404  26.997  34.393  1.00  0.00     0.064 A 
ATOM     87  C   UNL A   1      45.711  27.490  34.516  1.00  0.00     0.173 A 
ATOM     88  C   UNL A   1      44.101  25.773  35.009  1.00  0.00     0.173 A 
ATOM     89  F   UNL A   1      46.053  28.649  33.934  1.00  0.00    -0.203 F 
ATOM     90  C   UNL A   1      46.685  26.769  35.202  1.00  0.00     0.198 A 
ATOM     91  C   UNL A   1      45.071  25.069  35.717  1.00  0.00     0.198 A 
ATOM     92  F   UNL A   1      42.864  25.263  34.928  1.00  0.00    -0.203 F 
ATOM     93  F   UNL A   1      47.941  27.235  35.264  1.00  0.00    -0.200 F 
ATOM     94  C   UNL A   1      46.363  25.563  35.806  1.00  0.00     0.200 A 
ATOM     95  F   UNL A   1      44.756  23.910  36.310  1.00  0.00    -0.200 F 
ATOM     96  F   UNL A   1      47.302  24.871  36.466  1.00  0.00    -0.200 F 
ENDBRANCH  63  86
ENDBRANCH  37  38
ENDBRANCH  30  32
ENDBRANCH  29  30
ENDBRANCH  28  29
ENDBRANCH  27  28
ENDBRANCH  26  27
ENDBRANCH   1  26
TORSDOF 20
ENDMDL
MODEL 3
REMARK VINA RESULT:     -10.8      4.891     10.483
REMARK SMILES CCC[C@@H](CNC(=O)NCc1c(C)nn(C)c1C)C(=O)OCCOCCOC(=O)c1ccc(-c2c3nc(c(-c4c(F)c(F)c(F)c(F)c4F)c4ccc([nH]4)c(-c4c(F)c(F)c(F)c(F)c4F)c4nc(c(-c5c(F)c(F)c(F)c(F)c5F)c5ccc2[nH]5)C=C4)C=C3)cc1
REMARK SMILES IDX 23 1 22 2 21 3 19 4 20 5 4 6 3 7 2 8 1 9 5 10 6 11 7 12 8 14
REMARK SMILES IDX 9 15 10 17 11 18 12 19 17 20 13 21 14 22 15 23 18 24 16 25
REMARK SMILES IDX 24 26 25 27 26 28 27 29 28 30 29 31 30 32 31 33 92 34 32 35
REMARK SMILES IDX 91 36 33 37 34 38 35 39 85 40 36 41 90 42 84 43 86 44 37 45
REMARK SMILES IDX 89 46 83 47 82 48 38 50 70 51 50 52 69 53 51 54 54 55 68 56
REMARK SMILES IDX 87 57 52 58 53 59 67 61 88 62 55 63 39 64 40 65 48 66 41 67
REMARK SMILES IDX 42 68 46 69 49 70 43 71 44 72 47 73 45 74 71 75 72 76 80 77
REMARK SMILES IDX 73 78 74 79 78 80 81 81 75 82 76 83 79 84 77 85 56 86 57 87
REMARK SMILES IDX 65 88 58 89 59 90 63 91 66 92 60 93 61 94 64 95 62 96
REMARK H PARENT 6 13 9 16 86 49 54 60
REMARK Flexibility Score: inf
ROOT
ATOM      1  C   UNL A   1      31.783  29.242  27.253  1.00  0.00     0.202 C 
ENDROOT
BRANCH   1   2
ATOM      2  C   UNL A   1      32.367  27.953  26.671  1.00  0.00     0.261 C 
BRANCH   2   3
ATOM      3  O   UNL A   1      32.058  27.788  25.275  1.00  0.00    -0.463 OA
BRANCH   3   4
ATOM      4  C   UNL A   1      30.879  27.169  24.998  1.00  0.00     0.310 C 
ATOM      5  O   UNL A   1      30.430  26.206  25.611  1.00  0.00    -0.252 OA
BRANCH   4   6
ATOM      6  C   UNL A   1      30.166  27.774  23.805  1.00  0.00     0.118 C 
BRANCH   6   7
ATOM      7  C   UNL A   1      30.482  29.268  23.606  1.00  0.00     0.017 C 
BRANCH   7   8
ATOM      8  C   UNL A   1      29.466  30.030  22.744  1.00  0.00    -0.002 C 
ATOM      9  C   UNL A   1      28.030  29.553  22.922  1.00  0.00     0.004 C 
ENDBRANCH   7   8
ENDBRANCH   6   7
BRANCH   6  10
ATOM     10  C   UNL A   1      30.392  26.917  22.558  1.00  0.00     0.133 C 
BRANCH  10  11
ATOM     11  N   UNL A   1      31.748  26.981  22.044  1.00  0.00    -0.337 N 
ATOM     12  C   UNL A   1      32.710  26.069  21.843  1.00  0.00     0.315 C 
ATOM     13  H   UNL A   1      32.021  27.891  21.789  1.00  0.00     0.165 HD
ATOM     14  O   UNL A   1      33.737  26.438  21.267  1.00  0.00    -0.249 OA
ATOM     15  N   UNL A   1      32.617  24.786  22.202  1.00  0.00    -0.334 N 
ATOM     16  H   UNL A   1      33.320  24.224  21.802  1.00  0.00     0.165 HD
BRANCH  15  17
ATOM     17  C   UNL A   1      31.715  24.039  23.043  1.00  0.00     0.157 C 
BRANCH  17  18
ATOM     18  C   UNL A   1      32.403  23.068  23.944  1.00  0.00     0.015 A 
ATOM     19  C   UNL A   1      32.508  21.671  23.667  1.00  0.00     0.065 A 
ATOM     20  C   UNL A   1      33.117  23.231  25.128  1.00  0.00     0.040 A 
ATOM     21  C   UNL A   1      32.021  20.916  22.482  1.00  0.00     0.069 C 
ATOM     22  N   UNL A   1      33.144  21.013  24.638  1.00  0.00    -0.178 NA
ATOM     23  N   UNL A   1      33.470  21.965  25.524  1.00  0.00    -0.272 N 
ATOM     24  C   UNL A   1      33.494  24.429  25.922  1.00  0.00     0.067 C 
ATOM     25  C   UNL A   1      34.127  21.552  26.743  1.00  0.00     0.174 C 
ENDBRANCH  17  18
ENDBRANCH  15  17
ENDBRANCH  10  11
ENDBRANCH   6  10
ENDBRANCH   4   6
ENDBRANCH   3   4
ENDBRANCH   2   3
ENDBRANCH   1   2
BRANCH   1  26
ATOM     26  O   UNL A   1      32.459  30.458  26.940  1.00  0.00    -0.374 OA
BRANCH  26  27
ATOM     27  C   UNL A   1      31.673  31.567  26.511  1.00  0.00     0.202 C 
BRANCH  27  28
ATOM     28  C   UNL A   1      31.803  32.863  27.320  1.00  0.00     0.261 C 
BRANCH  28  29
ATOM     29  O   UNL A   1      33.115  33.447  27.228  1.00  0.00    -0.460 OA
BRANCH  29  30
ATOM     30  C   UNL A   1      33.714  33.646  28.426  1.00  0.00     0.338 C 
ATOM     31  O   UNL A   1      33.242  34.216  29.401  1.00  0.00    -0.246 OA
BRANCH  30  32
ATOM     32  C   UNL A   1      35.014  32.957  28.502  1.00  0.00     0.060 A 
ATOM     33  C   UNL A   1      34.984  31.592  28.817  1.00  0.00     0.016 A 
ATOM     34  C   UNL A   1      36.229  33.642  28.427  1.00  0.00     0.016 A 
ATOM     35  C   UNL A   1      36.159  30.930  29.156  1.00  0.00     0.010 A 
ATOM     36  C   UNL A   1      37.412  32.973  28.771  1.00  0.00     0.010 A 
ATOM     37  C   UNL A   1      37.371  31.633  29.198  1.00  0.00    -0.014 A 
BRANCH  37  38
ATOM     38  C   UNL A   1      38.520  31.002  29.896  1.00  0.00     0.031 A 
ATOM     39  C   UNL A   1      38.742  31.313  31.354  1.00  0.00     0.074 A 
ATOM     40  C   UNL A   1      39.285  30.084  29.281  1.00  0.00     0.049 A 
ATOM     41  N   UNL A   1      39.609  30.802  32.192  1.00  0.00    -0.248 NA
ATOM     42  C   UNL A   1      37.864  32.334  31.948  1.00  0.00     0.031 C 
ATOM     43  C   UNL A   1      39.150  29.672  27.886  1.00  0.00     0.029 A 
ATOM     44  N   UNL A   1      40.318  29.320  29.763  1.00  0.00    -0.354 N 
ATOM     45  C   UNL A   1      39.376  31.434  33.408  1.00  0.00     0.074 A 
ATOM     46  C   UNL A   1      38.316  32.394  33.191  1.00  0.00     0.031 C 
ATOM     47  C   UNL A   1      40.064  28.720  27.626  1.00  0.00     0.029 A 
ATOM     48  C   UNL A   1      40.852  28.466  28.830  1.00  0.00     0.049 A 
ATOM     49  H   UNL A   1      40.645  29.378  30.690  1.00  0.00     0.167 HD
ATOM     50  C   UNL A   1      39.977  31.221  34.603  1.00  0.00     0.037 A 
ATOM     51  C   UNL A   1      41.860  27.581  28.941  1.00  0.00     0.037 A 
ATOM     52  C   UNL A   1      41.027  30.264  34.827  1.00  0.00     0.049 A 
ATOM     53  C   UNL A   1      42.546  27.396  30.270  1.00  0.00     0.074 A 
ATOM     54  C   UNL A   1      41.689  29.965  36.004  1.00  0.00     0.029 A 
ATOM     55  N   UNL A   1      41.569  29.448  33.844  1.00  0.00    -0.354 N 
ATOM     56  N   UNL A   1      42.295  27.975  31.420  1.00  0.00    -0.248 NA
ATOM     57  C   UNL A   1      43.648  26.424  30.316  1.00  0.00     0.031 C 
ATOM     58  C   UNL A   1      42.662  28.998  35.726  1.00  0.00     0.029 A 
ATOM     59  C   UNL A   1      42.574  28.662  34.385  1.00  0.00     0.049 A 
ATOM     60  H   UNL A   1      41.283  29.431  32.903  1.00  0.00     0.167 HD
ATOM     61  C   UNL A   1      43.190  27.422  32.328  1.00  0.00     0.074 A 
ATOM     62  C   UNL A   1      43.976  26.449  31.600  1.00  0.00     0.031 C 
ATOM     63  C   UNL A   1      43.348  27.697  33.647  1.00  0.00     0.037 A 
BRANCH  50  64
ATOM     64  C   UNL A   1      39.520  32.057  35.763  1.00  0.00     0.064 A 
ATOM     65  C   UNL A   1      40.056  33.330  36.007  1.00  0.00     0.173 A 
ATOM     66  C   UNL A   1      38.520  31.587  36.626  1.00  0.00     0.173 A 
ATOM     67  F   UNL A   1      41.025  33.817  35.219  1.00  0.00    -0.203 F 
ATOM     68  C   UNL A   1      39.621  34.093  37.088  1.00  0.00     0.198 A 
ATOM     69  C   UNL A   1      38.070  32.363  37.690  1.00  0.00     0.198 A 
ATOM     70  F   UNL A   1      37.975  30.376  36.434  1.00  0.00    -0.203 F 
ATOM     71  F   UNL A   1      40.176  35.289  37.329  1.00  0.00    -0.200 F 
ATOM     72  C   UNL A   1      38.625  33.612  37.925  1.00  0.00     0.200 A 
ATOM     73  F   UNL A   1      37.101  31.900  38.493  1.00  0.00    -0.200 F 
ATOM     74  F   UNL A   1      38.206  34.348  38.963  1.00  0.00    -0.200 F 
ENDBRANCH  50  64
BRANCH  51  75
ATOM     75  C   UNL A   1      42.284  26.788  27.757  1.00  0.00     0.064 A 
ATOM     76  C   UNL A   1      41.737  25.526  27.497  1.00  0.00     0.173 A 
ATOM     77  C   UNL A   1      43.264  27.271  26.877  1.00  0.00     0.173 A 
ATOM     78  F   UNL A   1      40.817  25.010  28.327  1.00  0.00    -0.203 F 
ATOM     79  C   UNL A   1      42.166  24.766  26.410  1.00  0.00     0.198 A 
ATOM     80  C   UNL A   1      43.673  26.523  25.777  1.00  0.00     0.198 A 
ATOM     81  F   UNL A   1      43.822  28.472  27.088  1.00  0.00    -0.203 F 
ATOM     82  F   UNL A   1      41.661  23.542  26.210  1.00  0.00    -0.200 F 
ATOM     83  C   UNL A   1      43.130  25.267  25.548  1.00  0.00     0.200 A 
ATOM     84  F   UNL A   1      44.602  27.013  24.944  1.00  0.00    -0.200 F 
ATOM     85  F   UNL A   1      43.544  24.536  24.505  1.00  0.00    -0.200 F 
ENDBRANCH  51  75
BRANCH  63  86
ATOM     86  C   UNL A   1      44.395  26.919  34.389  1.00  0.00     0.064 A 
ATOM     87  C   UNL A   1      45.706  27.398  34.525  1.00  0.00     0.173 A 
ATOM     88  C   UNL A   1      44.076  25.694  34.994  1.00  0.00     0.173 A 
ATOM     89  F   UNL A   1      46.063  28.558  33.954  1.00  0.00    -0.203 F 
ATOM     90  C   UNL A   1      46.669  26.663  35.212  1.00  0.00     0.198 A 
ATOM     91  C   UNL A   1      45.034  24.974  35.703  1.00  0.00     0.198 A 
ATOM     92  F   UNL A   1      42.835  25.196  34.901  1.00  0.00    -0.203 F 
ATOM     93  F   UNL A   1      47.928  27.115  35.285  1.00  0.00    -0.200 F 
ATOM     94  C   UNL A   1      46.331  25.455  35.805  1.00  0.00     0.200 A 
ATOM     95  F   UNL A   1      44.704  23.814  36.286  1.00  0.00    -0.200 F 
ATOM     96  F   UNL A   1      47.259  24.749  36.466  1.00  0.00    -0.200 F 
ENDBRANCH  63  86
ENDBRANCH  37  38
ENDBRANCH  30  32
ENDBRANCH  29  30
ENDBRANCH  28  29
ENDBRANCH  27  28
ENDBRANCH  26  27
ENDBRANCH   1  26
TORSDOF 20
ENDMDL
