MODEL 1
REMARK VINA RESULT:     -11.3      0.000      0.000
REMARK SMILES CC(C)([NH2+]C[C@@H]1COc2ccccc21)C(=O)OCCOCCOC(=O)c1ccc(-c2c3nc(c(-c4c(F)c(F)c(F)c(F)c4F)c4ccc([nH]4)c(-c4c(F)c(F)c(F)c(F)c4F)c4nc(c(-c5c(F)c(F)c(F)c(F)c5F)c5ccc2[nH]5)C=C4)C=C3)cc1
REMARK SMILES IDX 19 1 18 2 17 3 15 4 16 5 2 6 1 7 3 8 4 9 5 12 6 13 7 14
REMARK SMILES IDX 14 15 8 16 9 17 13 18 10 19 12 20 11 21 20 22 21 23 22 24
REMARK SMILES IDX 23 25 24 26 25 27 26 28 27 29 88 30 28 31 87 32 29 33 30 34
REMARK SMILES IDX 31 35 81 36 32 37 86 38 80 39 82 40 33 41 85 42 79 43 78 44
REMARK SMILES IDX 34 46 66 47 46 48 65 49 47 50 50 51 64 52 83 53 48 54 49 55
REMARK SMILES IDX 63 57 84 58 51 59 35 60 36 61 44 62 37 63 38 64 42 65 45 66
REMARK SMILES IDX 39 67 40 68 43 69 41 70 67 71 68 72 76 73 69 74 70 75 74 76
REMARK SMILES IDX 77 77 71 78 72 79 75 80 73 81 52 82 53 83 61 84 54 85 55 86
REMARK SMILES IDX 59 87 62 88 56 89 57 90 60 91 58 92
REMARK H PARENT 4 10 4 11 82 45 50 56
REMARK Flexibility Score: inf
ROOT
ATOM      1  C   UNL A   1      32.692  26.864  26.120  1.00  0.00     0.202 C 
ENDROOT
BRANCH   1   2
ATOM      2  C   UNL A   1      32.458  25.654  25.215  1.00  0.00     0.261 C 
BRANCH   2   3
ATOM      3  O   UNL A   1      33.679  25.295  24.548  1.00  0.00    -0.459 OA
BRANCH   3   4
ATOM      4  C   UNL A   1      33.852  23.973  24.307  1.00  0.00     0.367 C 
ATOM      5  O   UNL A   1      33.205  23.350  23.467  1.00  0.00    -0.245 OA
BRANCH   4   6
ATOM      6  C   UNL A   1      34.919  23.291  25.195  1.00  0.00     0.188 C 
ATOM      7  C   UNL A   1      34.180  22.902  26.504  1.00  0.00     0.092 C 
ATOM      8  C   UNL A   1      35.961  24.349  25.547  1.00  0.00     0.092 C 
BRANCH   6   9
ATOM      9  N   UNL A   1      35.492  21.986  24.766  1.00  0.00    -0.332 N 
ATOM     10  H   UNL A   1      36.469  22.014  25.054  1.00  0.00     0.347 HD
ATOM     11  H   UNL A   1      35.211  21.984  23.786  1.00  0.00     0.347 HD
BRANCH   9  12
ATOM     12  C   UNL A   1      35.008  20.671  25.173  1.00  0.00     0.273 C 
BRANCH  12  13
ATOM     13  C   UNL A   1      34.017  19.833  24.340  1.00  0.00     0.116 C 
ATOM     14  C   UNL A   1      32.521  20.133  24.507  1.00  0.00     0.244 C 
ATOM     15  C   UNL A   1      34.035  18.380  24.625  1.00  0.00     0.006 A 
ATOM     16  O   UNL A   1      31.829  18.956  24.996  1.00  0.00    -0.492 OA
ATOM     17  C   UNL A   1      32.770  17.963  24.998  1.00  0.00     0.123 A 
ATOM     18  C   UNL A   1      35.094  17.489  24.567  1.00  0.00     0.008 A 
ATOM     19  C   UNL A   1      32.528  16.666  25.402  1.00  0.00     0.047 A 
ATOM     20  C   UNL A   1      34.869  16.169  24.961  1.00  0.00     0.001 A 
ATOM     21  C   UNL A   1      33.595  15.764  25.391  1.00  0.00     0.004 A 
ENDBRANCH  12  13
ENDBRANCH   9  12
ENDBRANCH   6   9
ENDBRANCH   4   6
ENDBRANCH   3   4
ENDBRANCH   2   3
ENDBRANCH   1   2
BRANCH   1  22
ATOM     22  O   UNL A   1      31.851  27.992  25.866  1.00  0.00    -0.374 OA
BRANCH  22  23
ATOM     23  C   UNL A   1      32.502  29.186  25.426  1.00  0.00     0.202 C 
BRANCH  23  24
ATOM     24  C   UNL A   1      32.128  30.459  26.189  1.00  0.00     0.261 C 
BRANCH  24  25
ATOM     25  O   UNL A   1      32.804  30.519  27.459  1.00  0.00    -0.460 OA
BRANCH  25  26
ATOM     26  C   UNL A   1      33.573  31.616  27.624  1.00  0.00     0.338 C 
ATOM     27  O   UNL A   1      33.198  32.777  27.731  1.00  0.00    -0.246 OA
BRANCH  26  28
ATOM     28  C   UNL A   1      34.983  31.234  27.825  1.00  0.00     0.060 A 
ATOM     29  C   UNL A   1      35.254  29.864  27.933  1.00  0.00     0.016 A 
ATOM     30  C   UNL A   1      36.000  32.175  28.001  1.00  0.00     0.016 A 
ATOM     31  C   UNL A   1      36.516  29.434  28.326  1.00  0.00     0.010 A 
ATOM     32  C   UNL A   1      37.271  31.742  28.396  1.00  0.00     0.010 A 
ATOM     33  C   UNL A   1      37.511  30.373  28.624  1.00  0.00    -0.014 A 
BRANCH  33  34
ATOM     34  C   UNL A   1      38.693  29.917  29.394  1.00  0.00     0.031 A 
ATOM     35  C   UNL A   1      38.868  30.418  30.805  1.00  0.00     0.074 A 
ATOM     36  C   UNL A   1      39.535  28.997  28.892  1.00  0.00     0.049 A 
ATOM     37  N   UNL A   1      39.773  30.101  31.695  1.00  0.00    -0.248 NA
ATOM     38  C   UNL A   1      37.886  31.407  31.276  1.00  0.00     0.031 C 
ATOM     39  C   UNL A   1      39.445  28.410  27.557  1.00  0.00     0.029 A 
ATOM     40  N   UNL A   1      40.623  28.386  29.459  1.00  0.00    -0.354 N 
ATOM     41  C   UNL A   1      39.470  30.851  32.825  1.00  0.00     0.074 A 
ATOM     42  C   UNL A   1      38.323  31.667  32.498  1.00  0.00     0.031 C 
ATOM     43  C   UNL A   1      40.440  27.518  27.408  1.00  0.00     0.029 A 
ATOM     44  C   UNL A   1      41.243  27.484  28.630  1.00  0.00     0.049 A 
ATOM     45  H   UNL A   1      40.932  28.576  30.375  1.00  0.00     0.167 HD
ATOM     46  C   UNL A   1      40.081  30.847  34.033  1.00  0.00     0.037 A 
ATOM     47  C   UNL A   1      42.333  26.723  28.838  1.00  0.00     0.037 A 
ATOM     48  C   UNL A   1      41.216  30.026  34.363  1.00  0.00     0.049 A 
ATOM     49  C   UNL A   1      43.017  26.763  30.181  1.00  0.00     0.074 A 
ATOM     50  C   UNL A   1      41.907  29.946  35.559  1.00  0.00     0.029 A 
ATOM     51  N   UNL A   1      41.826  29.141  33.487  1.00  0.00    -0.354 N 
ATOM     52  N   UNL A   1      42.708  27.456  31.250  1.00  0.00    -0.248 NA
ATOM     53  C   UNL A   1      44.193  25.898  30.349  1.00  0.00     0.031 C 
ATOM     54  C   UNL A   1      42.961  29.042  35.395  1.00  0.00     0.029 A 
ATOM     55  C   UNL A   1      42.894  28.519  34.114  1.00  0.00     0.049 A 
ATOM     56  H   UNL A   1      41.543  28.977  32.559  1.00  0.00     0.167 HD
ATOM     57  C   UNL A   1      43.625  27.086  32.226  1.00  0.00     0.074 A 
ATOM     58  C   UNL A   1      44.495  26.096  31.624  1.00  0.00     0.031 C 
ATOM     59  C   UNL A   1      43.738  27.523  33.505  1.00  0.00     0.037 A 
BRANCH  46  60
ATOM     60  C   UNL A   1      39.546  31.776  35.083  1.00  0.00     0.064 A 
ATOM     61  C   UNL A   1      38.636  31.341  36.058  1.00  0.00     0.173 A 
ATOM     62  C   UNL A   1      39.971  33.111  35.131  1.00  0.00     0.173 A 
ATOM     63  F   UNL A   1      38.184  30.078  36.045  1.00  0.00    -0.203 F 
ATOM     64  C   UNL A   1      38.155  32.215  37.030  1.00  0.00     0.198 A 
ATOM     65  C   UNL A   1      39.510  33.975  36.121  1.00  0.00     0.198 A 
ATOM     66  F   UNL A   1      40.840  33.578  34.223  1.00  0.00    -0.203 F 
ATOM     67  F   UNL A   1      37.252  31.790  37.925  1.00  0.00    -0.200 F 
ATOM     68  C   UNL A   1      38.599  33.528  37.065  1.00  0.00     0.200 A 
ATOM     69  F   UNL A   1      39.948  35.242  36.160  1.00  0.00    -0.200 F 
ATOM     70  F   UNL A   1      38.140  34.367  38.006  1.00  0.00    -0.200 F 
ENDBRANCH  46  60
BRANCH  47  71
ATOM     71  C   UNL A   1      42.846  25.845  27.754  1.00  0.00     0.064 A 
ATOM     72  C   UNL A   1      43.834  26.289  26.864  1.00  0.00     0.173 A 
ATOM     73  C   UNL A   1      42.336  24.552  27.569  1.00  0.00     0.173 A 
ATOM     74  F   UNL A   1      44.337  27.526  26.986  1.00  0.00    -0.203 F 
ATOM     75  C   UNL A   1      44.273  25.484  25.816  1.00  0.00     0.198 A 
ATOM     76  C   UNL A   1      42.795  23.736  26.538  1.00  0.00     0.198 A 
ATOM     77  F   UNL A   1      41.389  24.079  28.393  1.00  0.00    -0.203 F 
ATOM     78  F   UNL A   1      45.180  25.952  24.948  1.00  0.00    -0.200 F 
ATOM     79  C   UNL A   1      43.756  24.207  25.656  1.00  0.00     0.200 A 
ATOM     80  F   UNL A   1      42.302  22.499  26.393  1.00  0.00    -0.200 F 
ATOM     81  F   UNL A   1      44.178  23.433  24.646  1.00  0.00    -0.200 F 
ENDBRANCH  47  71
BRANCH  59  82
ATOM     82  C   UNL A   1      44.803  26.894  34.355  1.00  0.00     0.064 A 
ATOM     83  C   UNL A   1      44.565  25.728  35.098  1.00  0.00     0.173 A 
ATOM     84  C   UNL A   1      46.089  27.454  34.408  1.00  0.00     0.173 A 
ATOM     85  F   UNL A   1      43.350  25.159  35.090  1.00  0.00    -0.203 F 
ATOM     86  C   UNL A   1      45.563  25.170  35.893  1.00  0.00     0.198 A 
ATOM     87  C   UNL A   1      47.093  26.874  35.178  1.00  0.00     0.198 A 
ATOM     88  F   UNL A   1      46.373  28.562  33.707  1.00  0.00    -0.203 F 
ATOM     89  F   UNL A   1      45.295  24.089  36.640  1.00  0.00    -0.200 F 
ATOM     90  C   UNL A   1      46.827  25.740  35.927  1.00  0.00     0.200 A 
ATOM     91  F   UNL A   1      48.317  27.419  35.199  1.00  0.00    -0.200 F 
ATOM     92  F   UNL A   1      47.785  25.201  36.693  1.00  0.00    -0.200 F 
ENDBRANCH  59  82
ENDBRANCH  33  34
ENDBRANCH  26  28
ENDBRANCH  25  26
ENDBRANCH  24  25
ENDBRANCH  23  24
ENDBRANCH  22  23
ENDBRANCH   1  22
TORSDOF 17
ENDMDL
MODEL 2
REMARK VINA RESULT:     -11.2      1.739      2.975
REMARK SMILES CC(C)([NH2+]C[C@@H]1COc2ccccc21)C(=O)OCCOCCOC(=O)c1ccc(-c2c3nc(c(-c4c(F)c(F)c(F)c(F)c4F)c4ccc([nH]4)c(-c4c(F)c(F)c(F)c(F)c4F)c4nc(c(-c5c(F)c(F)c(F)c(F)c5F)c5ccc2[nH]5)C=C4)C=C3)cc1
REMARK SMILES IDX 19 1 18 2 17 3 15 4 16 5 2 6 1 7 3 8 4 9 5 12 6 13 7 14
REMARK SMILES IDX 14 15 8 16 9 17 13 18 10 19 12 20 11 21 20 22 21 23 22 24
REMARK SMILES IDX 23 25 24 26 25 27 26 28 27 29 88 30 28 31 87 32 29 33 30 34
REMARK SMILES IDX 31 35 81 36 32 37 86 38 80 39 82 40 33 41 85 42 79 43 78 44
REMARK SMILES IDX 34 46 66 47 46 48 65 49 47 50 50 51 64 52 83 53 48 54 49 55
REMARK SMILES IDX 63 57 84 58 51 59 35 60 36 61 44 62 37 63 38 64 42 65 45 66
REMARK SMILES IDX 39 67 40 68 43 69 41 70 67 71 68 72 76 73 69 74 70 75 74 76
REMARK SMILES IDX 77 77 71 78 72 79 75 80 73 81 52 82 53 83 61 84 54 85 55 86
REMARK SMILES IDX 59 87 62 88 56 89 57 90 60 91 58 92
REMARK H PARENT 4 10 4 11 82 45 50 56
REMARK Flexibility Score: inf
ROOT
ATOM      1  C   UNL A   1      33.204  30.004  26.213  1.00  0.00     0.202 C 
ENDROOT
BRANCH   1   2
ATOM      2  C   UNL A   1      33.139  28.497  25.961  1.00  0.00     0.261 C 
BRANCH   2   3
ATOM      3  O   UNL A   1      32.933  28.238  24.562  1.00  0.00    -0.459 OA
BRANCH   3   4
ATOM      4  C   UNL A   1      31.670  27.905  24.204  1.00  0.00     0.367 C 
ATOM      5  O   UNL A   1      30.711  28.664  24.331  1.00  0.00    -0.245 OA
BRANCH   4   6
ATOM      6  C   UNL A   1      31.518  26.473  23.641  1.00  0.00     0.188 C 
ATOM      7  C   UNL A   1      31.708  26.610  22.106  1.00  0.00     0.092 C 
ATOM      8  C   UNL A   1      30.079  26.034  23.894  1.00  0.00     0.092 C 
BRANCH   6   9
ATOM      9  N   UNL A   1      32.540  25.447  23.986  1.00  0.00    -0.332 N 
ATOM     10  H   UNL A   1      32.018  24.678  24.407  1.00  0.00     0.347 HD
ATOM     11  H   UNL A   1      33.193  26.020  24.520  1.00  0.00     0.347 HD
BRANCH   9  12
ATOM     12  C   UNL A   1      33.463  24.818  23.048  1.00  0.00     0.273 C 
BRANCH  12  13
ATOM     13  C   UNL A   1      33.592  23.291  22.873  1.00  0.00     0.116 C 
ATOM     14  C   UNL A   1      32.459  22.417  23.429  1.00  0.00     0.244 C 
ATOM     15  C   UNL A   1      34.760  22.682  23.551  1.00  0.00     0.006 A 
ATOM     16  O   UNL A   1      32.975  21.517  24.442  1.00  0.00    -0.492 OA
ATOM     17  C   UNL A   1      34.332  21.700  24.425  1.00  0.00     0.123 A 
ATOM     18  C   UNL A   1      36.106  22.978  23.411  1.00  0.00     0.008 A 
ATOM     19  C   UNL A   1      35.215  21.032  25.248  1.00  0.00     0.047 A 
ATOM     20  C   UNL A   1      37.017  22.306  24.226  1.00  0.00     0.001 A 
ATOM     21  C   UNL A   1      36.572  21.349  25.151  1.00  0.00     0.004 A 
ENDBRANCH  12  13
ENDBRANCH   9  12
ENDBRANCH   6   9
ENDBRANCH   4   6
ENDBRANCH   3   4
ENDBRANCH   2   3
ENDBRANCH   1   2
BRANCH   1  22
ATOM     22  O   UNL A   1      32.190  30.526  27.075  1.00  0.00    -0.374 OA
BRANCH  22  23
ATOM     23  C   UNL A   1      31.476  31.669  26.599  1.00  0.00     0.202 C 
BRANCH  23  24
ATOM     24  C   UNL A   1      32.114  33.023  26.918  1.00  0.00     0.261 C 
BRANCH  24  25
ATOM     25  O   UNL A   1      32.624  33.052  28.264  1.00  0.00    -0.460 OA
BRANCH  25  26
ATOM     26  C   UNL A   1      33.674  33.881  28.440  1.00  0.00     0.338 C 
ATOM     27  O   UNL A   1      33.641  35.091  28.627  1.00  0.00    -0.246 OA
BRANCH  26  28
ATOM     28  C   UNL A   1      34.929  33.113  28.539  1.00  0.00     0.060 A 
ATOM     29  C   UNL A   1      34.824  31.793  28.993  1.00  0.00     0.016 A 
ATOM     30  C   UNL A   1      36.181  33.683  28.293  1.00  0.00     0.016 A 
ATOM     31  C   UNL A   1      35.971  31.074  29.309  1.00  0.00     0.010 A 
ATOM     32  C   UNL A   1      37.335  32.958  28.611  1.00  0.00     0.010 A 
ATOM     33  C   UNL A   1      37.228  31.676  29.183  1.00  0.00    -0.014 A 
BRANCH  33  34
ATOM     34  C   UNL A   1      38.378  31.045  29.875  1.00  0.00     0.031 A 
ATOM     35  C   UNL A   1      38.616  31.380  31.324  1.00  0.00     0.074 A 
ATOM     36  C   UNL A   1      39.129  30.112  29.263  1.00  0.00     0.049 A 
ATOM     37  N   UNL A   1      39.503  30.898  32.157  1.00  0.00    -0.248 NA
ATOM     38  C   UNL A   1      37.730  32.396  31.917  1.00  0.00     0.031 C 
ATOM     39  C   UNL A   1      38.968  29.676  27.877  1.00  0.00     0.029 A 
ATOM     40  N   UNL A   1      40.168  29.356  29.739  1.00  0.00    -0.354 N 
ATOM     41  C   UNL A   1      39.283  31.551  33.363  1.00  0.00     0.074 A 
ATOM     42  C   UNL A   1      38.206  32.491  33.148  1.00  0.00     0.031 C 
ATOM     43  C   UNL A   1      39.880  28.723  27.615  1.00  0.00     0.029 A 
ATOM     44  C   UNL A   1      40.695  28.495  28.809  1.00  0.00     0.049 A 
ATOM     45  H   UNL A   1      40.506  29.424  30.662  1.00  0.00     0.167 HD
ATOM     46  C   UNL A   1      39.910  31.371  34.550  1.00  0.00     0.037 A 
ATOM     47  C   UNL A   1      41.717  27.626  28.914  1.00  0.00     0.037 A 
ATOM     48  C   UNL A   1      40.973  30.427  34.768  1.00  0.00     0.049 A 
ATOM     49  C   UNL A   1      42.422  27.470  30.237  1.00  0.00     0.074 A 
ATOM     50  C   UNL A   1      41.672  30.166  35.934  1.00  0.00     0.029 A 
ATOM     51  N   UNL A   1      41.491  29.588  33.793  1.00  0.00    -0.354 N 
ATOM     52  N   UNL A   1      42.190  28.074  31.377  1.00  0.00    -0.248 NA
ATOM     53  C   UNL A   1      43.521  26.496  30.289  1.00  0.00     0.031 C 
ATOM     54  C   UNL A   1      42.641  29.197  35.654  1.00  0.00     0.029 A 
ATOM     55  C   UNL A   1      42.510  28.816  34.329  1.00  0.00     0.049 A 
ATOM     56  H   UNL A   1      41.181  29.545  32.860  1.00  0.00     0.167 HD
ATOM     57  C   UNL A   1      43.086  27.528  32.289  1.00  0.00     0.074 A 
ATOM     58  C   UNL A   1      43.857  26.536  31.570  1.00  0.00     0.031 C 
ATOM     59  C   UNL A   1      43.255  27.821  33.603  1.00  0.00     0.037 A 
BRANCH  46  60
ATOM     60  C   UNL A   1      39.472  32.229  35.701  1.00  0.00     0.064 A 
ATOM     61  C   UNL A   1      40.026  33.498  35.928  1.00  0.00     0.173 A 
ATOM     62  C   UNL A   1      38.464  31.787  36.571  1.00  0.00     0.173 A 
ATOM     63  F   UNL A   1      41.005  33.959  35.136  1.00  0.00    -0.203 F 
ATOM     64  C   UNL A   1      39.602  34.283  36.998  1.00  0.00     0.198 A 
ATOM     65  C   UNL A   1      38.023  32.586  37.622  1.00  0.00     0.198 A 
ATOM     66  F   UNL A   1      37.902  30.582  36.397  1.00  0.00    -0.203 F 
ATOM     67  F   UNL A   1      40.177  35.473  37.223  1.00  0.00    -0.200 F 
ATOM     68  C   UNL A   1      38.596  33.830  37.838  1.00  0.00     0.200 A 
ATOM     69  F   UNL A   1      37.044  32.151  38.427  1.00  0.00    -0.200 F 
ATOM     70  F   UNL A   1      38.185  34.590  38.863  1.00  0.00    -0.200 F 
ENDBRANCH  46  60
BRANCH  47  71
ATOM     71  C   UNL A   1      42.136  26.824  27.734  1.00  0.00     0.064 A 
ATOM     72  C   UNL A   1      41.628  25.537  27.512  1.00  0.00     0.173 A 
ATOM     73  C   UNL A   1      43.078  27.320  26.821  1.00  0.00     0.173 A 
ATOM     74  F   UNL A   1      40.742  25.009  28.370  1.00  0.00    -0.203 F 
ATOM     75  C   UNL A   1      42.065  24.766  26.436  1.00  0.00     0.198 A 
ATOM     76  C   UNL A   1      43.493  26.561  25.730  1.00  0.00     0.198 A 
ATOM     77  F   UNL A   1      43.595  28.547  26.989  1.00  0.00    -0.203 F 
ATOM     78  F   UNL A   1      41.603  23.519  26.276  1.00  0.00    -0.200 F 
ATOM     79  C   UNL A   1      42.994  25.281  25.544  1.00  0.00     0.200 A 
ATOM     80  F   UNL A   1      44.382  27.065  24.863  1.00  0.00    -0.200 F 
ATOM     81  F   UNL A   1      43.414  24.539  24.510  1.00  0.00    -0.200 F 
ENDBRANCH  47  71
BRANCH  59  82
ATOM     82  C   UNL A   1      44.274  27.019  34.359  1.00  0.00     0.064 A 
ATOM     83  C   UNL A   1      43.952  25.794  34.964  1.00  0.00     0.173 A 
ATOM     84  C   UNL A   1      45.599  27.473  34.461  1.00  0.00     0.173 A 
ATOM     85  F   UNL A   1      42.699  25.321  34.905  1.00  0.00    -0.203 F 
ATOM     86  C   UNL A   1      44.909  25.075  35.675  1.00  0.00     0.198 A 
ATOM     87  C   UNL A   1      46.559  26.735  35.145  1.00  0.00     0.198 A 
ATOM     88  F   UNL A   1      45.961  28.632  33.892  1.00  0.00    -0.203 F 
ATOM     89  F   UNL A   1      44.565  23.937  36.294  1.00  0.00    -0.200 F 
ATOM     90  C   UNL A   1      46.212  25.543  35.760  1.00  0.00     0.200 A 
ATOM     91  F   UNL A   1      47.821  27.181  35.215  1.00  0.00    -0.200 F 
ATOM     92  F   UNL A   1      47.131  24.848  36.445  1.00  0.00    -0.200 F 
ENDBRANCH  59  82
ENDBRANCH  33  34
ENDBRANCH  26  28
ENDBRANCH  25  26
ENDBRANCH  24  25
ENDBRANCH  23  24
ENDBRANCH  22  23
ENDBRANCH   1  22
TORSDOF 17
ENDMDL
MODEL 3
REMARK VINA RESULT:     -11.2      2.525      3.481
REMARK SMILES CC(C)([NH2+]C[C@@H]1COc2ccccc21)C(=O)OCCOCCOC(=O)c1ccc(-c2c3nc(c(-c4c(F)c(F)c(F)c(F)c4F)c4ccc([nH]4)c(-c4c(F)c(F)c(F)c(F)c4F)c4nc(c(-c5c(F)c(F)c(F)c(F)c5F)c5ccc2[nH]5)C=C4)C=C3)cc1
REMARK SMILES IDX 19 1 18 2 17 3 15 4 16 5 2 6 1 7 3 8 4 9 5 12 6 13 7 14
REMARK SMILES IDX 14 15 8 16 9 17 13 18 10 19 12 20 11 21 20 22 21 23 22 24
REMARK SMILES IDX 23 25 24 26 25 27 26 28 27 29 88 30 28 31 87 32 29 33 30 34
REMARK SMILES IDX 31 35 81 36 32 37 86 38 80 39 82 40 33 41 85 42 79 43 78 44
REMARK SMILES IDX 34 46 66 47 46 48 65 49 47 50 50 51 64 52 83 53 48 54 49 55
REMARK SMILES IDX 63 57 84 58 51 59 35 60 36 61 44 62 37 63 38 64 42 65 45 66
REMARK SMILES IDX 39 67 40 68 43 69 41 70 67 71 68 72 76 73 69 74 70 75 74 76
REMARK SMILES IDX 77 77 71 78 72 79 75 80 73 81 52 82 53 83 61 84 54 85 55 86
REMARK SMILES IDX 59 87 62 88 56 89 57 90 60 91 58 92
REMARK H PARENT 4 10 4 11 82 45 50 56
REMARK Flexibility Score: inf
ROOT
ATOM      1  C   UNL A   1      31.475  28.981  24.678  1.00  0.00     0.202 C 
ENDROOT
BRANCH   1   2
ATOM      2  C   UNL A   1      32.273  28.804  23.386  1.00  0.00     0.261 C 
BRANCH   2   3
ATOM      3  O   UNL A   1      33.421  27.973  23.626  1.00  0.00    -0.459 OA
BRANCH   3   4
ATOM      4  C   UNL A   1      33.481  26.827  22.907  1.00  0.00     0.367 C 
ATOM      5  O   UNL A   1      33.775  26.794  21.713  1.00  0.00    -0.245 OA
BRANCH   4   6
ATOM      6  C   UNL A   1      33.122  25.550  23.702  1.00  0.00     0.188 C 
ATOM      7  C   UNL A   1      33.621  25.810  25.149  1.00  0.00     0.092 C 
ATOM      8  C   UNL A   1      33.951  24.406  23.124  1.00  0.00     0.092 C 
BRANCH   6   9
ATOM      9  N   UNL A   1      31.689  25.215  23.927  1.00  0.00    -0.332 N 
ATOM     10  H   UNL A   1      31.180  25.706  23.192  1.00  0.00     0.347 HD
ATOM     11  H   UNL A   1      31.601  25.466  24.912  1.00  0.00     0.347 HD
BRANCH   9  12
ATOM     12  C   UNL A   1      31.125  23.870  23.955  1.00  0.00     0.273 C 
BRANCH  12  13
ATOM     13  C   UNL A   1      30.927  23.056  25.249  1.00  0.00     0.116 C 
ATOM     14  C   UNL A   1      30.468  23.817  26.501  1.00  0.00     0.244 C 
ATOM     15  C   UNL A   1      32.149  22.398  25.766  1.00  0.00     0.006 A 
ATOM     16  O   UNL A   1      31.460  23.692  27.551  1.00  0.00    -0.492 OA
ATOM     17  C   UNL A   1      32.389  22.814  27.062  1.00  0.00     0.123 A 
ATOM     18  C   UNL A   1      32.995  21.501  25.135  1.00  0.00     0.008 A 
ATOM     19  C   UNL A   1      33.517  22.417  27.751  1.00  0.00     0.047 A 
ATOM     20  C   UNL A   1      34.136  21.077  25.816  1.00  0.00     0.001 A 
ATOM     21  C   UNL A   1      34.403  21.546  27.112  1.00  0.00     0.004 A 
ENDBRANCH  12  13
ENDBRANCH   9  12
ENDBRANCH   6   9
ENDBRANCH   4   6
ENDBRANCH   3   4
ENDBRANCH   2   3
ENDBRANCH   1   2
BRANCH   1  22
ATOM     22  O   UNL A   1      31.696  30.211  25.371  1.00  0.00    -0.374 OA
BRANCH  22  23
ATOM     23  C   UNL A   1      31.897  30.119  26.783  1.00  0.00     0.202 C 
BRANCH  23  24
ATOM     24  C   UNL A   1      33.348  29.927  27.230  1.00  0.00     0.261 C 
BRANCH  24  25
ATOM     25  O   UNL A   1      34.055  31.181  27.253  1.00  0.00    -0.460 OA
BRANCH  25  26
ATOM     26  C   UNL A   1      34.775  31.389  28.376  1.00  0.00     0.338 C 
ATOM     27  O   UNL A   1      34.491  32.124  29.313  1.00  0.00    -0.246 OA
BRANCH  26  28
ATOM     28  C   UNL A   1      35.930  30.475  28.426  1.00  0.00     0.060 A 
ATOM     29  C   UNL A   1      36.071  29.703  29.586  1.00  0.00     0.016 A 
ATOM     30  C   UNL A   1      36.903  30.437  27.425  1.00  0.00     0.016 A 
ATOM     31  C   UNL A   1      37.236  28.975  29.799  1.00  0.00     0.010 A 
ATOM     32  C   UNL A   1      38.076  29.703  27.639  1.00  0.00     0.010 A 
ATOM     33  C   UNL A   1      38.271  29.025  28.858  1.00  0.00    -0.014 A 
BRANCH  33  34
ATOM     34  C   UNL A   1      39.618  28.568  29.277  1.00  0.00     0.031 A 
ATOM     35  C   UNL A   1      40.338  29.344  30.350  1.00  0.00     0.074 A 
ATOM     36  C   UNL A   1      40.146  27.430  28.793  1.00  0.00     0.049 A 
ATOM     37  N   UNL A   1      41.483  29.094  30.932  1.00  0.00    -0.248 NA
ATOM     38  C   UNL A   1      39.674  30.564  30.835  1.00  0.00     0.031 C 
ATOM     39  C   UNL A   1      39.527  26.575  27.783  1.00  0.00     0.029 A 
ATOM     40  N   UNL A   1      41.320  26.794  29.103  1.00  0.00    -0.354 N 
ATOM     41  C   UNL A   1      41.674  30.124  31.846  1.00  0.00     0.074 A 
ATOM     42  C   UNL A   1      40.549  31.022  31.715  1.00  0.00     0.031 C 
ATOM     43  C   UNL A   1      40.330  25.520  27.557  1.00  0.00     0.029 A 
ATOM     44  C   UNL A   1      41.522  25.636  28.395  1.00  0.00     0.049 A 
ATOM     45  H   UNL A   1      41.959  27.136  29.770  1.00  0.00     0.167 HD
ATOM     46  C   UNL A   1      42.687  30.297  32.727  1.00  0.00     0.037 A 
ATOM     47  C   UNL A   1      42.555  24.772  28.423  1.00  0.00     0.037 A 
ATOM     48  C   UNL A   1      43.801  29.397  32.866  1.00  0.00     0.049 A 
ATOM     49  C   UNL A   1      43.688  25.006  29.389  1.00  0.00     0.074 A 
ATOM     50  C   UNL A   1      44.878  29.480  33.731  1.00  0.00     0.029 A 
ATOM     51  N   UNL A   1      43.979  28.245  32.115  1.00  0.00    -0.354 N 
ATOM     52  N   UNL A   1      43.846  25.968  30.265  1.00  0.00    -0.248 NA
ATOM     53  C   UNL A   1      44.778  24.020  29.380  1.00  0.00     0.031 C 
ATOM     54  C   UNL A   1      45.728  28.400  33.475  1.00  0.00     0.029 A 
ATOM     55  C   UNL A   1      45.155  27.615  32.488  1.00  0.00     0.049 A 
ATOM     56  H   UNL A   1      43.361  27.922  31.420  1.00  0.00     0.167 HD
ATOM     57  C   UNL A   1      45.030  25.685  30.936  1.00  0.00     0.074 A 
ATOM     58  C   UNL A   1      45.543  24.453  30.372  1.00  0.00     0.031 C 
ATOM     59  C   UNL A   1      45.640  26.380  31.928  1.00  0.00     0.037 A 
BRANCH  46  60
ATOM     60  C   UNL A   1      42.646  31.518  33.599  1.00  0.00     0.064 A 
ATOM     61  C   UNL A   1      42.042  31.501  34.864  1.00  0.00     0.173 A 
ATOM     62  C   UNL A   1      43.245  32.713  33.172  1.00  0.00     0.173 A 
ATOM     63  F   UNL A   1      41.439  30.389  35.310  1.00  0.00    -0.203 F 
ATOM     64  C   UNL A   1      42.020  32.643  35.662  1.00  0.00     0.198 A 
ATOM     65  C   UNL A   1      43.246  33.843  33.985  1.00  0.00     0.198 A 
ATOM     66  F   UNL A   1      43.836  32.782  31.971  1.00  0.00    -0.203 F 
ATOM     67  F   UNL A   1      41.398  32.617  36.850  1.00  0.00    -0.200 F 
ATOM     68  C   UNL A   1      42.628  33.809  35.225  1.00  0.00     0.200 A 
ATOM     69  F   UNL A   1      43.843  34.968  33.564  1.00  0.00    -0.200 F 
ATOM     70  F   UNL A   1      42.612  34.905  35.998  1.00  0.00    -0.200 F 
ENDBRANCH  46  60
BRANCH  47  71
ATOM     71  C   UNL A   1      42.566  23.596  27.515  1.00  0.00     0.064 A 
ATOM     72  C   UNL A   1      42.074  22.351  27.930  1.00  0.00     0.173 A 
ATOM     73  C   UNL A   1      43.098  23.687  26.220  1.00  0.00     0.173 A 
ATOM     74  F   UNL A   1      41.575  22.207  29.167  1.00  0.00    -0.203 F 
ATOM     75  C   UNL A   1      42.137  21.237  27.095  1.00  0.00     0.198 A 
ATOM     76  C   UNL A   1      43.135  22.581  25.376  1.00  0.00     0.198 A 
ATOM     77  F   UNL A   1      43.582  24.856  25.775  1.00  0.00    -0.203 F 
ATOM     78  F   UNL A   1      41.708  20.047  27.536  1.00  0.00    -0.200 F 
ATOM     79  C   UNL A   1      42.663  21.354  25.818  1.00  0.00     0.200 A 
ATOM     80  F   UNL A   1      43.634  22.700  24.138  1.00  0.00    -0.200 F 
ATOM     81  F   UNL A   1      42.725  20.282  25.016  1.00  0.00    -0.200 F 
ENDBRANCH  47  71
BRANCH  59  82
ATOM     82  C   UNL A   1      46.895  25.795  32.507  1.00  0.00     0.064 A 
ATOM     83  C   UNL A   1      46.872  24.949  33.626  1.00  0.00     0.173 A 
ATOM     84  C   UNL A   1      48.140  26.067  31.916  1.00  0.00     0.173 A 
ATOM     85  F   UNL A   1      45.710  24.667  34.233  1.00  0.00    -0.203 F 
ATOM     86  C   UNL A   1      48.051  24.431  34.155  1.00  0.00     0.198 A 
ATOM     87  C   UNL A   1      49.312  25.520  32.429  1.00  0.00     0.198 A 
ATOM     88  F   UNL A   1      48.217  26.860  30.837  1.00  0.00    -0.203 F 
ATOM     89  F   UNL A   1      48.009  23.673  35.260  1.00  0.00    -0.200 F 
ATOM     90  C   UNL A   1      49.268  24.712  33.553  1.00  0.00     0.200 A 
ATOM     91  F   UNL A   1      50.486  25.782  31.838  1.00  0.00    -0.200 F 
ATOM     92  F   UNL A   1      50.401  24.211  34.066  1.00  0.00    -0.200 F 
ENDBRANCH  59  82
ENDBRANCH  33  34
ENDBRANCH  26  28
ENDBRANCH  25  26
ENDBRANCH  24  25
ENDBRANCH  23  24
ENDBRANCH  22  23
ENDBRANCH   1  22
TORSDOF 17
ENDMDL
