MODEL 1
REMARK VINA RESULT:     -12.2      0.000      0.000
REMARK SMILES O=C(OCCOCCOC(=O)[C@H]1CCCN(C(=O)C2CCN(S(=O)(=O)c3ccccc3)CC2)C1)c1ccc(-c2c3nc(c(-c4c(F)c(F)c(F)c(F)c4F)c4ccc([nH]4)c(-c4c(F)c(F)c(F)c(F)c4F)c4nc(c(-c5c(F)c(F)c(F)c(F)c5F)c5ccc2[nH]5)C=C4)C=C3)cc1
REMARK SMILES IDX 7 1 6 2 5 3 4 4 3 5 2 6 1 7 35 8 36 9 97 10 37 11 96 12
REMARK SMILES IDX 38 13 39 14 40 15 90 16 41 17 95 18 89 19 91 20 42 21 94 22
REMARK SMILES IDX 88 23 87 24 43 26 75 27 55 28 74 29 56 30 59 31 73 32 92 33
REMARK SMILES IDX 57 34 58 35 72 37 93 38 60 39 44 40 45 41 53 42 46 43 47 44
REMARK SMILES IDX 51 45 54 46 48 47 49 48 52 49 50 50 76 51 77 52 85 53 78 54
REMARK SMILES IDX 79 55 83 56 86 57 80 58 81 59 84 60 82 61 61 62 62 63 70 64
REMARK SMILES IDX 63 65 64 66 68 67 71 68 65 69 66 70 69 71 67 72 8 73 9 74
REMARK SMILES IDX 10 75 11 76 12 77 13 78 34 79 14 80 16 81 15 82 17 83 18 84
REMARK SMILES IDX 19 85 20 86 33 87 21 88 32 89 22 90 23 91 24 92 25 93 26 94
REMARK SMILES IDX 27 95 31 96 28 97 30 98 29 99
REMARK H PARENT 91 25 59 36
REMARK Flexibility Score: inf
ROOT
ATOM      1  C   UNL A   1      34.426  33.222  29.226  1.00  0.00     0.202 C 
ENDROOT
BRANCH   1   2
ATOM      2  O   UNL A   1      34.147  34.499  28.648  1.00  0.00    -0.374 OA
BRANCH   2   3
ATOM      3  C   UNL A   1      32.991  35.167  29.154  1.00  0.00     0.202 C 
BRANCH   3   4
ATOM      4  C   UNL A   1      33.221  36.563  29.735  1.00  0.00     0.261 C 
BRANCH   4   5
ATOM      5  O   UNL A   1      32.597  36.686  31.017  1.00  0.00    -0.460 OA
BRANCH   5   6
ATOM      6  C   UNL A   1      32.571  35.737  31.980  1.00  0.00     0.338 C 
ATOM      7  O   UNL A   1      31.486  35.371  32.427  1.00  0.00    -0.246 OA
BRANCH   6   8
ATOM      8  C   UNL A   1      33.799  35.036  32.456  1.00  0.00     0.060 A 
ATOM      9  C   UNL A   1      35.092  35.570  32.478  1.00  0.00     0.016 A 
ATOM     10  C   UNL A   1      33.605  33.752  32.991  1.00  0.00     0.016 A 
ATOM     11  C   UNL A   1      36.165  34.860  32.976  1.00  0.00     0.010 A 
ATOM     12  C   UNL A   1      34.677  33.026  33.503  1.00  0.00     0.010 A 
ATOM     13  C   UNL A   1      35.958  33.585  33.479  1.00  0.00    -0.014 A 
BRANCH  13  14
ATOM     14  C   UNL A   1      37.142  32.805  33.828  1.00  0.00     0.031 A 
ATOM     15  C   UNL A   1      37.728  33.014  35.180  1.00  0.00     0.074 A 
ATOM     16  C   UNL A   1      37.573  31.853  32.986  1.00  0.00     0.049 A 
ATOM     17  N   UNL A   1      38.845  32.568  35.676  1.00  0.00    -0.248 NA
ATOM     18  C   UNL A   1      36.934  33.838  36.110  1.00  0.00     0.031 C 
ATOM     19  C   UNL A   1      36.920  31.485  31.728  1.00  0.00     0.029 A 
ATOM     20  N   UNL A   1      38.648  31.017  33.069  1.00  0.00    -0.354 N 
ATOM     21  C   UNL A   1      38.916  33.097  36.955  1.00  0.00     0.074 A 
ATOM     22  C   UNL A   1      37.717  33.873  37.176  1.00  0.00     0.031 C 
ATOM     23  C   UNL A   1      37.621  30.499  31.148  1.00  0.00     0.029 A 
ATOM     24  C   UNL A   1      38.807  30.234  31.954  1.00  0.00     0.049 A 
ATOM     25  H   UNL A   1      39.248  30.980  33.849  1.00  0.00     0.167 HD
ATOM     26  C   UNL A   1      39.928  32.963  37.841  1.00  0.00     0.037 A 
ATOM     27  C   UNL A   1      39.842  29.447  31.612  1.00  0.00     0.037 A 
ATOM     28  C   UNL A   1      41.103  32.188  37.552  1.00  0.00     0.049 A 
ATOM     29  C   UNL A   1      40.999  29.377  32.570  1.00  0.00     0.074 A 
ATOM     30  C   UNL A   1      42.251  32.032  38.300  1.00  0.00     0.029 A 
ATOM     31  N   UNL A   1      41.264  31.432  36.394  1.00  0.00    -0.354 N 
ATOM     32  N   UNL A   1      41.139  29.967  33.735  1.00  0.00    -0.248 NA
ATOM     33  C   UNL A   1      42.148  28.561  32.166  1.00  0.00     0.031 C 
ATOM     34  C   UNL A   1      43.125  31.213  37.574  1.00  0.00     0.029 A 
ATOM     35  C   UNL A   1      42.499  30.815  36.398  1.00  0.00     0.049 A 
ATOM     36  H   UNL A   1      40.595  31.349  35.676  1.00  0.00     0.167 HD
ATOM     37  C   UNL A   1      42.382  29.589  34.214  1.00  0.00     0.074 A 
ATOM     38  C   UNL A   1      42.954  28.707  33.211  1.00  0.00     0.031 C 
ATOM     39  C   UNL A   1      43.003  29.935  35.371  1.00  0.00     0.037 A 
BRANCH  26  40
ATOM     40  C   UNL A   1      39.829  33.764  39.104  1.00  0.00     0.064 A 
ATOM     41  C   UNL A   1      39.110  33.313  40.223  1.00  0.00     0.173 A 
ATOM     42  C   UNL A   1      40.384  35.051  39.159  1.00  0.00     0.173 A 
ATOM     43  F   UNL A   1      38.525  32.106  40.207  1.00  0.00    -0.203 F 
ATOM     44  C   UNL A   1      38.918  34.137  41.330  1.00  0.00     0.198 A 
ATOM     45  C   UNL A   1      40.212  35.862  40.278  1.00  0.00     0.198 A 
ATOM     46  F   UNL A   1      41.067  35.538  38.112  1.00  0.00    -0.203 F 
ATOM     47  F   UNL A   1      38.161  33.716  42.354  1.00  0.00    -0.200 F 
ATOM     48  C   UNL A   1      39.468  35.409  41.357  1.00  0.00     0.200 A 
ATOM     49  F   UNL A   1      40.742  37.092  40.299  1.00  0.00    -0.200 F 
ATOM     50  F   UNL A   1      39.262  36.210  42.412  1.00  0.00    -0.200 F 
ENDBRANCH  26  40
BRANCH  27  51
ATOM     51  C   UNL A   1      39.834  28.753  30.299  1.00  0.00     0.064 A 
ATOM     52  C   UNL A   1      40.404  29.335  29.162  1.00  0.00     0.173 A 
ATOM     53  C   UNL A   1      39.310  27.455  30.172  1.00  0.00     0.173 A 
ATOM     54  F   UNL A   1      40.904  30.577  29.225  1.00  0.00    -0.203 F 
ATOM     55  C   UNL A   1      40.456  28.646  27.949  1.00  0.00     0.198 A 
ATOM     56  C   UNL A   1      39.387  26.757  28.969  1.00  0.00     0.198 A 
ATOM     57  F   UNL A   1      38.753  26.848  31.231  1.00  0.00    -0.203 F 
ATOM     58  F   UNL A   1      40.991  29.233  26.870  1.00  0.00    -0.200 F 
ATOM     59  C   UNL A   1      39.958  27.354  27.857  1.00  0.00     0.200 A 
ATOM     60  F   UNL A   1      38.920  25.503  28.892  1.00  0.00    -0.200 F 
ATOM     61  F   UNL A   1      40.028  26.687  26.697  1.00  0.00    -0.200 F 
ENDBRANCH  27  51
BRANCH  39  62
ATOM     62  C   UNL A   1      44.343  29.323  35.623  1.00  0.00     0.064 A 
ATOM     63  C   UNL A   1      44.472  28.089  36.274  1.00  0.00     0.173 A 
ATOM     64  C   UNL A   1      45.498  29.938  35.121  1.00  0.00     0.173 A 
ATOM     65  F   UNL A   1      43.391  27.474  36.777  1.00  0.00    -0.203 F 
ATOM     66  C   UNL A   1      45.720  27.492  36.419  1.00  0.00     0.198 A 
ATOM     67  C   UNL A   1      46.740  29.328  35.248  1.00  0.00     0.198 A 
ATOM     68  F   UNL A   1      45.415  31.117  34.485  1.00  0.00    -0.203 F 
ATOM     69  F   UNL A   1      45.829  26.323  37.063  1.00  0.00    -0.200 F 
ATOM     70  C   UNL A   1      46.850  28.106  35.897  1.00  0.00     0.200 A 
ATOM     71  F   UNL A   1      47.829  29.914  34.731  1.00  0.00    -0.200 F 
ATOM     72  F   UNL A   1      48.049  27.520  36.021  1.00  0.00    -0.200 F 
ENDBRANCH  39  62
ENDBRANCH  13  14
ENDBRANCH   6   8
ENDBRANCH   5   6
ENDBRANCH   4   5
ENDBRANCH   3   4
ENDBRANCH   2   3
ENDBRANCH   1   2
BRANCH   1  73
ATOM     73  C   UNL A   1      35.351  32.405  28.326  1.00  0.00     0.261 C 
BRANCH  73  74
ATOM     74  O   UNL A   1      34.573  31.583  27.436  1.00  0.00    -0.463 OA
BRANCH  74  75
ATOM     75  C   UNL A   1      34.636  30.246  27.683  1.00  0.00     0.310 C 
ATOM     76  O   UNL A   1      35.577  29.673  28.216  1.00  0.00    -0.252 OA
BRANCH  75  77
ATOM     77  C   UNL A   1      33.353  29.559  27.249  1.00  0.00     0.119 C 
ATOM     78  C   UNL A   1      32.670  30.420  26.180  1.00  0.00     0.019 C 
ATOM     79  C   UNL A   1      33.703  28.157  26.737  1.00  0.00     0.134 C 
ATOM     80  C   UNL A   1      31.598  29.634  25.452  1.00  0.00     0.022 C 
ATOM     81  N   UNL A   1      32.703  27.503  25.902  1.00  0.00    -0.342 N 
ATOM     82  C   UNL A   1      32.208  28.374  24.858  1.00  0.00     0.119 C 
BRANCH  81  83
ATOM     83  C   UNL A   1      32.774  26.119  25.790  1.00  0.00     0.225 C 
ATOM     84  O   UNL A   1      33.860  25.591  25.511  1.00  0.00    -0.275 OA
BRANCH  83  85
ATOM     85  C   UNL A   1      31.571  25.180  26.053  1.00  0.00     0.081 C 
ATOM     86  C   UNL A   1      31.767  23.981  26.965  1.00  0.00     0.030 C 
ATOM     87  C   UNL A   1      30.692  24.816  24.873  1.00  0.00     0.030 C 
ATOM     88  C   UNL A   1      32.091  22.654  26.297  1.00  0.00     0.103 C 
ATOM     89  C   UNL A   1      31.158  23.598  24.107  1.00  0.00     0.103 C 
ATOM     90  N   UNL A   1      31.493  22.412  24.936  1.00  0.00    -0.198 NA
BRANCH  90  91
ATOM     91  S   UNL A   1      32.416  21.158  24.133  1.00  0.00     0.243 S 
ATOM     92  O   UNL A   1      32.208  19.921  24.866  1.00  0.00    -0.207 OA
ATOM     93  O   UNL A   1      32.064  21.226  22.733  1.00  0.00    -0.207 OA
BRANCH  91  94
ATOM     94  C   UNL A   1      34.144  21.533  24.306  1.00  0.00     0.082 A 
ATOM     95  C   UNL A   1      34.681  22.609  23.597  1.00  0.00     0.022 A 
ATOM     96  C   UNL A   1      34.997  20.642  24.971  1.00  0.00     0.022 A 
ATOM     97  C   UNL A   1      36.062  22.817  23.603  1.00  0.00     0.001 A 
ATOM     98  C   UNL A   1      36.370  20.880  25.013  1.00  0.00     0.001 A 
ATOM     99  C   UNL A   1      36.901  21.968  24.326  1.00  0.00     0.000 A 
ENDBRANCH  91  94
ENDBRANCH  90  91
ENDBRANCH  83  85
ENDBRANCH  81  83
ENDBRANCH  75  77
ENDBRANCH  74  75
ENDBRANCH  73  74
ENDBRANCH   1  73
TORSDOF 18
ENDMDL
MODEL 2
REMARK VINA RESULT:     -12.1      4.185     10.371
REMARK SMILES O=C(OCCOCCOC(=O)[C@H]1CCCN(C(=O)C2CCN(S(=O)(=O)c3ccccc3)CC2)C1)c1ccc(-c2c3nc(c(-c4c(F)c(F)c(F)c(F)c4F)c4ccc([nH]4)c(-c4c(F)c(F)c(F)c(F)c4F)c4nc(c(-c5c(F)c(F)c(F)c(F)c5F)c5ccc2[nH]5)C=C4)C=C3)cc1
REMARK SMILES IDX 7 1 6 2 5 3 4 4 3 5 2 6 1 7 35 8 36 9 97 10 37 11 96 12
REMARK SMILES IDX 38 13 39 14 40 15 90 16 41 17 95 18 89 19 91 20 42 21 94 22
REMARK SMILES IDX 88 23 87 24 43 26 75 27 55 28 74 29 56 30 59 31 73 32 92 33
REMARK SMILES IDX 57 34 58 35 72 37 93 38 60 39 44 40 45 41 53 42 46 43 47 44
REMARK SMILES IDX 51 45 54 46 48 47 49 48 52 49 50 50 76 51 77 52 85 53 78 54
REMARK SMILES IDX 79 55 83 56 86 57 80 58 81 59 84 60 82 61 61 62 62 63 70 64
REMARK SMILES IDX 63 65 64 66 68 67 71 68 65 69 66 70 69 71 67 72 8 73 9 74
REMARK SMILES IDX 10 75 11 76 12 77 13 78 34 79 14 80 16 81 15 82 17 83 18 84
REMARK SMILES IDX 19 85 20 86 33 87 21 88 32 89 22 90 23 91 24 92 25 93 26 94
REMARK SMILES IDX 27 95 31 96 28 97 30 98 29 99
REMARK H PARENT 91 25 59 36
REMARK Flexibility Score: inf
ROOT
ATOM      1  C   UNL A   1      45.773  19.764  25.295  1.00  0.00     0.202 C 
ENDROOT
BRANCH   1   2
ATOM      2  O   UNL A   1      46.305  20.855  24.541  1.00  0.00    -0.374 OA
BRANCH   2   3
ATOM      3  C   UNL A   1      45.916  22.157  24.979  1.00  0.00     0.202 C 
BRANCH   3   4
ATOM      4  C   UNL A   1      44.999  22.938  24.038  1.00  0.00     0.261 C 
BRANCH   4   5
ATOM      5  O   UNL A   1      44.249  23.920  24.761  1.00  0.00    -0.460 OA
BRANCH   5   6
ATOM      6  C   UNL A   1      44.721  25.106  25.209  1.00  0.00     0.338 C 
ATOM      7  O   UNL A   1      45.643  25.648  24.603  1.00  0.00    -0.246 OA
BRANCH   6   8
ATOM      8  C   UNL A   1      44.103  25.842  26.350  1.00  0.00     0.060 A 
ATOM      9  C   UNL A   1      44.347  27.177  26.692  1.00  0.00     0.016 A 
ATOM     10  C   UNL A   1      43.142  25.135  27.089  1.00  0.00     0.016 A 
ATOM     11  C   UNL A   1      43.696  27.789  27.743  1.00  0.00     0.010 A 
ATOM     12  C   UNL A   1      42.472  25.742  28.148  1.00  0.00     0.010 A 
ATOM     13  C   UNL A   1      42.767  27.068  28.476  1.00  0.00    -0.014 A 
BRANCH  13  14
ATOM     14  C   UNL A   1      42.237  27.696  29.685  1.00  0.00     0.031 A 
ATOM     15  C   UNL A   1      40.937  28.413  29.572  1.00  0.00     0.074 A 
ATOM     16  C   UNL A   1      42.862  27.498  30.855  1.00  0.00     0.049 A 
ATOM     17  N   UNL A   1      40.332  29.169  30.441  1.00  0.00    -0.248 NA
ATOM     18  C   UNL A   1      40.211  28.244  28.300  1.00  0.00     0.031 C 
ATOM     19  C   UNL A   1      44.039  26.648  31.047  1.00  0.00     0.029 A 
ATOM     20  N   UNL A   1      42.585  27.981  32.100  1.00  0.00    -0.354 N 
ATOM     21  C   UNL A   1      39.181  29.610  29.805  1.00  0.00     0.074 A 
ATOM     22  C   UNL A   1      39.152  29.014  28.489  1.00  0.00     0.031 C 
ATOM     23  C   UNL A   1      44.393  26.682  32.340  1.00  0.00     0.029 A 
ATOM     24  C   UNL A   1      43.517  27.617  33.038  1.00  0.00     0.049 A 
ATOM     25  H   UNL A   1      41.797  28.535  32.305  1.00  0.00     0.167 HD
ATOM     26  C   UNL A   1      38.259  30.472  30.287  1.00  0.00     0.037 A 
ATOM     27  C   UNL A   1      43.669  28.058  34.299  1.00  0.00     0.037 A 
ATOM     28  C   UNL A   1      38.356  31.042  31.602  1.00  0.00     0.049 A 
ATOM     29  C   UNL A   1      42.683  29.083  34.792  1.00  0.00     0.074 A 
ATOM     30  C   UNL A   1      37.560  31.997  32.200  1.00  0.00     0.029 A 
ATOM     31  N   UNL A   1      39.336  30.690  32.527  1.00  0.00    -0.354 N 
ATOM     32  N   UNL A   1      41.654  29.604  34.162  1.00  0.00    -0.248 NA
ATOM     33  C   UNL A   1      42.885  29.601  36.149  1.00  0.00     0.031 C 
ATOM     34  C   UNL A   1      38.085  32.253  33.474  1.00  0.00     0.029 A 
ATOM     35  C   UNL A   1      39.176  31.418  33.689  1.00  0.00     0.049 A 
ATOM     36  H   UNL A   1      40.042  30.021  32.374  1.00  0.00     0.167 HD
ATOM     37  C   UNL A   1      41.076  30.502  35.045  1.00  0.00     0.074 A 
ATOM     38  C   UNL A   1      41.868  30.446  36.261  1.00  0.00     0.031 C 
ATOM     39  C   UNL A   1      39.994  31.303  34.873  1.00  0.00     0.037 A 
BRANCH  26  40
ATOM     40  C   UNL A   1      37.183  30.907  29.339  1.00  0.00     0.064 A 
ATOM     41  C   UNL A   1      37.156  32.192  28.775  1.00  0.00     0.173 A 
ATOM     42  C   UNL A   1      36.105  30.050  29.068  1.00  0.00     0.173 A 
ATOM     43  F   UNL A   1      38.142  33.064  29.036  1.00  0.00    -0.203 F 
ATOM     44  C   UNL A   1      36.072  32.615  28.009  1.00  0.00     0.198 A 
ATOM     45  C   UNL A   1      35.036  30.469  28.280  1.00  0.00     0.198 A 
ATOM     46  F   UNL A   1      36.072  28.818  29.594  1.00  0.00    -0.203 F 
ATOM     47  F   UNL A   1      36.030  33.873  27.547  1.00  0.00    -0.200 F 
ATOM     48  C   UNL A   1      35.014  31.754  27.763  1.00  0.00     0.200 A 
ATOM     49  F   UNL A   1      34.013  29.635  28.046  1.00  0.00    -0.200 F 
ATOM     50  F   UNL A   1      33.960  32.171  27.046  1.00  0.00    -0.200 F 
ENDBRANCH  26  40
BRANCH  27  51
ATOM     51  C   UNL A   1      44.817  27.583  35.111  1.00  0.00     0.064 A 
ATOM     52  C   UNL A   1      44.721  26.439  35.912  1.00  0.00     0.173 A 
ATOM     53  C   UNL A   1      46.061  28.233  35.052  1.00  0.00     0.173 A 
ATOM     54  F   UNL A   1      43.552  25.792  36.016  1.00  0.00    -0.203 F 
ATOM     55  C   UNL A   1      45.825  25.959  36.617  1.00  0.00     0.198 A 
ATOM     56  C   UNL A   1      47.170  27.737  35.734  1.00  0.00     0.198 A 
ATOM     57  F   UNL A   1      46.211  29.333  34.299  1.00  0.00    -0.203 F 
ATOM     58  F   UNL A   1      45.702  24.873  37.391  1.00  0.00    -0.200 F 
ATOM     59  C   UNL A   1      47.051  26.602  36.518  1.00  0.00     0.200 A 
ATOM     60  F   UNL A   1      48.356  28.352  35.619  1.00  0.00    -0.200 F 
ATOM     61  F   UNL A   1      48.115  26.126  37.179  1.00  0.00    -0.200 F 
ENDBRANCH  27  51
BRANCH  39  62
ATOM     62  C   UNL A   1      39.589  32.143  36.041  1.00  0.00     0.064 A 
ATOM     63  C   UNL A   1      40.159  33.402  36.268  1.00  0.00     0.173 A 
ATOM     64  C   UNL A   1      38.552  31.717  36.882  1.00  0.00     0.173 A 
ATOM     65  F   UNL A   1      41.161  33.841  35.492  1.00  0.00    -0.203 F 
ATOM     66  C   UNL A   1      39.706  34.208  37.308  1.00  0.00     0.198 A 
ATOM     67  C   UNL A   1      38.086  32.534  37.905  1.00  0.00     0.198 A 
ATOM     68  F   UNL A   1      37.975  30.521  36.692  1.00  0.00    -0.203 F 
ATOM     69  F   UNL A   1      40.276  35.400  37.526  1.00  0.00    -0.200 F 
ATOM     70  C   UNL A   1      38.663  33.778  38.117  1.00  0.00     0.200 A 
ATOM     71  F   UNL A   1      37.070  32.124  38.678  1.00  0.00    -0.200 F 
ATOM     72  F   UNL A   1      38.215  34.564  39.106  1.00  0.00    -0.200 F 
ENDBRANCH  39  62
ENDBRANCH  13  14
ENDBRANCH   6   8
ENDBRANCH   5   6
ENDBRANCH   4   5
ENDBRANCH   3   4
ENDBRANCH   2   3
ENDBRANCH   1   2
BRANCH   1  73
ATOM     73  C   UNL A   1      44.320  19.492  24.911  1.00  0.00     0.261 C 
BRANCH  73  74
ATOM     74  O   UNL A   1      43.441  19.925  25.967  1.00  0.00    -0.463 OA
BRANCH  74  75
ATOM     75  C   UNL A   1      42.318  19.174  26.127  1.00  0.00     0.310 C 
ATOM     76  O   UNL A   1      42.207  17.998  25.807  1.00  0.00    -0.252 OA
BRANCH  75  77
ATOM     77  C   UNL A   1      41.225  19.982  26.805  1.00  0.00     0.119 C 
ATOM     78  C   UNL A   1      41.859  21.204  27.478  1.00  0.00     0.019 C 
ATOM     79  C   UNL A   1      40.182  20.368  25.749  1.00  0.00     0.134 C 
ATOM     80  C   UNL A   1      40.805  22.227  27.852  1.00  0.00     0.022 C 
ATOM     81  N   UNL A   1      39.292  21.471  26.090  1.00  0.00    -0.342 N 
ATOM     82  C   UNL A   1      40.010  22.612  26.613  1.00  0.00     0.119 C 
BRANCH  81  83
ATOM     83  C   UNL A   1      38.095  21.561  25.390  1.00  0.00     0.225 C 
ATOM     84  O   UNL A   1      37.553  20.523  24.981  1.00  0.00    -0.275 OA
BRANCH  83  85
ATOM     85  C   UNL A   1      37.355  22.898  25.135  1.00  0.00     0.081 C 
ATOM     86  C   UNL A   1      36.462  23.458  26.228  1.00  0.00     0.030 C 
ATOM     87  C   UNL A   1      36.726  23.105  23.771  1.00  0.00     0.030 C 
ATOM     88  C   UNL A   1      34.979  23.131  26.138  1.00  0.00     0.103 C 
ATOM     89  C   UNL A   1      35.310  22.586  23.659  1.00  0.00     0.103 C 
ATOM     90  N   UNL A   1      34.395  22.984  24.758  1.00  0.00    -0.198 NA
BRANCH  90  91
ATOM     91  S   UNL A   1      32.902  22.074  24.875  1.00  0.00     0.243 S 
ATOM     92  O   UNL A   1      32.587  21.924  26.285  1.00  0.00    -0.207 OA
ATOM     93  O   UNL A   1      31.958  22.726  23.998  1.00  0.00    -0.207 OA
BRANCH  91  94
ATOM     94  C   UNL A   1      33.198  20.429  24.272  1.00  0.00     0.082 A 
ATOM     95  C   UNL A   1      32.301  19.864  23.364  1.00  0.00     0.022 A 
ATOM     96  C   UNL A   1      34.193  19.631  24.856  1.00  0.00     0.022 A 
ATOM     97  C   UNL A   1      32.438  18.522  23.006  1.00  0.00     0.001 A 
ATOM     98  C   UNL A   1      34.354  18.305  24.460  1.00  0.00     0.001 A 
ATOM     99  C   UNL A   1      33.473  17.751  23.536  1.00  0.00     0.000 A 
ENDBRANCH  91  94
ENDBRANCH  90  91
ENDBRANCH  83  85
ENDBRANCH  81  83
ENDBRANCH  75  77
ENDBRANCH  74  75
ENDBRANCH  73  74
ENDBRANCH   1  73
TORSDOF 18
ENDMDL
MODEL 3
REMARK VINA RESULT:     -12.0      6.609     12.600
REMARK SMILES O=C(OCCOCCOC(=O)[C@H]1CCCN(C(=O)C2CCN(S(=O)(=O)c3ccccc3)CC2)C1)c1ccc(-c2c3nc(c(-c4c(F)c(F)c(F)c(F)c4F)c4ccc([nH]4)c(-c4c(F)c(F)c(F)c(F)c4F)c4nc(c(-c5c(F)c(F)c(F)c(F)c5F)c5ccc2[nH]5)C=C4)C=C3)cc1
REMARK SMILES IDX 7 1 6 2 5 3 4 4 3 5 2 6 1 7 35 8 36 9 97 10 37 11 96 12
REMARK SMILES IDX 38 13 39 14 40 15 90 16 41 17 95 18 89 19 91 20 42 21 94 22
REMARK SMILES IDX 88 23 87 24 43 26 75 27 55 28 74 29 56 30 59 31 73 32 92 33
REMARK SMILES IDX 57 34 58 35 72 37 93 38 60 39 44 40 45 41 53 42 46 43 47 44
REMARK SMILES IDX 51 45 54 46 48 47 49 48 52 49 50 50 76 51 77 52 85 53 78 54
REMARK SMILES IDX 79 55 83 56 86 57 80 58 81 59 84 60 82 61 61 62 62 63 70 64
REMARK SMILES IDX 63 65 64 66 68 67 71 68 65 69 66 70 69 71 67 72 8 73 9 74
REMARK SMILES IDX 10 75 11 76 12 77 13 78 34 79 14 80 16 81 15 82 17 83 18 84
REMARK SMILES IDX 19 85 20 86 33 87 21 88 32 89 22 90 23 91 24 92 25 93 26 94
REMARK SMILES IDX 27 95 31 96 28 97 30 98 29 99
REMARK H PARENT 91 25 59 36
REMARK Flexibility Score: inf
ROOT
ATOM      1  C   UNL A   1      41.685  21.305  27.148  1.00  0.00     0.202 C 
ENDROOT
BRANCH   1   2
ATOM      2  O   UNL A   1      41.362  19.916  27.057  1.00  0.00    -0.374 OA
BRANCH   2   3
ATOM      3  C   UNL A   1      41.776  19.262  25.858  1.00  0.00     0.202 C 
BRANCH   3   4
ATOM      4  C   UNL A   1      43.114  18.523  25.921  1.00  0.00     0.261 C 
BRANCH   4   5
ATOM      5  O   UNL A   1      43.778  18.569  24.654  1.00  0.00    -0.460 OA
BRANCH   5   6
ATOM      6  C   UNL A   1      44.796  19.395  24.322  1.00  0.00     0.338 C 
ATOM      7  O   UNL A   1      45.708  18.964  23.620  1.00  0.00    -0.246 OA
BRANCH   6   8
ATOM      8  C   UNL A   1      44.813  20.842  24.684  1.00  0.00     0.060 A 
ATOM      9  C   UNL A   1      44.396  21.897  23.864  1.00  0.00     0.016 A 
ATOM     10  C   UNL A   1      45.222  21.144  25.992  1.00  0.00     0.016 A 
ATOM     11  C   UNL A   1      44.408  23.206  24.299  1.00  0.00     0.010 A 
ATOM     12  C   UNL A   1      45.234  22.460  26.447  1.00  0.00     0.010 A 
ATOM     13  C   UNL A   1      44.837  23.487  25.586  1.00  0.00    -0.014 A 
BRANCH  13  14
ATOM     14  C   UNL A   1      45.005  24.894  25.942  1.00  0.00     0.031 A 
ATOM     15  C   UNL A   1      46.334  25.514  25.684  1.00  0.00     0.074 A 
ATOM     16  C   UNL A   1      43.941  25.597  26.359  1.00  0.00     0.049 A 
ATOM     17  N   UNL A   1      46.785  26.682  26.039  1.00  0.00    -0.248 NA
ATOM     18  C   UNL A   1      47.287  24.703  24.905  1.00  0.00     0.031 C 
ATOM     19  C   UNL A   1      42.575  25.078  26.452  1.00  0.00     0.029 A 
ATOM     20  N   UNL A   1      43.841  26.896  26.764  1.00  0.00    -0.354 N 
ATOM     21  C   UNL A   1      48.090  26.727  25.574  1.00  0.00     0.074 A 
ATOM     22  C   UNL A   1      48.353  25.486  24.883  1.00  0.00     0.031 C 
ATOM     23  C   UNL A   1      41.771  26.053  26.903  1.00  0.00     0.029 A 
ATOM     24  C   UNL A   1      42.584  27.226  27.203  1.00  0.00     0.049 A 
ATOM     25  H   UNL A   1      44.593  27.531  26.744  1.00  0.00     0.167 HD
ATOM     26  C   UNL A   1      48.989  27.721  25.755  1.00  0.00     0.037 A 
ATOM     27  C   UNL A   1      42.173  28.337  27.840  1.00  0.00     0.037 A 
ATOM     28  C   UNL A   1      48.666  28.926  26.466  1.00  0.00     0.049 A 
ATOM     29  C   UNL A   1      43.206  29.397  28.110  1.00  0.00     0.074 A 
ATOM     30  C   UNL A   1      49.486  29.980  26.816  1.00  0.00     0.029 A 
ATOM     31  N   UNL A   1      47.392  29.225  26.943  1.00  0.00    -0.354 N 
ATOM     32  N   UNL A   1      44.478  29.407  27.783  1.00  0.00    -0.248 NA
ATOM     33  C   UNL A   1      42.765  30.582  28.852  1.00  0.00     0.031 C 
ATOM     34  C   UNL A   1      48.715  30.899  27.539  1.00  0.00     0.029 A 
ATOM     35  C   UNL A   1      47.403  30.443  27.595  1.00  0.00     0.049 A 
ATOM     36  H   UNL A   1      46.599  28.653  26.831  1.00  0.00     0.167 HD
ATOM     37  C   UNL A   1      44.992  30.600  28.266  1.00  0.00     0.074 A 
ATOM     38  C   UNL A   1      43.884  31.292  28.902  1.00  0.00     0.031 C 
ATOM     39  C   UNL A   1      46.258  31.084  28.197  1.00  0.00     0.037 A 
BRANCH  26  40
ATOM     40  C   UNL A   1      50.386  27.460  25.281  1.00  0.00     0.064 A 
ATOM     41  C   UNL A   1      50.762  27.607  23.937  1.00  0.00     0.173 A 
ATOM     42  C   UNL A   1      51.343  26.959  26.177  1.00  0.00     0.173 A 
ATOM     43  F   UNL A   1      49.874  28.044  23.032  1.00  0.00    -0.203 F 
ATOM     44  C   UNL A   1      52.029  27.223  23.501  1.00  0.00     0.198 A 
ATOM     45  C   UNL A   1      52.617  26.602  25.743  1.00  0.00     0.198 A 
ATOM     46  F   UNL A   1      51.033  26.783  27.470  1.00  0.00    -0.203 F 
ATOM     47  F   UNL A   1      52.340  27.298  22.199  1.00  0.00    -0.200 F 
ATOM     48  C   UNL A   1      52.954  26.722  24.403  1.00  0.00     0.200 A 
ATOM     49  F   UNL A   1      53.508  26.114  26.616  1.00  0.00    -0.200 F 
ATOM     50  F   UNL A   1      54.164  26.331  23.979  1.00  0.00    -0.200 F 
ENDBRANCH  26  40
BRANCH  27  51
ATOM     51  C   UNL A   1      40.767  28.440  28.305  1.00  0.00     0.064 A 
ATOM     52  C   UNL A   1      40.391  28.034  29.590  1.00  0.00     0.173 A 
ATOM     53  C   UNL A   1      39.776  29.012  27.488  1.00  0.00     0.173 A 
ATOM     54  F   UNL A   1      41.294  27.468  30.404  1.00  0.00    -0.203 F 
ATOM     55  C   UNL A   1      39.082  28.200  30.044  1.00  0.00     0.198 A 
ATOM     56  C   UNL A   1      38.477  29.202  27.952  1.00  0.00     0.198 A 
ATOM     57  F   UNL A   1      40.081  29.420  26.247  1.00  0.00    -0.203 F 
ATOM     58  F   UNL A   1      38.744  27.786  31.273  1.00  0.00    -0.200 F 
ATOM     59  C   UNL A   1      38.130  28.794  29.229  1.00  0.00     0.200 A 
ATOM     60  F   UNL A   1      37.566  29.794  27.165  1.00  0.00    -0.200 F 
ATOM     61  F   UNL A   1      36.878  28.972  29.675  1.00  0.00    -0.200 F 
ENDBRANCH  27  51
BRANCH  39  62
ATOM     62  C   UNL A   1      46.492  32.437  28.787  1.00  0.00     0.064 A 
ATOM     63  C   UNL A   1      46.901  32.593  30.118  1.00  0.00     0.173 A 
ATOM     64  C   UNL A   1      46.396  33.579  27.979  1.00  0.00     0.173 A 
ATOM     65  F   UNL A   1      46.995  31.526  30.926  1.00  0.00    -0.203 F 
ATOM     66  C   UNL A   1      47.201  33.854  30.623  1.00  0.00     0.198 A 
ATOM     67  C   UNL A   1      46.719  34.833  28.481  1.00  0.00     0.198 A 
ATOM     68  F   UNL A   1      46.015  33.470  26.697  1.00  0.00    -0.203 F 
ATOM     69  F   UNL A   1      47.570  33.988  31.904  1.00  0.00    -0.200 F 
ATOM     70  C   UNL A   1      47.120  34.970  29.802  1.00  0.00     0.200 A 
ATOM     71  F   UNL A   1      46.654  35.909  27.684  1.00  0.00    -0.200 F 
ATOM     72  F   UNL A   1      47.429  36.181  30.286  1.00  0.00    -0.200 F 
ENDBRANCH  39  62
ENDBRANCH  13  14
ENDBRANCH   6   8
ENDBRANCH   5   6
ENDBRANCH   4   5
ENDBRANCH   3   4
ENDBRANCH   2   3
ENDBRANCH   1   2
BRANCH   1  73
ATOM     73  C   UNL A   1      40.434  22.140  27.414  1.00  0.00     0.261 C 
BRANCH  73  74
ATOM     74  O   UNL A   1      39.623  22.206  26.226  1.00  0.00    -0.463 OA
BRANCH  74  75
ATOM     75  C   UNL A   1      38.667  23.175  26.232  1.00  0.00     0.310 C 
ATOM     76  O   UNL A   1      38.734  24.224  26.860  1.00  0.00    -0.252 OA
BRANCH  75  77
ATOM     77  C   UNL A   1      37.517  22.801  25.313  1.00  0.00     0.119 C 
ATOM     78  C   UNL A   1      37.306  21.285  25.380  1.00  0.00     0.019 C 
ATOM     79  C   UNL A   1      36.274  23.587  25.748  1.00  0.00     0.134 C 
ATOM     80  C   UNL A   1      35.967  20.895  24.785  1.00  0.00     0.022 C 
ATOM     81  N   UNL A   1      34.990  23.079  25.282  1.00  0.00    -0.342 N 
ATOM     82  C   UNL A   1      34.856  21.654  25.495  1.00  0.00     0.119 C 
BRANCH  81  83
ATOM     83  C   UNL A   1      33.920  23.966  25.272  1.00  0.00     0.225 C 
ATOM     84  O   UNL A   1      33.754  24.723  26.240  1.00  0.00    -0.275 OA
BRANCH  83  85
ATOM     85  C   UNL A   1      32.942  24.108  24.080  1.00  0.00     0.081 C 
ATOM     86  C   UNL A   1      33.471  24.643  22.761  1.00  0.00     0.030 C 
ATOM     87  C   UNL A   1      31.560  24.662  24.367  1.00  0.00     0.030 C 
ATOM     88  C   UNL A   1      33.300  26.133  22.506  1.00  0.00     0.103 C 
ATOM     89  C   UNL A   1      31.472  26.170  24.298  1.00  0.00     0.103 C 
ATOM     90  N   UNL A   1      32.080  26.791  23.094  1.00  0.00    -0.198 NA
BRANCH  90  91
ATOM     91  S   UNL A   1      32.363  28.518  23.187  1.00  0.00     0.243 S 
ATOM     92  O   UNL A   1      33.553  28.811  22.406  1.00  0.00    -0.207 OA
ATOM     93  O   UNL A   1      31.111  29.154  22.848  1.00  0.00    -0.207 OA
BRANCH  91  94
ATOM     94  C   UNL A   1      32.777  28.930  24.864  1.00  0.00     0.082 A 
ATOM     95  C   UNL A   1      32.008  29.878  25.542  1.00  0.00     0.022 A 
ATOM     96  C   UNL A   1      33.977  28.474  25.429  1.00  0.00     0.022 A 
ATOM     97  C   UNL A   1      32.416  30.322  26.802  1.00  0.00     0.001 A 
ATOM     98  C   UNL A   1      34.356  28.885  26.705  1.00  0.00     0.001 A 
ATOM     99  C   UNL A   1      33.575  29.812  27.390  1.00  0.00     0.000 A 
ENDBRANCH  91  94
ENDBRANCH  90  91
ENDBRANCH  83  85
ENDBRANCH  81  83
ENDBRANCH  75  77
ENDBRANCH  74  75
ENDBRANCH  73  74
ENDBRANCH   1  73
TORSDOF 18
ENDMDL
