MODEL 1
REMARK VINA RESULT:     -11.2      0.000      0.000
REMARK SMILES COc1cc2c(cc1OC)C1=C(C#N)C[N@H+](CC(=O)OCCOCCOC(=O)c3ccc(-c4c5nc(c(-c6c(F)c(F)c(F)c(F)c6F)c6ccc([nH]6)c(-c6c(F)c(F)c(F)c(F)c6F)c6nc(c(-c7c(F)c(F)c(F)c(F)c7F)c7ccc4[nH]7)C=C6)C=C5)cc3)CN1CC2
REMARK SMILES IDX 23 1 22 2 21 3 20 4 18 5 19 6 17 7 16 8 3 9 4 10 8 11 5 12
REMARK SMILES IDX 7 13 6 14 95 15 11 16 94 17 12 18 93 19 15 20 92 21 2 23
REMARK SMILES IDX 1 24 9 25 10 26 13 27 14 28 24 29 25 30 26 31 27 32 28 33
REMARK SMILES IDX 29 34 30 35 91 36 31 37 90 38 32 39 33 40 34 41 84 42 35 43
REMARK SMILES IDX 89 44 83 45 85 46 36 47 88 48 82 49 81 50 37 52 69 53 49 54
REMARK SMILES IDX 68 55 50 56 53 57 67 58 86 59 51 60 52 61 66 63 87 64 54 65
REMARK SMILES IDX 38 66 39 67 47 68 40 69 41 70 45 71 48 72 42 73 43 74 46 75
REMARK SMILES IDX 44 76 70 77 71 78 79 79 72 80 73 81 77 82 80 83 74 84 75 85
REMARK SMILES IDX 78 86 76 87 55 88 56 89 64 90 57 91 58 92 62 93 65 94 59 95
REMARK SMILES IDX 60 96 63 97 61 98
REMARK H PARENT 16 22 85 51 53 62
REMARK Flexibility Score: inf
ROOT
ATOM      1  O   UNL A   1      33.895  31.393  27.985  1.00  0.00    -0.374 OA
ENDROOT
BRANCH   1   2
ATOM      2  C   UNL A   1      34.704  30.399  27.370  1.00  0.00     0.202 C 
BRANCH   2   3
ATOM      3  C   UNL A   1      34.155  28.966  27.289  1.00  0.00     0.261 C 
BRANCH   3   4
ATOM      4  O   UNL A   1      33.227  28.759  26.213  1.00  0.00    -0.459 OA
BRANCH   4   5
ATOM      5  C   UNL A   1      31.903  28.671  26.539  1.00  0.00     0.361 C 
ATOM      6  O   UNL A   1      31.422  29.044  27.604  1.00  0.00    -0.245 OA
BRANCH   5   7
ATOM      7  C   UNL A   1      31.028  28.119  25.393  1.00  0.00     0.388 C 
BRANCH   7   8
ATOM      8  N   UNL A   1      31.372  26.735  25.074  1.00  0.00    -0.304 N 
ATOM      9  C   UNL A   1      34.472  20.670  24.743  1.00  0.00     0.161 A 
ATOM     10  C   UNL A   1      34.800  21.784  23.968  1.00  0.00     0.055 A 
ATOM     11  C   UNL A   1      33.141  20.493  25.137  1.00  0.00     0.161 A 
ATOM     12  C   UNL A   1      33.852  22.790  23.707  1.00  0.00    -0.033 A 
ATOM     13  C   UNL A   1      32.201  21.515  24.878  1.00  0.00     0.061 A 
ATOM     14  C   UNL A   1      32.568  22.733  24.286  1.00  0.00     0.006 A 
ATOM     15  C   UNL A   1      34.269  23.964  22.864  1.00  0.00     0.058 C 
ATOM     16  C   UNL A   1      31.786  24.019  24.418  1.00  0.00     0.068 C 
ATOM     17  C   UNL A   1      33.069  24.796  22.398  1.00  0.00     0.127 C 
ATOM     18  C   UNL A   1      30.953  24.331  25.453  1.00  0.00     0.108 C 
ATOM     19  N   UNL A   1      32.140  25.036  23.502  1.00  0.00    -0.323 N 
ATOM     20  C   UNL A   1      30.449  25.752  25.631  1.00  0.00     0.314 C 
ATOM     21  C   UNL A   1      31.626  26.398  23.687  1.00  0.00     0.390 C 
ATOM     22  H   UNL A   1      32.277  26.682  25.540  1.00  0.00     0.350 HD
BRANCH   9  23
ATOM     23  O   UNL A   1      35.439  19.744  25.035  1.00  0.00    -0.493 OA
ATOM     24  C   UNL A   1      36.767  20.281  25.005  1.00  0.00     0.278 C 
ENDBRANCH   9  23
BRANCH  11  25
ATOM     25  O   UNL A   1      32.594  19.461  25.852  1.00  0.00    -0.493 OA
ATOM     26  C   UNL A   1      32.458  18.197  25.227  1.00  0.00     0.278 C 
ENDBRANCH  11  25
BRANCH  18  27
ATOM     27  C   UNL A   1      30.586  23.467  26.521  1.00  0.00     0.103 C 
ATOM     28  N   UNL A   1      30.287  22.828  27.447  1.00  0.00    -0.192 NA
ENDBRANCH  18  27
ENDBRANCH   7   8
ENDBRANCH   5   7
ENDBRANCH   4   5
ENDBRANCH   3   4
ENDBRANCH   2   3
ENDBRANCH   1   2
BRANCH   1  29
ATOM     29  C   UNL A   1      33.027  32.148  27.151  1.00  0.00     0.202 C 
BRANCH  29  30
ATOM     30  C   UNL A   1      32.173  33.246  27.790  1.00  0.00     0.261 C 
BRANCH  30  31
ATOM     31  O   UNL A   1      32.678  34.584  27.628  1.00  0.00    -0.460 OA
BRANCH  31  32
ATOM     32  C   UNL A   1      32.966  35.247  28.779  1.00  0.00     0.338 C 
ATOM     33  O   UNL A   1      32.312  36.134  29.303  1.00  0.00    -0.246 OA
BRANCH  32  34
ATOM     34  C   UNL A   1      34.179  34.691  29.412  1.00  0.00     0.060 A 
ATOM     35  C   UNL A   1      34.072  34.061  30.640  1.00  0.00     0.016 A 
ATOM     36  C   UNL A   1      35.404  34.674  28.744  1.00  0.00     0.016 A 
ATOM     37  C   UNL A   1      35.149  33.385  31.209  1.00  0.00     0.010 A 
ATOM     38  C   UNL A   1      36.498  33.999  29.310  1.00  0.00     0.010 A 
ATOM     39  C   UNL A   1      36.372  33.329  30.540  1.00  0.00    -0.014 A 
BRANCH  39  40
ATOM     40  C   UNL A   1      37.497  32.573  31.152  1.00  0.00     0.031 A 
ATOM     41  C   UNL A   1      37.915  32.865  32.560  1.00  0.00     0.074 A 
ATOM     42  C   UNL A   1      38.097  31.577  30.469  1.00  0.00     0.049 A 
ATOM     43  N   UNL A   1      38.916  32.372  33.244  1.00  0.00    -0.248 NA
ATOM     44  C   UNL A   1      37.108  33.850  33.293  1.00  0.00     0.031 C 
ATOM     45  C   UNL A   1      37.734  31.158  29.117  1.00  0.00     0.029 A 
ATOM     46  N   UNL A   1      39.115  30.722  30.816  1.00  0.00    -0.354 N 
ATOM     47  C   UNL A   1      38.873  33.003  34.478  1.00  0.00     0.074 A 
ATOM     48  C   UNL A   1      37.764  33.933  34.443  1.00  0.00     0.031 C 
ATOM     49  C   UNL A   1      38.478  30.097  28.769  1.00  0.00     0.029 A 
ATOM     50  C   UNL A   1      39.427  29.804  29.839  1.00  0.00     0.049 A 
ATOM     51  H   UNL A   1      39.579  30.761  31.683  1.00  0.00     0.167 HD
ATOM     52  C   UNL A   1      39.686  32.813  35.543  1.00  0.00     0.037 A 
ATOM     53  C   UNL A   1      40.382  28.853  29.798  1.00  0.00     0.037 A 
ATOM     54  C   UNL A   1      40.769  31.864  35.578  1.00  0.00     0.049 A 
ATOM     55  C   UNL A   1      41.321  28.721  30.970  1.00  0.00     0.074 A 
ATOM     56  C   UNL A   1      41.663  31.617  36.604  1.00  0.00     0.029 A 
ATOM     57  N   UNL A   1      41.098  30.997  34.544  1.00  0.00    -0.354 N 
ATOM     58  N   UNL A   1      41.305  29.352  32.118  1.00  0.00    -0.248 NA
ATOM     59  C   UNL A   1      42.429  27.762  30.833  1.00  0.00     0.031 C 
ATOM     60  C   UNL A   1      42.569  30.647  36.172  1.00  0.00     0.029 A 
ATOM     61  C   UNL A   1      42.200  30.236  34.901  1.00  0.00     0.049 A 
ATOM     62  H   UNL A   1      40.620  30.933  33.686  1.00  0.00     0.167 HD
ATOM     63  C   UNL A   1      42.382  28.862  32.843  1.00  0.00     0.074 A 
ATOM     64  C   UNL A   1      43.016  27.856  32.018  1.00  0.00     0.031 C 
ATOM     65  C   UNL A   1      42.814  29.225  34.075  1.00  0.00     0.037 A 
BRANCH  52  66
ATOM     66  C   UNL A   1      39.464  33.671  36.754  1.00  0.00     0.064 A 
ATOM     67  C   UNL A   1      38.708  33.226  37.849  1.00  0.00     0.173 A 
ATOM     68  C   UNL A   1      40.074  34.931  36.847  1.00  0.00     0.173 A 
ATOM     69  F   UNL A   1      38.091  32.037  37.806  1.00  0.00    -0.203 F 
ATOM     70  C   UNL A   1      38.559  34.020  38.984  1.00  0.00     0.198 A 
ATOM     71  C   UNL A   1      39.952  35.706  37.996  1.00  0.00     0.198 A 
ATOM     72  F   UNL A   1      40.812  35.403  35.829  1.00  0.00    -0.203 F 
ATOM     73  F   UNL A   1      37.799  33.593  40.002  1.00  0.00    -0.200 F 
ATOM     74  C   UNL A   1      39.192  35.251  39.062  1.00  0.00     0.200 A 
ATOM     75  F   UNL A   1      40.578  36.889  38.075  1.00  0.00    -0.200 F 
ATOM     76  F   UNL A   1      39.064  36.004  40.164  1.00  0.00    -0.200 F 
ENDBRANCH  52  66
BRANCH  53  77
ATOM     77  C   UNL A   1      40.527  27.973  28.602  1.00  0.00     0.064 A 
ATOM     78  C   UNL A   1      39.910  26.714  28.547  1.00  0.00     0.173 A 
ATOM     79  C   UNL A   1      41.301  28.359  27.495  1.00  0.00     0.173 A 
ATOM     80  F   UNL A   1      39.186  26.278  29.588  1.00  0.00    -0.203 F 
ATOM     81  C   UNL A   1      40.070  25.876  27.443  1.00  0.00     0.198 A 
ATOM     82  C   UNL A   1      41.426  27.539  26.375  1.00  0.00     0.198 A 
ATOM     83  F   UNL A   1      41.927  29.545  27.492  1.00  0.00    -0.203 F 
ATOM     84  F   UNL A   1      39.513  24.658  27.443  1.00  0.00    -0.200 F 
ATOM     85  C   UNL A   1      40.818  26.294  26.353  1.00  0.00     0.200 A 
ATOM     86  F   UNL A   1      42.138  27.955  25.319  1.00  0.00    -0.200 F 
ATOM     87  F   UNL A   1      40.962  25.494  25.288  1.00  0.00    -0.200 F 
ENDBRANCH  53  77
BRANCH  65  88
ATOM     88  C   UNL A   1      44.020  28.521  34.631  1.00  0.00     0.064 A 
ATOM     89  C   UNL A   1      43.903  27.337  35.374  1.00  0.00     0.173 A 
ATOM     90  C   UNL A   1      45.312  28.987  34.338  1.00  0.00     0.173 A 
ATOM     91  F   UNL A   1      42.692  26.855  35.690  1.00  0.00    -0.203 F 
ATOM     92  C   UNL A   1      45.033  26.654  35.815  1.00  0.00     0.198 A 
ATOM     93  C   UNL A   1      46.439  28.281  34.749  1.00  0.00     0.198 A 
ATOM     94  F   UNL A   1      45.481  30.109  33.623  1.00  0.00    -0.203 F 
ATOM     95  F   UNL A   1      44.896  25.544  36.553  1.00  0.00    -0.200 F 
ATOM     96  C   UNL A   1      46.299  27.118  35.490  1.00  0.00     0.200 A 
ATOM     97  F   UNL A   1      47.661  28.719  34.415  1.00  0.00    -0.200 F 
ATOM     98  F   UNL A   1      47.385  26.444  35.894  1.00  0.00    -0.200 F 
ENDBRANCH  65  88
ENDBRANCH  39  40
ENDBRANCH  32  34
ENDBRANCH  31  32
ENDBRANCH  30  31
ENDBRANCH  29  30
ENDBRANCH   1  29
TORSDOF 18
ENDMDL
MODEL 2
REMARK VINA RESULT:     -11.1      0.812      2.110
REMARK SMILES COc1cc2c(cc1OC)C1=C(C#N)C[N@H+](CC(=O)OCCOCCOC(=O)c3ccc(-c4c5nc(c(-c6c(F)c(F)c(F)c(F)c6F)c6ccc([nH]6)c(-c6c(F)c(F)c(F)c(F)c6F)c6nc(c(-c7c(F)c(F)c(F)c(F)c7F)c7ccc4[nH]7)C=C6)C=C5)cc3)CN1CC2
REMARK SMILES IDX 23 1 22 2 21 3 20 4 18 5 19 6 17 7 16 8 3 9 4 10 8 11 5 12
REMARK SMILES IDX 7 13 6 14 95 15 11 16 94 17 12 18 93 19 15 20 92 21 2 23
REMARK SMILES IDX 1 24 9 25 10 26 13 27 14 28 24 29 25 30 26 31 27 32 28 33
REMARK SMILES IDX 29 34 30 35 91 36 31 37 90 38 32 39 33 40 34 41 84 42 35 43
REMARK SMILES IDX 89 44 83 45 85 46 36 47 88 48 82 49 81 50 37 52 69 53 49 54
REMARK SMILES IDX 68 55 50 56 53 57 67 58 86 59 51 60 52 61 66 63 87 64 54 65
REMARK SMILES IDX 38 66 39 67 47 68 40 69 41 70 45 71 48 72 42 73 43 74 46 75
REMARK SMILES IDX 44 76 70 77 71 78 79 79 72 80 73 81 77 82 80 83 74 84 75 85
REMARK SMILES IDX 78 86 76 87 55 88 56 89 64 90 57 91 58 92 62 93 65 94 59 95
REMARK SMILES IDX 60 96 63 97 61 98
REMARK H PARENT 16 22 85 51 53 62
REMARK Flexibility Score: inf
ROOT
ATOM      1  O   UNL A   1      33.174  30.638  27.324  1.00  0.00    -0.374 OA
ENDROOT
BRANCH   1   2
ATOM      2  C   UNL A   1      33.190  29.778  26.192  1.00  0.00     0.202 C 
BRANCH   2   3
ATOM      3  C   UNL A   1      31.881  29.584  25.411  1.00  0.00     0.261 C 
BRANCH   3   4
ATOM      4  O   UNL A   1      32.073  29.310  24.014  1.00  0.00    -0.459 OA
BRANCH   4   5
ATOM      5  C   UNL A   1      30.969  28.957  23.290  1.00  0.00     0.361 C 
ATOM      6  O   UNL A   1      30.711  29.376  22.167  1.00  0.00    -0.245 OA
BRANCH   5   7
ATOM      7  C   UNL A   1      30.091  27.899  23.993  1.00  0.00     0.388 C 
BRANCH   7   8
ATOM      8  N   UNL A   1      30.726  26.582  23.983  1.00  0.00    -0.304 N 
ATOM      9  C   UNL A   1      35.033  21.386  24.958  1.00  0.00     0.161 A 
ATOM     10  C   UNL A   1      35.146  22.345  23.951  1.00  0.00     0.055 A 
ATOM     11  C   UNL A   1      33.756  21.024  25.401  1.00  0.00     0.161 A 
ATOM     12  C   UNL A   1      34.017  23.046  23.487  1.00  0.00    -0.033 A 
ATOM     13  C   UNL A   1      32.632  21.742  24.937  1.00  0.00     0.061 A 
ATOM     14  C   UNL A   1      32.756  22.849  24.085  1.00  0.00     0.006 A 
ATOM     15  C   UNL A   1      34.207  24.067  22.399  1.00  0.00     0.058 C 
ATOM     16  C   UNL A   1      31.719  23.939  23.940  1.00  0.00     0.068 C 
ATOM     17  C   UNL A   1      32.876  24.504  21.779  1.00  0.00     0.127 C 
ATOM     18  C   UNL A   1      30.806  24.288  24.893  1.00  0.00     0.108 C 
ATOM     19  N   UNL A   1      31.882  24.780  22.815  1.00  0.00    -0.323 N 
ATOM     20  C   UNL A   1      30.012  25.574  24.759  1.00  0.00     0.314 C 
ATOM     21  C   UNL A   1      31.090  26.010  22.702  1.00  0.00     0.390 C 
ATOM     22  H   UNL A   1      31.607  26.825  24.436  1.00  0.00     0.350 HD
BRANCH   9  23
ATOM     23  O   UNL A   1      36.162  20.771  25.433  1.00  0.00    -0.493 OA
ATOM     24  C   UNL A   1      37.373  21.307  24.886  1.00  0.00     0.278 C 
ENDBRANCH   9  23
BRANCH  11  25
ATOM     25  O   UNL A   1      33.414  20.083  26.336  1.00  0.00    -0.493 OA
ATOM     26  C   UNL A   1      32.795  18.884  25.901  1.00  0.00     0.278 C 
ENDBRANCH  11  25
BRANCH  18  27
ATOM     27  C   UNL A   1      30.594  23.623  26.131  1.00  0.00     0.103 C 
ATOM     28  N   UNL A   1      30.343  23.117  27.149  1.00  0.00    -0.192 NA
ENDBRANCH  18  27
ENDBRANCH   7   8
ENDBRANCH   5   7
ENDBRANCH   4   5
ENDBRANCH   3   4
ENDBRANCH   2   3
ENDBRANCH   1   2
BRANCH   1  29
ATOM     29  C   UNL A   1      32.495  31.880  27.201  1.00  0.00     0.202 C 
BRANCH  29  30
ATOM     30  C   UNL A   1      33.224  33.155  27.631  1.00  0.00     0.261 C 
BRANCH  30  31
ATOM     31  O   UNL A   1      32.369  34.241  28.033  1.00  0.00    -0.460 OA
BRANCH  31  32
ATOM     32  C   UNL A   1      32.946  35.180  28.830  1.00  0.00     0.338 C 
ATOM     33  O   UNL A   1      32.529  36.301  29.071  1.00  0.00    -0.246 OA
BRANCH  32  34
ATOM     34  C   UNL A   1      34.158  34.638  29.479  1.00  0.00     0.060 A 
ATOM     35  C   UNL A   1      34.021  33.820  30.588  1.00  0.00     0.016 A 
ATOM     36  C   UNL A   1      35.425  34.828  28.927  1.00  0.00     0.016 A 
ATOM     37  C   UNL A   1      35.114  33.159  31.145  1.00  0.00     0.010 A 
ATOM     38  C   UNL A   1      36.535  34.170  29.482  1.00  0.00     0.010 A 
ATOM     39  C   UNL A   1      36.383  33.311  30.585  1.00  0.00    -0.014 A 
BRANCH  39  40
ATOM     40  C   UNL A   1      37.528  32.569  31.177  1.00  0.00     0.031 A 
ATOM     41  C   UNL A   1      37.984  32.885  32.568  1.00  0.00     0.074 A 
ATOM     42  C   UNL A   1      38.111  31.564  30.494  1.00  0.00     0.049 A 
ATOM     43  N   UNL A   1      39.006  32.407  33.231  1.00  0.00    -0.248 NA
ATOM     44  C   UNL A   1      37.195  33.880  33.308  1.00  0.00     0.031 C 
ATOM     45  C   UNL A   1      37.712  31.122  29.160  1.00  0.00     0.029 A 
ATOM     46  N   UNL A   1      39.142  30.717  30.826  1.00  0.00    -0.354 N 
ATOM     47  C   UNL A   1      38.996  33.058  34.455  1.00  0.00     0.074 A 
ATOM     48  C   UNL A   1      37.884  33.984  34.436  1.00  0.00     0.031 C 
ATOM     49  C   UNL A   1      38.449  30.057  28.809  1.00  0.00     0.029 A 
ATOM     50  C   UNL A   1      39.429  29.785  29.856  1.00  0.00     0.049 A 
ATOM     51  H   UNL A   1      39.631  30.772  31.679  1.00  0.00     0.167 HD
ATOM     52  C   UNL A   1      39.840  32.888  35.500  1.00  0.00     0.037 A 
ATOM     53  C   UNL A   1      40.387  28.836  29.803  1.00  0.00     0.037 A 
ATOM     54  C   UNL A   1      40.927  31.943  35.519  1.00  0.00     0.049 A 
ATOM     55  C   UNL A   1      41.359  28.726  30.950  1.00  0.00     0.074 A 
ATOM     56  C   UNL A   1      41.850  31.717  36.524  1.00  0.00     0.029 A 
ATOM     57  N   UNL A   1      41.229  31.060  34.491  1.00  0.00    -0.354 N 
ATOM     58  N   UNL A   1      41.373  29.377  32.087  1.00  0.00    -0.248 NA
ATOM     59  C   UNL A   1      42.466  27.769  30.797  1.00  0.00     0.031 C 
ATOM     60  C   UNL A   1      42.748  30.742  36.081  1.00  0.00     0.029 A 
ATOM     61  C   UNL A   1      42.344  30.309  34.829  1.00  0.00     0.049 A 
ATOM     62  H   UNL A   1      40.727  30.981  33.648  1.00  0.00     0.167 HD
ATOM     63  C   UNL A   1      42.472  28.901  32.789  1.00  0.00     0.074 A 
ATOM     64  C   UNL A   1      43.086  27.884  31.963  1.00  0.00     0.031 C 
ATOM     65  C   UNL A   1      42.937  29.286  34.002  1.00  0.00     0.037 A 
BRANCH  52  66
ATOM     66  C   UNL A   1      39.650  33.765  36.703  1.00  0.00     0.064 A 
ATOM     67  C   UNL A   1      40.212  35.047  36.781  1.00  0.00     0.173 A 
ATOM     68  C   UNL A   1      38.836  33.340  37.764  1.00  0.00     0.173 A 
ATOM     69  F   UNL A   1      41.010  35.497  35.801  1.00  0.00    -0.203 F 
ATOM     70  C   UNL A   1      39.979  35.864  37.884  1.00  0.00     0.198 A 
ATOM     71  C   UNL A   1      38.577  34.172  38.849  1.00  0.00     0.198 A 
ATOM     72  F   UNL A   1      38.271  32.123  37.739  1.00  0.00    -0.203 F 
ATOM     73  F   UNL A   1      40.559  37.070  37.958  1.00  0.00    -0.200 F 
ATOM     74  C   UNL A   1      39.152  35.432  38.910  1.00  0.00     0.200 A 
ATOM     75  F   UNL A   1      37.764  33.757  39.831  1.00  0.00    -0.200 F 
ATOM     76  F   UNL A   1      38.913  36.228  39.962  1.00  0.00    -0.200 F 
ENDBRANCH  52  66
BRANCH  53  77
ATOM     77  C   UNL A   1      40.501  27.937  28.618  1.00  0.00     0.064 A 
ATOM     78  C   UNL A   1      41.237  28.317  27.485  1.00  0.00     0.173 A 
ATOM     79  C   UNL A   1      39.862  26.687  28.580  1.00  0.00     0.173 A 
ATOM     80  F   UNL A   1      41.842  29.514  27.450  1.00  0.00    -0.203 F 
ATOM     81  C   UNL A   1      41.320  27.492  26.364  1.00  0.00     0.198 A 
ATOM     82  C   UNL A   1      39.979  25.846  27.475  1.00  0.00     0.198 A 
ATOM     83  F   UNL A   1      39.133  26.272  29.625  1.00  0.00    -0.203 F 
ATOM     84  F   UNL A   1      41.984  27.906  25.277  1.00  0.00    -0.200 F 
ATOM     85  C   UNL A   1      40.700  26.252  26.364  1.00  0.00     0.200 A 
ATOM     86  F   UNL A   1      39.391  24.642  27.488  1.00  0.00    -0.200 F 
ATOM     87  F   UNL A   1      40.788  25.454  25.291  1.00  0.00    -0.200 F 
ENDBRANCH  53  77
BRANCH  65  88
ATOM     88  C   UNL A   1      44.162  28.595  34.535  1.00  0.00     0.064 A 
ATOM     89  C   UNL A   1      45.445  29.130  34.355  1.00  0.00     0.173 A 
ATOM     90  C   UNL A   1      44.038  27.432  35.312  1.00  0.00     0.173 A 
ATOM     91  F   UNL A   1      45.619  30.234  33.612  1.00  0.00    -0.203 F 
ATOM     92  C   UNL A   1      46.561  28.520  34.922  1.00  0.00     0.198 A 
ATOM     93  C   UNL A   1      45.152  26.846  35.907  1.00  0.00     0.198 A 
ATOM     94  F   UNL A   1      42.833  26.883  35.523  1.00  0.00    -0.203 F 
ATOM     95  F   UNL A   1      47.781  29.030  34.707  1.00  0.00    -0.200 F 
ATOM     96  C   UNL A   1      46.412  27.388  35.708  1.00  0.00     0.200 A 
ATOM     97  F   UNL A   1      45.003  25.764  36.685  1.00  0.00    -0.200 F 
ATOM     98  F   UNL A   1      47.485  26.818  36.274  1.00  0.00    -0.200 F 
ENDBRANCH  65  88
ENDBRANCH  39  40
ENDBRANCH  32  34
ENDBRANCH  31  32
ENDBRANCH  30  31
ENDBRANCH  29  30
ENDBRANCH   1  29
TORSDOF 18
ENDMDL
MODEL 3
REMARK VINA RESULT:     -11.0      4.894     10.923
REMARK SMILES COc1cc2c(cc1OC)C1=C(C#N)C[N@H+](CC(=O)OCCOCCOC(=O)c3ccc(-c4c5nc(c(-c6c(F)c(F)c(F)c(F)c6F)c6ccc([nH]6)c(-c6c(F)c(F)c(F)c(F)c6F)c6nc(c(-c7c(F)c(F)c(F)c(F)c7F)c7ccc4[nH]7)C=C6)C=C5)cc3)CN1CC2
REMARK SMILES IDX 23 1 22 2 21 3 20 4 18 5 19 6 17 7 16 8 3 9 4 10 8 11 5 12
REMARK SMILES IDX 7 13 6 14 95 15 11 16 94 17 12 18 93 19 15 20 92 21 2 23
REMARK SMILES IDX 1 24 9 25 10 26 13 27 14 28 24 29 25 30 26 31 27 32 28 33
REMARK SMILES IDX 29 34 30 35 91 36 31 37 90 38 32 39 33 40 34 41 84 42 35 43
REMARK SMILES IDX 89 44 83 45 85 46 36 47 88 48 82 49 81 50 37 52 69 53 49 54
REMARK SMILES IDX 68 55 50 56 53 57 67 58 86 59 51 60 52 61 66 63 87 64 54 65
REMARK SMILES IDX 38 66 39 67 47 68 40 69 41 70 45 71 48 72 42 73 43 74 46 75
REMARK SMILES IDX 44 76 70 77 71 78 79 79 72 80 73 81 77 82 80 83 74 84 75 85
REMARK SMILES IDX 78 86 76 87 55 88 56 89 64 90 57 91 58 92 62 93 65 94 59 95
REMARK SMILES IDX 60 96 63 97 61 98
REMARK H PARENT 16 22 85 51 53 62
REMARK Flexibility Score: inf
ROOT
ATOM      1  O   UNL A   1      38.972  21.976  25.400  1.00  0.00    -0.374 OA
ENDROOT
BRANCH   1   2
ATOM      2  C   UNL A   1      37.883  22.845  25.683  1.00  0.00     0.202 C 
BRANCH   2   3
ATOM      3  C   UNL A   1      36.707  22.877  24.695  1.00  0.00     0.261 C 
BRANCH   3   4
ATOM      4  O   UNL A   1      35.495  22.309  25.215  1.00  0.00    -0.459 OA
BRANCH   4   5
ATOM      5  C   UNL A   1      35.188  21.034  24.830  1.00  0.00     0.361 C 
ATOM      6  O   UNL A   1      35.925  20.065  24.979  1.00  0.00    -0.245 OA
BRANCH   5   7
ATOM      7  C   UNL A   1      33.766  20.899  24.245  1.00  0.00     0.388 C 
BRANCH   7   8
ATOM      8  N   UNL A   1      33.069  22.184  24.226  1.00  0.00    -0.304 N 
ATOM      9  C   UNL A   1      31.480  28.778  24.925  1.00  0.00     0.161 A 
ATOM     10  C   UNL A   1      31.370  27.814  25.929  1.00  0.00     0.055 A 
ATOM     11  C   UNL A   1      31.286  28.390  23.596  1.00  0.00     0.161 A 
ATOM     12  C   UNL A   1      31.213  26.452  25.611  1.00  0.00    -0.033 A 
ATOM     13  C   UNL A   1      31.141  27.019  23.288  1.00  0.00     0.061 A 
ATOM     14  C   UNL A   1      31.241  26.021  24.270  1.00  0.00     0.006 A 
ATOM     15  C   UNL A   1      31.100  25.464  26.739  1.00  0.00     0.058 C 
ATOM     16  C   UNL A   1      31.588  24.577  23.990  1.00  0.00     0.068 C 
ATOM     17  C   UNL A   1      30.615  24.092  26.259  1.00  0.00     0.127 C 
ATOM     18  C   UNL A   1      32.305  24.133  22.917  1.00  0.00     0.108 C 
ATOM     19  N   UNL A   1      31.328  23.679  25.051  1.00  0.00    -0.323 N 
ATOM     20  C   UNL A   1      32.840  22.713  22.886  1.00  0.00     0.314 C 
ATOM     21  C   UNL A   1      31.843  22.306  24.989  1.00  0.00     0.390 C 
ATOM     22  H   UNL A   1      33.759  22.749  24.721  1.00  0.00     0.350 HD
BRANCH   9  23
ATOM     23  O   UNL A   1      31.699  30.086  25.270  1.00  0.00    -0.493 OA
ATOM     24  C   UNL A   1      32.053  30.260  26.648  1.00  0.00     0.278 C 
ENDBRANCH   9  23
BRANCH  11  25
ATOM     25  O   UNL A   1      31.301  29.169  22.469  1.00  0.00    -0.493 OA
ATOM     26  C   UNL A   1      30.087  29.751  22.027  1.00  0.00     0.278 C 
ENDBRANCH  11  25
BRANCH  18  27
ATOM     27  C   UNL A   1      32.750  24.925  21.823  1.00  0.00     0.103 C 
ATOM     28  N   UNL A   1      33.172  25.513  20.911  1.00  0.00    -0.192 NA
ENDBRANCH  18  27
ENDBRANCH   7   8
ENDBRANCH   5   7
ENDBRANCH   4   5
ENDBRANCH   3   4
ENDBRANCH   2   3
ENDBRANCH   1   2
BRANCH   1  29
ATOM     29  C   UNL A   1      39.291  20.981  26.363  1.00  0.00     0.202 C 
BRANCH  29  30
ATOM     30  C   UNL A   1      39.608  19.566  25.873  1.00  0.00     0.261 C 
BRANCH  30  31
ATOM     31  O   UNL A   1      40.889  19.414  25.234  1.00  0.00    -0.460 OA
BRANCH  31  32
ATOM     32  C   UNL A   1      41.953  19.292  26.072  1.00  0.00     0.338 C 
ATOM     33  O   UNL A   1      42.494  18.259  26.432  1.00  0.00    -0.246 OA
BRANCH  32  34
ATOM     34  C   UNL A   1      42.470  20.622  26.454  1.00  0.00     0.060 A 
ATOM     35  C   UNL A   1      42.760  21.544  25.462  1.00  0.00     0.016 A 
ATOM     36  C   UNL A   1      42.551  21.013  27.790  1.00  0.00     0.016 A 
ATOM     37  C   UNL A   1      43.101  22.860  25.769  1.00  0.00     0.010 A 
ATOM     38  C   UNL A   1      42.898  22.336  28.111  1.00  0.00     0.010 A 
ATOM     39  C   UNL A   1      43.154  23.277  27.098  1.00  0.00    -0.014 A 
BRANCH  39  40
ATOM     40  C   UNL A   1      43.488  24.696  27.398  1.00  0.00     0.031 A 
ATOM     41  C   UNL A   1      44.857  25.221  27.094  1.00  0.00     0.074 A 
ATOM     42  C   UNL A   1      42.542  25.529  27.876  1.00  0.00     0.049 A 
ATOM     43  N   UNL A   1      45.365  26.400  27.351  1.00  0.00    -0.248 NA
ATOM     44  C   UNL A   1      45.782  24.296  26.425  1.00  0.00     0.031 C 
ATOM     45  C   UNL A   1      41.159  25.149  28.150  1.00  0.00     0.029 A 
ATOM     46  N   UNL A   1      42.585  26.865  28.196  1.00  0.00    -0.354 N 
ATOM     47  C   UNL A   1      46.674  26.350  26.895  1.00  0.00     0.074 A 
ATOM     48  C   UNL A   1      46.892  25.020  26.369  1.00  0.00     0.031 C 
ATOM     49  C   UNL A   1      40.473  26.233  28.544  1.00  0.00     0.029 A 
ATOM     50  C   UNL A   1      41.382  27.372  28.629  1.00  0.00     0.049 A 
ATOM     51  H   UNL A   1      43.402  27.411  28.121  1.00  0.00     0.167 HD
ATOM     52  C   UNL A   1      47.603  27.335  26.911  1.00  0.00     0.037 A 
ATOM     53  C   UNL A   1      41.052  28.604  29.068  1.00  0.00     0.037 A 
ATOM     54  C   UNL A   1      47.367  28.664  27.411  1.00  0.00     0.049 A 
ATOM     55  C   UNL A   1      42.130  29.655  29.146  1.00  0.00     0.074 A 
ATOM     56  C   UNL A   1      48.254  29.722  27.491  1.00  0.00     0.029 A 
ATOM     57  N   UNL A   1      46.153  29.123  27.904  1.00  0.00    -0.354 N 
ATOM     58  N   UNL A   1      43.379  29.589  28.756  1.00  0.00    -0.248 NA
ATOM     59  C   UNL A   1      41.762  30.944  29.751  1.00  0.00     0.031 C 
ATOM     60  C   UNL A   1      47.597  30.801  28.088  1.00  0.00     0.029 A 
ATOM     61  C   UNL A   1      46.279  30.441  28.317  1.00  0.00     0.049 A 
ATOM     62  H   UNL A   1      45.326  28.591  27.954  1.00  0.00     0.167 HD
ATOM     63  C   UNL A   1      43.941  30.824  29.052  1.00  0.00     0.074 A 
ATOM     64  C   UNL A   1      42.888  31.633  29.627  1.00  0.00     0.031 C 
ATOM     65  C   UNL A   1      45.218  31.241  28.875  1.00  0.00     0.037 A 
BRANCH  52  66
ATOM     66  C   UNL A   1      48.978  27.007  26.406  1.00  0.00     0.064 A 
ATOM     67  C   UNL A   1      49.978  26.506  27.252  1.00  0.00     0.173 A 
ATOM     68  C   UNL A   1      49.277  27.136  25.041  1.00  0.00     0.173 A 
ATOM     69  F   UNL A   1      49.750  26.378  28.567  1.00  0.00    -0.203 F 
ATOM     70  C   UNL A   1      51.230  26.160  26.751  1.00  0.00     0.198 A 
ATOM     71  C   UNL A   1      50.517  26.756  24.538  1.00  0.00     0.198 A 
ATOM     72  F   UNL A   1      48.355  27.608  24.187  1.00  0.00    -0.203 F 
ATOM     73  F   UNL A   1      52.184  25.720  27.583  1.00  0.00    -0.200 F 
ATOM     74  C   UNL A   1      51.495  26.272  25.394  1.00  0.00     0.200 A 
ATOM     75  F   UNL A   1      50.764  26.852  23.224  1.00  0.00    -0.200 F 
ATOM     76  F   UNL A   1      52.694  25.919  24.911  1.00  0.00    -0.200 F 
ENDBRANCH  52  66
BRANCH  53  77
ATOM     77  C   UNL A   1      39.657  28.909  29.497  1.00  0.00     0.064 A 
ATOM     78  C   UNL A   1      38.716  29.430  28.595  1.00  0.00     0.173 A 
ATOM     79  C   UNL A   1      39.234  28.707  30.821  1.00  0.00     0.173 A 
ATOM     80  F   UNL A   1      39.071  29.675  27.325  1.00  0.00    -0.203 F 
ATOM     81  C   UNL A   1      37.420  29.746  29.002  1.00  0.00     0.198 A 
ATOM     82  C   UNL A   1      37.927  28.984  31.216  1.00  0.00     0.198 A 
ATOM     83  F   UNL A   1      40.090  28.224  31.734  1.00  0.00    -0.203 F 
ATOM     84  F   UNL A   1      36.561  30.293  28.131  1.00  0.00    -0.200 F 
ATOM     85  C   UNL A   1      37.023  29.512  30.309  1.00  0.00     0.200 A 
ATOM     86  F   UNL A   1      37.546  28.741  32.478  1.00  0.00    -0.200 F 
ATOM     87  F   UNL A   1      35.774  29.805  30.697  1.00  0.00    -0.200 F 
ENDBRANCH  53  77
BRANCH  65  88
ATOM     88  C   UNL A   1      45.558  32.647  29.285  1.00  0.00     0.064 A 
ATOM     89  C   UNL A   1      45.381  33.731  28.413  1.00  0.00     0.173 A 
ATOM     90  C   UNL A   1      45.981  32.921  30.596  1.00  0.00     0.173 A 
ATOM     91  F   UNL A   1      44.989  33.522  27.147  1.00  0.00    -0.203 F 
ATOM     92  C   UNL A   1      45.626  35.035  28.833  1.00  0.00     0.198 A 
ATOM     93  C   UNL A   1      46.189  34.230  31.023  1.00  0.00     0.198 A 
ATOM     94  F   UNL A   1      46.157  31.923  31.474  1.00  0.00    -0.203 F 
ATOM     95  F   UNL A   1      45.483  36.052  27.972  1.00  0.00    -0.200 F 
ATOM     96  C   UNL A   1      46.016  35.285  30.141  1.00  0.00     0.200 A 
ATOM     97  F   UNL A   1      46.544  34.471  32.293  1.00  0.00    -0.200 F 
ATOM     98  F   UNL A   1      46.226  36.544  30.550  1.00  0.00    -0.200 F 
ENDBRANCH  65  88
ENDBRANCH  39  40
ENDBRANCH  32  34
ENDBRANCH  31  32
ENDBRANCH  30  31
ENDBRANCH  29  30
ENDBRANCH   1  29
TORSDOF 18
ENDMDL
