MODEL 1
REMARK VINA RESULT:     -11.2      0.000      0.000
REMARK SMILES Cc1noc(C)c1[C@H](C)NC(=O)NC[C@@](C)(O)C(=O)OCCOCCOC(=O)c1ccc(-c2c3nc(c(-c4c(F)c(F)c(F)c(F)c4F)c4ccc([nH]4)c(-c4c(F)c(F)c(F)c(F)c4F)c4nc(c(-c5c(F)c(F)c(F)c(F)c5F)c5ccc2[nH]5)C=C4)C=C3)cc1
REMARK SMILES IDX 22 1 21 2 20 3 18 4 19 5 15 6 16 7 14 8 13 9 10 10 11 11
REMARK SMILES IDX 12 13 8 15 9 16 7 17 1 18 2 19 3 20 4 21 5 22 6 23 17 24
REMARK SMILES IDX 23 26 24 27 25 28 26 29 27 30 28 31 29 32 30 33 91 34 31 35
REMARK SMILES IDX 90 36 32 37 33 38 34 39 84 40 35 41 89 42 83 43 85 44 36 45
REMARK SMILES IDX 88 46 82 47 81 48 37 50 69 51 49 52 68 53 50 54 53 55 67 56
REMARK SMILES IDX 86 57 51 58 52 59 66 61 87 62 54 63 38 64 39 65 47 66 40 67
REMARK SMILES IDX 41 68 45 69 48 70 42 71 43 72 46 73 44 74 70 75 71 76 79 77
REMARK SMILES IDX 72 78 73 79 77 80 80 81 74 82 75 83 78 84 76 85 55 86 56 87
REMARK SMILES IDX 64 88 57 89 58 90 62 91 65 92 59 93 60 94 63 95 61 96
REMARK H PARENT 10 12 13 14 17 25 85 49 53 60
REMARK Flexibility Score: inf
ROOT
ATOM      1  C   UNL A   1      32.687  26.756  26.024  1.00  0.00     0.202 C 
ENDROOT
BRANCH   1   2
ATOM      2  C   UNL A   1      31.365  26.338  25.387  1.00  0.00     0.261 C 
BRANCH   2   3
ATOM      3  O   UNL A   1      31.411  26.686  23.995  1.00  0.00    -0.461 OA
BRANCH   3   4
ATOM      4  C   UNL A   1      31.247  25.659  23.117  1.00  0.00     0.339 C 
ATOM      5  O   UNL A   1      30.375  24.806  23.222  1.00  0.00    -0.249 OA
BRANCH   4   6
ATOM      6  C   UNL A   1      32.366  25.663  22.042  1.00  0.00     0.176 C 
ATOM      7  C   UNL A   1      33.188  26.928  22.319  1.00  0.00     0.057 C 
BRANCH   6   8
ATOM      8  C   UNL A   1      33.245  24.379  22.054  1.00  0.00     0.164 C 
BRANCH   8   9
ATOM      9  N   UNL A   1      32.568  23.104  21.938  1.00  0.00    -0.335 N 
ATOM     10  N   UNL A   1      33.083  21.738  23.813  1.00  0.00    -0.331 N 
ATOM     11  C   UNL A   1      32.471  21.981  22.654  1.00  0.00     0.315 C 
ATOM     12  H   UNL A   1      32.906  20.826  24.140  1.00  0.00     0.165 HD
ATOM     13  O   UNL A   1      31.752  21.086  22.202  1.00  0.00    -0.249 OA
ATOM     14  H   UNL A   1      32.037  23.050  21.111  1.00  0.00     0.165 HD
BRANCH  10  15
ATOM     15  C   UNL A   1      33.948  22.479  24.714  1.00  0.00     0.116 C 
ATOM     16  C   UNL A   1      33.176  22.755  26.002  1.00  0.00     0.036 C 
BRANCH  15  17
ATOM     17  C   UNL A   1      35.239  21.723  24.894  1.00  0.00     0.040 A 
ATOM     18  C   UNL A   1      36.919  23.682  25.452  1.00  0.00     0.071 C 
ATOM     19  C   UNL A   1      36.525  22.268  25.227  1.00  0.00     0.086 A 
ATOM     20  N   UNL A   1      37.455  21.313  25.336  1.00  0.00    -0.085 NA
ATOM     21  O   UNL A   1      36.800  20.126  25.131  1.00  0.00    -0.361 OA
ATOM     22  C   UNL A   1      35.485  20.359  24.883  1.00  0.00     0.139 A 
ATOM     23  C   UNL A   1      34.680  19.139  24.677  1.00  0.00     0.091 C 
ENDBRANCH  15  17
ENDBRANCH  10  15
ENDBRANCH   8   9
ENDBRANCH   6   8
BRANCH   6  24
ATOM     24  O   UNL A   1      31.850  25.769  20.700  1.00  0.00    -0.377 OA
ATOM     25  H   UNL A   1      32.388  25.226  20.103  1.00  0.00     0.212 HD
ENDBRANCH   6  24
ENDBRANCH   4   6
ENDBRANCH   3   4
ENDBRANCH   2   3
ENDBRANCH   1   2
BRANCH   1  26
ATOM     26  O   UNL A   1      32.653  28.082  26.554  1.00  0.00    -0.374 OA
BRANCH  26  27
ATOM     27  C   UNL A   1      31.661  28.933  25.973  1.00  0.00     0.202 C 
BRANCH  27  28
ATOM     28  C   UNL A   1      32.080  30.400  26.047  1.00  0.00     0.261 C 
BRANCH  28  29
ATOM     29  O   UNL A   1      32.624  30.626  27.356  1.00  0.00    -0.460 OA
BRANCH  29  30
ATOM     30  C   UNL A   1      33.308  31.786  27.484  1.00  0.00     0.338 C 
ATOM     31  O   UNL A   1      32.866  32.919  27.404  1.00  0.00    -0.246 OA
BRANCH  30  32
ATOM     32  C   UNL A   1      34.673  31.467  27.953  1.00  0.00     0.060 A 
ATOM     33  C   UNL A   1      34.971  30.125  28.239  1.00  0.00     0.016 A 
ATOM     34  C   UNL A   1      35.659  32.451  28.062  1.00  0.00     0.016 A 
ATOM     35  C   UNL A   1      36.243  29.770  28.685  1.00  0.00     0.010 A 
ATOM     36  C   UNL A   1      36.927  32.100  28.514  1.00  0.00     0.010 A 
ATOM     37  C   UNL A   1      37.205  30.769  28.869  1.00  0.00    -0.014 A 
BRANCH  37  38
ATOM     38  C   UNL A   1      38.411  30.510  29.680  1.00  0.00     0.031 A 
ATOM     39  C   UNL A   1      39.404  29.530  29.123  1.00  0.00     0.074 A 
ATOM     40  C   UNL A   1      38.570  31.055  30.898  1.00  0.00     0.049 A 
ATOM     41  N   UNL A   1      40.410  28.939  29.708  1.00  0.00    -0.248 NA
ATOM     42  C   UNL A   1      39.212  29.140  27.714  1.00  0.00     0.031 C 
ATOM     43  C   UNL A   1      37.679  32.041  31.506  1.00  0.00     0.029 A 
ATOM     44  N   UNL A   1      39.522  30.819  31.855  1.00  0.00    -0.354 N 
ATOM     45  C   UNL A   1      40.945  28.085  28.752  1.00  0.00     0.074 A 
ATOM     46  C   UNL A   1      40.150  28.222  27.554  1.00  0.00     0.031 C 
ATOM     47  C   UNL A   1      38.107  32.298  32.756  1.00  0.00     0.029 A 
ATOM     48  C   UNL A   1      39.271  31.460  33.044  1.00  0.00     0.049 A 
ATOM     49  H   UNL A   1      40.309  30.247  31.705  1.00  0.00     0.167 HD
ATOM     50  C   UNL A   1      42.006  27.257  28.873  1.00  0.00     0.037 A 
ATOM     51  C   UNL A   1      39.891  31.339  34.234  1.00  0.00     0.037 A 
ATOM     52  C   UNL A   1      42.791  27.149  30.071  1.00  0.00     0.049 A 
ATOM     53  C   UNL A   1      41.054  30.385  34.352  1.00  0.00     0.074 A 
ATOM     54  C   UNL A   1      43.907  26.369  30.303  1.00  0.00     0.029 A 
ATOM     55  N   UNL A   1      42.534  27.850  31.241  1.00  0.00    -0.354 N 
ATOM     56  N   UNL A   1      41.575  29.595  33.442  1.00  0.00    -0.248 NA
ATOM     57  C   UNL A   1      41.717  30.300  35.661  1.00  0.00     0.031 C 
ATOM     58  C   UNL A   1      44.298  26.561  31.631  1.00  0.00     0.029 A 
ATOM     59  C   UNL A   1      43.463  27.508  32.204  1.00  0.00     0.049 A 
ATOM     60  H   UNL A   1      41.801  28.494  31.365  1.00  0.00     0.167 HD
ATOM     61  C   UNL A   1      42.648  28.958  34.052  1.00  0.00     0.074 A 
ATOM     62  C   UNL A   1      42.704  29.450  35.412  1.00  0.00     0.031 C 
ATOM     63  C   UNL A   1      43.514  28.052  33.537  1.00  0.00     0.037 A 
BRANCH  50  64
ATOM     64  C   UNL A   1      42.360  26.390  27.704  1.00  0.00     0.064 A 
ATOM     65  C   UNL A   1      43.369  26.748  26.796  1.00  0.00     0.173 A 
ATOM     66  C   UNL A   1      41.713  25.161  27.514  1.00  0.00     0.173 A 
ATOM     67  F   UNL A   1      44.005  27.923  26.921  1.00  0.00    -0.203 F 
ATOM     68  C   UNL A   1      43.706  25.911  25.736  1.00  0.00     0.198 A 
ATOM     69  C   UNL A   1      42.073  24.313  26.472  1.00  0.00     0.198 A 
ATOM     70  F   UNL A   1      40.738  24.774  28.351  1.00  0.00    -0.203 F 
ATOM     71  F   UNL A   1      44.648  26.289  24.860  1.00  0.00    -0.200 F 
ATOM     72  C   UNL A   1      43.066  24.690  25.581  1.00  0.00     0.200 A 
ATOM     73  F   UNL A   1      41.460  23.131  26.329  1.00  0.00    -0.200 F 
ATOM     74  F   UNL A   1      43.405  23.878  24.570  1.00  0.00    -0.200 F 
ENDBRANCH  50  64
BRANCH  51  75
ATOM     75  C   UNL A   1      39.415  32.110  35.414  1.00  0.00     0.064 A 
ATOM     76  C   UNL A   1      39.864  33.417  35.652  1.00  0.00     0.173 A 
ATOM     77  C   UNL A   1      38.534  31.547  36.349  1.00  0.00     0.173 A 
ATOM     78  F   UNL A   1      40.726  33.994  34.801  1.00  0.00    -0.203 F 
ATOM     79  C   UNL A   1      39.476  34.117  36.794  1.00  0.00     0.198 A 
ATOM     80  C   UNL A   1      38.122  32.260  37.474  1.00  0.00     0.198 A 
ATOM     81  F   UNL A   1      38.071  30.300  36.171  1.00  0.00    -0.203 F 
ATOM     82  F   UNL A   1      39.970  35.341  37.025  1.00  0.00    -0.200 F 
ATOM     83  C   UNL A   1      38.602  33.540  37.702  1.00  0.00     0.200 A 
ATOM     84  F   UNL A   1      37.265  31.702  38.342  1.00  0.00    -0.200 F 
ATOM     85  F   UNL A   1      38.232  34.212  38.800  1.00  0.00    -0.200 F 
ENDBRANCH  51  75
BRANCH  63  86
ATOM     86  C   UNL A   1      44.644  27.592  34.408  1.00  0.00     0.064 A 
ATOM     87  C   UNL A   1      45.849  28.300  34.494  1.00  0.00     0.173 A 
ATOM     88  C   UNL A   1      44.470  26.477  35.244  1.00  0.00     0.173 A 
ATOM     89  F   UNL A   1      46.063  29.366  33.708  1.00  0.00    -0.203 F 
ATOM     90  C   UNL A   1      46.847  27.902  35.379  1.00  0.00     0.198 A 
ATOM     91  C   UNL A   1      45.457  26.100  36.147  1.00  0.00     0.198 A 
ATOM     92  F   UNL A   1      43.327  25.774  35.205  1.00  0.00    -0.203 F 
ATOM     93  F   UNL A   1      48.004  28.576  35.426  1.00  0.00    -0.200 F 
ATOM     94  C   UNL A   1      46.646  26.811  36.212  1.00  0.00     0.200 A 
ATOM     95  F   UNL A   1      45.253  25.058  36.965  1.00  0.00    -0.200 F 
ATOM     96  F   UNL A   1      47.600  26.445  37.080  1.00  0.00    -0.200 F 
ENDBRANCH  63  86
ENDBRANCH  37  38
ENDBRANCH  30  32
ENDBRANCH  29  30
ENDBRANCH  28  29
ENDBRANCH  27  28
ENDBRANCH  26  27
ENDBRANCH   1  26
TORSDOF 19
ENDMDL
MODEL 2
REMARK VINA RESULT:     -11.1      4.149      9.787
REMARK SMILES Cc1noc(C)c1[C@H](C)NC(=O)NC[C@@](C)(O)C(=O)OCCOCCOC(=O)c1ccc(-c2c3nc(c(-c4c(F)c(F)c(F)c(F)c4F)c4ccc([nH]4)c(-c4c(F)c(F)c(F)c(F)c4F)c4nc(c(-c5c(F)c(F)c(F)c(F)c5F)c5ccc2[nH]5)C=C4)C=C3)cc1
REMARK SMILES IDX 22 1 21 2 20 3 18 4 19 5 15 6 16 7 14 8 13 9 10 10 11 11
REMARK SMILES IDX 12 13 8 15 9 16 7 17 1 18 2 19 3 20 4 21 5 22 6 23 17 24
REMARK SMILES IDX 23 26 24 27 25 28 26 29 27 30 28 31 29 32 30 33 91 34 31 35
REMARK SMILES IDX 90 36 32 37 33 38 34 39 84 40 35 41 89 42 83 43 85 44 36 45
REMARK SMILES IDX 88 46 82 47 81 48 37 50 69 51 49 52 68 53 50 54 53 55 67 56
REMARK SMILES IDX 86 57 51 58 52 59 66 61 87 62 54 63 38 64 39 65 47 66 40 67
REMARK SMILES IDX 41 68 45 69 48 70 42 71 43 72 46 73 44 74 70 75 71 76 79 77
REMARK SMILES IDX 72 78 73 79 77 80 80 81 74 82 75 83 78 84 76 85 55 86 56 87
REMARK SMILES IDX 64 88 57 89 58 90 62 91 65 92 59 93 60 94 63 95 61 96
REMARK H PARENT 10 12 13 14 17 25 85 49 53 60
REMARK Flexibility Score: inf
ROOT
ATOM      1  C   UNL A   1      35.177  22.644  23.848  1.00  0.00     0.202 C 
ENDROOT
BRANCH   1   2
ATOM      2  C   UNL A   1      33.689  22.781  23.537  1.00  0.00     0.261 C 
BRANCH   2   3
ATOM      3  O   UNL A   1      32.991  22.976  24.776  1.00  0.00    -0.461 OA
BRANCH   3   4
ATOM      4  C   UNL A   1      31.653  23.207  24.678  1.00  0.00     0.339 C 
ATOM      5  O   UNL A   1      31.051  23.277  23.615  1.00  0.00    -0.249 OA
BRANCH   4   6
ATOM      6  C   UNL A   1      31.030  23.465  26.075  1.00  0.00     0.176 C 
ATOM      7  C   UNL A   1      32.144  23.144  27.080  1.00  0.00     0.057 C 
BRANCH   6   8
ATOM      8  C   UNL A   1      30.479  24.909  26.252  1.00  0.00     0.164 C 
BRANCH   8   9
ATOM      9  N   UNL A   1      29.526  25.387  25.271  1.00  0.00    -0.335 N 
ATOM     10  N   UNL A   1      30.468  27.185  24.035  1.00  0.00    -0.331 N 
ATOM     11  C   UNL A   1      29.489  26.329  24.325  1.00  0.00     0.315 C 
ATOM     12  H   UNL A   1      30.205  27.823  23.333  1.00  0.00     0.165 HD
ATOM     13  O   UNL A   1      28.453  26.416  23.661  1.00  0.00    -0.249 OA
ATOM     14  H   UNL A   1      28.682  24.883  25.311  1.00  0.00     0.165 HD
BRANCH  10  15
ATOM     15  C   UNL A   1      31.826  27.414  24.495  1.00  0.00     0.116 C 
ATOM     16  C   UNL A   1      32.769  27.264  23.303  1.00  0.00     0.036 C 
BRANCH  15  17
ATOM     17  C   UNL A   1      31.893  28.746  25.197  1.00  0.00     0.040 A 
ATOM     18  C   UNL A   1      30.073  30.126  23.875  1.00  0.00     0.071 C 
ATOM     19  C   UNL A   1      31.109  29.915  24.917  1.00  0.00     0.086 A 
ATOM     20  N   UNL A   1      31.403  30.920  25.749  1.00  0.00    -0.085 NA
ATOM     21  O   UNL A   1      32.340  30.425  26.620  1.00  0.00    -0.361 OA
ATOM     22  C   UNL A   1      32.624  29.134  26.309  1.00  0.00     0.139 A 
ATOM     23  C   UNL A   1      33.603  28.495  27.210  1.00  0.00     0.091 C 
ENDBRANCH  15  17
ENDBRANCH  10  15
ENDBRANCH   8   9
ENDBRANCH   6   8
BRANCH   6  24
ATOM     24  O   UNL A   1      29.923  22.587  26.364  1.00  0.00    -0.377 OA
ATOM     25  H   UNL A   1      30.038  22.200  27.246  1.00  0.00     0.212 HD
ENDBRANCH   6  24
ENDBRANCH   4   6
ENDBRANCH   3   4
ENDBRANCH   2   3
ENDBRANCH   1   2
BRANCH   1  26
ATOM     26  O   UNL A   1      35.425  21.998  25.098  1.00  0.00    -0.374 OA
BRANCH  26  27
ATOM     27  C   UNL A   1      35.851  20.636  24.994  1.00  0.00     0.202 C 
BRANCH  27  28
ATOM     28  C   UNL A   1      37.363  20.544  24.798  1.00  0.00     0.261 C 
BRANCH  28  29
ATOM     29  O   UNL A   1      37.962  21.584  25.585  1.00  0.00    -0.460 OA
BRANCH  29  30
ATOM     30  C   UNL A   1      39.156  21.255  26.130  1.00  0.00     0.338 C 
ATOM     31  O   UNL A   1      39.764  20.206  26.004  1.00  0.00    -0.246 OA
BRANCH  30  32
ATOM     32  C   UNL A   1      39.728  22.468  26.751  1.00  0.00     0.060 A 
ATOM     33  C   UNL A   1      39.148  23.705  26.432  1.00  0.00     0.016 A 
ATOM     34  C   UNL A   1      40.780  22.395  27.669  1.00  0.00     0.016 A 
ATOM     35  C   UNL A   1      39.649  24.879  26.990  1.00  0.00     0.010 A 
ATOM     36  C   UNL A   1      41.288  23.566  28.221  1.00  0.00     0.010 A 
ATOM     37  C   UNL A   1      40.753  24.811  27.847  1.00  0.00    -0.014 A 
BRANCH  37  38
ATOM     38  C   UNL A   1      41.543  26.020  28.154  1.00  0.00     0.031 A 
ATOM     39  C   UNL A   1      40.824  27.138  28.852  1.00  0.00     0.074 A 
ATOM     40  C   UNL A   1      42.817  26.149  27.749  1.00  0.00     0.049 A 
ATOM     41  N   UNL A   1      41.185  28.381  29.028  1.00  0.00    -0.248 NA
ATOM     42  C   UNL A   1      39.494  26.814  29.401  1.00  0.00     0.031 C 
ATOM     43  C   UNL A   1      43.607  25.107  27.096  1.00  0.00     0.029 A 
ATOM     44  N   UNL A   1      43.654  27.233  27.794  1.00  0.00    -0.354 N 
ATOM     45  C   UNL A   1      40.117  28.989  29.674  1.00  0.00     0.074 A 
ATOM     46  C   UNL A   1      39.089  27.991  29.848  1.00  0.00     0.031 C 
ATOM     47  C   UNL A   1      44.808  25.617  26.765  1.00  0.00     0.029 A 
ATOM     48  C   UNL A   1      44.846  27.030  27.143  1.00  0.00     0.049 A 
ATOM     49  H   UNL A   1      43.423  28.075  28.249  1.00  0.00     0.167 HD
ATOM     50  C   UNL A   1      40.009  30.275  30.078  1.00  0.00     0.037 A 
ATOM     51  C   UNL A   1      45.827  27.906  26.850  1.00  0.00     0.037 A 
ATOM     52  C   UNL A   1      41.052  31.247  29.905  1.00  0.00     0.049 A 
ATOM     53  C   UNL A   1      45.669  29.343  27.285  1.00  0.00     0.074 A 
ATOM     54  C   UNL A   1      41.071  32.570  30.301  1.00  0.00     0.029 A 
ATOM     55  N   UNL A   1      42.265  30.991  29.282  1.00  0.00    -0.354 N 
ATOM     56  N   UNL A   1      44.669  29.913  27.915  1.00  0.00    -0.248 NA
ATOM     57  C   UNL A   1      46.773  30.261  26.967  1.00  0.00     0.031 C 
ATOM     58  C   UNL A   1      42.277  33.130  29.874  1.00  0.00     0.029 A 
ATOM     59  C   UNL A   1      43.035  32.139  29.269  1.00  0.00     0.049 A 
ATOM     60  H   UNL A   1      42.536  30.123  28.906  1.00  0.00     0.167 HD
ATOM     61  C   UNL A   1      45.041  31.238  28.109  1.00  0.00     0.074 A 
ATOM     62  C   UNL A   1      46.357  31.389  27.527  1.00  0.00     0.031 C 
ATOM     63  C   UNL A   1      44.361  32.240  28.717  1.00  0.00     0.037 A 
BRANCH  50  64
ATOM     64  C   UNL A   1      38.723  30.708  30.712  1.00  0.00     0.064 A 
ATOM     65  C   UNL A   1      38.565  30.757  32.105  1.00  0.00     0.173 A 
ATOM     66  C   UNL A   1      37.647  31.125  29.914  1.00  0.00     0.173 A 
ATOM     67  F   UNL A   1      39.556  30.349  32.912  1.00  0.00    -0.203 F 
ATOM     68  C   UNL A   1      37.373  31.196  32.674  1.00  0.00     0.198 A 
ATOM     69  C   UNL A   1      36.468  31.592  30.487  1.00  0.00     0.198 A 
ATOM     70  F   UNL A   1      37.745  31.093  28.576  1.00  0.00    -0.203 F 
ATOM     71  F   UNL A   1      37.230  31.200  34.007  1.00  0.00    -0.200 F 
ATOM     72  C   UNL A   1      36.330  31.623  31.866  1.00  0.00     0.200 A 
ATOM     73  F   UNL A   1      35.466  32.013  29.704  1.00  0.00    -0.200 F 
ATOM     74  F   UNL A   1      35.190  32.062  32.416  1.00  0.00    -0.200 F 
ENDBRANCH  50  64
BRANCH  51  75
ATOM     75  C   UNL A   1      47.027  27.468  26.087  1.00  0.00     0.064 A 
ATOM     76  C   UNL A   1      48.161  26.974  26.745  1.00  0.00     0.173 A 
ATOM     77  C   UNL A   1      47.082  27.571  24.689  1.00  0.00     0.173 A 
ATOM     78  F   UNL A   1      48.169  26.877  28.084  1.00  0.00    -0.203 F 
ATOM     79  C   UNL A   1      49.313  26.628  26.040  1.00  0.00     0.198 A 
ATOM     80  C   UNL A   1      48.223  27.196  23.981  1.00  0.00     0.198 A 
ATOM     81  F   UNL A   1      46.025  28.037  24.007  1.00  0.00    -0.203 F 
ATOM     82  F   UNL A   1      50.403  26.215  26.702  1.00  0.00    -0.200 F 
ATOM     83  C   UNL A   1      49.342  26.736  24.658  1.00  0.00     0.200 A 
ATOM     84  F   UNL A   1      48.240  27.289  22.644  1.00  0.00    -0.200 F 
ATOM     85  F   UNL A   1      50.450  26.407  23.980  1.00  0.00    -0.200 F 
ENDBRANCH  51  75
BRANCH  63  86
ATOM     86  C   UNL A   1      45.050  33.564  28.861  1.00  0.00     0.064 A 
ATOM     87  C   UNL A   1      44.885  34.590  27.922  1.00  0.00     0.173 A 
ATOM     88  C   UNL A   1      45.806  33.835  30.013  1.00  0.00     0.173 A 
ATOM     89  F   UNL A   1      44.180  34.373  26.802  1.00  0.00    -0.203 F 
ATOM     90  C   UNL A   1      45.463  35.839  28.126  1.00  0.00     0.198 A 
ATOM     91  C   UNL A   1      46.356  35.093  30.227  1.00  0.00     0.198 A 
ATOM     92  F   UNL A   1      45.981  32.886  30.946  1.00  0.00    -0.203 F 
ATOM     93  F   UNL A   1      45.318  36.800  27.202  1.00  0.00    -0.200 F 
ATOM     94  C   UNL A   1      46.187  36.094  29.282  1.00  0.00     0.200 A 
ATOM     95  F   UNL A   1      47.039  35.342  31.353  1.00  0.00    -0.200 F 
ATOM     96  F   UNL A   1      46.722  37.306  29.486  1.00  0.00    -0.200 F 
ENDBRANCH  63  86
ENDBRANCH  37  38
ENDBRANCH  30  32
ENDBRANCH  29  30
ENDBRANCH  28  29
ENDBRANCH  27  28
ENDBRANCH  26  27
ENDBRANCH   1  26
TORSDOF 19
ENDMDL
MODEL 3
REMARK VINA RESULT:     -11.1      1.381      7.501
REMARK SMILES Cc1noc(C)c1[C@H](C)NC(=O)NC[C@@](C)(O)C(=O)OCCOCCOC(=O)c1ccc(-c2c3nc(c(-c4c(F)c(F)c(F)c(F)c4F)c4ccc([nH]4)c(-c4c(F)c(F)c(F)c(F)c4F)c4nc(c(-c5c(F)c(F)c(F)c(F)c5F)c5ccc2[nH]5)C=C4)C=C3)cc1
REMARK SMILES IDX 22 1 21 2 20 3 18 4 19 5 15 6 16 7 14 8 13 9 10 10 11 11
REMARK SMILES IDX 12 13 8 15 9 16 7 17 1 18 2 19 3 20 4 21 5 22 6 23 17 24
REMARK SMILES IDX 23 26 24 27 25 28 26 29 27 30 28 31 29 32 30 33 91 34 31 35
REMARK SMILES IDX 90 36 32 37 33 38 34 39 84 40 35 41 89 42 83 43 85 44 36 45
REMARK SMILES IDX 88 46 82 47 81 48 37 50 69 51 49 52 68 53 50 54 53 55 67 56
REMARK SMILES IDX 86 57 51 58 52 59 66 61 87 62 54 63 38 64 39 65 47 66 40 67
REMARK SMILES IDX 41 68 45 69 48 70 42 71 43 72 46 73 44 74 70 75 71 76 79 77
REMARK SMILES IDX 72 78 73 79 77 80 80 81 74 82 75 83 78 84 76 85 55 86 56 87
REMARK SMILES IDX 64 88 57 89 58 90 62 91 65 92 59 93 60 94 63 95 61 96
REMARK H PARENT 10 12 13 14 17 25 85 49 53 60
REMARK Flexibility Score: inf
ROOT
ATOM      1  C   UNL A   1      31.587  30.226  25.450  1.00  0.00     0.202 C 
ENDROOT
BRANCH   1   2
ATOM      2  C   UNL A   1      30.681  29.721  24.330  1.00  0.00     0.261 C 
BRANCH   2   3
ATOM      3  O   UNL A   1      31.107  28.398  23.975  1.00  0.00    -0.461 OA
BRANCH   3   4
ATOM      4  C   UNL A   1      30.831  28.002  22.702  1.00  0.00     0.339 C 
ATOM      5  O   UNL A   1      30.046  28.583  21.964  1.00  0.00    -0.249 OA
BRANCH   4   6
ATOM      6  C   UNL A   1      31.562  26.677  22.361  1.00  0.00     0.176 C 
ATOM      7  C   UNL A   1      33.034  26.925  22.712  1.00  0.00     0.057 C 
BRANCH   6   8
ATOM      8  C   UNL A   1      30.982  25.439  23.104  1.00  0.00     0.164 C 
BRANCH   8   9
ATOM      9  N   UNL A   1      30.892  25.507  24.549  1.00  0.00    -0.335 N 
ATOM     10  N   UNL A   1      32.466  24.022  25.531  1.00  0.00    -0.331 N 
ATOM     11  C   UNL A   1      31.499  24.937  25.593  1.00  0.00     0.315 C 
ATOM     12  H   UNL A   1      32.733  23.707  26.425  1.00  0.00     0.165 HD
ATOM     13  O   UNL A   1      31.129  25.287  26.717  1.00  0.00    -0.249 OA
ATOM     14  H   UNL A   1      30.200  26.144  24.838  1.00  0.00     0.165 HD
BRANCH  10  15
ATOM     15  C   UNL A   1      33.224  23.373  24.477  1.00  0.00     0.116 C 
ATOM     16  C   UNL A   1      34.674  23.847  24.566  1.00  0.00     0.036 C 
BRANCH  15  17
ATOM     17  C   UNL A   1      33.034  21.882  24.577  1.00  0.00     0.040 A 
ATOM     18  C   UNL A   1      33.760  21.427  27.073  1.00  0.00     0.071 C 
ATOM     19  C   UNL A   1      33.264  21.052  25.726  1.00  0.00     0.086 A 
ATOM     20  N   UNL A   1      32.970  19.771  25.478  1.00  0.00    -0.085 NA
ATOM     21  O   UNL A   1      32.495  19.736  24.192  1.00  0.00    -0.361 OA
ATOM     22  C   UNL A   1      32.516  20.984  23.657  1.00  0.00     0.139 A 
ATOM     23  C   UNL A   1      31.994  21.061  22.278  1.00  0.00     0.091 C 
ENDBRANCH  15  17
ENDBRANCH  10  15
ENDBRANCH   8   9
ENDBRANCH   6   8
BRANCH   6  24
ATOM     24  O   UNL A   1      31.502  26.351  20.958  1.00  0.00    -0.377 OA
ATOM     25  H   UNL A   1      31.452  25.389  20.851  1.00  0.00     0.212 HD
ENDBRANCH   6  24
ENDBRANCH   4   6
ENDBRANCH   3   4
ENDBRANCH   2   3
ENDBRANCH   1   2
BRANCH   1  26
ATOM     26  O   UNL A   1      31.272  31.558  25.859  1.00  0.00    -0.374 OA
BRANCH  26  27
ATOM     27  C   UNL A   1      31.719  31.901  27.174  1.00  0.00     0.202 C 
BRANCH  27  28
ATOM     28  C   UNL A   1      32.120  33.373  27.254  1.00  0.00     0.261 C 
BRANCH  28  29
ATOM     29  O   UNL A   1      33.545  33.439  27.100  1.00  0.00    -0.460 OA
BRANCH  29  30
ATOM     30  C   UNL A   1      34.195  33.992  28.149  1.00  0.00     0.338 C 
ATOM     31  O   UNL A   1      33.862  34.972  28.794  1.00  0.00    -0.246 OA
BRANCH  30  32
ATOM     32  C   UNL A   1      35.294  33.085  28.541  1.00  0.00     0.060 A 
ATOM     33  C   UNL A   1      34.984  31.731  28.748  1.00  0.00     0.016 A 
ATOM     34  C   UNL A   1      36.612  33.535  28.653  1.00  0.00     0.016 A 
ATOM     35  C   UNL A   1      35.983  30.833  29.119  1.00  0.00     0.010 A 
ATOM     36  C   UNL A   1      37.609  32.642  29.031  1.00  0.00     0.010 A 
ATOM     37  C   UNL A   1      37.287  31.302  29.308  1.00  0.00    -0.014 A 
BRANCH  37  38
ATOM     38  C   UNL A   1      38.277  30.497  30.051  1.00  0.00     0.031 A 
ATOM     39  C   UNL A   1      38.477  30.839  31.499  1.00  0.00     0.074 A 
ATOM     40  C   UNL A   1      39.025  29.564  29.440  1.00  0.00     0.049 A 
ATOM     41  N   UNL A   1      39.426  30.475  32.319  1.00  0.00    -0.248 NA
ATOM     42  C   UNL A   1      37.481  31.748  32.096  1.00  0.00     0.031 C 
ATOM     43  C   UNL A   1      38.880  29.139  28.049  1.00  0.00     0.029 A 
ATOM     44  N   UNL A   1      40.088  28.835  29.909  1.00  0.00    -0.354 N 
ATOM     45  C   UNL A   1      39.159  31.136  33.511  1.00  0.00     0.074 A 
ATOM     46  C   UNL A   1      37.973  31.933  33.311  1.00  0.00     0.031 C 
ATOM     47  C   UNL A   1      39.847  28.249  27.765  1.00  0.00     0.029 A 
ATOM     48  C   UNL A   1      40.702  28.081  28.939  1.00  0.00     0.049 A 
ATOM     49  H   UNL A   1      40.381  28.852  30.848  1.00  0.00     0.167 HD
ATOM     50  C   UNL A   1      39.855  31.080  34.669  1.00  0.00     0.037 A 
ATOM     51  C   UNL A   1      41.849  27.376  28.996  1.00  0.00     0.037 A 
ATOM     52  C   UNL A   1      41.026  30.268  34.849  1.00  0.00     0.049 A 
ATOM     53  C   UNL A   1      42.624  27.356  30.291  1.00  0.00     0.074 A 
ATOM     54  C   UNL A   1      41.796  30.106  35.984  1.00  0.00     0.029 A 
ATOM     55  N   UNL A   1      41.592  29.480  33.857  1.00  0.00    -0.354 N 
ATOM     56  N   UNL A   1      42.360  27.961  31.425  1.00  0.00    -0.248 NA
ATOM     57  C   UNL A   1      43.858  26.556  30.318  1.00  0.00     0.031 C 
ATOM     58  C   UNL A   1      42.859  29.256  35.666  1.00  0.00     0.029 A 
ATOM     59  C   UNL A   1      42.712  28.840  34.351  1.00  0.00     0.049 A 
ATOM     60  H   UNL A   1      41.246  29.390  32.940  1.00  0.00     0.167 HD
ATOM     61  C   UNL A   1      43.364  27.582  32.308  1.00  0.00     0.074 A 
ATOM     62  C   UNL A   1      44.245  26.695  31.578  1.00  0.00     0.031 C 
ATOM     63  C   UNL A   1      43.541  27.928  33.606  1.00  0.00     0.037 A 
BRANCH  50  64
ATOM     64  C   UNL A   1      39.392  31.933  35.810  1.00  0.00     0.064 A 
ATOM     65  C   UNL A   1      39.863  33.241  35.995  1.00  0.00     0.173 A 
ATOM     66  C   UNL A   1      38.426  31.451  36.706  1.00  0.00     0.173 A 
ATOM     67  F   UNL A   1      40.802  33.743  35.178  1.00  0.00    -0.203 F 
ATOM     68  C   UNL A   1      39.394  34.030  37.042  1.00  0.00     0.198 A 
ATOM     69  C   UNL A   1      37.936  32.252  37.733  1.00  0.00     0.198 A 
ATOM     70  F   UNL A   1      37.946  30.205  36.576  1.00  0.00    -0.203 F 
ATOM     71  F   UNL A   1      39.884  35.264  37.221  1.00  0.00    -0.200 F 
ATOM     72  C   UNL A   1      38.423  33.539  37.903  1.00  0.00     0.200 A 
ATOM     73  F   UNL A   1      36.992  31.779  38.557  1.00  0.00    -0.200 F 
ATOM     74  F   UNL A   1      37.960  34.306  38.899  1.00  0.00    -0.200 F 
ENDBRANCH  50  64
BRANCH  51  75
ATOM     75  C   UNL A   1      42.354  26.660  27.794  1.00  0.00     0.064 A 
ATOM     76  C   UNL A   1      42.001  25.326  27.546  1.00  0.00     0.173 A 
ATOM     77  C   UNL A   1      43.231  27.277  26.889  1.00  0.00     0.173 A 
ATOM     78  F   UNL A   1      41.184  24.682  28.394  1.00  0.00    -0.203 F 
ATOM     79  C   UNL A   1      42.528  24.629  26.460  1.00  0.00     0.198 A 
ATOM     80  C   UNL A   1      43.732  26.589  25.785  1.00  0.00     0.198 A 
ATOM     81  F   UNL A   1      43.602  28.553  27.076  1.00  0.00    -0.203 F 
ATOM     82  F   UNL A   1      42.219  23.337  26.283  1.00  0.00    -0.200 F 
ATOM     83  C   UNL A   1      43.390  25.262  25.578  1.00  0.00     0.200 A 
ATOM     84  F   UNL A   1      44.555  27.210  24.928  1.00  0.00    -0.200 F 
ATOM     85  F   UNL A   1      43.899  24.591  24.536  1.00  0.00    -0.200 F 
ENDBRANCH  51  75
BRANCH  63  86
ATOM     86  C   UNL A   1      44.677  27.292  34.349  1.00  0.00     0.064 A 
ATOM     87  C   UNL A   1      45.929  27.910  34.458  1.00  0.00     0.173 A 
ATOM     88  C   UNL A   1      44.469  26.090  35.044  1.00  0.00     0.173 A 
ATOM     89  F   UNL A   1      46.177  29.054  33.803  1.00  0.00    -0.203 F 
ATOM     90  C   UNL A   1      46.939  27.341  35.229  1.00  0.00     0.198 A 
ATOM     91  C   UNL A   1      45.470  25.540  35.837  1.00  0.00     0.198 A 
ATOM     92  F   UNL A   1      43.282  25.467  34.979  1.00  0.00    -0.203 F 
ATOM     93  F   UNL A   1      48.139  27.932  35.298  1.00  0.00    -0.200 F 
ATOM     94  C   UNL A   1      46.705  26.165  35.927  1.00  0.00     0.200 A 
ATOM     95  F   UNL A   1      45.236  24.414  36.525  1.00  0.00    -0.200 F 
ATOM     96  F   UNL A   1      47.672  25.632  36.687  1.00  0.00    -0.200 F 
ENDBRANCH  63  86
ENDBRANCH  37  38
ENDBRANCH  30  32
ENDBRANCH  29  30
ENDBRANCH  28  29
ENDBRANCH  27  28
ENDBRANCH  26  27
ENDBRANCH   1  26
TORSDOF 19
ENDMDL
