MODEL 1
REMARK VINA RESULT:     -11.9      0.000      0.000
REMARK SMILES Cc1nn(C)c(=O)c(C(=O)N2CCCC[C@H]2C(=O)OCCOCCOC(=O)c2ccc(-c3c4nc(c(-c5c(F)c(F)c(F)c(F)c5F)c5ccc([nH]5)c(-c5c(F)c(F)c(F)c(F)c5F)c5nc(c(-c6c(F)c(F)c(F)c(F)c6F)c6ccc3[nH]6)C=C5)C=C4)cc2)c1C
REMARK SMILES IDX 22 1 21 2 20 3 19 4 17 5 18 6 16 7 11 8 12 9 13 10 15 11
REMARK SMILES IDX 14 12 9 13 10 14 8 15 1 16 2 17 3 18 91 19 4 20 92 21 5 22
REMARK SMILES IDX 6 23 7 24 23 25 24 26 25 27 26 28 27 29 28 30 29 31 90 32
REMARK SMILES IDX 30 33 89 34 31 35 32 36 33 37 83 38 34 39 88 40 82 41 84 42
REMARK SMILES IDX 35 43 87 44 81 45 80 46 36 48 68 49 48 50 67 51 49 52 52 53
REMARK SMILES IDX 66 54 85 55 50 56 51 57 65 59 86 60 53 61 37 62 38 63 46 64
REMARK SMILES IDX 39 65 40 66 44 67 47 68 41 69 42 70 45 71 43 72 69 73 70 74
REMARK SMILES IDX 78 75 71 76 72 77 76 78 79 79 73 80 74 81 77 82 75 83 54 84
REMARK SMILES IDX 55 85 63 86 56 87 57 88 61 89 64 90 58 91 59 92 62 93 60 94
REMARK H PARENT 84 47 52 58
REMARK Flexibility Score: inf
ROOT
ATOM      1  O   UNL A   1      34.606  20.276  24.836  1.00  0.00    -0.374 OA
ENDROOT
BRANCH   1   2
ATOM      2  C   UNL A   1      33.339  20.312  25.490  1.00  0.00     0.202 C 
BRANCH   2   3
ATOM      3  C   UNL A   1      32.153  20.700  24.611  1.00  0.00     0.261 C 
BRANCH   3   4
ATOM      4  O   UNL A   1      31.947  22.128  24.633  1.00  0.00    -0.462 OA
BRANCH   4   5
ATOM      5  C   UNL A   1      32.412  22.787  23.533  1.00  0.00     0.328 C 
ATOM      6  O   UNL A   1      32.640  22.230  22.467  1.00  0.00    -0.250 OA
BRANCH   5   7
ATOM      7  C   UNL A   1      32.588  24.311  23.809  1.00  0.00     0.195 C 
ATOM      8  N   UNL A   1      32.548  24.619  25.260  1.00  0.00    -0.325 N 
ATOM      9  C   UNL A   1      33.665  24.047  26.037  1.00  0.00     0.121 C 
ATOM     10  C   UNL A   1      35.035  24.382  25.450  1.00  0.00     0.022 C 
ATOM     11  C   UNL A   1      33.931  24.773  23.217  1.00  0.00     0.037 C 
ATOM     12  C   UNL A   1      35.127  24.157  23.945  1.00  0.00     0.005 C 
BRANCH   8  13
ATOM     13  C   UNL A   1      31.597  25.337  25.983  1.00  0.00     0.260 C 
ATOM     14  O   UNL A   1      30.974  24.786  26.898  1.00  0.00    -0.269 OA
BRANCH  13  15
ATOM     15  C   UNL A   1      31.211  26.769  25.721  1.00  0.00     0.111 A 
ATOM     16  C   UNL A   1      32.222  30.408  26.003  1.00  0.00     0.069 C 
ATOM     17  C   UNL A   1      31.626  29.137  25.446  1.00  0.00     0.062 A 
ATOM     18  N   UNL A   1      30.912  29.265  24.379  1.00  0.00    -0.175 NA
ATOM     19  C   UNL A   1      31.945  27.833  26.104  1.00  0.00    -0.010 A 
ATOM     20  N   UNL A   1      30.286  28.151  23.909  1.00  0.00    -0.232 N 
ATOM     21  C   UNL A   1      33.157  27.839  26.972  1.00  0.00     0.047 C 
ATOM     22  C   UNL A   1      29.604  28.317  22.636  1.00  0.00     0.178 C 
ATOM     23  C   UNL A   1      30.174  26.976  24.644  1.00  0.00     0.279 A 
ATOM     24  O   UNL A   1      29.312  26.126  24.425  1.00  0.00    -0.267 OA
ENDBRANCH  13  15
ENDBRANCH   8  13
ENDBRANCH   5   7
ENDBRANCH   4   5
ENDBRANCH   3   4
ENDBRANCH   2   3
ENDBRANCH   1   2
BRANCH   1  25
ATOM     25  C   UNL A   1      35.728  20.810  25.534  1.00  0.00     0.202 C 
BRANCH  25  26
ATOM     26  C   UNL A   1      37.108  20.538  24.924  1.00  0.00     0.261 C 
BRANCH  26  27
ATOM     27  O   UNL A   1      38.045  21.619  25.094  1.00  0.00    -0.460 OA
BRANCH  27  28
ATOM     28  C   UNL A   1      39.051  21.355  25.962  1.00  0.00     0.338 C 
ATOM     29  O   UNL A   1      39.599  20.278  26.163  1.00  0.00    -0.246 OA
BRANCH  28  30
ATOM     30  C   UNL A   1      39.530  22.590  26.602  1.00  0.00     0.060 A 
ATOM     31  C   UNL A   1      39.014  23.811  26.148  1.00  0.00     0.016 A 
ATOM     32  C   UNL A   1      40.591  22.559  27.509  1.00  0.00     0.016 A 
ATOM     33  C   UNL A   1      39.588  25.009  26.569  1.00  0.00     0.010 A 
ATOM     34  C   UNL A   1      41.171  23.765  27.924  1.00  0.00     0.010 A 
ATOM     35  C   UNL A   1      40.694  24.992  27.428  1.00  0.00    -0.014 A 
BRANCH  35  36
ATOM     36  C   UNL A   1      41.431  26.251  27.698  1.00  0.00     0.031 A 
ATOM     37  C   UNL A   1      40.753  27.354  28.461  1.00  0.00     0.074 A 
ATOM     38  C   UNL A   1      42.708  26.395  27.303  1.00  0.00     0.049 A 
ATOM     39  N   UNL A   1      41.217  28.529  28.804  1.00  0.00    -0.248 NA
ATOM     40  C   UNL A   1      39.376  27.096  28.908  1.00  0.00     0.031 C 
ATOM     41  C   UNL A   1      43.492  25.372  26.620  1.00  0.00     0.029 A 
ATOM     42  N   UNL A   1      43.566  27.460  27.413  1.00  0.00    -0.354 N 
ATOM     43  C   UNL A   1      40.200  29.140  29.524  1.00  0.00     0.074 A 
ATOM     44  C   UNL A   1      39.077  28.228  29.530  1.00  0.00     0.031 C 
ATOM     45  C   UNL A   1      44.708  25.868  26.337  1.00  0.00     0.029 A 
ATOM     46  C   UNL A   1      44.785  27.245  26.820  1.00  0.00     0.049 A 
ATOM     47  H   UNL A   1      43.330  28.298  27.873  1.00  0.00     0.167 HD
ATOM     48  C   UNL A   1      40.212  30.344  30.145  1.00  0.00     0.037 A 
ATOM     49  C   UNL A   1      45.842  28.068  26.678  1.00  0.00     0.037 A 
ATOM     50  C   UNL A   1      41.328  31.253  30.132  1.00  0.00     0.049 A 
ATOM     51  C   UNL A   1      45.791  29.445  27.280  1.00  0.00     0.074 A 
ATOM     52  C   UNL A   1      41.438  32.490  30.740  1.00  0.00     0.029 A 
ATOM     53  N   UNL A   1      42.524  31.024  29.469  1.00  0.00    -0.354 N 
ATOM     54  N   UNL A   1      44.836  30.003  27.981  1.00  0.00    -0.248 NA
ATOM     55  C   UNL A   1      46.970  30.302  27.083  1.00  0.00     0.031 C 
ATOM     56  C   UNL A   1      42.683  33.032  30.408  1.00  0.00     0.029 A 
ATOM     57  C   UNL A   1      43.368  32.111  29.631  1.00  0.00     0.049 A 
ATOM     58  H   UNL A   1      42.742  30.210  28.958  1.00  0.00     0.167 HD
ATOM     59  C   UNL A   1      45.305  31.260  28.336  1.00  0.00     0.074 A 
ATOM     60  C   UNL A   1      46.634  31.385  27.773  1.00  0.00     0.031 C 
ATOM     61  C   UNL A   1      44.692  32.219  29.071  1.00  0.00     0.037 A 
BRANCH  48  62
ATOM     62  C   UNL A   1      38.979  30.752  30.892  1.00  0.00     0.064 A 
ATOM     63  C   UNL A   1      38.840  30.498  32.265  1.00  0.00     0.173 A 
ATOM     64  C   UNL A   1      37.953  31.456  30.246  1.00  0.00     0.173 A 
ATOM     65  F   UNL A   1      39.790  29.819  32.924  1.00  0.00    -0.203 F 
ATOM     66  C   UNL A   1      37.711  30.921  32.960  1.00  0.00     0.198 A 
ATOM     67  C   UNL A   1      36.835  31.898  30.950  1.00  0.00     0.198 A 
ATOM     68  F   UNL A   1      38.040  31.727  28.935  1.00  0.00    -0.203 F 
ATOM     69  F   UNL A   1      37.585  30.640  34.265  1.00  0.00    -0.200 F 
ATOM     70  C   UNL A   1      36.714  31.628  32.304  1.00  0.00     0.200 A 
ATOM     71  F   UNL A   1      35.878  32.590  30.317  1.00  0.00    -0.200 F 
ATOM     72  F   UNL A   1      35.632  32.044  32.978  1.00  0.00    -0.200 F 
ENDBRANCH  48  62
BRANCH  49  73
ATOM     73  C   UNL A   1      47.047  27.590  25.953  1.00  0.00     0.064 A 
ATOM     74  C   UNL A   1      47.134  27.691  24.558  1.00  0.00     0.173 A 
ATOM     75  C   UNL A   1      48.143  27.051  26.641  1.00  0.00     0.173 A 
ATOM     76  F   UNL A   1      46.102  28.182  23.857  1.00  0.00    -0.203 F 
ATOM     77  C   UNL A   1      48.274  27.270  23.878  1.00  0.00     0.198 A 
ATOM     78  C   UNL A   1      49.291  26.648  25.963  1.00  0.00     0.198 A 
ATOM     79  F   UNL A   1      48.106  26.937  27.976  1.00  0.00    -0.203 F 
ATOM     80  F   UNL A   1      48.325  27.357  22.542  1.00  0.00    -0.200 F 
ATOM     81  C   UNL A   1      49.354  26.756  24.581  1.00  0.00     0.200 A 
ATOM     82  F   UNL A   1      50.336  26.165  26.646  1.00  0.00    -0.200 F 
ATOM     83  F   UNL A   1      50.456  26.363  23.927  1.00  0.00    -0.200 F 
ENDBRANCH  49  73
BRANCH  61  84
ATOM     84  C   UNL A   1      45.450  33.484  29.341  1.00  0.00     0.064 A 
ATOM     85  C   UNL A   1      46.321  33.597  30.432  1.00  0.00     0.173 A 
ATOM     86  C   UNL A   1      45.371  34.562  28.445  1.00  0.00     0.173 A 
ATOM     87  F   UNL A   1      46.421  32.599  31.323  1.00  0.00    -0.203 F 
ATOM     88  C   UNL A   1      47.082  34.748  30.622  1.00  0.00     0.198 A 
ATOM     89  C   UNL A   1      46.152  35.700  28.624  1.00  0.00     0.198 A 
ATOM     90  F   UNL A   1      44.557  34.498  27.380  1.00  0.00    -0.203 F 
ATOM     91  F   UNL A   1      47.891  34.846  31.686  1.00  0.00    -0.200 F 
ATOM     92  C   UNL A   1      47.006  35.793  29.713  1.00  0.00     0.200 A 
ATOM     93  F   UNL A   1      46.087  36.702  27.736  1.00  0.00    -0.200 F 
ATOM     94  F   UNL A   1      47.754  36.891  29.886  1.00  0.00    -0.200 F 
ENDBRANCH  61  84
ENDBRANCH  35  36
ENDBRANCH  28  30
ENDBRANCH  27  28
ENDBRANCH  26  27
ENDBRANCH  25  26
ENDBRANCH   1  25
TORSDOF 16
ENDMDL
MODEL 2
REMARK VINA RESULT:     -11.8      4.026      7.062
REMARK SMILES Cc1nn(C)c(=O)c(C(=O)N2CCCC[C@H]2C(=O)OCCOCCOC(=O)c2ccc(-c3c4nc(c(-c5c(F)c(F)c(F)c(F)c5F)c5ccc([nH]5)c(-c5c(F)c(F)c(F)c(F)c5F)c5nc(c(-c6c(F)c(F)c(F)c(F)c6F)c6ccc3[nH]6)C=C5)C=C4)cc2)c1C
REMARK SMILES IDX 22 1 21 2 20 3 19 4 17 5 18 6 16 7 11 8 12 9 13 10 15 11
REMARK SMILES IDX 14 12 9 13 10 14 8 15 1 16 2 17 3 18 91 19 4 20 92 21 5 22
REMARK SMILES IDX 6 23 7 24 23 25 24 26 25 27 26 28 27 29 28 30 29 31 90 32
REMARK SMILES IDX 30 33 89 34 31 35 32 36 33 37 83 38 34 39 88 40 82 41 84 42
REMARK SMILES IDX 35 43 87 44 81 45 80 46 36 48 68 49 48 50 67 51 49 52 52 53
REMARK SMILES IDX 66 54 85 55 50 56 51 57 65 59 86 60 53 61 37 62 38 63 46 64
REMARK SMILES IDX 39 65 40 66 44 67 47 68 41 69 42 70 45 71 43 72 69 73 70 74
REMARK SMILES IDX 78 75 71 76 72 77 76 78 79 79 73 80 74 81 77 82 75 83 54 84
REMARK SMILES IDX 55 85 63 86 56 87 57 88 61 89 64 90 58 91 59 92 62 93 60 94
REMARK H PARENT 84 47 52 58
REMARK Flexibility Score: inf
ROOT
ATOM      1  O   UNL A   1      30.703  29.495  24.166  1.00  0.00    -0.374 OA
ENDROOT
BRANCH   1   2
ATOM      2  C   UNL A   1      31.171  29.057  22.892  1.00  0.00     0.202 C 
BRANCH   2   3
ATOM      3  C   UNL A   1      32.522  28.347  22.894  1.00  0.00     0.261 C 
BRANCH   3   4
ATOM      4  O   UNL A   1      32.349  26.919  22.791  1.00  0.00    -0.462 OA
BRANCH   4   5
ATOM      5  C   UNL A   1      32.846  26.209  23.845  1.00  0.00     0.328 C 
ATOM      6  O   UNL A   1      33.779  26.601  24.534  1.00  0.00    -0.250 OA
BRANCH   5   7
ATOM      7  C   UNL A   1      32.065  24.877  24.057  1.00  0.00     0.195 C 
ATOM      8  N   UNL A   1      32.054  24.463  25.483  1.00  0.00    -0.325 N 
ATOM      9  C   UNL A   1      31.325  25.380  26.380  1.00  0.00     0.121 C 
ATOM     10  C   UNL A   1      29.910  25.689  25.896  1.00  0.00     0.022 C 
ATOM     11  C   UNL A   1      30.621  25.061  23.560  1.00  0.00     0.037 C 
ATOM     12  C   UNL A   1      29.835  26.054  24.418  1.00  0.00     0.005 C 
BRANCH   8  13
ATOM     13  C   UNL A   1      32.657  23.360  26.085  1.00  0.00     0.260 C 
ATOM     14  O   UNL A   1      32.520  23.170  27.299  1.00  0.00    -0.269 OA
BRANCH  13  15
ATOM     15  C   UNL A   1      33.529  22.356  25.376  1.00  0.00     0.111 A 
ATOM     16  C   UNL A   1      37.065  21.273  24.562  1.00  0.00     0.069 C 
ATOM     17  C   UNL A   1      35.598  21.191  24.910  1.00  0.00     0.062 A 
ATOM     18  N   UNL A   1      35.075  20.012  24.894  1.00  0.00    -0.175 NA
ATOM     19  C   UNL A   1      34.873  22.438  25.307  1.00  0.00    -0.010 A 
ATOM     20  N   UNL A   1      33.734  19.920  25.111  1.00  0.00    -0.232 N 
ATOM     21  C   UNL A   1      35.742  23.564  25.749  1.00  0.00     0.047 C 
ATOM     22  C   UNL A   1      33.217  18.566  25.216  1.00  0.00     0.178 C 
ATOM     23  C   UNL A   1      32.885  21.021  25.093  1.00  0.00     0.279 A 
ATOM     24  O   UNL A   1      31.674  20.932  24.896  1.00  0.00    -0.267 OA
ENDBRANCH  13  15
ENDBRANCH   8  13
ENDBRANCH   5   7
ENDBRANCH   4   5
ENDBRANCH   3   4
ENDBRANCH   2   3
ENDBRANCH   1   2
BRANCH   1  25
ATOM     25  C   UNL A   1      31.620  29.466  25.255  1.00  0.00     0.202 C 
BRANCH  25  26
ATOM     26  C   UNL A   1      31.781  30.765  26.054  1.00  0.00     0.261 C 
BRANCH  26  27
ATOM     27  O   UNL A   1      32.593  30.629  27.235  1.00  0.00    -0.460 OA
BRANCH  27  28
ATOM     28  C   UNL A   1      33.401  31.688  27.484  1.00  0.00     0.338 C 
ATOM     29  O   UNL A   1      33.085  32.871  27.530  1.00  0.00    -0.246 OA
BRANCH  28  30
ATOM     30  C   UNL A   1      34.760  31.243  27.825  1.00  0.00     0.060 A 
ATOM     31  C   UNL A   1      34.954  29.890  28.132  1.00  0.00     0.016 A 
ATOM     32  C   UNL A   1      35.790  32.168  28.008  1.00  0.00     0.016 A 
ATOM     33  C   UNL A   1      36.168  29.464  28.666  1.00  0.00     0.010 A 
ATOM     34  C   UNL A   1      37.007  31.738  28.552  1.00  0.00     0.010 A 
ATOM     35  C   UNL A   1      37.188  30.391  28.916  1.00  0.00    -0.014 A 
BRANCH  35  36
ATOM     36  C   UNL A   1      38.389  29.972  29.678  1.00  0.00     0.031 A 
ATOM     37  C   UNL A   1      38.626  30.534  31.052  1.00  0.00     0.074 A 
ATOM     38  C   UNL A   1      39.243  29.067  29.168  1.00  0.00     0.049 A 
ATOM     39  N   UNL A   1      39.608  30.299  31.884  1.00  0.00    -0.248 NA
ATOM     40  C   UNL A   1      37.615  31.474  31.561  1.00  0.00     0.031 C 
ATOM     41  C   UNL A   1      39.083  28.400  27.880  1.00  0.00     0.029 A 
ATOM     42  N   UNL A   1      40.414  28.558  29.668  1.00  0.00    -0.354 N 
ATOM     43  C   UNL A   1      39.324  31.043  33.021  1.00  0.00     0.074 A 
ATOM     44  C   UNL A   1      38.104  31.774  32.756  1.00  0.00     0.031 C 
ATOM     45  C   UNL A   1      40.137  27.594  27.670  1.00  0.00     0.029 A 
ATOM     46  C   UNL A   1      41.045  27.690  28.811  1.00  0.00     0.049 A 
ATOM     47  H   UNL A   1      40.770  28.792  30.555  1.00  0.00     0.167 HD
ATOM     48  C   UNL A   1      40.008  31.092  34.189  1.00  0.00     0.037 A 
ATOM     49  C   UNL A   1      42.224  27.050  28.931  1.00  0.00     0.037 A 
ATOM     50  C   UNL A   1      41.225  30.369  34.448  1.00  0.00     0.049 A 
ATOM     51  C   UNL A   1      43.024  27.207  30.194  1.00  0.00     0.074 A 
ATOM     52  C   UNL A   1      41.985  30.348  35.603  1.00  0.00     0.029 A 
ATOM     53  N   UNL A   1      41.864  29.547  33.532  1.00  0.00    -0.354 N 
ATOM     54  N   UNL A   1      42.734  27.892  31.273  1.00  0.00    -0.248 NA
ATOM     55  C   UNL A   1      44.308  26.493  30.264  1.00  0.00     0.031 C 
ATOM     56  C   UNL A   1      43.109  29.549  35.373  1.00  0.00     0.029 A 
ATOM     57  C   UNL A   1      43.025  29.035  34.089  1.00  0.00     0.049 A 
ATOM     58  H   UNL A   1      41.543  29.356  32.621  1.00  0.00     0.167 HD
ATOM     59  C   UNL A   1      43.778  27.668  32.160  1.00  0.00     0.074 A 
ATOM     60  C   UNL A   1      44.711  26.783  31.494  1.00  0.00     0.031 C 
ATOM     61  C   UNL A   1      43.941  28.148  33.417  1.00  0.00     0.037 A 
BRANCH  48  62
ATOM     62  C   UNL A   1      39.457  31.958  35.281  1.00  0.00     0.064 A 
ATOM     63  C   UNL A   1      38.576  31.445  36.245  1.00  0.00     0.173 A 
ATOM     64  C   UNL A   1      39.858  33.297  35.401  1.00  0.00     0.173 A 
ATOM     65  F   UNL A   1      38.156  30.174  36.166  1.00  0.00    -0.203 F 
ATOM     66  C   UNL A   1      38.105  32.246  37.282  1.00  0.00     0.198 A 
ATOM     67  C   UNL A   1      39.402  34.088  36.453  1.00  0.00     0.198 A 
ATOM     68  F   UNL A   1      40.702  33.832  34.507  1.00  0.00    -0.203 F 
ATOM     69  F   UNL A   1      37.240  31.744  38.174  1.00  0.00    -0.200 F 
ATOM     70  C   UNL A   1      38.525  33.563  37.389  1.00  0.00     0.200 A 
ATOM     71  F   UNL A   1      39.817  35.357  36.562  1.00  0.00    -0.200 F 
ATOM     72  F   UNL A   1      38.079  34.330  38.394  1.00  0.00    -0.200 F 
ENDBRANCH  48  62
BRANCH  49  73
ATOM     73  C   UNL A   1      42.698  26.181  27.824  1.00  0.00     0.064 A 
ATOM     74  C   UNL A   1      43.550  26.680  26.831  1.00  0.00     0.173 A 
ATOM     75  C   UNL A   1      42.332  24.829  27.755  1.00  0.00     0.173 A 
ATOM     76  F   UNL A   1      43.911  27.972  26.847  1.00  0.00    -0.203 F 
ATOM     77  C   UNL A   1      44.019  25.860  25.808  1.00  0.00     0.198 A 
ATOM     78  C   UNL A   1      42.817  24.004  26.742  1.00  0.00     0.198 A 
ATOM     79  F   UNL A   1      41.520  24.305  28.683  1.00  0.00    -0.203 F 
ATOM     80  F   UNL A   1      44.816  26.367  24.858  1.00  0.00    -0.200 F 
ATOM     81  C   UNL A   1      43.659  24.521  25.768  1.00  0.00     0.200 A 
ATOM     82  F   UNL A   1      42.477  22.709  26.715  1.00  0.00    -0.200 F 
ATOM     83  F   UNL A   1      44.121  23.729  24.791  1.00  0.00    -0.200 F 
ENDBRANCH  49  73
BRANCH  61  84
ATOM     84  C   UNL A   1      45.158  27.712  34.178  1.00  0.00     0.064 A 
ATOM     85  C   UNL A   1      46.335  28.474  34.175  1.00  0.00     0.173 A 
ATOM     86  C   UNL A   1      45.114  26.567  34.989  1.00  0.00     0.173 A 
ATOM     87  F   UNL A   1      46.428  29.569  33.406  1.00  0.00    -0.203 F 
ATOM     88  C   UNL A   1      47.427  28.101  34.953  1.00  0.00     0.198 A 
ATOM     89  C   UNL A   1      46.200  26.212  35.784  1.00  0.00     0.198 A 
ATOM     90  F   UNL A   1      44.008  25.811  35.031  1.00  0.00    -0.203 F 
ATOM     91  F   UNL A   1      48.552  28.830  34.918  1.00  0.00    -0.200 F 
ATOM     92  C   UNL A   1      47.356  26.978  35.765  1.00  0.00     0.200 A 
ATOM     93  F   UNL A   1      46.124  25.135  36.579  1.00  0.00    -0.200 F 
ATOM     94  F   UNL A   1      48.401  26.633  36.528  1.00  0.00    -0.200 F 
ENDBRANCH  61  84
ENDBRANCH  35  36
ENDBRANCH  28  30
ENDBRANCH  27  28
ENDBRANCH  26  27
ENDBRANCH  25  26
ENDBRANCH   1  25
TORSDOF 16
ENDMDL
MODEL 3
REMARK VINA RESULT:     -11.7      4.067      9.585
REMARK SMILES Cc1nn(C)c(=O)c(C(=O)N2CCCC[C@H]2C(=O)OCCOCCOC(=O)c2ccc(-c3c4nc(c(-c5c(F)c(F)c(F)c(F)c5F)c5ccc([nH]5)c(-c5c(F)c(F)c(F)c(F)c5F)c5nc(c(-c6c(F)c(F)c(F)c(F)c6F)c6ccc3[nH]6)C=C5)C=C4)cc2)c1C
REMARK SMILES IDX 22 1 21 2 20 3 19 4 17 5 18 6 16 7 11 8 12 9 13 10 15 11
REMARK SMILES IDX 14 12 9 13 10 14 8 15 1 16 2 17 3 18 91 19 4 20 92 21 5 22
REMARK SMILES IDX 6 23 7 24 23 25 24 26 25 27 26 28 27 29 28 30 29 31 90 32
REMARK SMILES IDX 30 33 89 34 31 35 32 36 33 37 83 38 34 39 88 40 82 41 84 42
REMARK SMILES IDX 35 43 87 44 81 45 80 46 36 48 68 49 48 50 67 51 49 52 52 53
REMARK SMILES IDX 66 54 85 55 50 56 51 57 65 59 86 60 53 61 37 62 38 63 46 64
REMARK SMILES IDX 39 65 40 66 44 67 47 68 41 69 42 70 45 71 43 72 69 73 70 74
REMARK SMILES IDX 78 75 71 76 72 77 76 78 79 79 73 80 74 81 77 82 75 83 54 84
REMARK SMILES IDX 55 85 63 86 56 87 57 88 61 89 64 90 58 91 59 92 62 93 60 94
REMARK H PARENT 84 47 52 58
REMARK Flexibility Score: inf
ROOT
ATOM      1  O   UNL A   1      30.758  29.054  23.936  1.00  0.00    -0.374 OA
ENDROOT
BRANCH   1   2
ATOM      2  C   UNL A   1      31.518  28.955  22.734  1.00  0.00     0.202 C 
BRANCH   2   3
ATOM      3  C   UNL A   1      32.764  28.076  22.812  1.00  0.00     0.261 C 
BRANCH   3   4
ATOM      4  O   UNL A   1      32.405  26.679  22.814  1.00  0.00    -0.462 OA
BRANCH   4   5
ATOM      5  C   UNL A   1      32.902  25.966  23.864  1.00  0.00     0.328 C 
ATOM      6  O   UNL A   1      33.847  26.346  24.543  1.00  0.00    -0.250 OA
BRANCH   5   7
ATOM      7  C   UNL A   1      32.106  24.644  24.087  1.00  0.00     0.195 C 
ATOM      8  N   UNL A   1      32.114  24.226  25.511  1.00  0.00    -0.325 N 
ATOM      9  C   UNL A   1      31.414  25.152  26.424  1.00  0.00     0.121 C 
ATOM     10  C   UNL A   1      29.995  25.483  25.965  1.00  0.00     0.022 C 
ATOM     11  C   UNL A   1      30.656  24.850  23.616  1.00  0.00     0.037 C 
ATOM     12  C   UNL A   1      29.900  25.853  24.489  1.00  0.00     0.005 C 
BRANCH   8  13
ATOM     13  C   UNL A   1      32.711  23.113  26.100  1.00  0.00     0.260 C 
ATOM     14  O   UNL A   1      32.535  22.884  27.303  1.00  0.00    -0.269 OA
BRANCH  13  15
ATOM     15  C   UNL A   1      33.621  22.143  25.392  1.00  0.00     0.111 A 
ATOM     16  C   UNL A   1      37.196  21.072  24.748  1.00  0.00     0.069 C 
ATOM     17  C   UNL A   1      35.708  20.986  24.994  1.00  0.00     0.062 A 
ATOM     18  N   UNL A   1      35.180  19.815  24.875  1.00  0.00    -0.175 NA
ATOM     19  C   UNL A   1      34.967  22.215  25.415  1.00  0.00    -0.010 A 
ATOM     20  N   UNL A   1      33.827  19.724  24.999  1.00  0.00    -0.232 N 
ATOM     21  C   UNL A   1      35.813  23.305  25.979  1.00  0.00     0.047 C 
ATOM     22  C   UNL A   1      33.294  18.372  24.989  1.00  0.00     0.178 C 
ATOM     23  C   UNL A   1      32.988  20.834  24.990  1.00  0.00     0.279 A 
ATOM     24  O   UNL A   1      31.792  20.769  24.710  1.00  0.00    -0.267 OA
ENDBRANCH  13  15
ENDBRANCH   8  13
ENDBRANCH   5   7
ENDBRANCH   4   5
ENDBRANCH   3   4
ENDBRANCH   2   3
ENDBRANCH   1   2
BRANCH   1  25
ATOM     25  C   UNL A   1      31.469  29.103  25.169  1.00  0.00     0.202 C 
BRANCH  25  26
ATOM     26  C   UNL A   1      31.759  30.496  25.741  1.00  0.00     0.261 C 
BRANCH  26  27
ATOM     27  O   UNL A   1      32.443  30.478  27.008  1.00  0.00    -0.460 OA
BRANCH  27  28
ATOM     28  C   UNL A   1      33.200  31.575  27.251  1.00  0.00     0.338 C 
ATOM     29  O   UNL A   1      32.844  32.748  27.219  1.00  0.00    -0.246 OA
BRANCH  28  30
ATOM     30  C   UNL A   1      34.549  31.195  27.694  1.00  0.00     0.060 A 
ATOM     31  C   UNL A   1      34.785  29.852  28.012  1.00  0.00     0.016 A 
ATOM     32  C   UNL A   1      35.515  32.169  27.959  1.00  0.00     0.016 A 
ATOM     33  C   UNL A   1      35.974  29.482  28.637  1.00  0.00     0.010 A 
ATOM     34  C   UNL A   1      36.706  31.796  28.594  1.00  0.00     0.010 A 
ATOM     35  C   UNL A   1      36.925  30.457  28.967  1.00  0.00    -0.014 A 
BRANCH  35  36
ATOM     36  C   UNL A   1      38.083  30.092  29.819  1.00  0.00     0.031 A 
ATOM     37  C   UNL A   1      39.113  29.132  29.295  1.00  0.00     0.074 A 
ATOM     38  C   UNL A   1      38.238  30.643  31.036  1.00  0.00     0.049 A 
ATOM     39  N   UNL A   1      40.198  28.684  29.874  1.00  0.00    -0.248 NA
ATOM     40  C   UNL A   1      38.901  28.619  27.932  1.00  0.00     0.031 C 
ATOM     41  C   UNL A   1      37.346  31.637  31.623  1.00  0.00     0.029 A 
ATOM     42  N   UNL A   1      39.195  30.440  31.997  1.00  0.00    -0.354 N 
ATOM     43  C   UNL A   1      40.807  27.856  28.942  1.00  0.00     0.074 A 
ATOM     44  C   UNL A   1      39.951  27.824  27.777  1.00  0.00     0.031 C 
ATOM     45  C   UNL A   1      37.775  31.934  32.861  1.00  0.00     0.029 A 
ATOM     46  C   UNL A   1      38.973  31.149  33.151  1.00  0.00     0.049 A 
ATOM     47  H   UNL A   1      39.968  29.843  31.871  1.00  0.00     0.167 HD
ATOM     48  C   UNL A   1      41.989  27.201  29.042  1.00  0.00     0.037 A 
ATOM     49  C   UNL A   1      39.656  31.160  34.312  1.00  0.00     0.037 A 
ATOM     50  C   UNL A   1      42.836  27.227  30.205  1.00  0.00     0.049 A 
ATOM     51  C   UNL A   1      40.906  30.335  34.441  1.00  0.00     0.074 A 
ATOM     52  C   UNL A   1      44.056  26.603  30.396  1.00  0.00     0.029 A 
ATOM     53  N   UNL A   1      42.546  27.910  31.377  1.00  0.00    -0.354 N 
ATOM     54  N   UNL A   1      41.488  29.576  33.546  1.00  0.00    -0.248 NA
ATOM     55  C   UNL A   1      41.603  30.377  35.735  1.00  0.00     0.031 C 
ATOM     56  C   UNL A   1      44.483  26.870  31.701  1.00  0.00     0.029 A 
ATOM     57  C   UNL A   1      43.552  27.699  32.306  1.00  0.00     0.049 A 
ATOM     58  H   UNL A   1      41.744  28.461  31.527  1.00  0.00     0.167 HD
ATOM     59  C   UNL A   1      42.633  29.077  34.152  1.00  0.00     0.074 A 
ATOM     60  C   UNL A   1      42.664  29.619  35.495  1.00  0.00     0.031 C 
ATOM     61  C   UNL A   1      43.575  28.251  33.637  1.00  0.00     0.037 A 
BRANCH  48  62
ATOM     62  C   UNL A   1      42.438  26.394  27.861  1.00  0.00     0.064 A 
ATOM     63  C   UNL A   1      41.967  25.090  27.646  1.00  0.00     0.173 A 
ATOM     64  C   UNL A   1      43.300  26.949  26.904  1.00  0.00     0.173 A 
ATOM     65  F   UNL A   1      41.149  24.513  28.540  1.00  0.00    -0.203 F 
ATOM     66  C   UNL A   1      42.355  24.365  26.523  1.00  0.00     0.198 A 
ATOM     67  C   UNL A   1      43.667  26.229  25.770  1.00  0.00     0.198 A 
ATOM     68  F   UNL A   1      43.774  28.193  27.062  1.00  0.00    -0.203 F 
ATOM     69  F   UNL A   1      41.918  23.110  26.354  1.00  0.00    -0.200 F 
ATOM     70  C   UNL A   1      43.198  24.938  25.582  1.00  0.00     0.200 A 
ATOM     71  F   UNL A   1      44.473  26.787  24.856  1.00  0.00    -0.200 F 
ATOM     72  F   UNL A   1      43.562  24.243  24.495  1.00  0.00    -0.200 F 
ENDBRANCH  48  62
BRANCH  49  73
ATOM     73  C   UNL A   1      39.174  32.005  35.434  1.00  0.00     0.064 A 
ATOM     74  C   UNL A   1      38.354  31.473  36.437  1.00  0.00     0.173 A 
ATOM     75  C   UNL A   1      39.547  33.353  35.540  1.00  0.00     0.173 A 
ATOM     76  F   UNL A   1      37.956  30.194  36.366  1.00  0.00    -0.203 F 
ATOM     77  C   UNL A   1      37.924  32.256  37.505  1.00  0.00     0.198 A 
ATOM     78  C   UNL A   1      39.134  34.131  36.618  1.00  0.00     0.198 A 
ATOM     79  F   UNL A   1      40.332  33.907  34.605  1.00  0.00    -0.203 F 
ATOM     80  F   UNL A   1      37.123  31.729  38.440  1.00  0.00    -0.200 F 
ATOM     81  C   UNL A   1      38.320  33.582  37.599  1.00  0.00     0.200 A 
ATOM     82  F   UNL A   1      39.528  35.407  36.712  1.00  0.00    -0.200 F 
ATOM     83  F   UNL A   1      37.918  34.332  38.634  1.00  0.00    -0.200 F 
ENDBRANCH  49  73
BRANCH  61  84
ATOM     84  C   UNL A   1      44.743  27.894  34.508  1.00  0.00     0.064 A 
ATOM     85  C   UNL A   1      44.757  26.716  35.267  1.00  0.00     0.173 A 
ATOM     86  C   UNL A   1      45.894  28.696  34.513  1.00  0.00     0.173 A 
ATOM     87  F   UNL A   1      43.675  25.924  35.304  1.00  0.00    -0.203 F 
ATOM     88  C   UNL A   1      45.881  26.356  36.004  1.00  0.00     0.198 A 
ATOM     89  C   UNL A   1      47.025  28.321  35.233  1.00  0.00     0.198 A 
ATOM     90  F   UNL A   1      45.932  29.830  33.797  1.00  0.00    -0.203 F 
ATOM     91  F   UNL A   1      45.866  25.237  36.743  1.00  0.00    -0.200 F 
ATOM     92  C   UNL A   1      47.017  27.151  35.979  1.00  0.00     0.200 A 
ATOM     93  F   UNL A   1      48.126  29.083  35.194  1.00  0.00    -0.200 F 
ATOM     94  F   UNL A   1      48.105  26.793  36.673  1.00  0.00    -0.200 F 
ENDBRANCH  61  84
ENDBRANCH  35  36
ENDBRANCH  28  30
ENDBRANCH  27  28
ENDBRANCH  26  27
ENDBRANCH  25  26
ENDBRANCH   1  25
TORSDOF 16
ENDMDL
