MODEL 1
REMARK VINA RESULT:     -11.5      0.000      0.000
REMARK SMILES O=C(OCCOCCOC(=O)[C@@H](Cc1ccncc1)c1ccc(Cl)cc1)c1ccc(-c2c3nc(c(-c4c(F)c(F)c(F)c(F)c4F)c4ccc([nH]4)c(-c4c(F)c(F)c(F)c(F)c4F)c4nc(c(-c5c(F)c(F)c(F)c(F)c5F)c5ccc2[nH]5)C=C4)C=C3)cc1
REMARK SMILES IDX 6 1 5 2 4 3 3 4 2 5 1 6 27 7 28 8 89 9 29 10 88 11 30 12
REMARK SMILES IDX 31 13 32 14 82 15 33 16 87 17 81 18 83 19 34 20 86 21 80 22
REMARK SMILES IDX 79 23 35 25 67 26 47 27 66 28 48 29 51 30 65 31 84 32 49 33
REMARK SMILES IDX 50 34 64 36 85 37 52 38 36 39 37 40 45 41 38 42 39 43 43 44
REMARK SMILES IDX 46 45 40 46 41 47 44 48 42 49 68 50 69 51 77 52 70 53 71 54
REMARK SMILES IDX 75 55 78 56 72 57 73 58 76 59 74 60 53 61 54 62 62 63 55 64
REMARK SMILES IDX 56 65 60 66 63 67 57 68 58 69 61 70 59 71 7 72 8 73 9 74
REMARK SMILES IDX 10 75 11 76 12 77 13 78 14 79 15 80 19 81 16 82 18 83 17 84
REMARK SMILES IDX 20 85 21 86 26 87 22 88 25 89 23 90 24 91
REMARK H PARENT 83 24 51 35
REMARK Flexibility Score: inf
ROOT
ATOM      1  O   UNL A   1      35.125  22.733  25.892  1.00  0.00    -0.374 OA
ENDROOT
BRANCH   1   2
ATOM      2  C   UNL A   1      35.487  21.915  24.780  1.00  0.00     0.202 C 
BRANCH   2   3
ATOM      3  C   UNL A   1      36.992  21.703  24.551  1.00  0.00     0.261 C 
BRANCH   3   4
ATOM      4  O   UNL A   1      37.659  21.290  25.755  1.00  0.00    -0.460 OA
BRANCH   4   5
ATOM      5  C   UNL A   1      38.952  21.460  26.115  1.00  0.00     0.338 C 
ATOM      6  O   UNL A   1      39.691  20.477  26.092  1.00  0.00    -0.246 OA
BRANCH   5   7
ATOM      7  C   UNL A   1      39.537  22.762  26.568  1.00  0.00     0.060 A 
ATOM      8  C   UNL A   1      39.131  24.024  26.134  1.00  0.00     0.016 A 
ATOM      9  C   UNL A   1      40.535  22.707  27.558  1.00  0.00     0.016 A 
ATOM     10  C   UNL A   1      39.649  25.188  26.656  1.00  0.00     0.010 A 
ATOM     11  C   UNL A   1      41.113  23.875  28.061  1.00  0.00     0.010 A 
ATOM     12  C   UNL A   1      40.669  25.111  27.588  1.00  0.00    -0.014 A 
BRANCH  12  13
ATOM     13  C   UNL A   1      41.392  26.357  27.827  1.00  0.00     0.031 A 
ATOM     14  C   UNL A   1      40.698  27.387  28.655  1.00  0.00     0.074 A 
ATOM     15  C   UNL A   1      42.686  26.440  27.491  1.00  0.00     0.049 A 
ATOM     16  N   UNL A   1      41.078  28.591  28.973  1.00  0.00    -0.248 NA
ATOM     17  C   UNL A   1      39.399  26.991  29.235  1.00  0.00     0.031 C 
ATOM     18  C   UNL A   1      43.466  25.364  26.877  1.00  0.00     0.029 A 
ATOM     19  N   UNL A   1      43.577  27.462  27.645  1.00  0.00    -0.354 N 
ATOM     20  C   UNL A   1      40.052  29.108  29.748  1.00  0.00     0.074 A 
ATOM     21  C   UNL A   1      39.047  28.083  29.890  1.00  0.00     0.031 C 
ATOM     22  C   UNL A   1      44.723  25.796  26.683  1.00  0.00     0.029 A 
ATOM     23  C   UNL A   1      44.802  27.194  27.093  1.00  0.00     0.049 A 
ATOM     24  H   UNL A   1      43.361  28.306  28.104  1.00  0.00     0.167 HD
ATOM     25  C   UNL A   1      39.960  30.357  30.257  1.00  0.00     0.037 A 
ATOM     26  C   UNL A   1      45.838  28.028  26.890  1.00  0.00     0.037 A 
ATOM     27  C   UNL A   1      40.985  31.340  30.052  1.00  0.00     0.049 A 
ATOM     28  C   UNL A   1      45.675  29.448  27.357  1.00  0.00     0.074 A 
ATOM     29  C   UNL A   1      40.996  32.675  30.399  1.00  0.00     0.029 A 
ATOM     30  N   UNL A   1      42.198  31.071  29.423  1.00  0.00    -0.354 N 
ATOM     31  N   UNL A   1      44.657  29.996  27.984  1.00  0.00    -0.248 NA
ATOM     32  C   UNL A   1      46.777  30.372  27.079  1.00  0.00     0.031 C 
ATOM     33  C   UNL A   1      42.198  33.223  29.936  1.00  0.00     0.029 A 
ATOM     34  C   UNL A   1      42.961  32.218  29.353  1.00  0.00     0.049 A 
ATOM     35  H   UNL A   1      42.470  30.189  29.077  1.00  0.00     0.167 HD
ATOM     36  C   UNL A   1      44.996  31.323  28.190  1.00  0.00     0.074 A 
ATOM     37  C   UNL A   1      46.323  31.494  27.624  1.00  0.00     0.031 C 
ATOM     38  C   UNL A   1      44.286  32.313  28.786  1.00  0.00     0.037 A 
BRANCH  25  39
ATOM     39  C   UNL A   1      38.669  30.715  30.931  1.00  0.00     0.064 A 
ATOM     40  C   UNL A   1      37.546  31.159  30.217  1.00  0.00     0.173 A 
ATOM     41  C   UNL A   1      38.595  30.717  32.333  1.00  0.00     0.173 A 
ATOM     42  F   UNL A   1      37.578  31.221  28.877  1.00  0.00    -0.203 F 
ATOM     43  C   UNL A   1      36.414  31.630  30.882  1.00  0.00     0.198 A 
ATOM     44  C   UNL A   1      37.452  31.161  32.993  1.00  0.00     0.198 A 
ATOM     45  F   UNL A   1      39.647  30.321  33.066  1.00  0.00    -0.203 F 
ATOM     46  F   UNL A   1      35.385  32.126  30.180  1.00  0.00    -0.200 F 
ATOM     47  C   UNL A   1      36.368  31.630  32.268  1.00  0.00     0.200 A 
ATOM     48  F   UNL A   1      37.413  31.165  34.332  1.00  0.00    -0.200 F 
ATOM     49  F   UNL A   1      35.289  32.106  32.905  1.00  0.00    -0.200 F 
ENDBRANCH  25  39
BRANCH  26  50
ATOM     50  C   UNL A   1      47.037  27.545  26.158  1.00  0.00     0.064 A 
ATOM     51  C   UNL A   1      47.106  27.576  24.761  1.00  0.00     0.173 A 
ATOM     52  C   UNL A   1      48.172  27.096  26.855  1.00  0.00     0.173 A 
ATOM     53  F   UNL A   1      46.046  27.981  24.046  1.00  0.00    -0.203 F 
ATOM     54  C   UNL A   1      48.264  27.184  24.089  1.00  0.00     0.198 A 
ATOM     55  C   UNL A   1      49.337  26.731  26.185  1.00  0.00     0.198 A 
ATOM     56  F   UNL A   1      48.161  27.047  28.196  1.00  0.00    -0.203 F 
ATOM     57  F   UNL A   1      48.299  27.205  22.749  1.00  0.00    -0.200 F 
ATOM     58  C   UNL A   1      49.382  26.773  24.801  1.00  0.00     0.200 A 
ATOM     59  F   UNL A   1      50.419  26.353  26.881  1.00  0.00    -0.200 F 
ATOM     60  F   UNL A   1      50.501  26.417  24.154  1.00  0.00    -0.200 F 
ENDBRANCH  26  50
BRANCH  38  61
ATOM     61  C   UNL A   1      44.951  33.648  28.895  1.00  0.00     0.064 A 
ATOM     62  C   UNL A   1      45.804  33.954  29.962  1.00  0.00     0.173 A 
ATOM     63  C   UNL A   1      44.806  34.585  27.862  1.00  0.00     0.173 A 
ATOM     64  F   UNL A   1      45.961  33.087  30.974  1.00  0.00    -0.203 F 
ATOM     65  C   UNL A   1      46.490  35.164  29.993  1.00  0.00     0.198 A 
ATOM     66  C   UNL A   1      45.512  35.781  27.886  1.00  0.00     0.198 A 
ATOM     67  F   UNL A   1      44.005  34.324  26.819  1.00  0.00    -0.203 F 
ATOM     68  F   UNL A   1      47.285  35.453  31.032  1.00  0.00    -0.200 F 
ATOM     69  C   UNL A   1      46.352  36.070  28.952  1.00  0.00     0.200 A 
ATOM     70  F   UNL A   1      45.391  36.648  26.871  1.00  0.00    -0.200 F 
ATOM     71  F   UNL A   1      47.031  37.225  28.974  1.00  0.00    -0.200 F 
ENDBRANCH  38  61
ENDBRANCH  12  13
ENDBRANCH   5   7
ENDBRANCH   4   5
ENDBRANCH   3   4
ENDBRANCH   2   3
ENDBRANCH   1   2
BRANCH   1  72
ATOM     72  C   UNL A   1      34.477  22.075  26.986  1.00  0.00     0.202 C 
BRANCH  72  73
ATOM     73  C   UNL A   1      33.043  22.561  27.160  1.00  0.00     0.261 C 
BRANCH  73  74
ATOM     74  O   UNL A   1      32.812  23.666  26.277  1.00  0.00    -0.463 OA
BRANCH  74  75
ATOM     75  C   UNL A   1      31.657  24.352  26.444  1.00  0.00     0.313 C 
ATOM     76  O   UNL A   1      30.772  24.057  27.251  1.00  0.00    -0.252 OA
BRANCH  75  77
ATOM     77  C   UNL A   1      31.550  25.532  25.493  1.00  0.00     0.133 C 
BRANCH  77  78
ATOM     78  C   UNL A   1      30.166  25.741  24.814  1.00  0.00     0.055 C 
BRANCH  78  79
ATOM     79  C   UNL A   1      30.008  26.853  23.800  1.00  0.00    -0.044 A 
ATOM     80  C   UNL A   1      28.797  27.539  23.648  1.00  0.00     0.024 A 
ATOM     81  C   UNL A   1      31.064  27.222  22.968  1.00  0.00     0.024 A 
ATOM     82  C   UNL A   1      28.721  28.600  22.758  1.00  0.00     0.111 A 
ATOM     83  C   UNL A   1      30.891  28.284  22.093  1.00  0.00     0.111 A 
ATOM     84  N   UNL A   1      29.748  28.993  21.982  1.00  0.00    -0.265 NA
ENDBRANCH  78  79
ENDBRANCH  77  78
BRANCH  77  85
ATOM     85  C   UNL A   1      32.178  26.795  26.053  1.00  0.00    -0.033 A 
ATOM     86  C   UNL A   1      33.489  27.187  25.738  1.00  0.00     0.006 A 
ATOM     87  C   UNL A   1      31.422  27.602  26.917  1.00  0.00     0.006 A 
ATOM     88  C   UNL A   1      34.028  28.358  26.268  1.00  0.00     0.021 A 
ATOM     89  C   UNL A   1      31.961  28.774  27.447  1.00  0.00     0.021 A 
ATOM     90  C   UNL A   1      33.262  29.148  27.119  1.00  0.00     0.041 A 
ATOM     91  Cl  UNL A   1      33.927  30.591  27.772  1.00  0.00    -0.084 Cl
ENDBRANCH  77  85
ENDBRANCH  75  77
ENDBRANCH  74  75
ENDBRANCH  73  74
ENDBRANCH  72  73
ENDBRANCH   1  72
TORSDOF 17
ENDMDL
MODEL 2
REMARK VINA RESULT:     -11.5      4.527      9.838
REMARK SMILES O=C(OCCOCCOC(=O)[C@@H](Cc1ccncc1)c1ccc(Cl)cc1)c1ccc(-c2c3nc(c(-c4c(F)c(F)c(F)c(F)c4F)c4ccc([nH]4)c(-c4c(F)c(F)c(F)c(F)c4F)c4nc(c(-c5c(F)c(F)c(F)c(F)c5F)c5ccc2[nH]5)C=C4)C=C3)cc1
REMARK SMILES IDX 6 1 5 2 4 3 3 4 2 5 1 6 27 7 28 8 89 9 29 10 88 11 30 12
REMARK SMILES IDX 31 13 32 14 82 15 33 16 87 17 81 18 83 19 34 20 86 21 80 22
REMARK SMILES IDX 79 23 35 25 67 26 47 27 66 28 48 29 51 30 65 31 84 32 49 33
REMARK SMILES IDX 50 34 64 36 85 37 52 38 36 39 37 40 45 41 38 42 39 43 43 44
REMARK SMILES IDX 46 45 40 46 41 47 44 48 42 49 68 50 69 51 77 52 70 53 71 54
REMARK SMILES IDX 75 55 78 56 72 57 73 58 76 59 74 60 53 61 54 62 62 63 55 64
REMARK SMILES IDX 56 65 60 66 63 67 57 68 58 69 61 70 59 71 7 72 8 73 9 74
REMARK SMILES IDX 10 75 11 76 12 77 13 78 14 79 15 80 19 81 16 82 18 83 17 84
REMARK SMILES IDX 20 85 21 86 26 87 22 88 25 89 23 90 24 91
REMARK H PARENT 83 24 51 35
REMARK Flexibility Score: inf
ROOT
ATOM      1  O   UNL A   1      31.817  28.346  25.130  1.00  0.00    -0.374 OA
ENDROOT
BRANCH   1   2
ATOM      2  C   UNL A   1      31.777  28.749  26.498  1.00  0.00     0.202 C 
BRANCH   2   3
ATOM      3  C   UNL A   1      31.724  30.262  26.762  1.00  0.00     0.261 C 
BRANCH   3   4
ATOM      4  O   UNL A   1      33.002  30.884  26.548  1.00  0.00    -0.460 OA
BRANCH   4   5
ATOM      5  C   UNL A   1      33.748  31.618  27.406  1.00  0.00     0.338 C 
ATOM      6  O   UNL A   1      33.360  32.752  27.681  1.00  0.00    -0.246 OA
BRANCH   5   7
ATOM      7  C   UNL A   1      35.032  31.151  28.020  1.00  0.00     0.060 A 
ATOM      8  C   UNL A   1      35.322  29.835  28.380  1.00  0.00     0.016 A 
ATOM      9  C   UNL A   1      36.047  32.109  28.188  1.00  0.00     0.016 A 
ATOM     10  C   UNL A   1      36.556  29.455  28.858  1.00  0.00     0.010 A 
ATOM     11  C   UNL A   1      37.288  31.754  28.724  1.00  0.00     0.010 A 
ATOM     12  C   UNL A   1      37.523  30.422  29.070  1.00  0.00    -0.014 A 
BRANCH  12  13
ATOM     13  C   UNL A   1      38.656  30.004  29.890  1.00  0.00     0.031 A 
ATOM     14  C   UNL A   1      39.662  29.112  29.241  1.00  0.00     0.074 A 
ATOM     15  C   UNL A   1      38.857  30.590  31.078  1.00  0.00     0.049 A 
ATOM     16  N   UNL A   1      40.721  28.550  29.747  1.00  0.00    -0.248 NA
ATOM     17  C   UNL A   1      39.458  28.837  27.805  1.00  0.00     0.031 C 
ATOM     18  C   UNL A   1      38.012  31.638  31.653  1.00  0.00     0.029 A 
ATOM     19  N   UNL A   1      39.848  30.407  31.998  1.00  0.00    -0.354 N 
ATOM     20  C   UNL A   1      41.284  27.825  28.708  1.00  0.00     0.074 A 
ATOM     21  C   UNL A   1      40.477  28.041  27.532  1.00  0.00     0.031 C 
ATOM     22  C   UNL A   1      38.512  31.990  32.849  1.00  0.00     0.029 A 
ATOM     23  C   UNL A   1      39.661  31.140  33.141  1.00  0.00     0.049 A 
ATOM     24  H   UNL A   1      40.618  29.810  31.856  1.00  0.00     0.167 HD
ATOM     25  C   UNL A   1      42.365  27.017  28.765  1.00  0.00     0.037 A 
ATOM     26  C   UNL A   1      40.319  31.063  34.311  1.00  0.00     0.037 A 
ATOM     27  C   UNL A   1      43.108  26.823  29.979  1.00  0.00     0.049 A 
ATOM     28  C   UNL A   1      41.449  30.073  34.397  1.00  0.00     0.074 A 
ATOM     29  C   UNL A   1      44.151  25.958  30.235  1.00  0.00     0.029 A 
ATOM     30  N   UNL A   1      42.858  27.523  31.156  1.00  0.00    -0.354 N 
ATOM     31  N   UNL A   1      41.920  29.280  33.460  1.00  0.00    -0.248 NA
ATOM     32  C   UNL A   1      42.124  29.943  35.690  1.00  0.00     0.031 C 
ATOM     33  C   UNL A   1      44.500  26.103  31.583  1.00  0.00     0.029 A 
ATOM     34  C   UNL A   1      43.714  27.100  32.151  1.00  0.00     0.049 A 
ATOM     35  H   UNL A   1      42.169  28.220  31.263  1.00  0.00     0.167 HD
ATOM     36  C   UNL A   1      42.956  28.566  34.040  1.00  0.00     0.074 A 
ATOM     37  C   UNL A   1      43.047  29.029  35.414  1.00  0.00     0.031 C 
ATOM     38  C   UNL A   1      43.759  27.617  33.499  1.00  0.00     0.037 A 
BRANCH  25  39
ATOM     39  C   UNL A   1      42.677  26.220  27.534  1.00  0.00     0.064 A 
ATOM     40  C   UNL A   1      42.061  24.989  27.259  1.00  0.00     0.173 A 
ATOM     41  C   UNL A   1      43.695  26.649  26.668  1.00  0.00     0.173 A 
ATOM     42  F   UNL A   1      41.114  24.510  28.079  1.00  0.00    -0.203 F 
ATOM     43  C   UNL A   1      42.482  24.200  26.189  1.00  0.00     0.198 A 
ATOM     44  C   UNL A   1      44.092  25.872  25.583  1.00  0.00     0.198 A 
ATOM     45  F   UNL A   1      44.331  27.808  26.895  1.00  0.00    -0.203 F 
ATOM     46  F   UNL A   1      41.936  22.992  25.994  1.00  0.00    -0.200 F 
ATOM     47  C   UNL A   1      43.496  24.642  25.352  1.00  0.00     0.200 A 
ATOM     48  F   UNL A   1      45.076  26.299  24.780  1.00  0.00    -0.200 F 
ATOM     49  F   UNL A   1      43.915  23.872  24.339  1.00  0.00    -0.200 F 
ENDBRANCH  25  39
BRANCH  26  50
ATOM     50  C   UNL A   1      39.864  31.878  35.466  1.00  0.00     0.064 A 
ATOM     51  C   UNL A   1      40.418  33.133  35.743  1.00  0.00     0.173 A 
ATOM     52  C   UNL A   1      38.811  31.438  36.286  1.00  0.00     0.173 A 
ATOM     53  F   UNL A   1      41.435  33.595  35.002  1.00  0.00    -0.203 F 
ATOM     54  C   UNL A   1      39.933  33.918  36.790  1.00  0.00     0.198 A 
ATOM     55  C   UNL A   1      38.310  32.233  37.313  1.00  0.00     0.198 A 
ATOM     56  F   UNL A   1      38.242  30.243  36.065  1.00  0.00    -0.203 F 
ATOM     57  F   UNL A   1      40.494  35.108  37.047  1.00  0.00    -0.200 F 
ATOM     58  C   UNL A   1      38.873  33.473  37.567  1.00  0.00     0.200 A 
ATOM     59  F   UNL A   1      37.273  31.804  38.047  1.00  0.00    -0.200 F 
ATOM     60  F   UNL A   1      38.395  34.238  38.558  1.00  0.00    -0.200 F 
ENDBRANCH  26  50
BRANCH  38  61
ATOM     61  C   UNL A   1      44.828  27.056  34.381  1.00  0.00     0.064 A 
ATOM     62  C   UNL A   1      44.620  25.895  35.135  1.00  0.00     0.173 A 
ATOM     63  C   UNL A   1      46.104  27.638  34.385  1.00  0.00     0.173 A 
ATOM     64  F   UNL A   1      43.410  25.315  35.164  1.00  0.00    -0.203 F 
ATOM     65  C   UNL A   1      45.658  25.335  35.871  1.00  0.00     0.198 A 
ATOM     66  C   UNL A   1      47.144  27.061  35.103  1.00  0.00     0.198 A 
ATOM     67  F   UNL A   1      46.345  28.746  33.669  1.00  0.00    -0.203 F 
ATOM     68  F   UNL A   1      45.438  24.237  36.606  1.00  0.00    -0.200 F 
ATOM     69  C   UNL A   1      46.920  25.911  35.846  1.00  0.00     0.200 A 
ATOM     70  F   UNL A   1      48.367  27.609  35.064  1.00  0.00    -0.200 F 
ATOM     71  F   UNL A   1      47.924  25.357  36.539  1.00  0.00    -0.200 F 
ENDBRANCH  38  61
ENDBRANCH  12  13
ENDBRANCH   5   7
ENDBRANCH   4   5
ENDBRANCH   3   4
ENDBRANCH   2   3
ENDBRANCH   1   2
BRANCH   1  72
ATOM     72  C   UNL A   1      33.078  27.879  24.637  1.00  0.00     0.202 C 
BRANCH  72  73
ATOM     73  C   UNL A   1      32.913  27.082  23.349  1.00  0.00     0.261 C 
BRANCH  73  74
ATOM     74  O   UNL A   1      34.053  26.232  23.174  1.00  0.00    -0.463 OA
BRANCH  74  75
ATOM     75  C   UNL A   1      33.808  24.921  22.940  1.00  0.00     0.313 C 
ATOM     76  O   UNL A   1      33.344  24.465  21.893  1.00  0.00    -0.252 OA
BRANCH  75  77
ATOM     77  C   UNL A   1      34.148  24.053  24.141  1.00  0.00     0.133 C 
BRANCH  77  78
ATOM     78  C   UNL A   1      35.396  24.481  24.963  1.00  0.00     0.055 C 
BRANCH  78  79
ATOM     79  C   UNL A   1      36.517  23.484  25.166  1.00  0.00    -0.044 A 
ATOM     80  C   UNL A   1      37.630  23.785  25.960  1.00  0.00     0.024 A 
ATOM     81  C   UNL A   1      36.485  22.232  24.552  1.00  0.00     0.024 A 
ATOM     82  C   UNL A   1      38.596  22.813  26.177  1.00  0.00     0.111 A 
ATOM     83  C   UNL A   1      37.506  21.331  24.812  1.00  0.00     0.111 A 
ATOM     84  N   UNL A   1      38.552  21.586  25.625  1.00  0.00    -0.265 NA
ENDBRANCH  78  79
ENDBRANCH  77  78
BRANCH  77  85
ATOM     85  C   UNL A   1      32.929  23.704  24.975  1.00  0.00    -0.033 A 
ATOM     86  C   UNL A   1      32.493  24.505  26.043  1.00  0.00     0.006 A 
ATOM     87  C   UNL A   1      32.210  22.538  24.670  1.00  0.00     0.006 A 
ATOM     88  C   UNL A   1      31.364  24.154  26.782  1.00  0.00     0.021 A 
ATOM     89  C   UNL A   1      31.081  22.186  25.408  1.00  0.00     0.021 A 
ATOM     90  C   UNL A   1      30.661  22.997  26.460  1.00  0.00     0.041 A 
ATOM     91  Cl  UNL A   1      29.271  22.563  27.372  1.00  0.00    -0.084 Cl
ENDBRANCH  77  85
ENDBRANCH  75  77
ENDBRANCH  74  75
ENDBRANCH  73  74
ENDBRANCH  72  73
ENDBRANCH   1  72
TORSDOF 17
ENDMDL
MODEL 3
REMARK VINA RESULT:     -11.5      4.510      9.750
REMARK SMILES O=C(OCCOCCOC(=O)[C@@H](Cc1ccncc1)c1ccc(Cl)cc1)c1ccc(-c2c3nc(c(-c4c(F)c(F)c(F)c(F)c4F)c4ccc([nH]4)c(-c4c(F)c(F)c(F)c(F)c4F)c4nc(c(-c5c(F)c(F)c(F)c(F)c5F)c5ccc2[nH]5)C=C4)C=C3)cc1
REMARK SMILES IDX 6 1 5 2 4 3 3 4 2 5 1 6 27 7 28 8 89 9 29 10 88 11 30 12
REMARK SMILES IDX 31 13 32 14 82 15 33 16 87 17 81 18 83 19 34 20 86 21 80 22
REMARK SMILES IDX 79 23 35 25 67 26 47 27 66 28 48 29 51 30 65 31 84 32 49 33
REMARK SMILES IDX 50 34 64 36 85 37 52 38 36 39 37 40 45 41 38 42 39 43 43 44
REMARK SMILES IDX 46 45 40 46 41 47 44 48 42 49 68 50 69 51 77 52 70 53 71 54
REMARK SMILES IDX 75 55 78 56 72 57 73 58 76 59 74 60 53 61 54 62 62 63 55 64
REMARK SMILES IDX 56 65 60 66 63 67 57 68 58 69 61 70 59 71 7 72 8 73 9 74
REMARK SMILES IDX 10 75 11 76 12 77 13 78 14 79 15 80 19 81 16 82 18 83 17 84
REMARK SMILES IDX 20 85 21 86 26 87 22 88 25 89 23 90 24 91
REMARK H PARENT 83 24 51 35
REMARK Flexibility Score: inf
ROOT
ATOM      1  O   UNL A   1      31.127  27.888  24.975  1.00  0.00    -0.374 OA
ENDROOT
BRANCH   1   2
ATOM      2  C   UNL A   1      31.476  29.268  25.075  1.00  0.00     0.202 C 
BRANCH   2   3
ATOM      3  C   UNL A   1      31.964  29.749  26.450  1.00  0.00     0.261 C 
BRANCH   3   4
ATOM      4  O   UNL A   1      32.922  30.815  26.330  1.00  0.00    -0.460 OA
BRANCH   4   5
ATOM      5  C   UNL A   1      33.565  31.497  27.305  1.00  0.00     0.338 C 
ATOM      6  O   UNL A   1      33.069  32.554  27.693  1.00  0.00    -0.246 OA
BRANCH   5   7
ATOM      7  C   UNL A   1      34.859  31.065  27.924  1.00  0.00     0.060 A 
ATOM      8  C   UNL A   1      35.164  29.766  28.332  1.00  0.00     0.016 A 
ATOM      9  C   UNL A   1      35.868  32.037  28.045  1.00  0.00     0.016 A 
ATOM     10  C   UNL A   1      36.406  29.414  28.812  1.00  0.00     0.010 A 
ATOM     11  C   UNL A   1      37.117  31.713  28.581  1.00  0.00     0.010 A 
ATOM     12  C   UNL A   1      37.366  30.397  28.976  1.00  0.00    -0.014 A 
BRANCH  12  13
ATOM     13  C   UNL A   1      38.510  30.020  29.801  1.00  0.00     0.031 A 
ATOM     14  C   UNL A   1      39.535  29.140  29.166  1.00  0.00     0.074 A 
ATOM     15  C   UNL A   1      38.702  30.633  30.977  1.00  0.00     0.049 A 
ATOM     16  N   UNL A   1      40.608  28.612  29.679  1.00  0.00    -0.248 NA
ATOM     17  C   UNL A   1      39.334  28.833  27.736  1.00  0.00     0.031 C 
ATOM     18  C   UNL A   1      37.834  31.672  31.535  1.00  0.00     0.029 A 
ATOM     19  N   UNL A   1      39.698  30.490  31.898  1.00  0.00    -0.354 N 
ATOM     20  C   UNL A   1      41.185  27.880  28.652  1.00  0.00     0.074 A 
ATOM     21  C   UNL A   1      40.370  28.055  27.475  1.00  0.00     0.031 C 
ATOM     22  C   UNL A   1      38.329  32.059  32.722  1.00  0.00     0.029 A 
ATOM     23  C   UNL A   1      39.498  31.240  33.027  1.00  0.00     0.049 A 
ATOM     24  H   UNL A   1      40.481  29.909  31.765  1.00  0.00     0.167 HD
ATOM     25  C   UNL A   1      42.285  27.098  28.722  1.00  0.00     0.037 A 
ATOM     26  C   UNL A   1      40.161  31.200  34.196  1.00  0.00     0.037 A 
ATOM     27  C   UNL A   1      43.034  26.944  29.936  1.00  0.00     0.049 A 
ATOM     28  C   UNL A   1      41.313  30.238  34.298  1.00  0.00     0.074 A 
ATOM     29  C   UNL A   1      44.098  26.108  30.206  1.00  0.00     0.029 A 
ATOM     30  N   UNL A   1      42.771  27.661  31.101  1.00  0.00    -0.354 N 
ATOM     31  N   UNL A   1      41.800  29.439  33.375  1.00  0.00    -0.248 NA
ATOM     32  C   UNL A   1      41.994  30.149  35.591  1.00  0.00     0.031 C 
ATOM     33  C   UNL A   1      44.447  26.287  31.550  1.00  0.00     0.029 A 
ATOM     34  C   UNL A   1      43.640  27.276  32.101  1.00  0.00     0.049 A 
ATOM     35  H   UNL A   1      42.067  28.343  31.197  1.00  0.00     0.167 HD
ATOM     36  C   UNL A   1      42.853  28.760  33.964  1.00  0.00     0.074 A 
ATOM     37  C   UNL A   1      42.937  29.251  35.329  1.00  0.00     0.031 C 
ATOM     38  C   UNL A   1      43.676  27.819  33.439  1.00  0.00     0.037 A 
BRANCH  25  39
ATOM     39  C   UNL A   1      42.611  26.286  27.504  1.00  0.00     0.064 A 
ATOM     40  C   UNL A   1      42.017  25.040  27.251  1.00  0.00     0.173 A 
ATOM     41  C   UNL A   1      43.622  26.717  26.631  1.00  0.00     0.173 A 
ATOM     42  F   UNL A   1      41.078  24.558  28.079  1.00  0.00    -0.203 F 
ATOM     43  C   UNL A   1      42.453  24.240  26.195  1.00  0.00     0.198 A 
ATOM     44  C   UNL A   1      44.033  25.929  25.560  1.00  0.00     0.198 A 
ATOM     45  F   UNL A   1      44.237  27.892  26.838  1.00  0.00    -0.203 F 
ATOM     46  F   UNL A   1      41.928  23.018  26.021  1.00  0.00    -0.200 F 
ATOM     47  C   UNL A   1      43.459  24.685  25.350  1.00  0.00     0.200 A 
ATOM     48  F   UNL A   1      45.010  26.359  24.750  1.00  0.00    -0.200 F 
ATOM     49  F   UNL A   1      43.893  23.905  24.351  1.00  0.00    -0.200 F 
ENDBRANCH  25  39
BRANCH  26  50
ATOM     50  C   UNL A   1      39.690  32.027  35.337  1.00  0.00     0.064 A 
ATOM     51  C   UNL A   1      40.135  33.340  35.527  1.00  0.00     0.173 A 
ATOM     52  C   UNL A   1      38.726  31.532  36.234  1.00  0.00     0.173 A 
ATOM     53  F   UNL A   1      41.065  33.856  34.710  1.00  0.00    -0.203 F 
ATOM     54  C   UNL A   1      39.633  34.128  36.563  1.00  0.00     0.198 A 
ATOM     55  C   UNL A   1      38.206  32.328  37.250  1.00  0.00     0.198 A 
ATOM     56  F   UNL A   1      38.263  30.280  36.099  1.00  0.00    -0.203 F 
ATOM     57  F   UNL A   1      40.090  35.376  36.734  1.00  0.00    -0.200 F 
ATOM     58  C   UNL A   1      38.661  33.626  37.416  1.00  0.00     0.200 A 
ATOM     59  F   UNL A   1      37.254  31.843  38.060  1.00  0.00    -0.200 F 
ATOM     60  F   UNL A   1      38.164  34.392  38.397  1.00  0.00    -0.200 F 
ENDBRANCH  26  50
BRANCH  38  61
ATOM     61  C   UNL A   1      44.760  27.300  34.328  1.00  0.00     0.064 A 
ATOM     62  C   UNL A   1      45.973  27.984  34.478  1.00  0.00     0.173 A 
ATOM     63  C   UNL A   1      44.533  26.159  35.112  1.00  0.00     0.173 A 
ATOM     64  F   UNL A   1      46.231  29.074  33.739  1.00  0.00    -0.203 F 
ATOM     65  C   UNL A   1      46.929  27.537  35.384  1.00  0.00     0.198 A 
ATOM     66  C   UNL A   1      45.481  25.731  36.033  1.00  0.00     0.198 A 
ATOM     67  F   UNL A   1      43.381  25.483  35.002  1.00  0.00    -0.203 F 
ATOM     68  F   UNL A   1      48.094  28.189  35.500  1.00  0.00    -0.200 F 
ATOM     69  C   UNL A   1      46.678  26.420  36.167  1.00  0.00     0.200 A 
ATOM     70  F   UNL A   1      45.230  24.662  36.800  1.00  0.00    -0.200 F 
ATOM     71  F   UNL A   1      47.591  26.005  37.055  1.00  0.00    -0.200 F 
ENDBRANCH  38  61
ENDBRANCH  12  13
ENDBRANCH   5   7
ENDBRANCH   4   5
ENDBRANCH   3   4
ENDBRANCH   2   3
ENDBRANCH   1   2
BRANCH   1  72
ATOM     72  C   UNL A   1      30.375  27.499  23.819  1.00  0.00     0.202 C 
BRANCH  72  73
ATOM     73  C   UNL A   1      31.285  27.007  22.701  1.00  0.00     0.261 C 
BRANCH  73  74
ATOM     74  O   UNL A   1      32.520  26.550  23.267  1.00  0.00    -0.463 OA
BRANCH  74  75
ATOM     75  C   UNL A   1      33.169  25.563  22.605  1.00  0.00     0.313 C 
ATOM     76  O   UNL A   1      33.692  25.684  21.495  1.00  0.00    -0.252 OA
BRANCH  75  77
ATOM     77  C   UNL A   1      33.161  24.256  23.378  1.00  0.00     0.133 C 
BRANCH  77  78
ATOM     78  C   UNL A   1      32.461  23.053  22.683  1.00  0.00     0.055 C 
BRANCH  78  79
ATOM     79  C   UNL A   1      32.346  21.742  23.429  1.00  0.00    -0.044 A 
ATOM     80  C   UNL A   1      32.401  20.512  22.761  1.00  0.00     0.024 A 
ATOM     81  C   UNL A   1      32.164  21.714  24.812  1.00  0.00     0.024 A 
ATOM     82  C   UNL A   1      32.365  19.335  23.494  1.00  0.00     0.111 A 
ATOM     83  C   UNL A   1      32.121  20.489  25.459  1.00  0.00     0.111 A 
ATOM     84  N   UNL A   1      32.236  19.298  24.834  1.00  0.00    -0.265 NA
ENDBRANCH  78  79
ENDBRANCH  77  78
BRANCH  77  85
ATOM     85  C   UNL A   1      34.509  23.933  23.997  1.00  0.00    -0.033 A 
ATOM     86  C   UNL A   1      34.861  24.346  25.292  1.00  0.00     0.006 A 
ATOM     87  C   UNL A   1      35.438  23.193  23.249  1.00  0.00     0.006 A 
ATOM     88  C   UNL A   1      36.107  24.023  25.828  1.00  0.00     0.021 A 
ATOM     89  C   UNL A   1      36.684  22.870  23.785  1.00  0.00     0.021 A 
ATOM     90  C   UNL A   1      37.013  23.285  25.073  1.00  0.00     0.041 A 
ATOM     91  Cl  UNL A   1      38.549  22.889  25.734  1.00  0.00    -0.084 Cl
ENDBRANCH  77  85
ENDBRANCH  75  77
ENDBRANCH  74  75
ENDBRANCH  73  74
ENDBRANCH  72  73
ENDBRANCH   1  72
TORSDOF 17
ENDMDL
