MODEL 1
REMARK VINA RESULT:     -11.7      0.000      0.000
REMARK SMILES COc1cc(C)cc2c1O[C@H](C(F)(F)F)C(C(=O)OCCOCCOC(=O)c1ccc(-c3c4nc(c(-c5c(F)c(F)c(F)c(F)c5F)c5ccc([nH]5)c(-c5c(F)c(F)c(F)c(F)c5F)c5nc(c(-c6c(F)c(F)c(F)c(F)c6F)c6ccc3[nH]6)C=C5)C=C4)cc1)=C2
REMARK SMILES IDX 23 1 22 2 21 3 20 4 19 5 17 6 18 7 16 8 3 9 4 10 9 11 5 12
REMARK SMILES IDX 8 13 10 14 6 15 7 16 91 17 11 18 2 19 1 20 12 21 13 22 14 23
REMARK SMILES IDX 15 24 24 25 25 26 26 27 27 28 28 29 29 30 90 31 30 32 89 33
REMARK SMILES IDX 31 34 32 35 33 36 83 37 34 38 88 39 82 40 84 41 35 42 87 43
REMARK SMILES IDX 81 44 80 45 36 47 68 48 48 49 67 50 49 51 52 52 66 53 85 54
REMARK SMILES IDX 50 55 51 56 65 58 86 59 53 60 37 61 38 62 46 63 39 64 40 65
REMARK SMILES IDX 44 66 47 67 41 68 42 69 45 70 43 71 69 72 70 73 78 74 71 75
REMARK SMILES IDX 72 76 76 77 79 78 73 79 74 80 77 81 75 82 54 83 55 84 63 85
REMARK SMILES IDX 56 86 57 87 61 88 64 89 58 90 59 91 62 92 60 93
REMARK H PARENT 84 46 52 57
REMARK Flexibility Score: inf
ROOT
ATOM      1  C   UNL A   1      31.237  29.948  25.002  1.00  0.00     0.202 C 
ENDROOT
BRANCH   1   2
ATOM      2  O   UNL A   1      31.557  28.652  24.502  1.00  0.00    -0.374 OA
BRANCH   2   3
ATOM      3  C   UNL A   1      30.625  27.593  24.696  1.00  0.00     0.202 C 
BRANCH   3   4
ATOM      4  C   UNL A   1      30.252  26.731  23.487  1.00  0.00     0.261 C 
BRANCH   4   5
ATOM      5  O   UNL A   1      30.847  25.426  23.543  1.00  0.00    -0.460 OA
BRANCH   5   6
ATOM      6  C   UNL A   1      31.840  25.230  22.643  1.00  0.00     0.338 C 
ATOM      7  O   UNL A   1      32.069  25.903  21.651  1.00  0.00    -0.246 OA
BRANCH   6   8
ATOM      8  C   UNL A   1      32.716  24.134  23.092  1.00  0.00     0.087 C 
ATOM      9  C   UNL A   1      34.849  20.989  24.814  1.00  0.00     0.161 A 
ATOM     10  C   UNL A   1      34.260  19.719  24.859  1.00  0.00     0.054 A 
ATOM     11  C   UNL A   1      34.186  22.034  24.151  1.00  0.00     0.169 A 
ATOM     12  C   UNL A   1      33.030  19.476  24.230  1.00  0.00    -0.047 A 
ATOM     13  C   UNL A   1      32.950  21.802  23.543  1.00  0.00     0.021 A 
ATOM     14  O   UNL A   1      34.808  23.256  24.119  1.00  0.00    -0.471 OA
ATOM     15  C   UNL A   1      32.371  18.129  24.297  1.00  0.00     0.044 C 
ATOM     16  C   UNL A   1      32.389  20.522  23.561  1.00  0.00     0.015 A 
ATOM     17  C   UNL A   1      32.203  22.904  22.971  1.00  0.00     0.027 C 
ATOM     18  C   UNL A   1      34.068  24.423  23.678  1.00  0.00     0.316 C 
BRANCH   9  19
ATOM     19  O   UNL A   1      36.019  21.325  25.445  1.00  0.00    -0.493 OA
ATOM     20  C   UNL A   1      37.218  20.768  24.926  1.00  0.00     0.278 C 
ENDBRANCH   9  19
BRANCH  18  21
ATOM     21  C   UNL A   1      34.012  25.430  24.836  1.00  0.00     0.430 C 
ATOM     22  F   UNL A   1      32.938  25.211  25.631  1.00  0.00    -0.167 F 
ATOM     23  F   UNL A   1      35.103  25.332  25.635  1.00  0.00    -0.167 F 
ATOM     24  F   UNL A   1      33.946  26.707  24.399  1.00  0.00    -0.167 F 
ENDBRANCH  18  21
ENDBRANCH   6   8
ENDBRANCH   5   6
ENDBRANCH   4   5
ENDBRANCH   3   4
ENDBRANCH   2   3
ENDBRANCH   1   2
BRANCH   1  25
ATOM     25  C   UNL A   1      31.788  30.363  26.373  1.00  0.00     0.261 C 
BRANCH  25  26
ATOM     26  O   UNL A   1      33.209  30.581  26.368  1.00  0.00    -0.460 OA
BRANCH  26  27
ATOM     27  C   UNL A   1      33.642  31.544  27.220  1.00  0.00     0.338 C 
ATOM     28  O   UNL A   1      33.022  32.516  27.621  1.00  0.00    -0.246 OA
BRANCH  27  29
ATOM     29  C   UNL A   1      34.950  31.148  27.773  1.00  0.00     0.060 A 
ATOM     30  C   UNL A   1      35.941  32.096  28.024  1.00  0.00     0.016 A 
ATOM     31  C   UNL A   1      35.160  29.797  28.085  1.00  0.00     0.016 A 
ATOM     32  C   UNL A   1      37.142  31.688  28.612  1.00  0.00     0.010 A 
ATOM     33  C   UNL A   1      36.360  29.393  28.672  1.00  0.00     0.010 A 
ATOM     34  C   UNL A   1      37.352  30.340  28.958  1.00  0.00    -0.014 A 
BRANCH  34  35
ATOM     35  C   UNL A   1      38.560  29.953  29.729  1.00  0.00     0.031 A 
ATOM     36  C   UNL A   1      38.825  30.501  31.099  1.00  0.00     0.074 A 
ATOM     37  C   UNL A   1      39.432  29.096  29.163  1.00  0.00     0.049 A 
ATOM     38  N   UNL A   1      39.798  30.208  31.925  1.00  0.00    -0.248 NA
ATOM     39  C   UNL A   1      37.885  31.509  31.612  1.00  0.00     0.031 C 
ATOM     40  C   UNL A   1      39.303  28.538  27.815  1.00  0.00     0.029 A 
ATOM     41  N   UNL A   1      40.590  28.539  29.644  1.00  0.00    -0.354 N 
ATOM     42  C   UNL A   1      39.579  30.977  33.060  1.00  0.00     0.074 A 
ATOM     43  C   UNL A   1      38.408  31.786  32.801  1.00  0.00     0.031 C 
ATOM     44  C   UNL A   1      40.324  27.698  27.589  1.00  0.00     0.029 A 
ATOM     45  C   UNL A   1      41.196  27.680  28.759  1.00  0.00     0.049 A 
ATOM     46  H   UNL A   1      40.952  28.735  30.537  1.00  0.00     0.167 HD
ATOM     47  C   UNL A   1      40.285  30.985  34.216  1.00  0.00     0.037 A 
ATOM     48  C   UNL A   1      42.329  26.960  28.875  1.00  0.00     0.037 A 
ATOM     49  C   UNL A   1      41.450  30.173  34.466  1.00  0.00     0.049 A 
ATOM     50  C   UNL A   1      43.105  27.016  30.163  1.00  0.00     0.074 A 
ATOM     51  C   UNL A   1      42.193  30.077  35.630  1.00  0.00     0.029 A 
ATOM     52  N   UNL A   1      42.045  29.329  33.542  1.00  0.00    -0.354 N 
ATOM     53  N   UNL A   1      42.834  27.674  31.264  1.00  0.00    -0.248 NA
ATOM     54  C   UNL A   1      44.342  26.224  30.231  1.00  0.00     0.031 C 
ATOM     55  C   UNL A   1      43.273  29.225  35.392  1.00  0.00     0.029 A 
ATOM     56  C   UNL A   1      43.168  28.737  34.100  1.00  0.00     0.049 A 
ATOM     57  H   UNL A   1      41.720  29.174  32.625  1.00  0.00     0.167 HD
ATOM     58  C   UNL A   1      43.848  27.359  32.157  1.00  0.00     0.074 A 
ATOM     59  C   UNL A   1      44.729  26.430  31.482  1.00  0.00     0.031 C 
ATOM     60  C   UNL A   1      44.034  27.806  33.423  1.00  0.00     0.037 A 
BRANCH  47  61
ATOM     61  C   UNL A   1      39.823  31.878  35.330  1.00  0.00     0.064 A 
ATOM     62  C   UNL A   1      40.278  33.201  35.435  1.00  0.00     0.173 A 
ATOM     63  C   UNL A   1      38.808  31.460  36.204  1.00  0.00     0.173 A 
ATOM     64  F   UNL A   1      41.248  33.648  34.624  1.00  0.00    -0.203 F 
ATOM     65  C   UNL A   1      39.730  34.073  36.371  1.00  0.00     0.198 A 
ATOM     66  C   UNL A   1      38.245  32.343  37.121  1.00  0.00     0.198 A 
ATOM     67  F   UNL A   1      38.330  30.209  36.136  1.00  0.00    -0.203 F 
ATOM     68  F   UNL A   1      40.183  35.332  36.458  1.00  0.00    -0.200 F 
ATOM     69  C   UNL A   1      38.704  33.650  37.203  1.00  0.00     0.200 A 
ATOM     70  F   UNL A   1      37.239  31.937  37.910  1.00  0.00    -0.200 F 
ATOM     71  F   UNL A   1      38.151  34.501  38.078  1.00  0.00    -0.200 F 
ENDBRANCH  47  61
BRANCH  48  72
ATOM     72  C   UNL A   1      42.790  26.112  27.743  1.00  0.00     0.064 A 
ATOM     73  C   UNL A   1      43.700  26.600  26.796  1.00  0.00     0.173 A 
ATOM     74  C   UNL A   1      42.321  24.800  27.580  1.00  0.00     0.173 A 
ATOM     75  F   UNL A   1      44.165  27.855  26.897  1.00  0.00    -0.203 F 
ATOM     76  C   UNL A   1      44.102  25.819  25.714  1.00  0.00     0.198 A 
ATOM     77  C   UNL A   1      42.750  24.008  26.518  1.00  0.00     0.198 A 
ATOM     78  F   UNL A   1      41.451  24.283  28.461  1.00  0.00    -0.203 F 
ATOM     79  F   UNL A   1      44.931  26.330  24.793  1.00  0.00    -0.200 F 
ATOM     80  C   UNL A   1      43.632  24.521  25.580  1.00  0.00     0.200 A 
ATOM     81  F   UNL A   1      42.306  22.749  26.402  1.00  0.00    -0.200 F 
ATOM     82  F   UNL A   1      44.022  23.769  24.541  1.00  0.00    -0.200 F 
ENDBRANCH  48  72
BRANCH  60  83
ATOM     83  C   UNL A   1      45.225  27.290  34.180  1.00  0.00     0.064 A 
ATOM     84  C   UNL A   1      46.445  27.981  34.186  1.00  0.00     0.173 A 
ATOM     85  C   UNL A   1      45.119  26.137  34.975  1.00  0.00     0.173 A 
ATOM     86  F   UNL A   1      46.602  29.081  33.434  1.00  0.00    -0.203 F 
ATOM     87  C   UNL A   1      47.520  27.530  34.948  1.00  0.00     0.198 A 
ATOM     88  C   UNL A   1      46.185  25.709  35.762  1.00  0.00     0.198 A 
ATOM     89  F   UNL A   1      43.972  25.444  35.012  1.00  0.00    -0.203 F 
ATOM     90  F   UNL A   1      48.688  28.187  34.910  1.00  0.00    -0.200 F 
ATOM     91  C   UNL A   1      47.385  26.403  35.744  1.00  0.00     0.200 A 
ATOM     92  F   UNL A   1      46.046  24.631  36.545  1.00  0.00    -0.200 F 
ATOM     93  F   UNL A   1      48.413  25.983  36.495  1.00  0.00    -0.200 F 
ENDBRANCH  60  83
ENDBRANCH  34  35
ENDBRANCH  27  29
ENDBRANCH  26  27
ENDBRANCH  25  26
ENDBRANCH   1  25
TORSDOF 16
ENDMDL
MODEL 2
REMARK VINA RESULT:     -11.6      3.921      9.639
REMARK SMILES COc1cc(C)cc2c1O[C@H](C(F)(F)F)C(C(=O)OCCOCCOC(=O)c1ccc(-c3c4nc(c(-c5c(F)c(F)c(F)c(F)c5F)c5ccc([nH]5)c(-c5c(F)c(F)c(F)c(F)c5F)c5nc(c(-c6c(F)c(F)c(F)c(F)c6F)c6ccc3[nH]6)C=C5)C=C4)cc1)=C2
REMARK SMILES IDX 23 1 22 2 21 3 20 4 19 5 17 6 18 7 16 8 3 9 4 10 9 11 5 12
REMARK SMILES IDX 8 13 10 14 6 15 7 16 91 17 11 18 2 19 1 20 12 21 13 22 14 23
REMARK SMILES IDX 15 24 24 25 25 26 26 27 27 28 28 29 29 30 90 31 30 32 89 33
REMARK SMILES IDX 31 34 32 35 33 36 83 37 34 38 88 39 82 40 84 41 35 42 87 43
REMARK SMILES IDX 81 44 80 45 36 47 68 48 48 49 67 50 49 51 52 52 66 53 85 54
REMARK SMILES IDX 50 55 51 56 65 58 86 59 53 60 37 61 38 62 46 63 39 64 40 65
REMARK SMILES IDX 44 66 47 67 41 68 42 69 45 70 43 71 69 72 70 73 78 74 71 75
REMARK SMILES IDX 72 76 76 77 79 78 73 79 74 80 77 81 75 82 54 83 55 84 63 85
REMARK SMILES IDX 56 86 57 87 61 88 64 89 58 90 59 91 62 92 60 93
REMARK H PARENT 84 46 52 57
REMARK Flexibility Score: inf
ROOT
ATOM      1  C   UNL A   1      35.654  20.384  24.996  1.00  0.00     0.202 C 
ENDROOT
BRANCH   1   2
ATOM      2  O   UNL A   1      34.746  21.376  24.522  1.00  0.00    -0.374 OA
BRANCH   2   3
ATOM      3  C   UNL A   1      33.465  21.480  25.134  1.00  0.00     0.202 C 
BRANCH   3   4
ATOM      4  C   UNL A   1      32.243  21.648  24.226  1.00  0.00     0.261 C 
BRANCH   4   5
ATOM      5  O   UNL A   1      31.809  23.012  24.143  1.00  0.00    -0.460 OA
BRANCH   5   6
ATOM      6  C   UNL A   1      31.153  23.453  25.243  1.00  0.00     0.338 C 
ATOM      7  O   UNL A   1      30.734  22.772  26.165  1.00  0.00    -0.246 OA
BRANCH   6   8
ATOM      8  C   UNL A   1      31.113  24.926  25.249  1.00  0.00     0.087 C 
ATOM      9  C   UNL A   1      31.228  29.065  24.740  1.00  0.00     0.161 A 
ATOM     10  C   UNL A   1      30.373  29.654  23.798  1.00  0.00     0.054 A 
ATOM     11  C   UNL A   1      31.132  27.687  24.992  1.00  0.00     0.169 A 
ATOM     12  C   UNL A   1      29.410  28.887  23.127  1.00  0.00    -0.047 A 
ATOM     13  C   UNL A   1      30.189  26.917  24.309  1.00  0.00     0.021 A 
ATOM     14  O   UNL A   1      31.978  27.158  25.933  1.00  0.00    -0.471 OA
ATOM     15  C   UNL A   1      28.508  29.496  22.093  1.00  0.00     0.044 C 
ATOM     16  C   UNL A   1      29.316  27.519  23.400  1.00  0.00     0.015 A 
ATOM     17  C   UNL A   1      30.174  25.476  24.469  1.00  0.00     0.027 C 
ATOM     18  C   UNL A   1      32.103  25.718  26.053  1.00  0.00     0.316 C 
BRANCH   9  19
ATOM     19  O   UNL A   1      32.230  29.729  25.400  1.00  0.00    -0.493 OA
ATOM     20  C   UNL A   1      31.840  30.726  26.333  1.00  0.00     0.278 C 
ENDBRANCH   9  19
BRANCH  18  21
ATOM     21  C   UNL A   1      33.558  25.329  25.756  1.00  0.00     0.430 C 
ATOM     22  F   UNL A   1      34.407  26.352  26.015  1.00  0.00    -0.167 F 
ATOM     23  F   UNL A   1      33.965  24.292  26.529  1.00  0.00    -0.167 F 
ATOM     24  F   UNL A   1      33.736  24.964  24.467  1.00  0.00    -0.167 F 
ENDBRANCH  18  21
ENDBRANCH   6   8
ENDBRANCH   5   6
ENDBRANCH   4   5
ENDBRANCH   3   4
ENDBRANCH   2   3
ENDBRANCH   1   2
BRANCH   1  25
ATOM     25  C   UNL A   1      37.160  20.622  24.817  1.00  0.00     0.261 C 
BRANCH  25  26
ATOM     26  O   UNL A   1      37.700  21.561  25.762  1.00  0.00    -0.460 OA
BRANCH  26  27
ATOM     27  C   UNL A   1      38.985  21.328  26.128  1.00  0.00     0.338 C 
ATOM     28  O   UNL A   1      39.642  20.317  25.934  1.00  0.00    -0.246 OA
BRANCH  27  29
ATOM     29  C   UNL A   1      39.575  22.575  26.647  1.00  0.00     0.060 A 
ATOM     30  C   UNL A   1      40.609  22.547  27.582  1.00  0.00     0.016 A 
ATOM     31  C   UNL A   1      39.101  23.795  26.144  1.00  0.00     0.016 A 
ATOM     32  C   UNL A   1      41.185  23.750  27.998  1.00  0.00     0.010 A 
ATOM     33  C   UNL A   1      39.679  24.995  26.561  1.00  0.00     0.010 A 
ATOM     34  C   UNL A   1      40.740  24.980  27.477  1.00  0.00    -0.014 A 
BRANCH  34  35
ATOM     35  C   UNL A   1      41.470  26.230  27.802  1.00  0.00     0.031 A 
ATOM     36  C   UNL A   1      42.874  26.464  27.330  1.00  0.00     0.074 A 
ATOM     37  C   UNL A   1      40.843  27.161  28.547  1.00  0.00     0.049 A 
ATOM     38  N   UNL A   1      43.620  27.531  27.474  1.00  0.00    -0.248 NA
ATOM     39  C   UNL A   1      43.531  25.364  26.609  1.00  0.00     0.031 C 
ATOM     40  C   UNL A   1      39.496  27.020  29.103  1.00  0.00     0.029 A 
ATOM     41  N   UNL A   1      41.246  28.406  28.961  1.00  0.00    -0.354 N 
ATOM     42  C   UNL A   1      44.825  27.240  26.848  1.00  0.00     0.074 A 
ATOM     43  C   UNL A   1      44.729  25.880  26.362  1.00  0.00     0.031 C 
ATOM     44  C   UNL A   1      39.173  28.144  29.760  1.00  0.00     0.029 A 
ATOM     45  C   UNL A   1      40.298  29.073  29.701  1.00  0.00     0.049 A 
ATOM     46  H   UNL A   1      42.128  28.785  28.749  1.00  0.00     0.167 HD
ATOM     47  C   UNL A   1      45.898  28.049  26.679  1.00  0.00     0.037 A 
ATOM     48  C   UNL A   1      40.332  30.293  30.269  1.00  0.00     0.037 A 
ATOM     49  C   UNL A   1      45.983  29.404  27.164  1.00  0.00     0.049 A 
ATOM     50  C   UNL A   1      41.554  31.154  30.088  1.00  0.00     0.074 A 
ATOM     51  C   UNL A   1      47.011  30.314  26.990  1.00  0.00     0.029 A 
ATOM     52  N   UNL A   1      45.012  30.039  27.923  1.00  0.00    -0.354 N 
ATOM     53  N   UNL A   1      42.647  30.904  29.410  1.00  0.00    -0.248 NA
ATOM     54  C   UNL A   1      41.545  32.471  30.742  1.00  0.00     0.031 C 
ATOM     55  C   UNL A   1      46.693  31.476  27.695  1.00  0.00     0.029 A 
ATOM     56  C   UNL A   1      45.437  31.317  28.255  1.00  0.00     0.049 A 
ATOM     57  H   UNL A   1      44.151  29.642  28.189  1.00  0.00     0.167 HD
ATOM     58  C   UNL A   1      43.442  32.034  29.538  1.00  0.00     0.074 A 
ATOM     59  C   UNL A   1      42.697  32.983  30.335  1.00  0.00     0.031 C 
ATOM     60  C   UNL A   1      44.683  32.260  29.041  1.00  0.00     0.037 A 
BRANCH  47  61
ATOM     61  C   UNL A   1      47.080  27.521  25.919  1.00  0.00     0.064 A 
ATOM     62  C   UNL A   1      47.164  27.654  24.526  1.00  0.00     0.173 A 
ATOM     63  C   UNL A   1      48.198  27.018  26.602  1.00  0.00     0.173 A 
ATOM     64  F   UNL A   1      46.122  28.128  23.828  1.00  0.00    -0.203 F 
ATOM     65  C   UNL A   1      48.328  27.308  23.844  1.00  0.00     0.198 A 
ATOM     66  C   UNL A   1      49.369  26.697  25.919  1.00  0.00     0.198 A 
ATOM     67  F   UNL A   1      48.172  26.882  27.936  1.00  0.00    -0.203 F 
ATOM     68  F   UNL A   1      48.386  27.439  22.511  1.00  0.00    -0.200 F 
ATOM     69  C   UNL A   1      49.434  26.845  24.542  1.00  0.00     0.200 A 
ATOM     70  F   UNL A   1      50.443  26.269  26.598  1.00  0.00    -0.200 F 
ATOM     71  F   UNL A   1      50.566  26.548  23.888  1.00  0.00    -0.200 F 
ENDBRANCH  47  61
BRANCH  48  72
ATOM     72  C   UNL A   1      39.165  30.781  31.052  1.00  0.00     0.064 A 
ATOM     73  C   UNL A   1      39.059  30.530  32.427  1.00  0.00     0.173 A 
ATOM     74  C   UNL A   1      38.127  31.498  30.439  1.00  0.00     0.173 A 
ATOM     75  F   UNL A   1      40.016  29.832  33.057  1.00  0.00    -0.203 F 
ATOM     76  C   UNL A   1      37.947  30.954  33.153  1.00  0.00     0.198 A 
ATOM     77  C   UNL A   1      37.033  31.951  31.172  1.00  0.00     0.198 A 
ATOM     78  F   UNL A   1      38.182  31.769  29.126  1.00  0.00    -0.203 F 
ATOM     79  F   UNL A   1      37.845  30.652  34.454  1.00  0.00    -0.200 F 
ATOM     80  C   UNL A   1      36.939  31.670  32.525  1.00  0.00     0.200 A 
ATOM     81  F   UNL A   1      36.070  32.659  30.565  1.00  0.00    -0.200 F 
ATOM     82  F   UNL A   1      35.871  32.080  33.225  1.00  0.00    -0.200 F 
ENDBRANCH  48  72
BRANCH  60  83
ATOM     83  C   UNL A   1      45.319  33.591  29.326  1.00  0.00     0.064 A 
ATOM     84  C   UNL A   1      45.101  34.700  28.495  1.00  0.00     0.173 A 
ATOM     85  C   UNL A   1      46.086  33.781  30.486  1.00  0.00     0.173 A 
ATOM     86  F   UNL A   1      44.386  34.570  27.368  1.00  0.00    -0.203 F 
ATOM     87  C   UNL A   1      45.638  35.946  28.808  1.00  0.00     0.198 A 
ATOM     88  C   UNL A   1      46.593  35.036  30.813  1.00  0.00     0.198 A 
ATOM     89  F   UNL A   1      46.317  32.756  31.320  1.00  0.00    -0.203 F 
ATOM     90  F   UNL A   1      45.447  36.983  27.981  1.00  0.00    -0.200 F 
ATOM     91  C   UNL A   1      46.372  36.116  29.972  1.00  0.00     0.200 A 
ATOM     92  F   UNL A   1      47.286  35.202  31.948  1.00  0.00    -0.200 F 
ATOM     93  F   UNL A   1      46.870  37.321  30.283  1.00  0.00    -0.200 F 
ENDBRANCH  60  83
ENDBRANCH  34  35
ENDBRANCH  27  29
ENDBRANCH  26  27
ENDBRANCH  25  26
ENDBRANCH   1  25
TORSDOF 16
ENDMDL
MODEL 3
REMARK VINA RESULT:     -11.5      3.957      9.656
REMARK SMILES COc1cc(C)cc2c1O[C@H](C(F)(F)F)C(C(=O)OCCOCCOC(=O)c1ccc(-c3c4nc(c(-c5c(F)c(F)c(F)c(F)c5F)c5ccc([nH]5)c(-c5c(F)c(F)c(F)c(F)c5F)c5nc(c(-c6c(F)c(F)c(F)c(F)c6F)c6ccc3[nH]6)C=C5)C=C4)cc1)=C2
REMARK SMILES IDX 23 1 22 2 21 3 20 4 19 5 17 6 18 7 16 8 3 9 4 10 9 11 5 12
REMARK SMILES IDX 8 13 10 14 6 15 7 16 91 17 11 18 2 19 1 20 12 21 13 22 14 23
REMARK SMILES IDX 15 24 24 25 25 26 26 27 27 28 28 29 29 30 90 31 30 32 89 33
REMARK SMILES IDX 31 34 32 35 33 36 83 37 34 38 88 39 82 40 84 41 35 42 87 43
REMARK SMILES IDX 81 44 80 45 36 47 68 48 48 49 67 50 49 51 52 52 66 53 85 54
REMARK SMILES IDX 50 55 51 56 65 58 86 59 53 60 37 61 38 62 46 63 39 64 40 65
REMARK SMILES IDX 44 66 47 67 41 68 42 69 45 70 43 71 69 72 70 73 78 74 71 75
REMARK SMILES IDX 72 76 76 77 79 78 73 79 74 80 77 81 75 82 54 83 55 84 63 85
REMARK SMILES IDX 56 86 57 87 61 88 64 89 58 90 59 91 62 92 60 93
REMARK H PARENT 84 46 52 57
REMARK Flexibility Score: inf
ROOT
ATOM      1  C   UNL A   1      35.530  21.012  24.917  1.00  0.00     0.202 C 
ENDROOT
BRANCH   1   2
ATOM      2  O   UNL A   1      35.080  22.365  24.878  1.00  0.00    -0.374 OA
BRANCH   2   3
ATOM      3  C   UNL A   1      33.899  22.672  24.145  1.00  0.00     0.202 C 
BRANCH   3   4
ATOM      4  C   UNL A   1      33.973  23.776  23.086  1.00  0.00     0.261 C 
BRANCH   4   5
ATOM      5  O   UNL A   1      33.110  24.881  23.390  1.00  0.00    -0.460 OA
BRANCH   5   6
ATOM      6  C   UNL A   1      33.333  25.983  22.634  1.00  0.00     0.338 C 
ATOM      7  O   UNL A   1      33.541  26.013  21.432  1.00  0.00    -0.246 OA
BRANCH   6   8
ATOM      8  C   UNL A   1      33.166  27.197  23.453  1.00  0.00     0.087 C 
ATOM      9  C   UNL A   1      32.532  30.280  26.191  1.00  0.00     0.161 A 
ATOM     10  C   UNL A   1      33.397  30.398  27.287  1.00  0.00     0.054 A 
ATOM     11  C   UNL A   1      32.790  29.309  25.210  1.00  0.00     0.169 A 
ATOM     12  C   UNL A   1      34.526  29.575  27.400  1.00  0.00    -0.047 A 
ATOM     13  C   UNL A   1      33.902  28.473  25.331  1.00  0.00     0.021 A 
ATOM     14  O   UNL A   1      31.926  29.241  24.147  1.00  0.00    -0.471 OA
ATOM     15  C   UNL A   1      35.445  29.667  28.584  1.00  0.00     0.044 C 
ATOM     16  C   UNL A   1      34.780  28.624  26.408  1.00  0.00     0.015 A 
ATOM     17  C   UNL A   1      34.100  27.387  24.392  1.00  0.00     0.027 C 
ATOM     18  C   UNL A   1      31.991  28.108  23.244  1.00  0.00     0.316 C 
BRANCH   9  19
ATOM     19  O   UNL A   1      31.380  31.005  26.030  1.00  0.00    -0.493 OA
ATOM     20  C   UNL A   1      31.374  32.333  26.535  1.00  0.00     0.278 C 
ENDBRANCH   9  19
BRANCH  18  21
ATOM     21  C   UNL A   1      30.647  27.368  23.295  1.00  0.00     0.430 C 
ATOM     22  F   UNL A   1      29.607  28.232  23.380  1.00  0.00    -0.167 F 
ATOM     23  F   UNL A   1      30.440  26.633  22.175  1.00  0.00    -0.167 F 
ATOM     24  F   UNL A   1      30.568  26.526  24.349  1.00  0.00    -0.167 F 
ENDBRANCH  18  21
ENDBRANCH   6   8
ENDBRANCH   5   6
ENDBRANCH   4   5
ENDBRANCH   3   4
ENDBRANCH   2   3
ENDBRANCH   1   2
BRANCH   1  25
ATOM     25  C   UNL A   1      37.015  20.742  25.196  1.00  0.00     0.261 C 
BRANCH  25  26
ATOM     26  O   UNL A   1      37.721  21.899  25.673  1.00  0.00    -0.460 OA
BRANCH  26  27
ATOM     27  C   UNL A   1      38.979  21.657  26.119  1.00  0.00     0.338 C 
ATOM     28  O   UNL A   1      39.643  20.645  25.958  1.00  0.00    -0.246 OA
BRANCH  27  29
ATOM     29  C   UNL A   1      39.539  22.897  26.687  1.00  0.00     0.060 A 
ATOM     30  C   UNL A   1      40.574  22.857  27.620  1.00  0.00     0.016 A 
ATOM     31  C   UNL A   1      39.034  24.124  26.234  1.00  0.00     0.016 A 
ATOM     32  C   UNL A   1      41.122  24.056  28.083  1.00  0.00     0.010 A 
ATOM     33  C   UNL A   1      39.583  25.320  26.698  1.00  0.00     0.010 A 
ATOM     34  C   UNL A   1      40.645  25.294  27.612  1.00  0.00    -0.014 A 
BRANCH  34  35
ATOM     35  C   UNL A   1      41.345  26.548  27.986  1.00  0.00     0.031 A 
ATOM     36  C   UNL A   1      42.782  26.782  27.628  1.00  0.00     0.074 A 
ATOM     37  C   UNL A   1      40.659  27.483  28.671  1.00  0.00     0.049 A 
ATOM     38  N   UNL A   1      43.513  27.851  27.824  1.00  0.00    -0.248 NA
ATOM     39  C   UNL A   1      43.498  25.678  26.970  1.00  0.00     0.031 C 
ATOM     40  C   UNL A   1      39.271  27.344  29.118  1.00  0.00     0.029 A 
ATOM     41  N   UNL A   1      41.024  28.732  29.108  1.00  0.00    -0.354 N 
ATOM     42  C   UNL A   1      44.765  27.558  27.300  1.00  0.00     0.074 A 
ATOM     43  C   UNL A   1      44.711  26.195  26.818  1.00  0.00     0.031 C 
ATOM     44  C   UNL A   1      38.894  28.471  29.738  1.00  0.00     0.029 A 
ATOM     45  C   UNL A   1      40.019  29.402  29.763  1.00  0.00     0.049 A 
ATOM     46  H   UNL A   1      41.921  29.111  28.966  1.00  0.00     0.167 HD
ATOM     47  C   UNL A   1      45.847  28.368  27.213  1.00  0.00     0.037 A 
ATOM     48  C   UNL A   1      40.005  30.626  30.324  1.00  0.00     0.037 A 
ATOM     49  C   UNL A   1      45.890  29.727  27.694  1.00  0.00     0.049 A 
ATOM     50  C   UNL A   1      41.236  31.488  30.236  1.00  0.00     0.074 A 
ATOM     51  C   UNL A   1      46.928  30.637  27.597  1.00  0.00     0.029 A 
ATOM     52  N   UNL A   1      44.860  30.365  28.367  1.00  0.00    -0.354 N 
ATOM     53  N   UNL A   1      42.381  31.235  29.652  1.00  0.00    -0.248 NA
ATOM     54  C   UNL A   1      41.172  32.809  30.878  1.00  0.00     0.031 C 
ATOM     55  C   UNL A   1      46.552  31.804  28.266  1.00  0.00     0.029 A 
ATOM     56  C   UNL A   1      45.255  31.646  28.723  1.00  0.00     0.049 A 
ATOM     57  H   UNL A   1      43.981  29.968  28.565  1.00  0.00     0.167 HD
ATOM     58  C   UNL A   1      43.162  32.368  29.835  1.00  0.00     0.074 A 
ATOM     59  C   UNL A   1      42.353  33.322  30.563  1.00  0.00     0.031 C 
ATOM     60  C   UNL A   1      44.439  32.593  29.439  1.00  0.00     0.037 A 
BRANCH  47  61
ATOM     61  C   UNL A   1      47.087  27.837  26.556  1.00  0.00     0.064 A 
ATOM     62  C   UNL A   1      48.055  27.138  27.291  1.00  0.00     0.173 A 
ATOM     63  C   UNL A   1      47.234  27.894  25.161  1.00  0.00     0.173 A 
ATOM     64  F   UNL A   1      47.960  27.056  28.626  1.00  0.00    -0.203 F 
ATOM     65  C   UNL A   1      49.122  26.511  26.653  1.00  0.00     0.198 A 
ATOM     66  C   UNL A   1      48.288  27.244  24.525  1.00  0.00     0.198 A 
ATOM     67  F   UNL A   1      46.328  28.540  24.411  1.00  0.00    -0.203 F 
ATOM     68  F   UNL A   1      50.039  25.852  27.376  1.00  0.00    -0.200 F 
ATOM     69  C   UNL A   1      49.230  26.551  25.271  1.00  0.00     0.200 A 
ATOM     70  F   UNL A   1      48.379  27.267  23.188  1.00  0.00    -0.200 F 
ATOM     71  F   UNL A   1      50.237  25.915  24.656  1.00  0.00    -0.200 F 
ENDBRANCH  47  61
BRANCH  48  72
ATOM     72  C   UNL A   1      38.778  31.117  31.006  1.00  0.00     0.064 A 
ATOM     73  C   UNL A   1      37.767  31.776  30.294  1.00  0.00     0.173 A 
ATOM     74  C   UNL A   1      38.596  30.946  32.387  1.00  0.00     0.173 A 
ATOM     75  F   UNL A   1      37.901  31.981  28.975  1.00  0.00    -0.203 F 
ATOM     76  C   UNL A   1      36.635  32.270  30.940  1.00  0.00     0.198 A 
ATOM     77  C   UNL A   1      37.448  31.409  33.026  1.00  0.00     0.198 A 
ATOM     78  F   UNL A   1      39.532  30.318  33.115  1.00  0.00    -0.203 F 
ATOM     79  F   UNL A   1      35.710  32.945  30.244  1.00  0.00    -0.200 F 
ATOM     80  C   UNL A   1      36.474  32.080  32.304  1.00  0.00     0.200 A 
ATOM     81  F   UNL A   1      37.289  31.207  34.341  1.00  0.00    -0.200 F 
ATOM     82  F   UNL A   1      35.383  32.551  32.924  1.00  0.00    -0.200 F 
ENDBRANCH  48  72
BRANCH  60  83
ATOM     83  C   UNL A   1      45.047  33.927  29.765  1.00  0.00     0.064 A 
ATOM     84  C   UNL A   1      45.786  34.129  30.940  1.00  0.00     0.173 A 
ATOM     85  C   UNL A   1      44.961  34.991  28.852  1.00  0.00     0.173 A 
ATOM     86  F   UNL A   1      45.889  33.149  31.850  1.00  0.00    -0.203 F 
ATOM     87  C   UNL A   1      46.405  35.350  31.196  1.00  0.00     0.198 A 
ATOM     88  C   UNL A   1      45.610  36.199  29.097  1.00  0.00     0.198 A 
ATOM     89  F   UNL A   1      44.274  34.848  27.709  1.00  0.00    -0.203 F 
ATOM     90  F   UNL A   1      47.076  35.532  32.341  1.00  0.00    -0.200 F 
ATOM     91  C   UNL A   1      46.327  36.379  30.269  1.00  0.00     0.200 A 
ATOM     92  F   UNL A   1      45.549  37.185  28.191  1.00  0.00    -0.200 F 
ATOM     93  F   UNL A   1      46.942  37.546  30.507  1.00  0.00    -0.200 F 
ENDBRANCH  60  83
ENDBRANCH  34  35
ENDBRANCH  27  29
ENDBRANCH  26  27
ENDBRANCH  25  26
ENDBRANCH   1  25
TORSDOF 16
ENDMDL
