MODEL 1
REMARK VINA RESULT:     -12.2      0.000      0.000
REMARK SMILES Cc1ccc(S(=O)(=O)N(c2ccccc2)[C@H](C)C(=O)OCCOCCOC(=O)c2ccc(-c3c4nc(c(-c5c(F)c(F)c(F)c(F)c5F)c5ccc([nH]5)c(-c5c(F)c(F)c(F)c(F)c5F)c5nc(c(-c6c(F)c(F)c(F)c(F)c6F)c6ccc3[nH]6)C=C5)C=C4)cc2)cc1
REMARK SMILES IDX 22 1 21 2 20 3 18 4 19 5 16 6 17 7 9 8 6 9 7 10 8 11 5 12
REMARK SMILES IDX 1 13 2 14 3 15 93 16 4 17 92 18 10 19 11 20 15 21 12 22
REMARK SMILES IDX 14 23 13 24 23 25 24 26 25 27 26 28 27 29 28 30 29 31 30 32
REMARK SMILES IDX 91 33 31 34 90 35 32 36 33 37 34 38 84 39 35 40 89 41 83 42
REMARK SMILES IDX 85 43 36 44 88 45 82 46 81 47 37 49 69 50 49 51 68 52 50 53
REMARK SMILES IDX 53 54 67 55 86 56 51 57 52 58 66 60 87 61 54 62 38 63 39 64
REMARK SMILES IDX 47 65 40 66 41 67 45 68 48 69 42 70 43 71 46 72 44 73 70 74
REMARK SMILES IDX 71 75 79 76 72 77 73 78 77 79 80 80 74 81 75 82 78 83 76 84
REMARK SMILES IDX 55 85 56 86 64 87 57 88 58 89 62 90 65 91 59 92 60 93 63 94
REMARK SMILES IDX 61 95
REMARK H PARENT 85 48 53 59
REMARK Flexibility Score: inf
ROOT
ATOM      1  C   UNL A   1      31.630  28.977  25.143  1.00  0.00     0.202 C 
ENDROOT
BRANCH   1   2
ATOM      2  C   UNL A   1      31.078  27.628  24.815  1.00  0.00     0.261 C 
BRANCH   2   3
ATOM      3  O   UNL A   1      32.091  26.697  25.156  1.00  0.00    -0.462 OA
BRANCH   3   4
ATOM      4  C   UNL A   1      33.130  26.497  24.301  1.00  0.00     0.329 C 
ATOM      5  O   UNL A   1      34.226  27.028  24.364  1.00  0.00    -0.250 OA
BRANCH   4   6
ATOM      6  C   UNL A   1      32.638  25.540  23.223  1.00  0.00     0.206 C 
ATOM      7  C   UNL A   1      33.151  26.038  21.862  1.00  0.00     0.045 C 
BRANCH   6   8
ATOM      8  N   UNL A   1      33.010  24.083  23.467  1.00  0.00    -0.252 N 
BRANCH   8   9
ATOM      9  S   UNL A   1      31.674  23.229  24.150  1.00  0.00     0.265 S 
ATOM     10  O   UNL A   1      30.583  23.399  23.199  1.00  0.00    -0.201 OA
ATOM     11  O   UNL A   1      31.512  23.623  25.525  1.00  0.00    -0.201 OA
BRANCH   9  12
ATOM     12  C   UNL A   1      32.107  21.510  24.166  1.00  0.00     0.088 A 
ATOM     13  C   UNL A   1      32.941  17.305  24.090  1.00  0.00     0.044 C 
ATOM     14  C   UNL A   1      32.690  18.781  24.114  1.00  0.00    -0.051 A 
ATOM     15  C   UNL A   1      32.833  19.517  25.301  1.00  0.00     0.005 A 
ATOM     16  C   UNL A   1      32.358  19.446  22.934  1.00  0.00     0.005 A 
ATOM     17  C   UNL A   1      32.521  20.880  25.337  1.00  0.00     0.022 A 
ATOM     18  C   UNL A   1      32.121  20.812  22.956  1.00  0.00     0.022 A 
ENDBRANCH   9  12
ENDBRANCH   8   9
BRANCH   8  19
ATOM     19  C   UNL A   1      34.331  23.818  23.998  1.00  0.00     0.053 A 
ATOM     20  C   UNL A   1      34.694  24.063  25.321  1.00  0.00     0.027 A 
ATOM     21  C   UNL A   1      35.298  23.300  23.136  1.00  0.00     0.027 A 
ATOM     22  C   UNL A   1      36.021  23.952  25.735  1.00  0.00     0.002 A 
ATOM     23  C   UNL A   1      36.616  23.109  23.573  1.00  0.00     0.002 A 
ATOM     24  C   UNL A   1      36.987  23.476  24.863  1.00  0.00     0.000 A 
ENDBRANCH   8  19
ENDBRANCH   6   8
ENDBRANCH   4   6
ENDBRANCH   3   4
ENDBRANCH   2   3
ENDBRANCH   1   2
BRANCH   1  25
ATOM     25  O   UNL A   1      31.776  29.002  26.553  1.00  0.00    -0.374 OA
BRANCH  25  26
ATOM     26  C   UNL A   1      33.057  29.402  27.012  1.00  0.00     0.202 C 
BRANCH  26  27
ATOM     27  C   UNL A   1      33.147  30.909  27.288  1.00  0.00     0.261 C 
BRANCH  27  28
ATOM     28  O   UNL A   1      34.536  31.309  27.297  1.00  0.00    -0.460 OA
BRANCH  28  29
ATOM     29  C   UNL A   1      35.136  31.345  28.520  1.00  0.00     0.338 C 
ATOM     30  O   UNL A   1      35.186  32.322  29.249  1.00  0.00    -0.246 OA
BRANCH  29  31
ATOM     31  C   UNL A   1      36.018  30.146  28.692  1.00  0.00     0.060 A 
ATOM     32  C   UNL A   1      36.253  29.637  29.985  1.00  0.00     0.016 A 
ATOM     33  C   UNL A   1      36.904  29.841  27.666  1.00  0.00     0.016 A 
ATOM     34  C   UNL A   1      37.460  28.982  30.280  1.00  0.00     0.010 A 
ATOM     35  C   UNL A   1      38.148  29.344  28.001  1.00  0.00     0.010 A 
ATOM     36  C   UNL A   1      38.451  28.928  29.307  1.00  0.00    -0.014 A 
BRANCH  36  37
ATOM     37  C   UNL A   1      39.850  28.531  29.501  1.00  0.00     0.031 A 
ATOM     38  C   UNL A   1      40.281  27.203  28.991  1.00  0.00     0.074 A 
ATOM     39  C   UNL A   1      40.800  29.412  29.896  1.00  0.00     0.049 A 
ATOM     40  N   UNL A   1      41.466  26.723  29.126  1.00  0.00    -0.248 NA
ATOM     41  C   UNL A   1      39.380  26.270  28.325  1.00  0.00     0.031 C 
ATOM     42  C   UNL A   1      42.226  29.364  29.571  1.00  0.00     0.029 A 
ATOM     43  N   UNL A   1      40.689  30.525  30.731  1.00  0.00    -0.354 N 
ATOM     44  C   UNL A   1      41.576  25.595  28.349  1.00  0.00     0.074 A 
ATOM     45  C   UNL A   1      40.226  25.316  27.933  1.00  0.00     0.031 C 
ATOM     46  C   UNL A   1      42.895  30.222  30.352  1.00  0.00     0.029 A 
ATOM     47  C   UNL A   1      41.954  30.765  31.309  1.00  0.00     0.049 A 
ATOM     48  H   UNL A   1      39.872  31.051  30.889  1.00  0.00     0.167 HD
ATOM     49  C   UNL A   1      42.827  25.101  28.113  1.00  0.00     0.037 A 
ATOM     50  C   UNL A   1      42.116  30.789  32.664  1.00  0.00     0.037 A 
ATOM     51  C   UNL A   1      43.824  25.836  28.911  1.00  0.00     0.049 A 
ATOM     52  C   UNL A   1      42.955  29.632  33.142  1.00  0.00     0.074 A 
ATOM     53  C   UNL A   1      44.778  26.806  28.653  1.00  0.00     0.029 A 
ATOM     54  N   UNL A   1      43.703  25.798  30.290  1.00  0.00    -0.354 N 
ATOM     55  N   UNL A   1      43.439  28.733  32.329  1.00  0.00    -0.248 NA
ATOM     56  C   UNL A   1      43.276  29.337  34.533  1.00  0.00     0.031 C 
ATOM     57  C   UNL A   1      45.239  27.320  29.909  1.00  0.00     0.029 A 
ATOM     58  C   UNL A   1      44.584  26.645  30.926  1.00  0.00     0.049 A 
ATOM     59  H   UNL A   1      43.056  25.226  30.765  1.00  0.00     0.167 HD
ATOM     60  C   UNL A   1      44.062  27.746  33.022  1.00  0.00     0.074 A 
ATOM     61  C   UNL A   1      43.913  28.157  34.411  1.00  0.00     0.031 C 
ATOM     62  C   UNL A   1      44.610  26.668  32.387  1.00  0.00     0.037 A 
BRANCH  49  63
ATOM     63  C   UNL A   1      43.210  24.025  27.107  1.00  0.00     0.064 A 
ATOM     64  C   UNL A   1      42.801  22.687  27.315  1.00  0.00     0.173 A 
ATOM     65  C   UNL A   1      43.990  24.205  25.946  1.00  0.00     0.173 A 
ATOM     66  F   UNL A   1      42.015  22.348  28.346  1.00  0.00    -0.203 F 
ATOM     67  C   UNL A   1      43.174  21.636  26.467  1.00  0.00     0.198 A 
ATOM     68  C   UNL A   1      44.367  23.156  25.101  1.00  0.00     0.198 A 
ATOM     69  F   UNL A   1      44.411  25.400  25.537  1.00  0.00    -0.203 F 
ATOM     70  F   UNL A   1      42.754  20.390  26.728  1.00  0.00    -0.200 F 
ATOM     71  C   UNL A   1      43.965  21.869  25.363  1.00  0.00     0.200 A 
ATOM     72  F   UNL A   1      45.123  23.417  24.023  1.00  0.00    -0.200 F 
ATOM     73  F   UNL A   1      44.324  20.868  24.550  1.00  0.00    -0.200 F 
ENDBRANCH  49  63
BRANCH  50  74
ATOM     74  C   UNL A   1      40.961  31.460  33.334  1.00  0.00     0.064 A 
ATOM     75  C   UNL A   1      40.839  32.841  33.068  1.00  0.00     0.173 A 
ATOM     76  C   UNL A   1      39.777  30.743  33.560  1.00  0.00     0.173 A 
ATOM     77  F   UNL A   1      41.942  33.587  32.897  1.00  0.00    -0.203 F 
ATOM     78  C   UNL A   1      39.603  33.404  32.749  1.00  0.00     0.198 A 
ATOM     79  C   UNL A   1      38.537  31.325  33.277  1.00  0.00     0.198 A 
ATOM     80  F   UNL A   1      39.829  29.433  33.839  1.00  0.00    -0.203 F 
ATOM     81  F   UNL A   1      39.544  34.652  32.263  1.00  0.00    -0.200 F 
ATOM     82  C   UNL A   1      38.460  32.626  32.799  1.00  0.00     0.200 A 
ATOM     83  F   UNL A   1      37.423  30.582  33.335  1.00  0.00    -0.200 F 
ATOM     84  F   UNL A   1      37.302  33.103  32.321  1.00  0.00    -0.200 F 
ENDBRANCH  50  74
BRANCH  62  85
ATOM     85  C   UNL A   1      45.173  25.497  33.135  1.00  0.00     0.064 A 
ATOM     86  C   UNL A   1      44.358  24.506  33.695  1.00  0.00     0.173 A 
ATOM     87  C   UNL A   1      46.563  25.342  33.334  1.00  0.00     0.173 A 
ATOM     88  F   UNL A   1      43.022  24.628  33.687  1.00  0.00    -0.203 F 
ATOM     89  C   UNL A   1      44.902  23.362  34.281  1.00  0.00     0.198 A 
ATOM     90  C   UNL A   1      47.100  24.238  33.984  1.00  0.00     0.198 A 
ATOM     91  F   UNL A   1      47.454  26.227  32.868  1.00  0.00    -0.203 F 
ATOM     92  F   UNL A   1      44.089  22.381  34.695  1.00  0.00    -0.200 F 
ATOM     93  C   UNL A   1      46.272  23.226  34.420  1.00  0.00     0.200 A 
ATOM     94  F   UNL A   1      48.427  24.149  34.152  1.00  0.00    -0.200 F 
ATOM     95  F   UNL A   1      46.793  22.121  34.965  1.00  0.00    -0.200 F 
ENDBRANCH  62  85
ENDBRANCH  36  37
ENDBRANCH  29  31
ENDBRANCH  28  29
ENDBRANCH  27  28
ENDBRANCH  26  27
ENDBRANCH  25  26
ENDBRANCH   1  25
TORSDOF 18
ENDMDL
MODEL 2
REMARK VINA RESULT:     -12.1      3.135      9.561
REMARK SMILES Cc1ccc(S(=O)(=O)N(c2ccccc2)[C@H](C)C(=O)OCCOCCOC(=O)c2ccc(-c3c4nc(c(-c5c(F)c(F)c(F)c(F)c5F)c5ccc([nH]5)c(-c5c(F)c(F)c(F)c(F)c5F)c5nc(c(-c6c(F)c(F)c(F)c(F)c6F)c6ccc3[nH]6)C=C5)C=C4)cc2)cc1
REMARK SMILES IDX 22 1 21 2 20 3 18 4 19 5 16 6 17 7 9 8 6 9 7 10 8 11 5 12
REMARK SMILES IDX 1 13 2 14 3 15 93 16 4 17 92 18 10 19 11 20 15 21 12 22
REMARK SMILES IDX 14 23 13 24 23 25 24 26 25 27 26 28 27 29 28 30 29 31 30 32
REMARK SMILES IDX 91 33 31 34 90 35 32 36 33 37 34 38 84 39 35 40 89 41 83 42
REMARK SMILES IDX 85 43 36 44 88 45 82 46 81 47 37 49 69 50 49 51 68 52 50 53
REMARK SMILES IDX 53 54 67 55 86 56 51 57 52 58 66 60 87 61 54 62 38 63 39 64
REMARK SMILES IDX 47 65 40 66 41 67 45 68 48 69 42 70 43 71 46 72 44 73 70 74
REMARK SMILES IDX 71 75 79 76 72 77 73 78 77 79 80 80 74 81 75 82 78 83 76 84
REMARK SMILES IDX 55 85 56 86 64 87 57 88 58 89 62 90 65 91 59 92 60 93 63 94
REMARK SMILES IDX 61 95
REMARK H PARENT 85 48 53 59
REMARK Flexibility Score: inf
ROOT
ATOM      1  C   UNL A   1      35.316  21.720  25.523  1.00  0.00     0.202 C 
ENDROOT
BRANCH   1   2
ATOM      2  C   UNL A   1      35.090  22.310  24.170  1.00  0.00     0.261 C 
BRANCH   2   3
ATOM      3  O   UNL A   1      33.688  22.465  24.039  1.00  0.00    -0.462 OA
BRANCH   3   4
ATOM      4  C   UNL A   1      33.196  23.437  23.223  1.00  0.00     0.329 C 
ATOM      5  O   UNL A   1      33.694  23.818  22.178  1.00  0.00    -0.250 OA
BRANCH   4   6
ATOM      6  C   UNL A   1      31.952  23.996  23.900  1.00  0.00     0.206 C 
ATOM      7  C   UNL A   1      31.569  23.060  25.059  1.00  0.00     0.045 C 
BRANCH   6   8
ATOM      8  N   UNL A   1      32.091  25.441  24.365  1.00  0.00    -0.252 N 
BRANCH   8   9
ATOM      9  S   UNL A   1      32.439  25.496  26.055  1.00  0.00     0.265 S 
ATOM     10  O   UNL A   1      33.696  24.774  26.212  1.00  0.00    -0.201 OA
ATOM     11  O   UNL A   1      31.270  25.096  26.794  1.00  0.00    -0.201 OA
BRANCH   9  12
ATOM     12  C   UNL A   1      32.742  27.192  26.470  1.00  0.00     0.088 A 
ATOM     13  C   UNL A   1      33.666  31.221  27.608  1.00  0.00     0.044 C 
ATOM     14  C   UNL A   1      33.329  29.828  27.174  1.00  0.00    -0.051 A 
ATOM     15  C   UNL A   1      32.017  29.340  27.275  1.00  0.00     0.005 A 
ATOM     16  C   UNL A   1      34.318  29.019  26.617  1.00  0.00     0.005 A 
ATOM     17  C   UNL A   1      31.722  28.014  26.943  1.00  0.00     0.022 A 
ATOM     18  C   UNL A   1      34.008  27.726  26.220  1.00  0.00     0.022 A 
ENDBRANCH   9  12
ENDBRANCH   8   9
BRANCH   8  19
ATOM     19  C   UNL A   1      31.145  26.400  23.833  1.00  0.00     0.053 A 
ATOM     20  C   UNL A   1      31.519  27.559  23.157  1.00  0.00     0.027 A 
ATOM     21  C   UNL A   1      29.783  26.156  24.017  1.00  0.00     0.027 A 
ATOM     22  C   UNL A   1      30.577  28.529  22.818  1.00  0.00     0.002 A 
ATOM     23  C   UNL A   1      28.828  27.094  23.602  1.00  0.00     0.002 A 
ATOM     24  C   UNL A   1      29.229  28.302  23.040  1.00  0.00     0.000 A 
ENDBRANCH   8  19
ENDBRANCH   6   8
ENDBRANCH   4   6
ENDBRANCH   3   4
ENDBRANCH   2   3
ENDBRANCH   1   2
BRANCH   1  25
ATOM     25  O   UNL A   1      36.537  21.005  25.434  1.00  0.00    -0.374 OA
BRANCH  25  26
ATOM     26  C   UNL A   1      37.641  21.768  24.976  1.00  0.00     0.202 C 
BRANCH  26  27
ATOM     27  C   UNL A   1      38.947  21.426  25.705  1.00  0.00     0.261 C 
BRANCH  27  28
ATOM     28  O   UNL A   1      39.177  22.396  26.751  1.00  0.00    -0.460 OA
BRANCH  28  29
ATOM     29  C   UNL A   1      40.260  23.206  26.582  1.00  0.00     0.338 C 
ATOM     30  O   UNL A   1      41.421  22.833  26.574  1.00  0.00    -0.246 OA
BRANCH  29  31
ATOM     31  C   UNL A   1      39.859  24.639  26.760  1.00  0.00     0.060 A 
ATOM     32  C   UNL A   1      40.566  25.647  26.074  1.00  0.00     0.016 A 
ATOM     33  C   UNL A   1      39.118  24.970  27.887  1.00  0.00     0.016 A 
ATOM     34  C   UNL A   1      40.673  26.936  26.623  1.00  0.00     0.010 A 
ATOM     35  C   UNL A   1      39.361  26.184  28.497  1.00  0.00     0.010 A 
ATOM     36  C   UNL A   1      40.153  27.172  27.890  1.00  0.00    -0.014 A 
BRANCH  36  37
ATOM     37  C   UNL A   1      40.390  28.352  28.729  1.00  0.00     0.031 A 
ATOM     38  C   UNL A   1      39.354  29.416  28.754  1.00  0.00     0.074 A 
ATOM     39  C   UNL A   1      41.379  28.390  29.654  1.00  0.00     0.049 A 
ATOM     40  N   UNL A   1      39.454  30.513  29.420  1.00  0.00    -0.248 NA
ATOM     41  C   UNL A   1      38.125  29.356  27.972  1.00  0.00     0.031 C 
ATOM     42  C   UNL A   1      41.382  29.155  30.901  1.00  0.00     0.029 A 
ATOM     43  N   UNL A   1      42.634  27.778  29.640  1.00  0.00    -0.354 N 
ATOM     44  C   UNL A   1      38.239  31.153  29.400  1.00  0.00     0.074 A 
ATOM     45  C   UNL A   1      37.470  30.428  28.421  1.00  0.00     0.031 C 
ATOM     46  C   UNL A   1      42.618  29.173  31.416  1.00  0.00     0.029 A 
ATOM     47  C   UNL A   1      43.497  28.535  30.460  1.00  0.00     0.049 A 
ATOM     48  H   UNL A   1      42.874  26.962  29.145  1.00  0.00     0.167 HD
ATOM     49  C   UNL A   1      38.041  32.175  30.283  1.00  0.00     0.037 A 
ATOM     50  C   UNL A   1      44.656  29.060  29.966  1.00  0.00     0.037 A 
ATOM     51  C   UNL A   1      39.293  32.482  30.997  1.00  0.00     0.049 A 
ATOM     52  C   UNL A   1      44.607  30.566  29.921  1.00  0.00     0.074 A 
ATOM     53  C   UNL A   1      39.795  32.241  32.265  1.00  0.00     0.029 A 
ATOM     54  N   UNL A   1      40.381  32.895  30.244  1.00  0.00    -0.354 N 
ATOM     55  N   UNL A   1      43.562  31.245  30.305  1.00  0.00    -0.248 NA
ATOM     56  C   UNL A   1      45.659  31.432  29.403  1.00  0.00     0.031 C 
ATOM     57  C   UNL A   1      41.194  32.547  32.254  1.00  0.00     0.029 A 
ATOM     58  C   UNL A   1      41.536  32.997  30.989  1.00  0.00     0.049 A 
ATOM     59  H   UNL A   1      40.332  33.095  29.281  1.00  0.00     0.167 HD
ATOM     60  C   UNL A   1      43.734  32.570  30.061  1.00  0.00     0.074 A 
ATOM     61  C   UNL A   1      45.063  32.638  29.469  1.00  0.00     0.031 C 
ATOM     62  C   UNL A   1      42.752  33.478  30.339  1.00  0.00     0.037 A 
BRANCH  49  63
ATOM     63  C   UNL A   1      36.722  32.863  30.605  1.00  0.00     0.064 A 
ATOM     64  C   UNL A   1      36.061  33.621  29.612  1.00  0.00     0.173 A 
ATOM     65  C   UNL A   1      36.058  32.858  31.850  1.00  0.00     0.173 A 
ATOM     66  F   UNL A   1      36.531  33.694  28.359  1.00  0.00    -0.203 F 
ATOM     67  C   UNL A   1      34.880  34.334  29.857  1.00  0.00     0.198 A 
ATOM     68  C   UNL A   1      34.882  33.574  32.098  1.00  0.00     0.198 A 
ATOM     69  F   UNL A   1      36.482  32.145  32.891  1.00  0.00    -0.203 F 
ATOM     70  F   UNL A   1      34.310  35.039  28.869  1.00  0.00    -0.200 F 
ATOM     71  C   UNL A   1      34.294  34.317  31.105  1.00  0.00     0.200 A 
ATOM     72  F   UNL A   1      34.325  33.523  33.318  1.00  0.00    -0.200 F 
ATOM     73  F   UNL A   1      33.166  34.998  31.344  1.00  0.00    -0.200 F 
ENDBRANCH  49  63
BRANCH  50  74
ATOM     74  C   UNL A   1      45.326  28.108  29.029  1.00  0.00     0.064 A 
ATOM     75  C   UNL A   1      45.762  26.901  29.617  1.00  0.00     0.173 A 
ATOM     76  C   UNL A   1      44.923  28.057  27.686  1.00  0.00     0.173 A 
ATOM     77  F   UNL A   1      46.209  26.901  30.883  1.00  0.00    -0.203 F 
ATOM     78  C   UNL A   1      45.525  25.674  28.999  1.00  0.00     0.198 A 
ATOM     79  C   UNL A   1      44.725  26.824  27.056  1.00  0.00     0.198 A 
ATOM     80  F   UNL A   1      44.518  29.174  27.065  1.00  0.00    -0.203 F 
ATOM     81  F   UNL A   1      45.723  24.535  29.679  1.00  0.00    -0.200 F 
ATOM     82  C   UNL A   1      44.953  25.638  27.740  1.00  0.00     0.200 A 
ATOM     83  F   UNL A   1      44.183  26.780  25.831  1.00  0.00    -0.200 F 
ATOM     84  F   UNL A   1      44.555  24.469  27.217  1.00  0.00    -0.200 F 
ENDBRANCH  50  74
BRANCH  62  85
ATOM     85  C   UNL A   1      42.861  34.921  29.947  1.00  0.00     0.064 A 
ATOM     86  C   UNL A   1      43.493  35.871  30.758  1.00  0.00     0.173 A 
ATOM     87  C   UNL A   1      42.309  35.405  28.740  1.00  0.00     0.173 A 
ATOM     88  F   UNL A   1      43.927  35.548  31.986  1.00  0.00    -0.203 F 
ATOM     89  C   UNL A   1      43.693  37.182  30.324  1.00  0.00     0.198 A 
ATOM     90  C   UNL A   1      42.443  36.730  28.343  1.00  0.00     0.198 A 
ATOM     91  F   UNL A   1      41.660  34.609  27.881  1.00  0.00    -0.203 F 
ATOM     92  F   UNL A   1      44.409  38.027  31.077  1.00  0.00    -0.200 F 
ATOM     93  C   UNL A   1      43.173  37.609  29.115  1.00  0.00     0.200 A 
ATOM     94  F   UNL A   1      41.890  37.136  27.191  1.00  0.00    -0.200 F 
ATOM     95  F   UNL A   1      43.380  38.861  28.690  1.00  0.00    -0.200 F 
ENDBRANCH  62  85
ENDBRANCH  36  37
ENDBRANCH  29  31
ENDBRANCH  28  29
ENDBRANCH  27  28
ENDBRANCH  26  27
ENDBRANCH  25  26
ENDBRANCH   1  25
TORSDOF 18
ENDMDL
MODEL 3
REMARK VINA RESULT:     -12.0      3.221      9.472
REMARK SMILES Cc1ccc(S(=O)(=O)N(c2ccccc2)[C@H](C)C(=O)OCCOCCOC(=O)c2ccc(-c3c4nc(c(-c5c(F)c(F)c(F)c(F)c5F)c5ccc([nH]5)c(-c5c(F)c(F)c(F)c(F)c5F)c5nc(c(-c6c(F)c(F)c(F)c(F)c6F)c6ccc3[nH]6)C=C5)C=C4)cc2)cc1
REMARK SMILES IDX 22 1 21 2 20 3 18 4 19 5 16 6 17 7 9 8 6 9 7 10 8 11 5 12
REMARK SMILES IDX 1 13 2 14 3 15 93 16 4 17 92 18 10 19 11 20 15 21 12 22
REMARK SMILES IDX 14 23 13 24 23 25 24 26 25 27 26 28 27 29 28 30 29 31 30 32
REMARK SMILES IDX 91 33 31 34 90 35 32 36 33 37 34 38 84 39 35 40 89 41 83 42
REMARK SMILES IDX 85 43 36 44 88 45 82 46 81 47 37 49 69 50 49 51 68 52 50 53
REMARK SMILES IDX 53 54 67 55 86 56 51 57 52 58 66 60 87 61 54 62 38 63 39 64
REMARK SMILES IDX 47 65 40 66 41 67 45 68 48 69 42 70 43 71 46 72 44 73 70 74
REMARK SMILES IDX 71 75 79 76 72 77 73 78 77 79 80 80 74 81 75 82 78 83 76 84
REMARK SMILES IDX 55 85 56 86 64 87 57 88 58 89 62 90 65 91 59 92 60 93 63 94
REMARK SMILES IDX 61 95
REMARK H PARENT 85 48 53 59
REMARK Flexibility Score: inf
ROOT
ATOM      1  C   UNL A   1      35.285  21.081  24.650  1.00  0.00     0.202 C 
ENDROOT
BRANCH   1   2
ATOM      2  C   UNL A   1      34.294  21.370  25.730  1.00  0.00     0.261 C 
BRANCH   2   3
ATOM      3  O   UNL A   1      34.392  22.759  25.990  1.00  0.00    -0.462 OA
BRANCH   3   4
ATOM      4  C   UNL A   1      33.278  23.536  25.899  1.00  0.00     0.329 C 
ATOM      5  O   UNL A   1      32.144  23.204  26.195  1.00  0.00    -0.250 OA
BRANCH   4   6
ATOM      6  C   UNL A   1      33.714  24.866  25.298  1.00  0.00     0.206 C 
ATOM      7  C   UNL A   1      34.483  24.582  23.998  1.00  0.00     0.045 C 
BRANCH   6   8
ATOM      8  N   UNL A   1      32.574  25.852  25.074  1.00  0.00    -0.252 N 
BRANCH   8   9
ATOM      9  S   UNL A   1      32.078  25.830  23.421  1.00  0.00     0.265 S 
ATOM     10  O   UNL A   1      31.445  24.532  23.227  1.00  0.00    -0.201 OA
ATOM     11  O   UNL A   1      33.181  26.237  22.589  1.00  0.00    -0.201 OA
BRANCH   9  12
ATOM     12  C   UNL A   1      30.824  27.069  23.236  1.00  0.00     0.088 A 
ATOM     13  C   UNL A   1      27.653  29.899  22.671  1.00  0.00     0.044 C 
ATOM     14  C   UNL A   1      28.771  28.930  22.904  1.00  0.00    -0.051 A 
ATOM     15  C   UNL A   1      30.094  29.266  22.580  1.00  0.00     0.005 A 
ATOM     16  C   UNL A   1      28.504  27.696  23.495  1.00  0.00     0.005 A 
ATOM     17  C   UNL A   1      31.123  28.330  22.725  1.00  0.00     0.022 A 
ATOM     18  C   UNL A   1      29.538  26.795  23.706  1.00  0.00     0.022 A 
ENDBRANCH   9  12
ENDBRANCH   8   9
BRANCH   8  19
ATOM     19  C   UNL A   1      32.670  27.135  25.740  1.00  0.00     0.053 A 
ATOM     20  C   UNL A   1      33.698  28.047  25.511  1.00  0.00     0.027 A 
ATOM     21  C   UNL A   1      31.685  27.472  26.669  1.00  0.00     0.027 A 
ATOM     22  C   UNL A   1      33.835  29.188  26.301  1.00  0.00     0.002 A 
ATOM     23  C   UNL A   1      31.777  28.660  27.407  1.00  0.00     0.002 A 
ATOM     24  C   UNL A   1      32.877  29.499  27.253  1.00  0.00     0.000 A 
ENDBRANCH   8  19
ENDBRANCH   6   8
ENDBRANCH   4   6
ENDBRANCH   3   4
ENDBRANCH   2   3
ENDBRANCH   1   2
BRANCH   1  25
ATOM     25  O   UNL A   1      36.285  20.273  25.251  1.00  0.00    -0.374 OA
BRANCH  25  26
ATOM     26  C   UNL A   1      37.617  20.691  25.000  1.00  0.00     0.202 C 
BRANCH  26  27
ATOM     27  C   UNL A   1      37.988  21.980  25.744  1.00  0.00     0.261 C 
BRANCH  27  28
ATOM     28  O   UNL A   1      39.423  22.146  25.725  1.00  0.00    -0.460 OA
BRANCH  28  29
ATOM     29  C   UNL A   1      39.974  22.681  26.851  1.00  0.00     0.338 C 
ATOM     30  O   UNL A   1      40.403  22.040  27.796  1.00  0.00    -0.246 OA
BRANCH  29  31
ATOM     31  C   UNL A   1      39.665  24.145  26.924  1.00  0.00     0.060 A 
ATOM     32  C   UNL A   1      40.421  25.054  26.155  1.00  0.00     0.016 A 
ATOM     33  C   UNL A   1      38.966  24.606  28.033  1.00  0.00     0.016 A 
ATOM     34  C   UNL A   1      40.616  26.370  26.603  1.00  0.00     0.010 A 
ATOM     35  C   UNL A   1      39.294  25.845  28.546  1.00  0.00     0.010 A 
ATOM     36  C   UNL A   1      40.135  26.733  27.855  1.00  0.00    -0.014 A 
BRANCH  36  37
ATOM     37  C   UNL A   1      40.458  27.955  28.600  1.00  0.00     0.031 A 
ATOM     38  C   UNL A   1      39.437  29.033  28.660  1.00  0.00     0.074 A 
ATOM     39  C   UNL A   1      41.530  28.032  29.424  1.00  0.00     0.049 A 
ATOM     40  N   UNL A   1      39.608  30.163  29.249  1.00  0.00    -0.248 NA
ATOM     41  C   UNL A   1      38.139  28.944  28.001  1.00  0.00     0.031 C 
ATOM     42  C   UNL A   1      41.656  28.867  30.620  1.00  0.00     0.029 A 
ATOM     43  N   UNL A   1      42.774  27.405  29.328  1.00  0.00    -0.354 N 
ATOM     44  C   UNL A   1      38.401  30.818  29.306  1.00  0.00     0.074 A 
ATOM     45  C   UNL A   1      37.538  30.049  28.447  1.00  0.00     0.031 C 
ATOM     46  C   UNL A   1      42.935  28.897  31.015  1.00  0.00     0.029 A 
ATOM     47  C   UNL A   1      43.716  28.195  30.019  1.00  0.00     0.049 A 
ATOM     48  H   UNL A   1      42.960  26.559  28.861  1.00  0.00     0.167 HD
ATOM     49  C   UNL A   1      38.295  31.890  30.144  1.00  0.00     0.037 A 
ATOM     50  C   UNL A   1      44.827  28.676  29.390  1.00  0.00     0.037 A 
ATOM     51  C   UNL A   1      39.611  32.220  30.720  1.00  0.00     0.049 A 
ATOM     52  C   UNL A   1      44.786  30.178  29.263  1.00  0.00     0.074 A 
ATOM     53  C   UNL A   1      40.228  32.044  31.947  1.00  0.00     0.029 A 
ATOM     54  N   UNL A   1      40.626  32.576  29.846  1.00  0.00    -0.354 N 
ATOM     55  N   UNL A   1      43.786  30.891  29.704  1.00  0.00    -0.248 NA
ATOM     56  C   UNL A   1      45.791  31.000  28.601  1.00  0.00     0.031 C 
ATOM     57  C   UNL A   1      41.623  32.332  31.788  1.00  0.00     0.029 A 
ATOM     58  C   UNL A   1      41.847  32.705  30.472  1.00  0.00     0.049 A 
ATOM     59  H   UNL A   1      40.489  32.722  28.881  1.00  0.00     0.167 HD
ATOM     60  C   UNL A   1      43.945  32.197  29.370  1.00  0.00     0.074 A 
ATOM     61  C   UNL A   1      45.213  32.215  28.653  1.00  0.00     0.031 C 
ATOM     62  C   UNL A   1      43.001  33.133  29.685  1.00  0.00     0.037 A 
BRANCH  49  63
ATOM     63  C   UNL A   1      37.018  32.612  30.548  1.00  0.00     0.064 A 
ATOM     64  C   UNL A   1      36.343  33.429  29.612  1.00  0.00     0.173 A 
ATOM     65  C   UNL A   1      36.408  32.585  31.820  1.00  0.00     0.173 A 
ATOM     66  F   UNL A   1      36.761  33.531  28.343  1.00  0.00    -0.203 F 
ATOM     67  C   UNL A   1      35.201  34.174  29.935  1.00  0.00     0.198 A 
ATOM     68  C   UNL A   1      35.271  33.333  32.145  1.00  0.00     0.198 A 
ATOM     69  F   UNL A   1      36.849  31.819  32.816  1.00  0.00    -0.203 F 
ATOM     70  F   UNL A   1      34.616  34.934  28.998  1.00  0.00    -0.200 F 
ATOM     71  C   UNL A   1      34.669  34.133  31.205  1.00  0.00     0.200 A 
ATOM     72  F   UNL A   1      34.765  33.257  33.386  1.00  0.00    -0.200 F 
ATOM     73  F   UNL A   1      33.578  34.843  31.518  1.00  0.00    -0.200 F 
ENDBRANCH  49  63
BRANCH  50  74
ATOM     74  C   UNL A   1      45.398  27.664  28.451  1.00  0.00     0.064 A 
ATOM     75  C   UNL A   1      45.812  26.458  29.055  1.00  0.00     0.173 A 
ATOM     76  C   UNL A   1      44.918  27.590  27.135  1.00  0.00     0.173 A 
ATOM     77  F   UNL A   1      46.329  26.477  30.294  1.00  0.00    -0.203 F 
ATOM     78  C   UNL A   1      45.485  25.224  28.494  1.00  0.00     0.198 A 
ATOM     79  C   UNL A   1      44.629  26.348  26.560  1.00  0.00     0.198 A 
ATOM     80  F   UNL A   1      44.529  28.704  26.499  1.00  0.00    -0.203 F 
ATOM     81  F   UNL A   1      45.670  24.099  29.200  1.00  0.00    -0.200 F 
ATOM     82  C   UNL A   1      44.841  25.175  27.270  1.00  0.00     0.200 A 
ATOM     83  F   UNL A   1      44.016  26.291  25.369  1.00  0.00    -0.200 F 
ATOM     84  F   UNL A   1      44.361  24.010  26.811  1.00  0.00    -0.200 F 
ENDBRANCH  50  74
BRANCH  62  85
ATOM     85  C   UNL A   1      43.083  34.550  29.202  1.00  0.00     0.064 A 
ATOM     86  C   UNL A   1      43.002  34.883  27.845  1.00  0.00     0.173 A 
ATOM     87  C   UNL A   1      43.268  35.628  30.095  1.00  0.00     0.173 A 
ATOM     88  F   UNL A   1      42.968  33.928  26.903  1.00  0.00    -0.203 F 
ATOM     89  C   UNL A   1      42.957  36.212  27.423  1.00  0.00     0.198 A 
ATOM     90  C   UNL A   1      43.298  36.949  29.665  1.00  0.00     0.198 A 
ATOM     91  F   UNL A   1      43.380  35.450  31.418  1.00  0.00    -0.203 F 
ATOM     92  F   UNL A   1      42.757  36.488  26.127  1.00  0.00    -0.200 F 
ATOM     93  C   UNL A   1      43.099  37.244  28.333  1.00  0.00     0.200 A 
ATOM     94  F   UNL A   1      43.486  37.932  30.557  1.00  0.00    -0.200 F 
ATOM     95  F   UNL A   1      43.038  38.519  27.930  1.00  0.00    -0.200 F 
ENDBRANCH  62  85
ENDBRANCH  36  37
ENDBRANCH  29  31
ENDBRANCH  28  29
ENDBRANCH  27  28
ENDBRANCH  26  27
ENDBRANCH  25  26
ENDBRANCH   1  25
TORSDOF 18
ENDMDL
