MODEL 1
REMARK VINA RESULT:     -11.6      0.000      0.000
REMARK SMILES Cc1[nH]c2ccccc2c1[C@H]([NH3+])CC(=O)OCCOCCOC(=O)c1ccc(-c2c3nc(c(-c4c(F)c(F)c(F)c(F)c4F)c4ccc([nH]4)c(-c4c(F)c(F)c(F)c(F)c4F)c4nc(c(-c5c(F)c(F)c(F)c(F)c5F)c5ccc2[nH]5)C=C4)C=C3)cc1
REMARK SMILES IDX 19 1 18 2 17 3 16 4 14 5 15 6 13 7 11 8 10 9 1 10 2 11 3 12
REMARK SMILES IDX 4 13 9 15 5 16 8 17 6 18 7 19 12 20 20 24 21 25 22 26 23 27
REMARK SMILES IDX 24 28 25 29 26 30 87 31 27 32 86 33 28 34 29 35 30 36 80 37
REMARK SMILES IDX 31 38 85 39 79 40 81 41 32 42 84 43 78 44 77 45 33 47 65 48
REMARK SMILES IDX 45 49 64 50 46 51 49 52 63 53 82 54 47 55 48 56 62 58 83 59
REMARK SMILES IDX 50 60 34 61 35 62 43 63 36 64 37 65 41 66 44 67 38 68 39 69
REMARK SMILES IDX 42 70 40 71 66 72 67 73 75 74 68 75 69 76 73 77 76 78 70 79
REMARK SMILES IDX 71 80 74 81 72 82 51 83 52 84 60 85 53 86 54 87 58 88 61 89
REMARK SMILES IDX 55 90 56 91 59 92 57 93
REMARK H PARENT 3 14 12 21 12 22 12 23 81 46 49 57
REMARK Flexibility Score: inf
ROOT
ATOM      1  O   UNL A   1      46.345  21.504  25.572  1.00  0.00    -0.374 OA
ENDROOT
BRANCH   1   2
ATOM      2  C   UNL A   1      46.201  20.462  24.605  1.00  0.00     0.202 C 
BRANCH   2   3
ATOM      3  C   UNL A   1      45.525  19.180  25.104  1.00  0.00     0.261 C 
BRANCH   3   4
ATOM      4  O   UNL A   1      44.210  19.028  24.531  1.00  0.00    -0.463 OA
BRANCH   4   5
ATOM      5  C   UNL A   1      43.176  18.820  25.387  1.00  0.00     0.312 C 
ATOM      6  O   UNL A   1      42.775  17.721  25.749  1.00  0.00    -0.252 OA
BRANCH   5   7
ATOM      7  C   UNL A   1      42.547  20.116  25.839  1.00  0.00     0.192 C 
BRANCH   7   8
ATOM      8  C   UNL A   1      41.229  19.915  26.599  1.00  0.00     0.225 C 
BRANCH   8   9
ATOM      9  C   UNL A   1      40.499  21.224  26.836  1.00  0.00     0.038 A 
ATOM     10  C   UNL A   1      41.811  22.597  28.698  1.00  0.00     0.065 C 
ATOM     11  C   UNL A   1      40.765  22.303  27.679  1.00  0.00     0.022 A 
ATOM     12  N   UNL A   1      39.811  23.266  27.431  1.00  0.00    -0.358 N 
ATOM     13  C   UNL A   1      38.904  22.841  26.499  1.00  0.00     0.046 A 
ATOM     14  H   UNL A   1      39.786  24.148  27.870  1.00  0.00     0.166 HD
ATOM     15  C   UNL A   1      39.280  21.556  26.128  1.00  0.00     0.009 A 
ATOM     16  C   UNL A   1      37.791  23.499  25.961  1.00  0.00     0.027 A 
ATOM     17  C   UNL A   1      38.478  20.874  25.184  1.00  0.00     0.011 A 
ATOM     18  C   UNL A   1      37.022  22.806  25.022  1.00  0.00     0.002 A 
ATOM     19  C   UNL A   1      37.353  21.509  24.643  1.00  0.00     0.001 A 
ENDBRANCH   8   9
BRANCH   8  20
ATOM     20  N   UNL A   1      41.440  19.203  27.858  1.00  0.00    -0.351 N 
ATOM     21  H   UNL A   1      40.556  18.811  28.180  1.00  0.00     0.345 HD
ATOM     22  H   UNL A   1      41.800  19.851  28.558  1.00  0.00     0.345 HD
ATOM     23  H   UNL A   1      42.114  18.451  27.714  1.00  0.00     0.345 HD
ENDBRANCH   8  20
ENDBRANCH   7   8
ENDBRANCH   5   7
ENDBRANCH   4   5
ENDBRANCH   3   4
ENDBRANCH   2   3
ENDBRANCH   1   2
BRANCH   1  24
ATOM     24  C   UNL A   1      45.248  22.406  25.693  1.00  0.00     0.202 C 
BRANCH  24  25
ATOM     25  C   UNL A   1      44.659  22.912  24.371  1.00  0.00     0.261 C 
BRANCH  25  26
ATOM     26  O   UNL A   1      43.847  24.085  24.556  1.00  0.00    -0.460 OA
BRANCH  26  27
ATOM     27  C   UNL A   1      44.510  25.170  25.012  1.00  0.00     0.338 C 
ATOM     28  O   UNL A   1      45.589  25.599  24.626  1.00  0.00    -0.246 OA
BRANCH  27  29
ATOM     29  C   UNL A   1      43.676  25.910  25.977  1.00  0.00     0.060 A 
ATOM     30  C   UNL A   1      44.004  27.251  26.209  1.00  0.00     0.016 A 
ATOM     31  C   UNL A   1      42.646  25.299  26.697  1.00  0.00     0.016 A 
ATOM     32  C   UNL A   1      43.341  27.973  27.200  1.00  0.00     0.010 A 
ATOM     33  C   UNL A   1      41.985  26.023  27.697  1.00  0.00     0.010 A 
ATOM     34  C   UNL A   1      42.354  27.352  27.978  1.00  0.00    -0.014 A 
BRANCH  34  35
ATOM     35  C   UNL A   1      41.825  28.054  29.173  1.00  0.00     0.031 A 
ATOM     36  C   UNL A   1      42.552  27.918  30.482  1.00  0.00     0.074 A 
ATOM     37  C   UNL A   1      40.742  28.846  29.083  1.00  0.00     0.049 A 
ATOM     38  N   UNL A   1      42.269  28.441  31.649  1.00  0.00    -0.248 NA
ATOM     39  C   UNL A   1      43.762  27.082  30.475  1.00  0.00     0.031 C 
ATOM     40  C   UNL A   1      39.976  29.094  27.864  1.00  0.00     0.029 A 
ATOM     41  N   UNL A   1      40.100  29.590  30.043  1.00  0.00    -0.354 N 
ATOM     42  C   UNL A   1      43.263  27.998  32.512  1.00  0.00     0.074 A 
ATOM     43  C   UNL A   1      44.136  27.136  31.745  1.00  0.00     0.031 C 
ATOM     44  C   UNL A   1      38.962  29.929  28.149  1.00  0.00     0.029 A 
ATOM     45  C   UNL A   1      38.992  30.251  29.575  1.00  0.00     0.049 A 
ATOM     46  H   UNL A   1      40.406  29.643  30.977  1.00  0.00     0.167 HD
ATOM     47  C   UNL A   1      43.437  28.292  33.822  1.00  0.00     0.037 A 
ATOM     48  C   UNL A   1      38.094  31.014  30.229  1.00  0.00     0.037 A 
ATOM     49  C   UNL A   1      42.571  29.152  34.585  1.00  0.00     0.049 A 
ATOM     50  C   UNL A   1      38.270  31.265  31.705  1.00  0.00     0.074 A 
ATOM     51  C   UNL A   1      42.678  29.524  35.914  1.00  0.00     0.029 A 
ATOM     52  N   UNL A   1      41.434  29.768  34.088  1.00  0.00    -0.354 N 
ATOM     53  N   UNL A   1      39.225  30.862  32.507  1.00  0.00    -0.248 NA
ATOM     54  C   UNL A   1      37.239  32.079  32.366  1.00  0.00     0.031 C 
ATOM     55  C   UNL A   1      41.577  30.326  36.234  1.00  0.00     0.029 A 
ATOM     56  C   UNL A   1      40.813  30.495  35.090  1.00  0.00     0.049 A 
ATOM     57  H   UNL A   1      41.114  29.699  33.159  1.00  0.00     0.167 HD
ATOM     58  C   UNL A   1      38.927  31.394  33.756  1.00  0.00     0.074 A 
ATOM     59  C   UNL A   1      37.709  32.161  33.603  1.00  0.00     0.031 C 
ATOM     60  C   UNL A   1      39.602  31.259  34.924  1.00  0.00     0.037 A 
BRANCH  47  61
ATOM     61  C   UNL A   1      44.602  27.659  34.525  1.00  0.00     0.064 A 
ATOM     62  C   UNL A   1      45.849  28.296  34.605  1.00  0.00     0.173 A 
ATOM     63  C   UNL A   1      44.459  26.414  35.156  1.00  0.00     0.173 A 
ATOM     64  F   UNL A   1      46.041  29.482  34.007  1.00  0.00    -0.203 F 
ATOM     65  C   UNL A   1      46.915  27.701  35.275  1.00  0.00     0.198 A 
ATOM     66  C   UNL A   1      45.519  25.834  35.848  1.00  0.00     0.198 A 
ATOM     67  F   UNL A   1      43.286  25.765  35.113  1.00  0.00    -0.203 F 
ATOM     68  F   UNL A   1      48.110  28.309  35.304  1.00  0.00    -0.200 F 
ATOM     69  C   UNL A   1      46.749  26.474  35.901  1.00  0.00     0.200 A 
ATOM     70  F   UNL A   1      45.352  24.655  36.462  1.00  0.00    -0.200 F 
ATOM     71  F   UNL A   1      47.773  25.906  36.550  1.00  0.00    -0.200 F 
ENDBRANCH  47  61
BRANCH  48  72
ATOM     72  C   UNL A   1      36.936  31.591  29.498  1.00  0.00     0.064 A 
ATOM     73  C   UNL A   1      36.860  32.964  29.228  1.00  0.00     0.173 A 
ATOM     74  C   UNL A   1      35.869  30.783  29.078  1.00  0.00     0.173 A 
ATOM     75  F   UNL A   1      37.841  33.781  29.634  1.00  0.00    -0.203 F 
ATOM     76  C   UNL A   1      35.751  33.509  28.582  1.00  0.00     0.198 A 
ATOM     77  C   UNL A   1      34.775  31.325  28.407  1.00  0.00     0.198 A 
ATOM     78  F   UNL A   1      35.891  29.463  29.317  1.00  0.00    -0.203 F 
ATOM     79  F   UNL A   1      35.681  34.831  28.380  1.00  0.00    -0.200 F 
ATOM     80  C   UNL A   1      34.713  32.689  28.168  1.00  0.00     0.200 A 
ATOM     81  F   UNL A   1      33.779  30.526  28.001  1.00  0.00    -0.200 F 
ATOM     82  F   UNL A   1      33.649  33.213  27.546  1.00  0.00    -0.200 F 
ENDBRANCH  48  72
BRANCH  60  83
ATOM     83  C   UNL A   1      39.060  31.980  36.124  1.00  0.00     0.064 A 
ATOM     84  C   UNL A   1      39.408  33.311  36.401  1.00  0.00     0.173 A 
ATOM     85  C   UNL A   1      38.149  31.348  36.983  1.00  0.00     0.173 A 
ATOM     86  F   UNL A   1      40.285  33.956  35.619  1.00  0.00    -0.203 F 
ATOM     87  C   UNL A   1      38.882  33.972  37.508  1.00  0.00     0.198 A 
ATOM     88  C   UNL A   1      37.602  32.021  38.072  1.00  0.00     0.198 A 
ATOM     89  F   UNL A   1      37.777  30.078  36.759  1.00  0.00    -0.203 F 
ATOM     90  F   UNL A   1      39.264  35.229  37.780  1.00  0.00    -0.200 F 
ATOM     91  C   UNL A   1      37.975  33.330  38.337  1.00  0.00     0.200 A 
ATOM     92  F   UNL A   1      36.716  31.403  38.864  1.00  0.00    -0.200 F 
ATOM     93  F   UNL A   1      37.464  33.971  39.398  1.00  0.00    -0.200 F 
ENDBRANCH  60  83
ENDBRANCH  34  35
ENDBRANCH  27  29
ENDBRANCH  26  27
ENDBRANCH  25  26
ENDBRANCH  24  25
ENDBRANCH   1  24
TORSDOF 17
ENDMDL
MODEL 2
REMARK VINA RESULT:     -11.4      0.582      7.543
REMARK SMILES Cc1[nH]c2ccccc2c1[C@H]([NH3+])CC(=O)OCCOCCOC(=O)c1ccc(-c2c3nc(c(-c4c(F)c(F)c(F)c(F)c4F)c4ccc([nH]4)c(-c4c(F)c(F)c(F)c(F)c4F)c4nc(c(-c5c(F)c(F)c(F)c(F)c5F)c5ccc2[nH]5)C=C4)C=C3)cc1
REMARK SMILES IDX 19 1 18 2 17 3 16 4 14 5 15 6 13 7 11 8 10 9 1 10 2 11 3 12
REMARK SMILES IDX 4 13 9 15 5 16 8 17 6 18 7 19 12 20 20 24 21 25 22 26 23 27
REMARK SMILES IDX 24 28 25 29 26 30 87 31 27 32 86 33 28 34 29 35 30 36 80 37
REMARK SMILES IDX 31 38 85 39 79 40 81 41 32 42 84 43 78 44 77 45 33 47 65 48
REMARK SMILES IDX 45 49 64 50 46 51 49 52 63 53 82 54 47 55 48 56 62 58 83 59
REMARK SMILES IDX 50 60 34 61 35 62 43 63 36 64 37 65 41 66 44 67 38 68 39 69
REMARK SMILES IDX 42 70 40 71 66 72 67 73 75 74 68 75 69 76 73 77 76 78 70 79
REMARK SMILES IDX 71 80 74 81 72 82 51 83 52 84 60 85 53 86 54 87 58 88 61 89
REMARK SMILES IDX 55 90 56 91 59 92 57 93
REMARK H PARENT 3 14 12 21 12 22 12 23 81 46 49 57
REMARK Flexibility Score: inf
ROOT
ATOM      1  O   UNL A   1      46.344  21.638  25.623  1.00  0.00    -0.374 OA
ENDROOT
BRANCH   1   2
ATOM      2  C   UNL A   1      46.201  20.604  24.646  1.00  0.00     0.202 C 
BRANCH   2   3
ATOM      3  C   UNL A   1      45.545  19.309  25.140  1.00  0.00     0.261 C 
BRANCH   3   4
ATOM      4  O   UNL A   1      44.225  19.150  24.581  1.00  0.00    -0.463 OA
BRANCH   4   5
ATOM      5  C   UNL A   1      43.200  18.946  25.449  1.00  0.00     0.312 C 
ATOM      6  O   UNL A   1      42.790  17.849  25.806  1.00  0.00    -0.252 OA
BRANCH   5   7
ATOM      7  C   UNL A   1      42.593  20.245  25.923  1.00  0.00     0.192 C 
BRANCH   7   8
ATOM      8  C   UNL A   1      41.245  20.059  26.631  1.00  0.00     0.225 C 
BRANCH   8   9
ATOM      9  C   UNL A   1      40.565  21.384  26.925  1.00  0.00     0.038 A 
ATOM     10  C   UNL A   1      41.954  22.646  28.810  1.00  0.00     0.065 C 
ATOM     11  C   UNL A   1      40.882  22.423  27.801  1.00  0.00     0.022 A 
ATOM     12  N   UNL A   1      39.959  23.426  27.602  1.00  0.00    -0.358 N 
ATOM     13  C   UNL A   1      39.022  23.065  26.672  1.00  0.00     0.046 A 
ATOM     14  H   UNL A   1      39.971  24.292  28.071  1.00  0.00     0.166 HD
ATOM     15  C   UNL A   1      39.347  21.782  26.251  1.00  0.00     0.009 A 
ATOM     16  C   UNL A   1      37.924  23.778  26.176  1.00  0.00     0.027 A 
ATOM     17  C   UNL A   1      38.506  21.161  25.299  1.00  0.00     0.011 A 
ATOM     18  C   UNL A   1      37.117  23.146  25.228  1.00  0.00     0.002 A 
ATOM     19  C   UNL A   1      37.396  21.852  24.799  1.00  0.00     0.001 A 
ENDBRANCH   8   9
BRANCH   8  20
ATOM     20  N   UNL A   1      41.386  19.266  27.851  1.00  0.00    -0.351 N 
ATOM     21  H   UNL A   1      41.689  18.322  27.610  1.00  0.00     0.345 HD
ATOM     22  H   UNL A   1      40.489  19.222  28.334  1.00  0.00     0.345 HD
ATOM     23  H   UNL A   1      42.079  19.700  28.461  1.00  0.00     0.345 HD
ENDBRANCH   8  20
ENDBRANCH   7   8
ENDBRANCH   5   7
ENDBRANCH   4   5
ENDBRANCH   3   4
ENDBRANCH   2   3
ENDBRANCH   1   2
BRANCH   1  24
ATOM     24  C   UNL A   1      45.252  22.548  25.737  1.00  0.00     0.202 C 
BRANCH  24  25
ATOM     25  C   UNL A   1      44.707  23.097  24.414  1.00  0.00     0.261 C 
BRANCH  25  26
ATOM     26  O   UNL A   1      43.960  24.313  24.601  1.00  0.00    -0.460 OA
BRANCH  26  27
ATOM     27  C   UNL A   1      44.666  25.340  25.121  1.00  0.00     0.338 C 
ATOM     28  O   UNL A   1      45.768  25.739  24.769  1.00  0.00    -0.246 OA
BRANCH  27  29
ATOM     29  C   UNL A   1      43.854  26.066  26.116  1.00  0.00     0.060 A 
ATOM     30  C   UNL A   1      44.138  27.424  26.306  1.00  0.00     0.016 A 
ATOM     31  C   UNL A   1      42.889  25.429  26.901  1.00  0.00     0.016 A 
ATOM     32  C   UNL A   1      43.500  28.138  27.317  1.00  0.00     0.010 A 
ATOM     33  C   UNL A   1      42.253  26.146  27.921  1.00  0.00     0.010 A 
ATOM     34  C   UNL A   1      42.582  27.494  28.158  1.00  0.00    -0.014 A 
BRANCH  34  35
ATOM     35  C   UNL A   1      42.088  28.199  29.366  1.00  0.00     0.031 A 
ATOM     36  C   UNL A   1      40.780  28.937  29.299  1.00  0.00     0.074 A 
ATOM     37  C   UNL A   1      42.769  28.140  30.525  1.00  0.00     0.049 A 
ATOM     38  N   UNL A   1      40.160  29.620  30.229  1.00  0.00    -0.248 NA
ATOM     39  C   UNL A   1      40.073  28.899  28.010  1.00  0.00     0.031 C 
ATOM     40  C   UNL A   1      44.025  27.422  30.730  1.00  0.00     0.029 A 
ATOM     41  N   UNL A   1      42.492  28.696  31.750  1.00  0.00    -0.354 N 
ATOM     42  C   UNL A   1      38.995  30.091  29.639  1.00  0.00     0.074 A 
ATOM     43  C   UNL A   1      39.009  29.647  28.261  1.00  0.00     0.031 C 
ATOM     44  C   UNL A   1      44.415  27.586  32.006  1.00  0.00     0.029 A 
ATOM     45  C   UNL A   1      43.452  28.441  32.698  1.00  0.00     0.049 A 
ATOM     46  H   UNL A   1      41.683  29.226  31.931  1.00  0.00     0.167 HD
ATOM     47  C   UNL A   1      37.999  30.818  30.197  1.00  0.00     0.037 A 
ATOM     48  C   UNL A   1      43.549  28.867  33.973  1.00  0.00     0.037 A 
ATOM     49  C   UNL A   1      37.983  31.258  31.568  1.00  0.00     0.049 A 
ATOM     50  C   UNL A   1      42.463  29.739  34.548  1.00  0.00     0.074 A 
ATOM     51  C   UNL A   1      37.008  31.983  32.230  1.00  0.00     0.029 A 
ATOM     52  N   UNL A   1      38.994  31.018  32.485  1.00  0.00    -0.354 N 
ATOM     53  N   UNL A   1      41.354  30.159  33.990  1.00  0.00    -0.248 NA
ATOM     54  C   UNL A   1      42.644  30.195  35.934  1.00  0.00     0.031 C 
ATOM     55  C   UNL A   1      37.452  32.226  33.534  1.00  0.00     0.029 A 
ATOM     56  C   UNL A   1      38.680  31.606  33.700  1.00  0.00     0.049 A 
ATOM     57  H   UNL A   1      39.814  30.505  32.301  1.00  0.00     0.167 HD
ATOM     58  C   UNL A   1      40.694  30.902  34.961  1.00  0.00     0.074 A 
ATOM     59  C   UNL A   1      41.521  30.865  36.149  1.00  0.00     0.031 C 
ATOM     60  C   UNL A   1      39.510  31.557  34.877  1.00  0.00     0.037 A 
BRANCH  47  61
ATOM     61  C   UNL A   1      36.847  31.206  29.317  1.00  0.00     0.064 A 
ATOM     62  C   UNL A   1      35.850  30.287  28.961  1.00  0.00     0.173 A 
ATOM     63  C   UNL A   1      36.721  32.524  28.854  1.00  0.00     0.173 A 
ATOM     64  F   UNL A   1      35.931  29.011  29.368  1.00  0.00    -0.203 F 
ATOM     65  C   UNL A   1      34.779  30.668  28.156  1.00  0.00     0.198 A 
ATOM     66  C   UNL A   1      35.636  32.909  28.071  1.00  0.00     0.198 A 
ATOM     67  F   UNL A   1      37.646  33.444  29.169  1.00  0.00    -0.203 F 
ATOM     68  F   UNL A   1      33.860  29.762  27.793  1.00  0.00    -0.200 F 
ATOM     69  C   UNL A   1      34.669  31.979  27.717  1.00  0.00     0.200 A 
ATOM     70  F   UNL A   1      35.525  34.179  27.659  1.00  0.00    -0.200 F 
ATOM     71  F   UNL A   1      33.635  32.346  26.948  1.00  0.00    -0.200 F 
ENDBRANCH  47  61
BRANCH  48  72
ATOM     72  C   UNL A   1      44.727  28.486  34.795  1.00  0.00     0.064 A 
ATOM     73  C   UNL A   1      44.702  27.350  35.615  1.00  0.00     0.173 A 
ATOM     74  C   UNL A   1      45.892  29.267  34.798  1.00  0.00     0.173 A 
ATOM     75  F   UNL A   1      43.601  26.588  35.669  1.00  0.00    -0.203 F 
ATOM     76  C   UNL A   1      45.791  27.020  36.421  1.00  0.00     0.198 A 
ATOM     77  C   UNL A   1      46.991  28.920  35.581  1.00  0.00     0.198 A 
ATOM     78  F   UNL A   1      45.965  30.368  34.034  1.00  0.00    -0.203 F 
ATOM     79  F   UNL A   1      45.723  25.956  37.232  1.00  0.00    -0.200 F 
ATOM     80  C   UNL A   1      46.936  27.802  36.399  1.00  0.00     0.200 A 
ATOM     81  F   UNL A   1      48.098  29.674  35.549  1.00  0.00    -0.200 F 
ATOM     82  F   UNL A   1      47.983  27.483  37.171  1.00  0.00    -0.200 F 
ENDBRANCH  48  72
BRANCH  60  83
ATOM     83  C   UNL A   1      39.019  32.261  36.109  1.00  0.00     0.064 A 
ATOM     84  C   UNL A   1      38.198  31.615  37.046  1.00  0.00     0.173 A 
ATOM     85  C   UNL A   1      39.406  33.582  36.376  1.00  0.00     0.173 A 
ATOM     86  F   UNL A   1      37.788  30.357  36.831  1.00  0.00    -0.203 F 
ATOM     87  C   UNL A   1      37.765  32.276  38.193  1.00  0.00     0.198 A 
ATOM     88  C   UNL A   1      38.997  34.230  37.538  1.00  0.00     0.198 A 
ATOM     89  F   UNL A   1      40.196  34.243  35.515  1.00  0.00    -0.203 F 
ATOM     90  F   UNL A   1      36.945  31.655  39.053  1.00  0.00    -0.200 F 
ATOM     91  C   UNL A   1      38.171  33.579  38.441  1.00  0.00     0.200 A 
ATOM     92  F   UNL A   1      39.400  35.484  37.783  1.00  0.00    -0.200 F 
ATOM     93  F   UNL A   1      37.759  34.211  39.550  1.00  0.00    -0.200 F 
ENDBRANCH  60  83
ENDBRANCH  34  35
ENDBRANCH  27  29
ENDBRANCH  26  27
ENDBRANCH  25  26
ENDBRANCH  24  25
ENDBRANCH   1  24
TORSDOF 17
ENDMDL
MODEL 3
REMARK VINA RESULT:     -11.2      4.154      6.159
REMARK SMILES Cc1[nH]c2ccccc2c1[C@H]([NH3+])CC(=O)OCCOCCOC(=O)c1ccc(-c2c3nc(c(-c4c(F)c(F)c(F)c(F)c4F)c4ccc([nH]4)c(-c4c(F)c(F)c(F)c(F)c4F)c4nc(c(-c5c(F)c(F)c(F)c(F)c5F)c5ccc2[nH]5)C=C4)C=C3)cc1
REMARK SMILES IDX 19 1 18 2 17 3 16 4 14 5 15 6 13 7 11 8 10 9 1 10 2 11 3 12
REMARK SMILES IDX 4 13 9 15 5 16 8 17 6 18 7 19 12 20 20 24 21 25 22 26 23 27
REMARK SMILES IDX 24 28 25 29 26 30 87 31 27 32 86 33 28 34 29 35 30 36 80 37
REMARK SMILES IDX 31 38 85 39 79 40 81 41 32 42 84 43 78 44 77 45 33 47 65 48
REMARK SMILES IDX 45 49 64 50 46 51 49 52 63 53 82 54 47 55 48 56 62 58 83 59
REMARK SMILES IDX 50 60 34 61 35 62 43 63 36 64 37 65 41 66 44 67 38 68 39 69
REMARK SMILES IDX 42 70 40 71 66 72 67 73 75 74 68 75 69 76 73 77 76 78 70 79
REMARK SMILES IDX 71 80 74 81 72 82 51 83 52 84 60 85 53 86 54 87 58 88 61 89
REMARK SMILES IDX 55 90 56 91 59 92 57 93
REMARK H PARENT 3 14 12 21 12 22 12 23 81 46 49 57
REMARK Flexibility Score: inf
ROOT
ATOM      1  O   UNL A   1      42.428  19.946  25.534  1.00  0.00    -0.374 OA
ENDROOT
BRANCH   1   2
ATOM      2  C   UNL A   1      43.443  18.939  25.556  1.00  0.00     0.202 C 
BRANCH   2   3
ATOM      3  C   UNL A   1      44.553  19.092  24.511  1.00  0.00     0.261 C 
BRANCH   3   4
ATOM      4  O   UNL A   1      44.508  20.393  23.889  1.00  0.00    -0.463 OA
BRANCH   4   5
ATOM      5  C   UNL A   1      45.446  21.299  24.267  1.00  0.00     0.312 C 
ATOM      6  O   UNL A   1      46.427  21.048  24.955  1.00  0.00    -0.252 OA
BRANCH   5   7
ATOM      7  C   UNL A   1      45.133  22.685  23.755  1.00  0.00     0.192 C 
BRANCH   7   8
ATOM      8  C   UNL A   1      44.249  23.497  24.711  1.00  0.00     0.225 C 
BRANCH   8   9
ATOM      9  C   UNL A   1      44.929  23.749  26.044  1.00  0.00     0.038 A 
ATOM     10  C   UNL A   1      47.374  24.688  25.580  1.00  0.00     0.065 C 
ATOM     11  C   UNL A   1      46.190  24.249  26.370  1.00  0.00     0.022 A 
ATOM     12  N   UNL A   1      46.255  24.341  27.743  1.00  0.00    -0.358 N 
ATOM     13  C   UNL A   1      45.111  23.874  28.329  1.00  0.00     0.046 A 
ATOM     14  H   UNL A   1      47.028  24.697  28.239  1.00  0.00     0.166 HD
ATOM     15  C   UNL A   1      44.271  23.463  27.302  1.00  0.00     0.009 A 
ATOM     16  C   UNL A   1      44.761  23.790  29.683  1.00  0.00     0.027 A 
ATOM     17  C   UNL A   1      43.018  22.906  27.648  1.00  0.00     0.011 A 
ATOM     18  C   UNL A   1      43.513  23.248  29.996  1.00  0.00     0.002 A 
ATOM     19  C   UNL A   1      42.654  22.802  28.996  1.00  0.00     0.001 A 
ENDBRANCH   8   9
BRANCH   8  20
ATOM     20  N   UNL A   1      42.946  22.862  24.904  1.00  0.00    -0.351 N 
ATOM     21  H   UNL A   1      42.308  23.165  24.169  1.00  0.00     0.345 HD
ATOM     22  H   UNL A   1      42.570  23.129  25.813  1.00  0.00     0.345 HD
ATOM     23  H   UNL A   1      43.053  21.848  24.865  1.00  0.00     0.345 HD
ENDBRANCH   8  20
ENDBRANCH   7   8
ENDBRANCH   5   7
ENDBRANCH   4   5
ENDBRANCH   3   4
ENDBRANCH   2   3
ENDBRANCH   1   2
BRANCH   1  24
ATOM     24  C   UNL A   1      41.169  19.581  26.094  1.00  0.00     0.202 C 
BRANCH  24  25
ATOM     25  C   UNL A   1      40.451  20.681  26.884  1.00  0.00     0.261 C 
BRANCH  25  26
ATOM     26  O   UNL A   1      40.365  21.910  26.141  1.00  0.00    -0.460 OA
BRANCH  26  27
ATOM     27  C   UNL A   1      39.186  22.561  26.253  1.00  0.00     0.338 C 
ATOM     28  O   UNL A   1      38.064  22.099  26.097  1.00  0.00    -0.246 OA
BRANCH  27  29
ATOM     29  C   UNL A   1      39.404  23.929  26.759  1.00  0.00     0.060 A 
ATOM     30  C   UNL A   1      40.024  24.839  25.895  1.00  0.00     0.016 A 
ATOM     31  C   UNL A   1      39.082  24.301  28.067  1.00  0.00     0.016 A 
ATOM     32  C   UNL A   1      40.375  26.108  26.349  1.00  0.00     0.010 A 
ATOM     33  C   UNL A   1      39.443  25.574  28.525  1.00  0.00     0.010 A 
ATOM     34  C   UNL A   1      40.123  26.471  27.680  1.00  0.00    -0.014 A 
BRANCH  34  35
ATOM     35  C   UNL A   1      40.707  27.727  28.212  1.00  0.00     0.031 A 
ATOM     36  C   UNL A   1      42.200  27.902  28.199  1.00  0.00     0.074 A 
ATOM     37  C   UNL A   1      39.916  28.721  28.652  1.00  0.00     0.049 A 
ATOM     38  N   UNL A   1      42.924  28.913  28.611  1.00  0.00    -0.248 NA
ATOM     39  C   UNL A   1      42.985  26.789  27.642  1.00  0.00     0.031 C 
ATOM     40  C   UNL A   1      38.456  28.692  28.676  1.00  0.00     0.029 A 
ATOM     41  N   UNL A   1      40.238  29.955  29.164  1.00  0.00    -0.354 N 
ATOM     42  C   UNL A   1      44.244  28.557  28.366  1.00  0.00     0.074 A 
ATOM     43  C   UNL A   1      44.226  27.225  27.801  1.00  0.00     0.031 C 
ATOM     44  C   UNL A   1      38.005  29.852  29.183  1.00  0.00     0.029 A 
ATOM     45  C   UNL A   1      39.145  30.694  29.544  1.00  0.00     0.049 A 
ATOM     46  H   UNL A   1      41.164  30.278  29.250  1.00  0.00     0.167 HD
ATOM     47  C   UNL A   1      45.368  29.281  28.583  1.00  0.00     0.037 A 
ATOM     48  C   UNL A   1      39.076  31.904  30.133  1.00  0.00     0.037 A 
ATOM     49  C   UNL A   1      45.387  30.607  29.141  1.00  0.00     0.049 A 
ATOM     50  C   UNL A   1      40.348  32.656  30.432  1.00  0.00     0.074 A 
ATOM     51  C   UNL A   1      46.476  31.427  29.381  1.00  0.00     0.029 A 
ATOM     52  N   UNL A   1      44.263  31.305  29.555  1.00  0.00    -0.354 N 
ATOM     53  N   UNL A   1      41.589  32.323  30.175  1.00  0.00    -0.248 NA
ATOM     54  C   UNL A   1      40.205  33.956  31.104  1.00  0.00     0.031 C 
ATOM     55  C   UNL A   1      46.015  32.602  29.985  1.00  0.00     0.029 A 
ATOM     56  C   UNL A   1      44.634  32.534  30.075  1.00  0.00     0.049 A 
ATOM     57  H   UNL A   1      43.337  30.975  29.489  1.00  0.00     0.167 HD
ATOM     58  C   UNL A   1      42.370  33.380  30.626  1.00  0.00     0.074 A 
ATOM     59  C   UNL A   1      41.462  34.373  31.162  1.00  0.00     0.031 C 
ATOM     60  C   UNL A   1      43.719  33.516  30.600  1.00  0.00     0.037 A 
BRANCH  47  61
ATOM     61  C   UNL A   1      46.680  28.642  28.233  1.00  0.00     0.064 A 
ATOM     62  C   UNL A   1      47.419  27.913  29.176  1.00  0.00     0.173 A 
ATOM     63  C   UNL A   1      47.186  28.730  26.927  1.00  0.00     0.173 A 
ATOM     64  F   UNL A   1      46.985  27.810  30.441  1.00  0.00    -0.203 F 
ATOM     65  C   UNL A   1      48.628  27.314  28.830  1.00  0.00     0.198 A 
ATOM     66  C   UNL A   1      48.381  28.107  26.578  1.00  0.00     0.198 A 
ATOM     67  F   UNL A   1      46.515  29.412  25.987  1.00  0.00    -0.203 F 
ATOM     68  F   UNL A   1      49.338  26.657  29.758  1.00  0.00    -0.200 F 
ATOM     69  C   UNL A   1      49.105  27.405  27.530  1.00  0.00     0.200 A 
ATOM     70  F   UNL A   1      48.833  28.187  25.319  1.00  0.00    -0.200 F 
ATOM     71  F   UNL A   1      50.264  26.822  27.198  1.00  0.00    -0.200 F 
ENDBRANCH  47  61
BRANCH  48  72
ATOM     72  C   UNL A   1      37.755  32.480  30.494  1.00  0.00     0.064 A 
ATOM     73  C   UNL A   1      37.154  32.200  31.728  1.00  0.00     0.173 A 
ATOM     74  C   UNL A   1      37.054  33.302  29.598  1.00  0.00     0.173 A 
ATOM     75  F   UNL A   1      37.771  31.397  32.606  1.00  0.00    -0.203 F 
ATOM     76  C   UNL A   1      35.893  32.704  32.046  1.00  0.00     0.198 A 
ATOM     77  C   UNL A   1      35.807  33.829  29.928  1.00  0.00     0.198 A 
ATOM     78  F   UNL A   1      37.583  33.596  28.401  1.00  0.00    -0.203 F 
ATOM     79  F   UNL A   1      35.320  32.382  33.212  1.00  0.00    -0.200 F 
ATOM     80  C   UNL A   1      35.224  33.523  31.148  1.00  0.00     0.200 A 
ATOM     81  F   UNL A   1      35.169  34.627  29.061  1.00  0.00    -0.200 F 
ATOM     82  F   UNL A   1      34.014  34.009  31.454  1.00  0.00    -0.200 F 
ENDBRANCH  48  72
BRANCH  60  83
ATOM     83  C   UNL A   1      44.296  34.794  31.135  1.00  0.00     0.064 A 
ATOM     84  C   UNL A   1      44.705  34.913  32.472  1.00  0.00     0.173 A 
ATOM     85  C   UNL A   1      44.481  35.900  30.292  1.00  0.00     0.173 A 
ATOM     86  F   UNL A   1      44.536  33.891  33.323  1.00  0.00    -0.203 F 
ATOM     87  C   UNL A   1      45.255  36.101  32.949  1.00  0.00     0.198 A 
ATOM     88  C   UNL A   1      45.059  37.075  30.764  1.00  0.00     0.198 A 
ATOM     89  F   UNL A   1      44.114  35.836  29.002  1.00  0.00    -0.203 F 
ATOM     90  F   UNL A   1      45.597  36.207  34.241  1.00  0.00    -0.200 F 
ATOM     91  C   UNL A   1      45.438  37.177  32.093  1.00  0.00     0.200 A 
ATOM     92  F   UNL A   1      45.248  38.109  29.933  1.00  0.00    -0.200 F 
ATOM     93  F   UNL A   1      45.975  38.316  32.553  1.00  0.00    -0.200 F 
ENDBRANCH  60  83
ENDBRANCH  34  35
ENDBRANCH  27  29
ENDBRANCH  26  27
ENDBRANCH  25  26
ENDBRANCH  24  25
ENDBRANCH   1  24
TORSDOF 17
ENDMDL
