MODEL 1
REMARK VINA RESULT:     -11.6      0.000      0.000
REMARK SMILES CC(=O)N[C@@H](C)C(=O)Nc1ccc(C)cc1C(=O)OCCOCCOC(=O)c1ccc(-c2c3nc(c(-c4c(F)c(F)c(F)c(F)c4F)c4ccc([nH]4)c(-c4c(F)c(F)c(F)c(F)c4F)c4nc(c(-c5c(F)c(F)c(F)c(F)c5F)c5ccc2[nH]5)C=C4)C=C3)cc1
REMARK SMILES IDX 21 1 20 2 19 3 17 4 18 5 16 6 10 7 11 8 12 9 15 10 13 11
REMARK SMILES IDX 14 12 9 13 7 14 8 15 5 17 6 18 4 19 1 20 2 21 3 22 22 24
REMARK SMILES IDX 23 25 24 26 25 27 26 28 27 29 28 30 29 31 90 32 30 33 89 34
REMARK SMILES IDX 31 35 32 36 33 37 83 38 34 39 88 40 82 41 84 42 35 43 87 44
REMARK SMILES IDX 81 45 80 46 36 48 68 49 48 50 67 51 49 52 52 53 66 54 85 55
REMARK SMILES IDX 50 56 51 57 65 59 86 60 53 61 37 62 38 63 46 64 39 65 40 66
REMARK SMILES IDX 44 67 47 68 41 69 42 70 45 71 43 72 69 73 70 74 78 75 71 76
REMARK SMILES IDX 72 77 76 78 79 79 73 80 74 81 77 82 75 83 54 84 55 85 63 86
REMARK SMILES IDX 56 87 57 88 61 89 64 90 58 91 59 92 62 93 60 94
REMARK H PARENT 9 16 4 23 84 47 52 58
REMARK Flexibility Score: inf
ROOT
ATOM      1  C   UNL A   1      33.629  31.179  27.555  1.00  0.00     0.202 C 
ENDROOT
BRANCH   1   2
ATOM      2  C   UNL A   1      32.418  30.635  26.854  1.00  0.00     0.261 C 
BRANCH   2   3
ATOM      3  O   UNL A   1      32.741  30.194  25.514  1.00  0.00    -0.460 OA
BRANCH   3   4
ATOM      4  C   UNL A   1      32.889  28.889  25.155  1.00  0.00     0.340 C 
ATOM      5  O   UNL A   1      33.878  28.199  25.247  1.00  0.00    -0.246 OA
BRANCH   4   6
ATOM      6  C   UNL A   1      31.581  28.375  24.665  1.00  0.00     0.083 A 
ATOM      7  C   UNL A   1      31.134  27.053  24.854  1.00  0.00     0.055 A 
ATOM      8  C   UNL A   1      29.908  26.669  24.315  1.00  0.00     0.027 A 
ATOM      9  C   UNL A   1      29.195  27.532  23.481  1.00  0.00     0.005 A 
ATOM     10  C   UNL A   1      30.841  29.251  23.850  1.00  0.00     0.021 A 
ATOM     11  C   UNL A   1      29.669  28.821  23.218  1.00  0.00    -0.050 A 
ATOM     12  C   UNL A   1      28.951  29.730  22.266  1.00  0.00     0.044 C 
BRANCH   7  13
ATOM     13  N   UNL A   1      31.845  26.139  25.652  1.00  0.00    -0.323 N 
ATOM     14  C   UNL A   1      32.701  25.138  25.277  1.00  0.00     0.246 C 
ATOM     15  O   UNL A   1      33.434  24.680  26.163  1.00  0.00    -0.272 OA
ATOM     16  H   UNL A   1      31.709  26.233  26.622  1.00  0.00     0.170 HD
BRANCH  14  17
ATOM     17  C   UNL A   1      32.923  24.683  23.818  1.00  0.00     0.168 C 
ATOM     18  C   UNL A   1      33.479  23.270  23.711  1.00  0.00     0.041 C 
BRANCH  17  19
ATOM     19  N   UNL A   1      33.732  25.630  23.079  1.00  0.00    -0.345 N 
ATOM     20  C   UNL A   1      32.070  25.952  21.292  1.00  0.00     0.114 C 
ATOM     21  C   UNL A   1      33.306  26.392  22.031  1.00  0.00     0.217 C 
ATOM     22  O   UNL A   1      33.946  27.391  21.715  1.00  0.00    -0.275 OA
ATOM     23  H   UNL A   1      34.669  25.735  23.358  1.00  0.00     0.164 HD
ENDBRANCH  17  19
ENDBRANCH  14  17
ENDBRANCH   7  13
ENDBRANCH   4   6
ENDBRANCH   3   4
ENDBRANCH   2   3
ENDBRANCH   1   2
BRANCH   1  24
ATOM     24  O   UNL A   1      33.664  32.558  27.255  1.00  0.00    -0.374 OA
BRANCH  24  25
ATOM     25  C   UNL A   1      32.517  33.306  27.597  1.00  0.00     0.202 C 
BRANCH  25  26
ATOM     26  C   UNL A   1      32.887  34.566  28.380  1.00  0.00     0.261 C 
BRANCH  26  27
ATOM     27  O   UNL A   1      34.265  34.491  28.817  1.00  0.00    -0.460 OA
BRANCH  27  28
ATOM     28  C   UNL A   1      34.458  34.151  30.125  1.00  0.00     0.338 C 
ATOM     29  O   UNL A   1      34.206  34.869  31.079  1.00  0.00    -0.246 OA
BRANCH  28  30
ATOM     30  C   UNL A   1      35.280  32.904  30.218  1.00  0.00     0.060 A 
ATOM     31  C   UNL A   1      35.160  32.056  31.339  1.00  0.00     0.016 A 
ATOM     32  C   UNL A   1      36.395  32.802  29.394  1.00  0.00     0.016 A 
ATOM     33  C   UNL A   1      36.234  31.238  31.732  1.00  0.00     0.010 A 
ATOM     34  C   UNL A   1      37.491  32.117  29.868  1.00  0.00     0.010 A 
ATOM     35  C   UNL A   1      37.440  31.347  31.048  1.00  0.00    -0.014 A 
BRANCH  35  36
ATOM     36  C   UNL A   1      38.735  30.755  31.409  1.00  0.00     0.031 A 
ATOM     37  C   UNL A   1      39.132  29.535  30.658  1.00  0.00     0.074 A 
ATOM     38  C   UNL A   1      39.685  31.452  32.088  1.00  0.00     0.049 A 
ATOM     39  N   UNL A   1      40.258  28.934  30.800  1.00  0.00    -0.248 NA
ATOM     40  C   UNL A   1      38.265  28.855  29.693  1.00  0.00     0.031 C 
ATOM     41  C   UNL A   1      41.139  31.379  31.892  1.00  0.00     0.029 A 
ATOM     42  N   UNL A   1      39.562  32.437  33.078  1.00  0.00    -0.354 N 
ATOM     43  C   UNL A   1      40.406  28.042  29.765  1.00  0.00     0.074 A 
ATOM     44  C   UNL A   1      39.097  27.943  29.180  1.00  0.00     0.031 C 
ATOM     45  C   UNL A   1      41.769  32.056  32.866  1.00  0.00     0.029 A 
ATOM     46  C   UNL A   1      40.758  32.461  33.822  1.00  0.00     0.049 A 
ATOM     47  H   UNL A   1      38.777  33.013  33.228  1.00  0.00     0.167 HD
ATOM     48  C   UNL A   1      41.667  27.599  29.496  1.00  0.00     0.037 A 
ATOM     49  C   UNL A   1      40.767  32.222  35.162  1.00  0.00     0.037 A 
ATOM     50  C   UNL A   1      42.585  28.036  30.559  1.00  0.00     0.049 A 
ATOM     51  C   UNL A   1      41.547  30.971  35.441  1.00  0.00     0.074 A 
ATOM     52  C   UNL A   1      43.576  28.999  30.640  1.00  0.00     0.029 A 
ATOM     53  N   UNL A   1      42.310  27.648  31.871  1.00  0.00    -0.354 N 
ATOM     54  N   UNL A   1      41.743  30.063  34.523  1.00  0.00    -0.248 NA
ATOM     55  C   UNL A   1      42.227  30.661  36.690  1.00  0.00     0.031 C 
ATOM     56  C   UNL A   1      43.861  29.214  32.020  1.00  0.00     0.029 A 
ATOM     57  C   UNL A   1      43.069  28.360  32.775  1.00  0.00     0.049 A 
ATOM     58  H   UNL A   1      41.658  26.954  32.119  1.00  0.00     0.167 HD
ATOM     59  C   UNL A   1      42.586  29.108  34.996  1.00  0.00     0.074 A 
ATOM     60  C   UNL A   1      42.838  29.504  36.370  1.00  0.00     0.031 C 
ATOM     61  C   UNL A   1      42.993  28.075  34.206  1.00  0.00     0.037 A 
BRANCH  48  62
ATOM     62  C   UNL A   1      42.141  26.893  28.238  1.00  0.00     0.064 A 
ATOM     63  C   UNL A   1      42.650  25.575  28.318  1.00  0.00     0.173 A 
ATOM     64  C   UNL A   1      42.193  27.449  26.940  1.00  0.00     0.173 A 
ATOM     65  F   UNL A   1      42.682  24.909  29.480  1.00  0.00    -0.203 F 
ATOM     66  C   UNL A   1      43.161  24.888  27.211  1.00  0.00     0.198 A 
ATOM     67  C   UNL A   1      42.676  26.750  25.828  1.00  0.00     0.198 A 
ATOM     68  F   UNL A   1      41.817  28.700  26.679  1.00  0.00    -0.203 F 
ATOM     69  F   UNL A   1      43.660  23.654  27.367  1.00  0.00    -0.200 F 
ATOM     70  C   UNL A   1      43.166  25.471  25.963  1.00  0.00     0.200 A 
ATOM     71  F   UNL A   1      42.674  27.342  24.625  1.00  0.00    -0.200 F 
ATOM     72  F   UNL A   1      43.647  24.814  24.900  1.00  0.00    -0.200 F 
ENDBRANCH  48  62
BRANCH  49  73
ATOM     73  C   UNL A   1      39.524  32.717  35.821  1.00  0.00     0.064 A 
ATOM     74  C   UNL A   1      38.649  31.735  36.337  1.00  0.00     0.173 A 
ATOM     75  C   UNL A   1      39.501  33.982  36.428  1.00  0.00     0.173 A 
ATOM     76  F   UNL A   1      38.633  30.508  35.791  1.00  0.00    -0.203 F 
ATOM     77  C   UNL A   1      37.916  31.960  37.503  1.00  0.00     0.198 A 
ATOM     78  C   UNL A   1      38.791  34.188  37.615  1.00  0.00     0.198 A 
ATOM     79  F   UNL A   1      40.309  34.957  35.986  1.00  0.00    -0.203 F 
ATOM     80  F   UNL A   1      37.179  30.979  38.042  1.00  0.00    -0.200 F 
ATOM     81  C   UNL A   1      38.036  33.165  38.171  1.00  0.00     0.200 A 
ATOM     82  F   UNL A   1      38.925  35.343  38.283  1.00  0.00    -0.200 F 
ATOM     83  F   UNL A   1      37.482  33.318  39.384  1.00  0.00    -0.200 F 
ENDBRANCH  49  73
BRANCH  61  84
ATOM     84  C   UNL A   1      43.413  26.725  34.727  1.00  0.00     0.064 A 
ATOM     85  C   UNL A   1      42.503  25.722  35.102  1.00  0.00     0.173 A 
ATOM     86  C   UNL A   1      44.771  26.325  34.684  1.00  0.00     0.173 A 
ATOM     87  F   UNL A   1      41.179  25.914  35.047  1.00  0.00    -0.203 F 
ATOM     88  C   UNL A   1      42.922  24.449  35.486  1.00  0.00     0.198 A 
ATOM     89  C   UNL A   1      45.176  25.030  34.989  1.00  0.00     0.198 A 
ATOM     90  F   UNL A   1      45.746  27.162  34.303  1.00  0.00    -0.203 F 
ATOM     91  F   UNL A   1      42.013  23.551  35.890  1.00  0.00    -0.200 F 
ATOM     92  C   UNL A   1      44.255  24.098  35.416  1.00  0.00     0.200 A 
ATOM     93  F   UNL A   1      46.463  24.685  34.840  1.00  0.00    -0.200 F 
ATOM     94  F   UNL A   1      44.646  22.858  35.735  1.00  0.00    -0.200 F 
ENDBRANCH  61  84
ENDBRANCH  35  36
ENDBRANCH  28  30
ENDBRANCH  27  28
ENDBRANCH  26  27
ENDBRANCH  25  26
ENDBRANCH  24  25
ENDBRANCH   1  24
TORSDOF 17
ENDMDL
MODEL 2
REMARK VINA RESULT:     -11.4      2.537      4.154
REMARK SMILES CC(=O)N[C@@H](C)C(=O)Nc1ccc(C)cc1C(=O)OCCOCCOC(=O)c1ccc(-c2c3nc(c(-c4c(F)c(F)c(F)c(F)c4F)c4ccc([nH]4)c(-c4c(F)c(F)c(F)c(F)c4F)c4nc(c(-c5c(F)c(F)c(F)c(F)c5F)c5ccc2[nH]5)C=C4)C=C3)cc1
REMARK SMILES IDX 21 1 20 2 19 3 17 4 18 5 16 6 10 7 11 8 12 9 15 10 13 11
REMARK SMILES IDX 14 12 9 13 7 14 8 15 5 17 6 18 4 19 1 20 2 21 3 22 22 24
REMARK SMILES IDX 23 25 24 26 25 27 26 28 27 29 28 30 29 31 90 32 30 33 89 34
REMARK SMILES IDX 31 35 32 36 33 37 83 38 34 39 88 40 82 41 84 42 35 43 87 44
REMARK SMILES IDX 81 45 80 46 36 48 68 49 48 50 67 51 49 52 52 53 66 54 85 55
REMARK SMILES IDX 50 56 51 57 65 59 86 60 53 61 37 62 38 63 46 64 39 65 40 66
REMARK SMILES IDX 44 67 47 68 41 69 42 70 45 71 43 72 69 73 70 74 78 75 71 76
REMARK SMILES IDX 72 77 76 78 79 79 73 80 74 81 77 82 75 83 54 84 55 85 63 86
REMARK SMILES IDX 56 87 57 88 61 89 64 90 58 91 59 92 62 93 60 94
REMARK H PARENT 9 16 4 23 84 47 52 58
REMARK Flexibility Score: inf
ROOT
ATOM      1  C   UNL A   1      32.613  27.807  26.671  1.00  0.00     0.202 C 
ENDROOT
BRANCH   1   2
ATOM      2  C   UNL A   1      31.718  26.831  27.378  1.00  0.00     0.261 C 
BRANCH   2   3
ATOM      3  O   UNL A   1      31.443  25.676  26.551  1.00  0.00    -0.460 OA
BRANCH   3   4
ATOM      4  C   UNL A   1      31.970  24.440  26.766  1.00  0.00     0.340 C 
ATOM      5  O   UNL A   1      31.668  23.640  27.622  1.00  0.00    -0.246 OA
BRANCH   4   6
ATOM      6  C   UNL A   1      32.982  24.160  25.711  1.00  0.00     0.083 A 
ATOM      7  C   UNL A   1      32.663  23.730  24.408  1.00  0.00     0.055 A 
ATOM      8  C   UNL A   1      33.695  23.458  23.513  1.00  0.00     0.027 A 
ATOM      9  C   UNL A   1      35.026  23.470  23.936  1.00  0.00     0.005 A 
ATOM     10  C   UNL A   1      34.327  24.203  26.121  1.00  0.00     0.021 A 
ATOM     11  C   UNL A   1      35.352  23.816  25.250  1.00  0.00    -0.050 A 
ATOM     12  C   UNL A   1      36.770  23.762  25.735  1.00  0.00     0.044 C 
BRANCH   7  13
ATOM     13  N   UNL A   1      31.332  23.663  23.958  1.00  0.00    -0.323 N 
ATOM     14  C   UNL A   1      30.545  24.645  23.418  1.00  0.00     0.246 C 
ATOM     15  O   UNL A   1      29.528  24.269  22.821  1.00  0.00    -0.272 OA
ATOM     16  H   UNL A   1      30.905  22.781  24.042  1.00  0.00     0.170 HD
BRANCH  14  17
ATOM     17  C   UNL A   1      30.932  26.139  23.362  1.00  0.00     0.168 C 
ATOM     18  C   UNL A   1      29.736  27.071  23.495  1.00  0.00     0.041 C 
BRANCH  17  19
ATOM     19  N   UNL A   1      31.716  26.444  22.183  1.00  0.00    -0.345 N 
ATOM     20  C   UNL A   1      33.655  27.279  23.450  1.00  0.00     0.114 C 
ATOM     21  C   UNL A   1      33.040  26.774  22.172  1.00  0.00     0.217 C 
ATOM     22  O   UNL A   1      33.677  26.666  21.127  1.00  0.00    -0.275 OA
ATOM     23  H   UNL A   1      31.255  26.409  21.315  1.00  0.00     0.164 HD
ENDBRANCH  17  19
ENDBRANCH  14  17
ENDBRANCH   7  13
ENDBRANCH   4   6
ENDBRANCH   3   4
ENDBRANCH   2   3
ENDBRANCH   1   2
BRANCH   1  24
ATOM     24  O   UNL A   1      31.774  28.852  26.227  1.00  0.00    -0.374 OA
BRANCH  24  25
ATOM     25  C   UNL A   1      32.074  30.146  26.704  1.00  0.00     0.202 C 
BRANCH  25  26
ATOM     26  C   UNL A   1      33.578  30.416  26.672  1.00  0.00     0.261 C 
BRANCH  26  27
ATOM     27  O   UNL A   1      33.995  31.041  27.909  1.00  0.00    -0.460 OA
BRANCH  27  28
ATOM     28  C   UNL A   1      35.298  31.447  27.963  1.00  0.00     0.338 C 
ATOM     29  O   UNL A   1      35.701  32.548  27.627  1.00  0.00    -0.246 OA
BRANCH  28  30
ATOM     30  C   UNL A   1      36.193  30.274  28.214  1.00  0.00     0.060 A 
ATOM     31  C   UNL A   1      36.196  29.639  29.473  1.00  0.00     0.016 A 
ATOM     32  C   UNL A   1      37.254  30.072  27.339  1.00  0.00     0.016 A 
ATOM     33  C   UNL A   1      37.338  28.954  29.924  1.00  0.00     0.010 A 
ATOM     34  C   UNL A   1      38.416  29.533  27.843  1.00  0.00     0.010 A 
ATOM     35  C   UNL A   1      38.487  28.989  29.142  1.00  0.00    -0.014 A 
BRANCH  35  36
ATOM     36  C   UNL A   1      39.834  28.528  29.503  1.00  0.00     0.031 A 
ATOM     37  C   UNL A   1      40.208  27.164  29.045  1.00  0.00     0.074 A 
ATOM     38  C   UNL A   1      40.815  29.390  29.885  1.00  0.00     0.049 A 
ATOM     39  N   UNL A   1      41.367  26.638  29.216  1.00  0.00    -0.248 NA
ATOM     40  C   UNL A   1      39.282  26.249  28.376  1.00  0.00     0.031 C 
ATOM     41  C   UNL A   1      42.245  29.293  29.564  1.00  0.00     0.029 A 
ATOM     42  N   UNL A   1      40.747  30.591  30.604  1.00  0.00    -0.354 N 
ATOM     43  C   UNL A   1      41.452  25.516  28.427  1.00  0.00     0.074 A 
ATOM     44  C   UNL A   1      40.098  25.250  28.024  1.00  0.00     0.031 C 
ATOM     45  C   UNL A   1      42.937  30.205  30.267  1.00  0.00     0.029 A 
ATOM     46  C   UNL A   1      42.007  30.822  31.191  1.00  0.00     0.049 A 
ATOM     47  H   UNL A   1      39.957  31.174  30.686  1.00  0.00     0.167 HD
ATOM     48  C   UNL A   1      42.699  25.039  28.148  1.00  0.00     0.037 A 
ATOM     49  C   UNL A   1      42.154  30.931  32.539  1.00  0.00     0.037 A 
ATOM     50  C   UNL A   1      43.695  25.746  28.967  1.00  0.00     0.049 A 
ATOM     51  C   UNL A   1      43.009  29.803  33.040  1.00  0.00     0.074 A 
ATOM     52  C   UNL A   1      44.648  26.713  28.702  1.00  0.00     0.029 A 
ATOM     53  N   UNL A   1      43.564  25.698  30.355  1.00  0.00    -0.354 N 
ATOM     54  N   UNL A   1      43.154  28.696  32.364  1.00  0.00    -0.248 NA
ATOM     55  C   UNL A   1      43.819  29.831  34.250  1.00  0.00     0.031 C 
ATOM     56  C   UNL A   1      45.055  27.276  29.947  1.00  0.00     0.029 A 
ATOM     57  C   UNL A   1      44.376  26.628  30.970  1.00  0.00     0.049 A 
ATOM     58  H   UNL A   1      42.968  25.079  30.836  1.00  0.00     0.167 HD
ATOM     59  C   UNL A   1      44.077  27.906  32.971  1.00  0.00     0.074 A 
ATOM     60  C   UNL A   1      44.444  28.641  34.168  1.00  0.00     0.031 C 
ATOM     61  C   UNL A   1      44.450  26.713  32.427  1.00  0.00     0.037 A 
BRANCH  48  62
ATOM     62  C   UNL A   1      43.079  24.046  27.064  1.00  0.00     0.064 A 
ATOM     63  C   UNL A   1      42.719  22.684  27.199  1.00  0.00     0.173 A 
ATOM     64  C   UNL A   1      43.841  24.325  25.909  1.00  0.00     0.173 A 
ATOM     65  F   UNL A   1      42.005  22.251  28.247  1.00  0.00    -0.203 F 
ATOM     66  C   UNL A   1      43.091  21.703  26.272  1.00  0.00     0.198 A 
ATOM     67  C   UNL A   1      44.185  23.349  24.966  1.00  0.00     0.198 A 
ATOM     68  F   UNL A   1      44.324  25.538  25.642  1.00  0.00    -0.203 F 
ATOM     69  F   UNL A   1      42.746  20.425  26.481  1.00  0.00    -0.200 F 
ATOM     70  C   UNL A   1      43.816  22.037  25.149  1.00  0.00     0.200 A 
ATOM     71  F   UNL A   1      44.895  23.700  23.883  1.00  0.00    -0.200 F 
ATOM     72  F   UNL A   1      44.166  21.103  24.255  1.00  0.00    -0.200 F 
ENDBRANCH  48  62
BRANCH  49  73
ATOM     73  C   UNL A   1      40.960  31.556  33.178  1.00  0.00     0.064 A 
ATOM     74  C   UNL A   1      40.787  32.942  32.972  1.00  0.00     0.173 A 
ATOM     75  C   UNL A   1      39.807  30.793  33.420  1.00  0.00     0.173 A 
ATOM     76  F   UNL A   1      41.859  33.717  32.737  1.00  0.00    -0.203 F 
ATOM     77  C   UNL A   1      39.516  33.504  32.849  1.00  0.00     0.198 A 
ATOM     78  C   UNL A   1      38.536  31.356  33.260  1.00  0.00     0.198 A 
ATOM     79  F   UNL A   1      39.903  29.471  33.621  1.00  0.00    -0.203 F 
ATOM     80  F   UNL A   1      39.372  34.800  32.541  1.00  0.00    -0.200 F 
ATOM     81  C   UNL A   1      38.395  32.696  32.934  1.00  0.00     0.200 A 
ATOM     82  F   UNL A   1      37.447  30.574  33.313  1.00  0.00    -0.200 F 
ATOM     83  F   UNL A   1      37.186  33.194  32.633  1.00  0.00    -0.200 F 
ENDBRANCH  49  73
BRANCH  61  84
ATOM     84  C   UNL A   1      44.974  25.547  33.222  1.00  0.00     0.064 A 
ATOM     85  C   UNL A   1      46.329  25.175  33.250  1.00  0.00     0.173 A 
ATOM     86  C   UNL A   1      44.141  24.870  34.146  1.00  0.00     0.173 A 
ATOM     87  F   UNL A   1      47.256  25.827  32.537  1.00  0.00    -0.203 F 
ATOM     88  C   UNL A   1      46.799  24.152  34.073  1.00  0.00     0.198 A 
ATOM     89  C   UNL A   1      44.630  23.907  35.023  1.00  0.00     0.198 A 
ATOM     90  F   UNL A   1      42.836  25.150  34.263  1.00  0.00    -0.203 F 
ATOM     91  F   UNL A   1      48.090  23.800  34.015  1.00  0.00    -0.200 F 
ATOM     92  C   UNL A   1      45.953  23.528  34.969  1.00  0.00     0.200 A 
ATOM     93  F   UNL A   1      43.813  23.370  35.939  1.00  0.00    -0.200 F 
ATOM     94  F   UNL A   1      46.420  22.583  35.794  1.00  0.00    -0.200 F 
ENDBRANCH  61  84
ENDBRANCH  35  36
ENDBRANCH  28  30
ENDBRANCH  27  28
ENDBRANCH  26  27
ENDBRANCH  25  26
ENDBRANCH  24  25
ENDBRANCH   1  24
TORSDOF 17
ENDMDL
MODEL 3
REMARK VINA RESULT:     -11.4      2.874      4.296
REMARK SMILES CC(=O)N[C@@H](C)C(=O)Nc1ccc(C)cc1C(=O)OCCOCCOC(=O)c1ccc(-c2c3nc(c(-c4c(F)c(F)c(F)c(F)c4F)c4ccc([nH]4)c(-c4c(F)c(F)c(F)c(F)c4F)c4nc(c(-c5c(F)c(F)c(F)c(F)c5F)c5ccc2[nH]5)C=C4)C=C3)cc1
REMARK SMILES IDX 21 1 20 2 19 3 17 4 18 5 16 6 10 7 11 8 12 9 15 10 13 11
REMARK SMILES IDX 14 12 9 13 7 14 8 15 5 17 6 18 4 19 1 20 2 21 3 22 22 24
REMARK SMILES IDX 23 25 24 26 25 27 26 28 27 29 28 30 29 31 90 32 30 33 89 34
REMARK SMILES IDX 31 35 32 36 33 37 83 38 34 39 88 40 82 41 84 42 35 43 87 44
REMARK SMILES IDX 81 45 80 46 36 48 68 49 48 50 67 51 49 52 52 53 66 54 85 55
REMARK SMILES IDX 50 56 51 57 65 59 86 60 53 61 37 62 38 63 46 64 39 65 40 66
REMARK SMILES IDX 44 67 47 68 41 69 42 70 45 71 43 72 69 73 70 74 78 75 71 76
REMARK SMILES IDX 72 77 76 78 79 79 73 80 74 81 77 82 75 83 54 84 55 85 63 86
REMARK SMILES IDX 56 87 57 88 61 89 64 90 58 91 59 92 62 93 60 94
REMARK H PARENT 9 16 4 23 84 47 52 58
REMARK Flexibility Score: inf
ROOT
ATOM      1  C   UNL A   1      33.679  28.491  24.196  1.00  0.00     0.202 C 
ENDROOT
BRANCH   1   2
ATOM      2  C   UNL A   1      32.919  27.329  24.764  1.00  0.00     0.261 C 
BRANCH   2   3
ATOM      3  O   UNL A   1      33.791  26.439  25.499  1.00  0.00    -0.460 OA
BRANCH   3   4
ATOM      4  C   UNL A   1      34.101  25.174  25.102  1.00  0.00     0.340 C 
ATOM      5  O   UNL A   1      34.743  24.834  24.135  1.00  0.00    -0.246 OA
BRANCH   4   6
ATOM      6  C   UNL A   1      33.569  24.211  26.106  1.00  0.00     0.083 A 
ATOM      7  C   UNL A   1      34.371  23.311  26.834  1.00  0.00     0.055 A 
ATOM      8  C   UNL A   1      33.761  22.425  27.720  1.00  0.00     0.027 A 
ATOM      9  C   UNL A   1      32.369  22.328  27.784  1.00  0.00     0.005 A 
ATOM     10  C   UNL A   1      32.168  24.131  26.200  1.00  0.00     0.021 A 
ATOM     11  C   UNL A   1      31.561  23.160  27.005  1.00  0.00    -0.050 A 
ATOM     12  C   UNL A   1      30.068  23.015  27.010  1.00  0.00     0.044 C 
BRANCH   7  13
ATOM     13  N   UNL A   1      35.775  23.348  26.764  1.00  0.00    -0.323 N 
ATOM     14  C   UNL A   1      36.630  22.568  26.033  1.00  0.00     0.246 C 
ATOM     15  O   UNL A   1      37.786  22.992  25.902  1.00  0.00    -0.272 OA
ATOM     16  H   UNL A   1      36.206  24.036  27.320  1.00  0.00     0.170 HD
BRANCH  14  17
ATOM     17  C   UNL A   1      36.203  21.314  25.239  1.00  0.00     0.168 C 
ATOM     18  C   UNL A   1      37.382  20.524  24.690  1.00  0.00     0.041 C 
BRANCH  17  19
ATOM     19  N   UNL A   1      35.249  21.639  24.199  1.00  0.00    -0.345 N 
ATOM     20  C   UNL A   1      33.583  19.986  24.940  1.00  0.00     0.114 C 
ATOM     21  C   UNL A   1      33.957  21.206  24.141  1.00  0.00     0.217 C 
ATOM     22  O   UNL A   1      33.153  21.807  23.435  1.00  0.00    -0.275 OA
ATOM     23  H   UNL A   1      35.559  22.224  23.471  1.00  0.00     0.164 HD
ENDBRANCH  17  19
ENDBRANCH  14  17
ENDBRANCH   7  13
ENDBRANCH   4   6
ENDBRANCH   3   4
ENDBRANCH   2   3
ENDBRANCH   1   2
BRANCH   1  24
ATOM     24  O   UNL A   1      33.133  29.645  24.798  1.00  0.00    -0.374 OA
BRANCH  24  25
ATOM     25  C   UNL A   1      32.297  29.436  25.915  1.00  0.00     0.202 C 
BRANCH  25  26
ATOM     26  C   UNL A   1      32.749  30.273  27.113  1.00  0.00     0.261 C 
BRANCH  26  27
ATOM     27  O   UNL A   1      34.097  30.755  26.899  1.00  0.00    -0.460 OA
BRANCH  27  28
ATOM     28  C   UNL A   1      34.789  31.109  28.022  1.00  0.00     0.338 C 
ATOM     29  O   UNL A   1      34.765  32.215  28.537  1.00  0.00    -0.246 OA
BRANCH  28  30
ATOM     30  C   UNL A   1      35.791  30.053  28.364  1.00  0.00     0.060 A 
ATOM     31  C   UNL A   1      36.025  29.706  29.711  1.00  0.00     0.016 A 
ATOM     32  C   UNL A   1      36.723  29.706  27.393  1.00  0.00     0.016 A 
ATOM     33  C   UNL A   1      37.267  29.177  30.106  1.00  0.00     0.010 A 
ATOM     34  C   UNL A   1      37.982  29.333  27.806  1.00  0.00     0.010 A 
ATOM     35  C   UNL A   1      38.282  29.085  29.161  1.00  0.00    -0.014 A 
BRANCH  35  36
ATOM     36  C   UNL A   1      39.697  28.765  29.390  1.00  0.00     0.031 A 
ATOM     37  C   UNL A   1      40.115  27.372  29.078  1.00  0.00     0.074 A 
ATOM     38  C   UNL A   1      40.648  29.730  29.507  1.00  0.00     0.049 A 
ATOM     39  N   UNL A   1      41.324  26.946  29.156  1.00  0.00    -0.248 NA
ATOM     40  C   UNL A   1      39.185  26.314  28.679  1.00  0.00     0.031 C 
ATOM     41  C   UNL A   1      42.027  29.672  29.006  1.00  0.00     0.029 A 
ATOM     42  N   UNL A   1      40.580  31.018  30.055  1.00  0.00    -0.354 N 
ATOM     43  C   UNL A   1      41.394  25.727  28.527  1.00  0.00     0.074 A 
ATOM     44  C   UNL A   1      40.024  25.325  28.358  1.00  0.00     0.031 C 
ATOM     45  C   UNL A   1      42.731  30.717  29.471  1.00  0.00     0.029 A 
ATOM     46  C   UNL A   1      41.883  31.408  30.421  1.00  0.00     0.049 A 
ATOM     47  H   UNL A   1      39.763  31.558  30.165  1.00  0.00     0.167 HD
ATOM     48  C   UNL A   1      42.628  25.289  28.144  1.00  0.00     0.037 A 
ATOM     49  C   UNL A   1      42.195  31.724  31.708  1.00  0.00     0.037 A 
ATOM     50  C   UNL A   1      43.664  26.167  28.710  1.00  0.00     0.049 A 
ATOM     51  C   UNL A   1      43.195  30.736  32.235  1.00  0.00     0.074 A 
ATOM     52  C   UNL A   1      44.494  27.140  28.181  1.00  0.00     0.029 A 
ATOM     53  N   UNL A   1      43.719  26.319  30.095  1.00  0.00    -0.354 N 
ATOM     54  N   UNL A   1      43.337  29.551  31.705  1.00  0.00    -0.248 NA
ATOM     55  C   UNL A   1      44.150  30.991  33.303  1.00  0.00     0.031 C 
ATOM     56  C   UNL A   1      45.014  27.904  29.267  1.00  0.00     0.029 A 
ATOM     57  C   UNL A   1      44.527  27.376  30.454  1.00  0.00     0.049 A 
ATOM     58  H   UNL A   1      43.241  25.743  30.736  1.00  0.00     0.167 HD
ATOM     59  C   UNL A   1      44.391  28.917  32.281  1.00  0.00     0.074 A 
ATOM     60  C   UNL A   1      44.851  29.841  33.301  1.00  0.00     0.031 C 
ATOM     61  C   UNL A   1      44.783  27.681  31.861  1.00  0.00     0.037 A 
BRANCH  48  62
ATOM     62  C   UNL A   1      42.941  24.170  27.167  1.00  0.00     0.064 A 
ATOM     63  C   UNL A   1      42.656  22.829  27.516  1.00  0.00     0.173 A 
ATOM     64  C   UNL A   1      43.572  24.314  25.911  1.00  0.00     0.173 A 
ATOM     65  F   UNL A   1      42.069  22.521  28.680  1.00  0.00    -0.203 F 
ATOM     66  C   UNL A   1      42.976  21.744  26.691  1.00  0.00     0.198 A 
ATOM     67  C   UNL A   1      43.862  23.231  25.074  1.00  0.00     0.198 A 
ATOM     68  F   UNL A   1      43.973  25.493  25.439  1.00  0.00    -0.203 F 
ATOM     69  F   UNL A   1      42.709  20.496  27.101  1.00  0.00    -0.200 F 
ATOM     70  C   UNL A   1      43.570  21.945  25.465  1.00  0.00     0.200 A 
ATOM     71  F   UNL A   1      44.445  23.453  23.886  1.00  0.00    -0.200 F 
ATOM     72  F   UNL A   1      43.870  20.910  24.670  1.00  0.00    -0.200 F 
ENDBRANCH  48  62
BRANCH  49  73
ATOM     73  C   UNL A   1      41.049  32.365  32.414  1.00  0.00     0.064 A 
ATOM     74  C   UNL A   1      40.605  33.604  31.903  1.00  0.00     0.173 A 
ATOM     75  C   UNL A   1      40.108  31.576  33.096  1.00  0.00     0.173 A 
ATOM     76  F   UNL A   1      41.466  34.396  31.243  1.00  0.00    -0.203 F 
ATOM     77  C   UNL A   1      39.255  33.957  31.927  1.00  0.00     0.198 A 
ATOM     78  C   UNL A   1      38.752  31.920  33.085  1.00  0.00     0.198 A 
ATOM     79  F   UNL A   1      40.466  30.388  33.603  1.00  0.00    -0.203 F 
ATOM     80  F   UNL A   1      38.836  35.084  31.337  1.00  0.00    -0.200 F 
ATOM     81  C   UNL A   1      38.325  33.085  32.465  1.00  0.00     0.200 A 
ATOM     82  F   UNL A   1      37.843  31.066  33.580  1.00  0.00    -0.200 F 
ATOM     83  F   UNL A   1      37.014  33.332  32.325  1.00  0.00    -0.200 F 
ENDBRANCH  49  73
BRANCH  61  84
ATOM     84  C   UNL A   1      45.497  26.678  32.729  1.00  0.00     0.064 A 
ATOM     85  C   UNL A   1      44.838  25.831  33.637  1.00  0.00     0.173 A 
ATOM     86  C   UNL A   1      46.872  26.402  32.532  1.00  0.00     0.173 A 
ATOM     87  F   UNL A   1      43.511  25.881  33.813  1.00  0.00    -0.203 F 
ATOM     88  C   UNL A   1      45.514  24.845  34.353  1.00  0.00     0.198 A 
ATOM     89  C   UNL A   1      47.525  25.363  33.189  1.00  0.00     0.198 A 
ATOM     90  F   UNL A   1      47.620  27.098  31.665  1.00  0.00    -0.203 F 
ATOM     91  F   UNL A   1      44.845  24.106  35.249  1.00  0.00    -0.200 F 
ATOM     92  C   UNL A   1      46.853  24.602  34.120  1.00  0.00     0.200 A 
ATOM     93  F   UNL A   1      48.803  25.091  32.892  1.00  0.00    -0.200 F 
ATOM     94  F   UNL A   1      47.486  23.619  34.773  1.00  0.00    -0.200 F 
ENDBRANCH  61  84
ENDBRANCH  35  36
ENDBRANCH  28  30
ENDBRANCH  27  28
ENDBRANCH  26  27
ENDBRANCH  25  26
ENDBRANCH  24  25
ENDBRANCH   1  24
TORSDOF 17
ENDMDL
