MODEL 1
REMARK VINA RESULT:     -13.1      0.000      0.000
REMARK SMILES O=C(OCCOCCOC(=O)c1ccc(-c2c3nc(c(-c4c(F)c(F)c(F)c(F)c4F)c4ccc([nH]4)c(-c4c(F)c(F)c(F)c(F)c4F)c4nc(c(-c5c(F)c(F)c(F)c(F)c5F)c5ccc2[nH]5)C=C4)C=C3)cc1)C1=Cc2cc(Cl)ccc2O[C@@H]1C(F)(F)F
REMARK SMILES IDX 7 1 6 2 5 3 4 4 3 5 2 6 1 7 75 8 76 9 85 10 77 11 84 12
REMARK SMILES IDX 78 13 83 14 79 15 82 16 80 17 81 18 86 19 87 20 88 21 89 22
REMARK SMILES IDX 8 23 9 24 10 25 11 26 12 27 13 28 74 29 14 30 73 31 15 32
REMARK SMILES IDX 16 33 17 34 67 35 18 36 72 37 66 38 68 39 19 40 71 41 65 42
REMARK SMILES IDX 64 43 20 45 52 46 32 47 51 48 33 49 36 50 50 51 69 52 34 53
REMARK SMILES IDX 35 54 49 56 70 57 37 58 21 59 22 60 30 61 23 62 24 63 28 64
REMARK SMILES IDX 31 65 25 66 26 67 29 68 27 69 53 70 54 71 62 72 55 73 56 74
REMARK SMILES IDX 60 75 63 76 57 77 58 78 61 79 59 80 38 81 39 82 47 83 40 84
REMARK SMILES IDX 41 85 45 86 48 87 42 88 43 89 46 90 44 91
REMARK H PARENT 68 44 36 55
REMARK Flexibility Score: inf
ROOT
ATOM      1  C   UNL A   1      41.739  20.555  26.445  1.00  0.00     0.202 C 
ENDROOT
BRANCH   1   2
ATOM      2  O   UNL A   1      40.398  21.054  26.580  1.00  0.00    -0.374 OA
BRANCH   2   3
ATOM      3  C   UNL A   1      39.120  21.065  25.604  1.00  0.00     0.202 C 
BRANCH   3   4
ATOM      4  C   UNL A   1      37.279  22.241  25.640  1.00  0.00     0.261 C 
BRANCH   4   5
ATOM      5  O   UNL A   1      36.944  23.435  24.744  1.00  0.00    -0.460 OA
BRANCH   5   6
ATOM      6  C   UNL A   1      35.857  23.229  23.996  1.00  0.00     0.338 C 
ATOM      7  O   UNL A   1      35.718  23.332  22.806  1.00  0.00    -0.246 OA
BRANCH   6   8
ATOM      8  C   UNL A   1      34.909  23.246  25.092  1.00  0.00     0.087 C 
ATOM      9  C   UNL A   1      34.558  24.632  25.496  1.00  0.00     0.027 C 
ATOM     10  C   UNL A   1      33.671  21.988  24.292  1.00  0.00     0.316 C 
ATOM     11  C   UNL A   1      32.985  25.437  25.078  1.00  0.00     0.019 A 
ATOM     12  O   UNL A   1      32.011  22.836  23.790  1.00  0.00    -0.475 OA
ATOM     13  C   UNL A   1      32.831  26.779  25.295  1.00  0.00     0.032 A 
ATOM     14  C   UNL A   1      31.757  24.602  24.176  1.00  0.00     0.128 A 
ATOM     15  C   UNL A   1      31.697  27.350  24.690  1.00  0.00     0.041 A 
ATOM     16  C   UNL A   1      30.755  25.262  23.534  1.00  0.00     0.048 A 
ATOM     17  Cl  UNL A   1      31.444  29.048  24.942  1.00  0.00    -0.084 Cl
ATOM     18  C   UNL A   1      30.745  26.648  23.836  1.00  0.00     0.024 A 
BRANCH  10  19
ATOM     19  C   UNL A   1      33.963  20.749  25.244  1.00  0.00     0.430 C 
ATOM     20  F   UNL A   1      34.132  21.040  26.546  1.00  0.00    -0.167 F 
ATOM     21  F   UNL A   1      32.856  19.947  25.207  1.00  0.00    -0.167 F 
ATOM     22  F   UNL A   1      34.977  19.950  24.842  1.00  0.00    -0.167 F 
ENDBRANCH  10  19
ENDBRANCH   6   8
ENDBRANCH   5   6
ENDBRANCH   4   5
ENDBRANCH   3   4
ENDBRANCH   2   3
ENDBRANCH   1   2
BRANCH   1  23
ATOM     23  C   UNL A   1      42.733  21.488  25.766  1.00  0.00     0.261 C 
BRANCH  23  24
ATOM     24  O   UNL A   1      42.144  22.722  25.396  1.00  0.00    -0.460 OA
BRANCH  24  25
ATOM     25  C   UNL A   1      43.013  23.752  25.312  1.00  0.00     0.338 C 
ATOM     26  O   UNL A   1      44.012  23.848  24.624  1.00  0.00    -0.246 OA
BRANCH  25  27
ATOM     27  C   UNL A   1      42.538  24.789  26.240  1.00  0.00     0.060 A 
ATOM     28  C   UNL A   1      43.159  26.041  26.215  1.00  0.00     0.016 A 
ATOM     29  C   UNL A   1      41.452  24.536  27.089  1.00  0.00     0.016 A 
ATOM     30  C   UNL A   1      42.654  27.070  27.001  1.00  0.00     0.010 A 
ATOM     31  C   UNL A   1      40.966  25.550  27.896  1.00  0.00     0.010 A 
ATOM     32  C   UNL A   1      41.574  26.813  27.856  1.00  0.00    -0.014 A 
BRANCH  32  33
ATOM     33  C   UNL A   1      41.231  27.773  28.913  1.00  0.00     0.031 A 
ATOM     34  C   UNL A   1      42.013  27.678  30.182  1.00  0.00     0.074 A 
ATOM     35  C   UNL A   1      40.213  28.632  28.765  1.00  0.00     0.049 A 
ATOM     36  N   UNL A   1      41.837  28.298  31.315  1.00  0.00    -0.248 NA
ATOM     37  C   UNL A   1      43.143  26.732  30.173  1.00  0.00     0.031 C 
ATOM     38  C   UNL A   1      39.418  28.800  27.552  1.00  0.00     0.029 A 
ATOM     39  N   UNL A   1      39.661  29.505  29.664  1.00  0.00    -0.354 N 
ATOM     40  C   UNL A   1      42.829  27.813  32.155  1.00  0.00     0.074 A 
ATOM     41  C   UNL A   1      43.579  26.824  31.417  1.00  0.00     0.031 C 
ATOM     42  C   UNL A   1      38.454  29.706  27.792  1.00  0.00     0.029 A 
ATOM     43  C   UNL A   1      38.544  30.140  29.186  1.00  0.00     0.049 A 
ATOM     44  H   UNL A   1      40.028  29.659  30.564  1.00  0.00     0.167 HD
ATOM     45  C   UNL A   1      43.081  28.165  33.435  1.00  0.00     0.037 A 
ATOM     46  C   UNL A   1      37.677  30.948  29.827  1.00  0.00     0.037 A 
ATOM     47  C   UNL A   1      42.283  29.113  34.160  1.00  0.00     0.049 A 
ATOM     48  C   UNL A   1      37.924  31.266  31.280  1.00  0.00     0.074 A 
ATOM     49  C   UNL A   1      42.437  29.557  35.459  1.00  0.00     0.029 A 
ATOM     50  N   UNL A   1      41.151  29.739  33.649  1.00  0.00    -0.354 N 
ATOM     51  N   UNL A   1      38.882  30.839  32.070  1.00  0.00    -0.248 NA
ATOM     52  C   UNL A   1      36.973  32.175  31.931  1.00  0.00     0.031 C 
ATOM     53  C   UNL A   1      41.351  30.382  35.762  1.00  0.00     0.029 A 
ATOM     54  C   UNL A   1      40.574  30.537  34.622  1.00  0.00     0.049 A 
ATOM     55  H   UNL A   1      40.811  29.631  32.732  1.00  0.00     0.167 HD
ATOM     56  C   UNL A   1      38.674  31.455  33.298  1.00  0.00     0.074 A 
ATOM     57  C   UNL A   1      37.494  32.282  33.148  1.00  0.00     0.031 C 
ATOM     58  C   UNL A   1      39.399  31.356  34.441  1.00  0.00     0.037 A 
BRANCH  45  59
ATOM     59  C   UNL A   1      44.209  27.453  34.125  1.00  0.00     0.064 A 
ATOM     60  C   UNL A   1      44.018  26.245  34.814  1.00  0.00     0.173 A 
ATOM     61  C   UNL A   1      45.490  28.023  34.147  1.00  0.00     0.173 A 
ATOM     62  F   UNL A   1      42.807  25.667  34.846  1.00  0.00    -0.203 F 
ATOM     63  C   UNL A   1      45.053  25.668  35.548  1.00  0.00     0.198 A 
ATOM     64  C   UNL A   1      46.533  27.419  34.842  1.00  0.00     0.198 A 
ATOM     65  F   UNL A   1      45.729  29.179  33.509  1.00  0.00    -0.203 F 
ATOM     66  F   UNL A   1      44.821  24.566  36.276  1.00  0.00    -0.200 F 
ATOM     67  C   UNL A   1      46.309  26.253  35.557  1.00  0.00     0.200 A 
ATOM     68  F   UNL A   1      47.750  27.980  34.839  1.00  0.00    -0.200 F 
ATOM     69  F   UNL A   1      47.300  25.704  36.272  1.00  0.00    -0.200 F 
ENDBRANCH  45  59
BRANCH  46  70
ATOM     70  C   UNL A   1      36.499  31.484  29.097  1.00  0.00     0.064 A 
ATOM     71  C   UNL A   1      35.418  30.660  28.758  1.00  0.00     0.173 A 
ATOM     72  C   UNL A   1      36.416  32.842  28.755  1.00  0.00     0.173 A 
ATOM     73  F   UNL A   1      35.458  29.350  29.044  1.00  0.00    -0.203 F 
ATOM     74  C   UNL A   1      34.302  31.173  28.098  1.00  0.00     0.198 A 
ATOM     75  C   UNL A   1      35.288  33.360  28.123  1.00  0.00     0.198 A 
ATOM     76  F   UNL A   1      37.422  33.676  29.060  1.00  0.00    -0.203 F 
ATOM     77  F   UNL A   1      33.296  30.357  27.756  1.00  0.00    -0.200 F 
ATOM     78  C   UNL A   1      34.232  32.523  27.790  1.00  0.00     0.200 A 
ATOM     79  F   UNL A   1      35.219  34.669  27.845  1.00  0.00    -0.200 F 
ATOM     80  F   UNL A   1      33.151  33.018  27.174  1.00  0.00    -0.200 F 
ENDBRANCH  46  70
BRANCH  58  81
ATOM     81  C   UNL A   1      38.986  32.209  35.608  1.00  0.00     0.064 A 
ATOM     82  C   UNL A   1      38.237  31.700  36.677  1.00  0.00     0.173 A 
ATOM     83  C   UNL A   1      39.435  33.538  35.693  1.00  0.00     0.173 A 
ATOM     84  F   UNL A   1      37.776  30.441  36.642  1.00  0.00    -0.203 F 
ATOM     85  C   UNL A   1      37.938  32.495  37.782  1.00  0.00     0.198 A 
ATOM     86  C   UNL A   1      39.169  34.315  36.815  1.00  0.00     0.198 A 
ATOM     87  F   UNL A   1      40.165  34.070  34.701  1.00  0.00    -0.203 F 
ATOM     88  F   UNL A   1      37.187  32.001  38.776  1.00  0.00    -0.200 F 
ATOM     89  C   UNL A   1      38.416  33.796  37.856  1.00  0.00     0.200 A 
ATOM     90  F   UNL A   1      39.653  35.562  36.893  1.00  0.00    -0.200 F 
ATOM     91  F   UNL A   1      38.148  34.549  38.931  1.00  0.00    -0.200 F 
ENDBRANCH  58  81
ENDBRANCH  32  33
ENDBRANCH  25  27
ENDBRANCH  24  25
ENDBRANCH  23  24
ENDBRANCH   1  23
TORSDOF 15
ENDMDL
MODEL 2
REMARK VINA RESULT:     -12.8      5.116      7.414
REMARK SMILES O=C(OCCOCCOC(=O)c1ccc(-c2c3nc(c(-c4c(F)c(F)c(F)c(F)c4F)c4ccc([nH]4)c(-c4c(F)c(F)c(F)c(F)c4F)c4nc(c(-c5c(F)c(F)c(F)c(F)c5F)c5ccc2[nH]5)C=C4)C=C3)cc1)C1=Cc2cc(Cl)ccc2O[C@@H]1C(F)(F)F
REMARK SMILES IDX 7 1 6 2 5 3 4 4 3 5 2 6 1 7 75 8 76 9 85 10 77 11 84 12
REMARK SMILES IDX 78 13 83 14 79 15 82 16 80 17 81 18 86 19 87 20 88 21 89 22
REMARK SMILES IDX 8 23 9 24 10 25 11 26 12 27 13 28 74 29 14 30 73 31 15 32
REMARK SMILES IDX 16 33 17 34 67 35 18 36 72 37 66 38 68 39 19 40 71 41 65 42
REMARK SMILES IDX 64 43 20 45 52 46 32 47 51 48 33 49 36 50 50 51 69 52 34 53
REMARK SMILES IDX 35 54 49 56 70 57 37 58 21 59 22 60 30 61 23 62 24 63 28 64
REMARK SMILES IDX 31 65 25 66 26 67 29 68 27 69 53 70 54 71 62 72 55 73 56 74
REMARK SMILES IDX 60 75 63 76 57 77 58 78 61 79 59 80 38 81 39 82 47 83 40 84
REMARK SMILES IDX 41 85 45 86 48 87 42 88 43 89 46 90 44 91
REMARK H PARENT 68 44 36 55
REMARK Flexibility Score: inf
ROOT
ATOM      1  C   UNL A   1      41.612  19.216  26.086  1.00  0.00     0.202 C 
ENDROOT
BRANCH   1   2
ATOM      2  O   UNL A   1      41.550  20.591  26.501  1.00  0.00    -0.374 OA
BRANCH   2   3
ATOM      3  C   UNL A   1      40.554  21.805  26.155  1.00  0.00     0.202 C 
BRANCH   3   4
ATOM      4  C   UNL A   1      38.412  21.844  25.724  1.00  0.00     0.261 C 
BRANCH   4   5
ATOM      5  O   UNL A   1      37.547  23.090  25.521  1.00  0.00    -0.460 OA
BRANCH   5   6
ATOM      6  C   UNL A   1      36.764  23.003  24.443  1.00  0.00     0.338 C 
ATOM      7  O   UNL A   1      37.045  23.141  23.282  1.00  0.00    -0.246 OA
BRANCH   6   8
ATOM      8  C   UNL A   1      35.506  23.090  25.157  1.00  0.00     0.087 C 
ATOM      9  C   UNL A   1      35.116  24.500  25.418  1.00  0.00     0.027 C 
ATOM     10  C   UNL A   1      34.541  21.882  23.990  1.00  0.00     0.316 C 
ATOM     11  C   UNL A   1      33.821  25.375  24.495  1.00  0.00     0.019 A 
ATOM     12  O   UNL A   1      33.193  22.803  22.959  1.00  0.00    -0.475 OA
ATOM     13  C   UNL A   1      33.677  26.728  24.646  1.00  0.00     0.032 A 
ATOM     14  C   UNL A   1      32.922  24.587  23.235  1.00  0.00     0.128 A 
ATOM     15  C   UNL A   1      32.844  27.344  23.695  1.00  0.00     0.041 A 
ATOM     16  C   UNL A   1      32.231  25.285  22.293  1.00  0.00     0.048 A 
ATOM     17  Cl  UNL A   1      32.615  29.057  23.846  1.00  0.00    -0.084 Cl
ATOM     18  C   UNL A   1      32.196  26.675  22.573  1.00  0.00     0.024 A 
BRANCH  10  19
ATOM     19  C   UNL A   1      34.429  20.648  24.987  1.00  0.00     0.430 C 
ATOM     20  F   UNL A   1      34.123  20.953  26.260  1.00  0.00    -0.167 F 
ATOM     21  F   UNL A   1      33.387  19.877  24.552  1.00  0.00    -0.167 F 
ATOM     22  F   UNL A   1      35.494  19.816  24.982  1.00  0.00    -0.167 F 
ENDBRANCH  10  19
ENDBRANCH   6   8
ENDBRANCH   5   6
ENDBRANCH   4   5
ENDBRANCH   3   4
ENDBRANCH   2   3
ENDBRANCH   1   2
BRANCH   1  23
ATOM     23  C   UNL A   1      43.004  18.666  25.805  1.00  0.00     0.261 C 
BRANCH  23  24
ATOM     24  O   UNL A   1      43.462  19.002  24.508  1.00  0.00    -0.460 OA
BRANCH  24  25
ATOM     25  C   UNL A   1      44.732  19.458  24.465  1.00  0.00     0.338 C 
ATOM     26  O   UNL A   1      45.746  18.852  24.170  1.00  0.00    -0.246 OA
BRANCH  25  27
ATOM     27  C   UNL A   1      44.694  20.873  24.861  1.00  0.00     0.060 A 
ATOM     28  C   UNL A   1      44.308  21.821  23.910  1.00  0.00     0.016 A 
ATOM     29  C   UNL A   1      44.987  21.246  26.180  1.00  0.00     0.016 A 
ATOM     30  C   UNL A   1      44.155  23.149  24.292  1.00  0.00     0.010 A 
ATOM     31  C   UNL A   1      44.865  22.573  26.556  1.00  0.00     0.010 A 
ATOM     32  C   UNL A   1      44.456  23.523  25.607  1.00  0.00    -0.014 A 
BRANCH  32  33
ATOM     33  C   UNL A   1      44.611  24.942  25.949  1.00  0.00     0.031 A 
ATOM     34  C   UNL A   1      45.989  25.510  25.848  1.00  0.00     0.074 A 
ATOM     35  C   UNL A   1      43.575  25.662  26.405  1.00  0.00     0.049 A 
ATOM     36  N   UNL A   1      46.435  26.679  26.213  1.00  0.00    -0.248 NA
ATOM     37  C   UNL A   1      47.010  24.618  25.270  1.00  0.00     0.031 C 
ATOM     38  C   UNL A   1      42.198  25.188  26.511  1.00  0.00     0.029 A 
ATOM     39  N   UNL A   1      43.539  26.942  26.890  1.00  0.00    -0.354 N 
ATOM     40  C   UNL A   1      47.790  26.661  25.914  1.00  0.00     0.074 A 
ATOM     41  C   UNL A   1      48.100  25.358  25.375  1.00  0.00     0.031 C 
ATOM     42  C   UNL A   1      41.450  26.161  27.060  1.00  0.00     0.029 A 
ATOM     43  C   UNL A   1      42.309  27.300  27.380  1.00  0.00     0.049 A 
ATOM     44  H   UNL A   1      44.318  27.543  26.889  1.00  0.00     0.167 HD
ATOM     45  C   UNL A   1      48.693  27.652  26.085  1.00  0.00     0.037 A 
ATOM     46  C   UNL A   1      41.944  28.412  28.048  1.00  0.00     0.037 A 
ATOM     47  C   UNL A   1      48.364  28.920  26.676  1.00  0.00     0.049 A 
ATOM     48  C   UNL A   1      42.982  29.474  28.306  1.00  0.00     0.074 A 
ATOM     49  C   UNL A   1      49.187  30.006  26.900  1.00  0.00     0.029 A 
ATOM     50  N   UNL A   1      47.108  29.253  27.169  1.00  0.00    -0.354 N 
ATOM     51  N   UNL A   1      44.258  29.480  27.993  1.00  0.00    -0.248 NA
ATOM     52  C   UNL A   1      42.534  30.683  29.008  1.00  0.00     0.031 C 
ATOM     53  C   UNL A   1      48.451  30.962  27.607  1.00  0.00     0.029 A 
ATOM     54  C   UNL A   1      47.143  30.516  27.733  1.00  0.00     0.049 A 
ATOM     55  H   UNL A   1      46.311  28.677  27.123  1.00  0.00     0.167 HD
ATOM     56  C   UNL A   1      44.756  30.702  28.424  1.00  0.00     0.074 A 
ATOM     57  C   UNL A   1      43.644  31.411  29.025  1.00  0.00     0.031 C 
ATOM     58  C   UNL A   1      46.015  31.200  28.320  1.00  0.00     0.037 A 
BRANCH  45  59
ATOM     59  C   UNL A   1      50.112  27.351  25.701  1.00  0.00     0.064 A 
ATOM     60  C   UNL A   1      50.562  27.446  24.374  1.00  0.00     0.173 A 
ATOM     61  C   UNL A   1      51.023  26.904  26.669  1.00  0.00     0.173 A 
ATOM     62  F   UNL A   1      49.727  27.846  23.403  1.00  0.00    -0.203 F 
ATOM     63  C   UNL A   1      51.849  27.045  24.023  1.00  0.00     0.198 A 
ATOM     64  C   UNL A   1      52.322  26.549  26.323  1.00  0.00     0.198 A 
ATOM     65  F   UNL A   1      50.647  26.790  27.952  1.00  0.00    -0.203 F 
ATOM     66  F   UNL A   1      52.224  27.053  22.736  1.00  0.00    -0.200 F 
ATOM     67  C   UNL A   1      52.729  26.601  24.999  1.00  0.00     0.200 A 
ATOM     68  F   UNL A   1      53.175  26.133  27.269  1.00  0.00    -0.200 F 
ATOM     69  F   UNL A   1      53.963  26.206  24.660  1.00  0.00    -0.200 F 
ENDBRANCH  45  59
BRANCH  46  70
ATOM     70  C   UNL A   1      40.545  28.552  28.525  1.00  0.00     0.064 A 
ATOM     71  C   UNL A   1      40.193  28.241  29.845  1.00  0.00     0.173 A 
ATOM     72  C   UNL A   1      39.535  29.035  27.678  1.00  0.00     0.173 A 
ATOM     73  F   UNL A   1      41.117  27.755  30.688  1.00  0.00    -0.203 F 
ATOM     74  C   UNL A   1      38.884  28.401  30.298  1.00  0.00     0.198 A 
ATOM     75  C   UNL A   1      38.234  29.224  28.140  1.00  0.00     0.198 A 
ATOM     76  F   UNL A   1      39.819  29.352  26.406  1.00  0.00    -0.203 F 
ATOM     77  F   UNL A   1      38.567  28.065  31.555  1.00  0.00    -0.200 F 
ATOM     78  C   UNL A   1      37.908  28.902  29.449  1.00  0.00     0.200 A 
ATOM     79  F   UNL A   1      37.300  29.725  27.320  1.00  0.00    -0.200 F 
ATOM     80  F   UNL A   1      36.655  29.073  29.890  1.00  0.00    -0.200 F 
ENDBRANCH  46  70
BRANCH  58  81
ATOM     81  C   UNL A   1      46.255  32.602  28.806  1.00  0.00     0.064 A 
ATOM     82  C   UNL A   1      46.676  32.879  30.114  1.00  0.00     0.173 A 
ATOM     83  C   UNL A   1      46.150  33.678  27.908  1.00  0.00     0.173 A 
ATOM     84  F   UNL A   1      46.783  31.890  31.014  1.00  0.00    -0.203 F 
ATOM     85  C   UNL A   1      46.967  34.182  30.510  1.00  0.00     0.198 A 
ATOM     86  C   UNL A   1      46.481  34.972  28.295  1.00  0.00     0.198 A 
ATOM     87  F   UNL A   1      45.763  33.466  26.641  1.00  0.00    -0.203 F 
ATOM     88  F   UNL A   1      47.329  34.430  31.776  1.00  0.00    -0.200 F 
ATOM     89  C   UNL A   1      46.883  35.225  29.598  1.00  0.00     0.200 A 
ATOM     90  F   UNL A   1      46.423  35.971  27.405  1.00  0.00    -0.200 F 
ATOM     91  F   UNL A   1      47.188  36.474  29.975  1.00  0.00    -0.200 F 
ENDBRANCH  58  81
ENDBRANCH  32  33
ENDBRANCH  25  27
ENDBRANCH  24  25
ENDBRANCH  23  24
ENDBRANCH   1  23
TORSDOF 15
ENDMDL
MODEL 3
REMARK VINA RESULT:     -12.7      3.117      8.120
REMARK SMILES O=C(OCCOCCOC(=O)c1ccc(-c2c3nc(c(-c4c(F)c(F)c(F)c(F)c4F)c4ccc([nH]4)c(-c4c(F)c(F)c(F)c(F)c4F)c4nc(c(-c5c(F)c(F)c(F)c(F)c5F)c5ccc2[nH]5)C=C4)C=C3)cc1)C1=Cc2cc(Cl)ccc2O[C@@H]1C(F)(F)F
REMARK SMILES IDX 7 1 6 2 5 3 4 4 3 5 2 6 1 7 75 8 76 9 85 10 77 11 84 12
REMARK SMILES IDX 78 13 83 14 79 15 82 16 80 17 81 18 86 19 87 20 88 21 89 22
REMARK SMILES IDX 8 23 9 24 10 25 11 26 12 27 13 28 74 29 14 30 73 31 15 32
REMARK SMILES IDX 16 33 17 34 67 35 18 36 72 37 66 38 68 39 19 40 71 41 65 42
REMARK SMILES IDX 64 43 20 45 52 46 32 47 51 48 33 49 36 50 50 51 69 52 34 53
REMARK SMILES IDX 35 54 49 56 70 57 37 58 21 59 22 60 30 61 23 62 24 63 28 64
REMARK SMILES IDX 31 65 25 66 26 67 29 68 27 69 53 70 54 71 62 72 55 73 56 74
REMARK SMILES IDX 60 75 63 76 57 77 58 78 61 79 59 80 38 81 39 82 47 83 40 84
REMARK SMILES IDX 41 85 45 86 48 87 42 88 43 89 46 90 44 91
REMARK H PARENT 68 44 36 55
REMARK Flexibility Score: inf
ROOT
ATOM      1  C   UNL A   1      31.667  28.389  26.209  1.00  0.00     0.202 C 
ENDROOT
BRANCH   1   2
ATOM      2  O   UNL A   1      31.193  27.566  25.130  1.00  0.00    -0.374 OA
BRANCH   2   3
ATOM      3  C   UNL A   1      31.903  26.494  24.164  1.00  0.00     0.202 C 
BRANCH   3   4
ATOM      4  C   UNL A   1      31.160  24.658  23.243  1.00  0.00     0.261 C 
BRANCH   4   5
ATOM      5  O   UNL A   1      31.218  23.251  23.842  1.00  0.00    -0.460 OA
BRANCH   5   6
ATOM      6  C   UNL A   1      32.321  22.586  23.489  1.00  0.00     0.338 C 
ATOM      7  O   UNL A   1      32.656  22.185  22.405  1.00  0.00    -0.246 OA
BRANCH   6   8
ATOM      8  C   UNL A   1      32.709  22.204  24.831  1.00  0.00     0.087 C 
ATOM      9  C   UNL A   1      32.148  20.881  25.212  1.00  0.00     0.027 C 
ATOM     10  C   UNL A   1      34.597  22.569  24.595  1.00  0.00     0.316 C 
ATOM     11  C   UNL A   1      33.125  19.352  25.274  1.00  0.00     0.019 A 
ATOM     12  O   UNL A   1      35.648  20.950  24.603  1.00  0.00    -0.475 OA
ATOM     13  C   UNL A   1      32.490  18.147  25.417  1.00  0.00     0.032 A 
ATOM     14  C   UNL A   1      34.822  19.350  24.903  1.00  0.00     0.128 A 
ATOM     15  C   UNL A   1      33.298  17.022  25.178  1.00  0.00     0.041 A 
ATOM     16  C   UNL A   1      35.491  18.211  24.577  1.00  0.00     0.048 A 
ATOM     17  Cl  UNL A   1      32.550  15.466  25.357  1.00  0.00    -0.084 Cl
ATOM     18  C   UNL A   1      34.693  17.051  24.749  1.00  0.00     0.024 A 
BRANCH  10  19
ATOM     19  C   UNL A   1      34.687  23.876  25.495  1.00  0.00     0.430 C 
ATOM     20  F   UNL A   1      33.636  24.101  26.303  1.00  0.00    -0.167 F 
ATOM     21  F   UNL A   1      35.747  23.705  26.342  1.00  0.00    -0.167 F 
ATOM     22  F   UNL A   1      34.969  25.013  24.821  1.00  0.00    -0.167 F 
ENDBRANCH  10  19
ENDBRANCH   6   8
ENDBRANCH   5   6
ENDBRANCH   4   5
ENDBRANCH   3   4
ENDBRANCH   2   3
ENDBRANCH   1   2
BRANCH   1  23
ATOM     23  C   UNL A   1      31.916  29.853  25.871  1.00  0.00     0.261 C 
BRANCH  23  24
ATOM     24  O   UNL A   1      33.266  30.229  26.078  1.00  0.00    -0.460 OA
BRANCH  24  25
ATOM     25  C   UNL A   1      33.441  31.202  26.997  1.00  0.00     0.338 C 
ATOM     26  O   UNL A   1      32.710  32.140  27.259  1.00  0.00    -0.246 OA
BRANCH  25  27
ATOM     27  C   UNL A   1      34.726  30.939  27.660  1.00  0.00     0.060 A 
ATOM     28  C   UNL A   1      35.099  29.611  27.888  1.00  0.00     0.016 A 
ATOM     29  C   UNL A   1      35.575  32.000  28.005  1.00  0.00     0.016 A 
ATOM     30  C   UNL A   1      36.357  29.336  28.409  1.00  0.00     0.010 A 
ATOM     31  C   UNL A   1      36.817  31.729  28.553  1.00  0.00     0.010 A 
ATOM     32  C   UNL A   1      37.202  30.396  28.761  1.00  0.00    -0.014 A 
BRANCH  32  33
ATOM     33  C   UNL A   1      38.384  30.147  29.595  1.00  0.00     0.031 A 
ATOM     34  C   UNL A   1      39.381  29.167  29.069  1.00  0.00     0.074 A 
ATOM     35  C   UNL A   1      38.512  30.714  30.803  1.00  0.00     0.049 A 
ATOM     36  N   UNL A   1      40.434  28.661  29.647  1.00  0.00    -0.248 NA
ATOM     37  C   UNL A   1      39.140  28.676  27.700  1.00  0.00     0.031 C 
ATOM     38  C   UNL A   1      37.595  31.695  31.377  1.00  0.00     0.029 A 
ATOM     39  N   UNL A   1      39.458  30.516  31.773  1.00  0.00    -0.354 N 
ATOM     40  C   UNL A   1      40.977  27.788  28.716  1.00  0.00     0.074 A 
ATOM     41  C   UNL A   1      40.121  27.804  27.552  1.00  0.00     0.031 C 
ATOM     42  C   UNL A   1      38.010  31.995  32.620  1.00  0.00     0.029 A 
ATOM     43  C   UNL A   1      39.191  31.193  32.935  1.00  0.00     0.049 A 
ATOM     44  H   UNL A   1      40.249  29.945  31.648  1.00  0.00     0.167 HD
ATOM     45  C   UNL A   1      42.093  27.035  28.832  1.00  0.00     0.037 A 
ATOM     46  C   UNL A   1      39.817  31.128  34.127  1.00  0.00     0.037 A 
ATOM     47  C   UNL A   1      42.895  26.999  30.024  1.00  0.00     0.049 A 
ATOM     48  C   UNL A   1      41.012  30.219  34.268  1.00  0.00     0.074 A 
ATOM     49  C   UNL A   1      44.049  26.281  30.265  1.00  0.00     0.029 A 
ATOM     50  N   UNL A   1      42.596  27.693  31.191  1.00  0.00    -0.354 N 
ATOM     51  N   UNL A   1      41.554  29.419  33.379  1.00  0.00    -0.248 NA
ATOM     52  C   UNL A   1      41.684  30.204  35.573  1.00  0.00     0.031 C 
ATOM     53  C   UNL A   1      44.400  26.472  31.605  1.00  0.00     0.029 A 
ATOM     54  C   UNL A   1      43.525  27.389  32.171  1.00  0.00     0.049 A 
ATOM     55  H   UNL A   1      41.837  28.310  31.304  1.00  0.00     0.167 HD
ATOM     56  C   UNL A   1      42.648  28.833  34.002  1.00  0.00     0.074 A 
ATOM     57  C   UNL A   1      42.691  29.370  35.347  1.00  0.00     0.031 C 
ATOM     58  C   UNL A   1      43.545  27.945  33.503  1.00  0.00     0.037 A 
BRANCH  45  59
ATOM     59  C   UNL A   1      42.439  26.148  27.671  1.00  0.00     0.064 A 
ATOM     60  C   UNL A   1      41.874  24.872  27.513  1.00  0.00     0.173 A 
ATOM     61  C   UNL A   1      43.397  26.560  26.733  1.00  0.00     0.173 A 
ATOM     62  F   UNL A   1      40.970  24.418  28.394  1.00  0.00    -0.203 F 
ATOM     63  C   UNL A   1      42.301  24.021  26.496  1.00  0.00     0.198 A 
ATOM     64  C   UNL A   1      43.787  25.725  25.691  1.00  0.00     0.198 A 
ATOM     65  F   UNL A   1      43.973  27.767  26.837  1.00  0.00    -0.203 F 
ATOM     66  F   UNL A   1      41.818  22.773  26.424  1.00  0.00    -0.200 F 
ATOM     67  C   UNL A   1      43.253  24.450  25.585  1.00  0.00     0.200 A 
ATOM     68  F   UNL A   1      44.698  26.146  24.803  1.00  0.00    -0.200 F 
ATOM     69  F   UNL A   1      43.672  23.627  24.613  1.00  0.00    -0.200 F 
ENDBRANCH  45  59
BRANCH  46  70
ATOM     70  C   UNL A   1      39.306  31.932  35.267  1.00  0.00     0.064 A 
ATOM     71  C   UNL A   1      38.487  31.361  36.249  1.00  0.00     0.173 A 
ATOM     72  C   UNL A   1      39.656  33.283  35.415  1.00  0.00     0.173 A 
ATOM     73  F   UNL A   1      38.106  30.078  36.142  1.00  0.00    -0.203 F 
ATOM     74  C   UNL A   1      38.032  32.111  37.333  1.00  0.00     0.198 A 
ATOM     75  C   UNL A   1      39.226  34.023  36.514  1.00  0.00     0.198 A 
ATOM     76  F   UNL A   1      40.441  33.878  34.505  1.00  0.00    -0.203 F 
ATOM     77  F   UNL A   1      37.223  31.549  38.241  1.00  0.00    -0.200 F 
ATOM     78  C   UNL A   1      38.410  33.438  37.471  1.00  0.00     0.200 A 
ATOM     79  F   UNL A   1      39.610  35.300  36.651  1.00  0.00    -0.200 F 
ATOM     80  F   UNL A   1      37.989  34.152  38.522  1.00  0.00    -0.200 F 
ENDBRANCH  46  70
BRANCH  58  81
ATOM     81  C   UNL A   1      44.692  27.538  34.386  1.00  0.00     0.064 A 
ATOM     82  C   UNL A   1      45.851  28.316  34.513  1.00  0.00     0.173 A 
ATOM     83  C   UNL A   1      44.578  26.392  35.191  1.00  0.00     0.173 A 
ATOM     84  F   UNL A   1      46.014  29.414  33.761  1.00  0.00    -0.203 F 
ATOM     85  C   UNL A   1      46.861  27.951  35.400  1.00  0.00     0.198 A 
ATOM     86  C   UNL A   1      45.571  26.054  36.104  1.00  0.00     0.198 A 
ATOM     87  F   UNL A   1      43.484  25.619  35.117  1.00  0.00    -0.203 F 
ATOM     88  F   UNL A   1      47.979  28.687  35.476  1.00  0.00    -0.200 F 
ATOM     89  C   UNL A   1      46.714  26.830  36.204  1.00  0.00     0.200 A 
ATOM     90  F   UNL A   1      45.414  24.985  36.897  1.00  0.00    -0.200 F 
ATOM     91  F   UNL A   1      47.677  26.497  37.075  1.00  0.00    -0.200 F 
ENDBRANCH  58  81
ENDBRANCH  32  33
ENDBRANCH  25  27
ENDBRANCH  24  25
ENDBRANCH  23  24
ENDBRANCH   1  23
TORSDOF 15
ENDMDL
