MODEL 1
REMARK VINA RESULT:     -11.4      0.000      0.000
REMARK SMILES C=CCN1C(=O)/C(=C/c2ccc(OCc3cccc(C(=O)OCCOCCOC(=O)c4ccc(-c5c6nc(c(-c7c(F)c(F)c(F)c(F)c7F)c7ccc([nH]7)c(-c7c(F)c(F)c(F)c(F)c7F)c7nc(c(-c8c(F)c(F)c(F)c(F)c8F)c8ccc5[nH]8)C=C7)C=C6)cc4)c3)cc2)C(=O)NC1=S
REMARK SMILES IDX 23 1 22 2 20 3 21 4 19 5 15 6 16 7 94 8 17 9 18 10 14 11
REMARK SMILES IDX 13 12 12 13 9 14 10 15 96 16 11 17 95 18 8 19 4 20 5 21
REMARK SMILES IDX 100 22 6 23 7 24 99 25 101 26 97 27 98 29 3 30 2 31 1 32
REMARK SMILES IDX 24 33 25 34 26 35 27 36 28 37 29 38 30 39 31 40 32 41 93 42
REMARK SMILES IDX 33 43 92 44 34 45 35 46 36 47 86 48 37 49 91 50 85 51 87 52
REMARK SMILES IDX 38 53 90 54 84 55 83 56 39 58 71 59 51 60 70 61 52 62 55 63
REMARK SMILES IDX 69 64 88 65 53 66 54 67 68 69 89 70 56 71 40 72 41 73 49 74
REMARK SMILES IDX 42 75 43 76 47 77 50 78 44 79 45 80 48 81 46 82 72 83 73 84
REMARK SMILES IDX 81 85 74 86 75 87 79 88 82 89 76 90 77 91 80 92 78 93 57 94
REMARK SMILES IDX 58 95 66 96 59 97 60 98 64 99 67 100 61 101 62 102 65 103
REMARK SMILES IDX 63 104
REMARK H PARENT 99 28 87 57 55 68
REMARK Flexibility Score: inf
ROOT
ATOM      1  C   UNL A   1      34.474  33.604  29.590  1.00  0.00     0.261 C 
ENDROOT
BRANCH   1   2
ATOM      2  O   UNL A   1      34.507  32.189  29.335  1.00  0.00    -0.460 OA
BRANCH   2   3
ATOM      3  C   UNL A   1      35.324  31.805  28.324  1.00  0.00     0.338 C 
ATOM      4  O   UNL A   1      36.478  32.165  28.137  1.00  0.00    -0.246 OA
BRANCH   3   5
ATOM      5  C   UNL A   1      34.688  30.701  27.569  1.00  0.00     0.060 A 
ATOM      6  C   UNL A   1      32.803  29.678  26.425  1.00  0.00    -0.010 A 
ATOM      7  C   UNL A   1      33.573  28.517  26.244  1.00  0.00     0.007 A 
ATOM      8  C   UNL A   1      33.358  30.759  27.134  1.00  0.00     0.023 A 
ATOM      9  C   UNL A   1      34.894  28.460  26.685  1.00  0.00     0.001 A 
ATOM     10  C   UNL A   1      35.457  29.556  27.332  1.00  0.00     0.016 A 
BRANCH   6  11
ATOM     11  C   UNL A   1      31.406  29.793  25.841  1.00  0.00     0.265 C 
BRANCH  11  12
ATOM     12  O   UNL A   1      31.317  29.573  24.425  1.00  0.00    -0.489 OA
BRANCH  12  13
ATOM     13  C   UNL A   1      31.198  28.287  23.971  1.00  0.00     0.119 A 
ATOM     14  C   UNL A   1      31.156  25.544  23.375  1.00  0.00    -0.024 A 
ATOM     15  C   UNL A   1      30.755  25.998  24.636  1.00  0.00     0.012 A 
ATOM     16  C   UNL A   1      31.498  26.473  22.392  1.00  0.00     0.012 A 
ATOM     17  C   UNL A   1      30.776  27.364  24.929  1.00  0.00     0.047 A 
ATOM     18  C   UNL A   1      31.512  27.840  22.686  1.00  0.00     0.047 A 
BRANCH  14  19
ATOM     19  C   UNL A   1      31.248  24.104  23.128  1.00  0.00     0.027 C 
ATOM     20  N   UNL A   1      32.939  21.159  24.106  1.00  0.00    -0.281 N 
ATOM     21  C   UNL A   1      32.176  21.886  23.190  1.00  0.00     0.265 C 
ATOM     22  C   UNL A   1      34.180  21.627  24.534  1.00  0.00     0.183 C 
ATOM     23  O   UNL A   1      31.403  21.398  22.369  1.00  0.00    -0.268 OA
ATOM     24  C   UNL A   1      32.359  23.355  23.274  1.00  0.00     0.106 C 
ATOM     25  N   UNL A   1      34.497  22.922  24.213  1.00  0.00    -0.298 N 
ATOM     26  S   UNL A   1      35.354  20.775  25.377  1.00  0.00    -0.040 S 
ATOM     27  C   UNL A   1      33.696  23.861  23.627  1.00  0.00     0.263 C 
ATOM     28  H   UNL A   1      35.413  23.209  24.432  1.00  0.00     0.172 HD
ATOM     29  O   UNL A   1      34.104  24.995  23.425  1.00  0.00    -0.269 OA
BRANCH  20  30
ATOM     30  C   UNL A   1      32.537  19.770  24.375  1.00  0.00     0.155 C 
BRANCH  30  31
ATOM     31  C   UNL A   1      33.201  18.776  23.461  1.00  0.00    -0.013 C 
ATOM     32  C   UNL A   1      32.522  18.003  22.601  1.00  0.00     0.006 C 
ENDBRANCH  30  31
ENDBRANCH  20  30
ENDBRANCH  14  19
ENDBRANCH  12  13
ENDBRANCH  11  12
ENDBRANCH   6  11
ENDBRANCH   3   5
ENDBRANCH   2   3
ENDBRANCH   1   2
BRANCH   1  33
ATOM     33  C   UNL A   1      33.794  34.353  28.438  1.00  0.00     0.202 C 
BRANCH  33  34
ATOM     34  O   UNL A   1      34.298  35.654  28.136  1.00  0.00    -0.374 OA
BRANCH  34  35
ATOM     35  C   UNL A   1      33.654  36.768  28.754  1.00  0.00     0.202 C 
BRANCH  35  36
ATOM     36  C   UNL A   1      32.615  36.451  29.836  1.00  0.00     0.261 C 
BRANCH  36  37
ATOM     37  O   UNL A   1      33.140  36.620  31.164  1.00  0.00    -0.460 OA
BRANCH  37  38
ATOM     38  C   UNL A   1      32.703  35.710  32.066  1.00  0.00     0.338 C 
ATOM     39  O   UNL A   1      31.549  35.371  32.282  1.00  0.00    -0.246 OA
BRANCH  38  40
ATOM     40  C   UNL A   1      33.853  35.018  32.676  1.00  0.00     0.060 A 
ATOM     41  C   UNL A   1      35.100  35.652  32.608  1.00  0.00     0.016 A 
ATOM     42  C   UNL A   1      33.731  33.745  33.236  1.00  0.00     0.016 A 
ATOM     43  C   UNL A   1      36.242  34.994  33.059  1.00  0.00     0.010 A 
ATOM     44  C   UNL A   1      34.880  33.083  33.680  1.00  0.00     0.010 A 
ATOM     45  C   UNL A   1      36.143  33.690  33.562  1.00  0.00    -0.014 A 
BRANCH  45  46
ATOM     46  C   UNL A   1      37.378  32.914  33.836  1.00  0.00     0.031 A 
ATOM     47  C   UNL A   1      38.149  33.189  35.096  1.00  0.00     0.074 A 
ATOM     48  C   UNL A   1      37.793  31.961  32.983  1.00  0.00     0.049 A 
ATOM     49  N   UNL A   1      39.272  32.665  35.516  1.00  0.00    -0.248 NA
ATOM     50  C   UNL A   1      37.577  34.194  36.007  1.00  0.00     0.031 C 
ATOM     51  C   UNL A   1      37.110  31.578  31.750  1.00  0.00     0.029 A 
ATOM     52  N   UNL A   1      38.898  31.148  33.025  1.00  0.00    -0.354 N 
ATOM     53  C   UNL A   1      39.545  33.278  36.731  1.00  0.00     0.074 A 
ATOM     54  C   UNL A   1      38.488  34.239  36.968  1.00  0.00     0.031 C 
ATOM     55  C   UNL A   1      37.817  30.607  31.145  1.00  0.00     0.029 A 
ATOM     56  C   UNL A   1      39.018  30.328  31.931  1.00  0.00     0.049 A 
ATOM     57  H   UNL A   1      39.542  31.152  33.770  1.00  0.00     0.167 HD
ATOM     58  C   UNL A   1      40.579  33.055  37.578  1.00  0.00     0.037 A 
ATOM     59  C   UNL A   1      39.998  29.468  31.594  1.00  0.00     0.037 A 
ATOM     60  C   UNL A   1      41.626  32.096  37.341  1.00  0.00     0.049 A 
ATOM     61  C   UNL A   1      41.174  29.288  32.518  1.00  0.00     0.074 A 
ATOM     62  C   UNL A   1      42.705  31.779  38.147  1.00  0.00     0.029 A 
ATOM     63  N   UNL A   1      41.731  31.305  36.206  1.00  0.00    -0.354 N 
ATOM     64  N   UNL A   1      41.412  29.852  33.677  1.00  0.00    -0.248 NA
ATOM     65  C   UNL A   1      42.219  28.349  32.086  1.00  0.00     0.031 C 
ATOM     66  C   UNL A   1      43.492  30.837  37.477  1.00  0.00     0.029 A 
ATOM     67  C   UNL A   1      42.871  30.521  36.279  1.00  0.00     0.049 A 
ATOM     68  H   UNL A   1      41.090  31.301  35.459  1.00  0.00     0.167 HD
ATOM     69  C   UNL A   1      42.611  29.315  34.128  1.00  0.00     0.074 A 
ATOM     70  C   UNL A   1      43.047  28.371  33.121  1.00  0.00     0.031 C 
ATOM     71  C   UNL A   1      43.289  29.579  35.271  1.00  0.00     0.037 A 
BRANCH  58  72
ATOM     72  C   UNL A   1      40.642  33.881  38.830  1.00  0.00     0.064 A 
ATOM     73  C   UNL A   1      41.345  35.095  38.881  1.00  0.00     0.173 A 
ATOM     74  C   UNL A   1      39.960  33.470  39.986  1.00  0.00     0.173 A 
ATOM     75  F   UNL A   1      42.024  35.527  37.807  1.00  0.00    -0.203 F 
ATOM     76  C   UNL A   1      41.384  35.851  40.050  1.00  0.00     0.198 A 
ATOM     77  C   UNL A   1      39.977  34.244  41.143  1.00  0.00     0.198 A 
ATOM     78  F   UNL A   1      39.270  32.319  39.990  1.00  0.00    -0.203 F 
ATOM     79  F   UNL A   1      42.101  36.983  40.089  1.00  0.00    -0.200 F 
ATOM     80  C   UNL A   1      40.695  35.429  41.177  1.00  0.00     0.200 A 
ATOM     81  F   UNL A   1      39.299  33.841  42.226  1.00  0.00    -0.200 F 
ATOM     82  F   UNL A   1      40.728  36.161  42.298  1.00  0.00    -0.200 F 
ENDBRANCH  58  72
BRANCH  59  83
ATOM     83  C   UNL A   1      39.917  28.716  30.314  1.00  0.00     0.064 A 
ATOM     84  C   UNL A   1      39.327  27.446  30.255  1.00  0.00     0.173 A 
ATOM     85  C   UNL A   1      40.444  29.245  29.125  1.00  0.00     0.173 A 
ATOM     86  F   UNL A   1      38.832  26.887  31.369  1.00  0.00    -0.203 F 
ATOM     87  C   UNL A   1      39.285  26.726  29.064  1.00  0.00     0.198 A 
ATOM     88  C   UNL A   1      40.375  28.536  27.929  1.00  0.00     0.198 A 
ATOM     89  F   UNL A   1      41.021  30.455  29.127  1.00  0.00    -0.203 F 
ATOM     90  F   UNL A   1      38.759  25.493  29.047  1.00  0.00    -0.200 F 
ATOM     91  C   UNL A   1      39.804  27.274  27.900  1.00  0.00     0.200 A 
ATOM     92  F   UNL A   1      40.865  29.075  26.804  1.00  0.00    -0.200 F 
ATOM     93  F   UNL A   1      39.759  26.581  26.753  1.00  0.00    -0.200 F 
ENDBRANCH  59  83
BRANCH  71  94
ATOM     94  C   UNL A   1      44.554  28.807  35.520  1.00  0.00     0.064 A 
ATOM     95  C   UNL A   1      45.808  29.292  35.117  1.00  0.00     0.173 A 
ATOM     96  C   UNL A   1      44.515  27.584  36.208  1.00  0.00     0.173 A 
ATOM     97  F   UNL A   1      45.898  30.448  34.443  1.00  0.00    -0.203 F 
ATOM     98  C   UNL A   1      46.971  28.569  35.371  1.00  0.00     0.198 A 
ATOM     99  C   UNL A   1      45.683  26.881  36.489  1.00  0.00     0.198 A 
ATOM    100  F   UNL A   1      43.343  27.079  36.624  1.00  0.00    -0.203 F 
ATOM    101  F   UNL A   1      48.151  29.028  34.933  1.00  0.00    -0.200 F 
ATOM    102  C   UNL A   1      46.908  27.369  36.063  1.00  0.00     0.200 A 
ATOM    103  F   UNL A   1      45.621  25.729  37.172  1.00  0.00    -0.200 F 
ATOM    104  F   UNL A   1      48.029  26.680  36.313  1.00  0.00    -0.200 F 
ENDBRANCH  71  94
ENDBRANCH  45  46
ENDBRANCH  38  40
ENDBRANCH  37  38
ENDBRANCH  36  37
ENDBRANCH  35  36
ENDBRANCH  34  35
ENDBRANCH  33  34
ENDBRANCH   1  33
TORSDOF 20
ENDMDL
MODEL 2
REMARK VINA RESULT:     -11.2      6.574     12.293
REMARK SMILES C=CCN1C(=O)/C(=C/c2ccc(OCc3cccc(C(=O)OCCOCCOC(=O)c4ccc(-c5c6nc(c(-c7c(F)c(F)c(F)c(F)c7F)c7ccc([nH]7)c(-c7c(F)c(F)c(F)c(F)c7F)c7nc(c(-c8c(F)c(F)c(F)c(F)c8F)c8ccc5[nH]8)C=C7)C=C6)cc4)c3)cc2)C(=O)NC1=S
REMARK SMILES IDX 23 1 22 2 20 3 21 4 19 5 15 6 16 7 94 8 17 9 18 10 14 11
REMARK SMILES IDX 13 12 12 13 9 14 10 15 96 16 11 17 95 18 8 19 4 20 5 21
REMARK SMILES IDX 100 22 6 23 7 24 99 25 101 26 97 27 98 29 3 30 2 31 1 32
REMARK SMILES IDX 24 33 25 34 26 35 27 36 28 37 29 38 30 39 31 40 32 41 93 42
REMARK SMILES IDX 33 43 92 44 34 45 35 46 36 47 86 48 37 49 91 50 85 51 87 52
REMARK SMILES IDX 38 53 90 54 84 55 83 56 39 58 71 59 51 60 70 61 52 62 55 63
REMARK SMILES IDX 69 64 88 65 53 66 54 67 68 69 89 70 56 71 40 72 41 73 49 74
REMARK SMILES IDX 42 75 43 76 47 77 50 78 44 79 45 80 48 81 46 82 72 83 73 84
REMARK SMILES IDX 81 85 74 86 75 87 79 88 82 89 76 90 77 91 80 92 78 93 57 94
REMARK SMILES IDX 58 95 66 96 59 97 60 98 64 99 67 100 61 101 62 102 65 103
REMARK SMILES IDX 63 104
REMARK H PARENT 99 28 87 57 55 68
REMARK Flexibility Score: inf
ROOT
ATOM      1  C   UNL A   1      39.876  23.295  26.467  1.00  0.00     0.261 C 
ENDROOT
BRANCH   1   2
ATOM      2  O   UNL A   1      38.585  22.693  26.665  1.00  0.00    -0.460 OA
BRANCH   2   3
ATOM      3  C   UNL A   1      37.740  22.782  25.608  1.00  0.00     0.338 C 
ATOM      4  O   UNL A   1      37.542  23.764  24.908  1.00  0.00    -0.246 OA
BRANCH   3   5
ATOM      5  C   UNL A   1      37.225  21.434  25.276  1.00  0.00     0.060 A 
ATOM      6  C   UNL A   1      35.423  19.853  24.877  1.00  0.00    -0.010 A 
ATOM      7  C   UNL A   1      36.379  18.832  24.743  1.00  0.00     0.007 A 
ATOM      8  C   UNL A   1      35.856  21.154  25.190  1.00  0.00     0.023 A 
ATOM      9  C   UNL A   1      37.741  19.113  24.837  1.00  0.00     0.001 A 
ATOM     10  C   UNL A   1      38.165  20.414  25.087  1.00  0.00     0.016 A 
BRANCH   6  11
ATOM     11  C   UNL A   1      33.946  19.579  24.654  1.00  0.00     0.265 C 
BRANCH  11  12
ATOM     12  O   UNL A   1      33.112  19.758  25.809  1.00  0.00    -0.489 OA
BRANCH  12  13
ATOM     13  C   UNL A   1      32.715  21.027  26.138  1.00  0.00     0.119 A 
ATOM     14  C   UNL A   1      31.996  23.725  26.426  1.00  0.00    -0.024 A 
ATOM     15  C   UNL A   1      31.507  22.976  25.350  1.00  0.00     0.012 A 
ATOM     16  C   UNL A   1      32.777  23.096  27.397  1.00  0.00     0.012 A 
ATOM     17  C   UNL A   1      31.866  21.633  25.211  1.00  0.00     0.047 A 
ATOM     18  C   UNL A   1      33.129  21.750  27.257  1.00  0.00     0.047 A 
BRANCH  14  19
ATOM     19  C   UNL A   1      31.712  25.160  26.488  1.00  0.00     0.027 C 
ATOM     20  N   UNL A   1      32.039  28.196  24.710  1.00  0.00    -0.281 N 
ATOM     21  C   UNL A   1      31.850  27.488  25.898  1.00  0.00     0.265 C 
ATOM     22  C   UNL A   1      33.172  27.990  23.926  1.00  0.00     0.183 C 
ATOM     23  O   UNL A   1      31.252  27.908  26.885  1.00  0.00    -0.268 OA
ATOM     24  C   UNL A   1      32.440  26.127  25.896  1.00  0.00     0.106 C 
ATOM     25  N   UNL A   1      33.952  26.907  24.239  1.00  0.00    -0.298 N 
ATOM     26  S   UNL A   1      33.715  28.937  22.652  1.00  0.00    -0.040 S 
ATOM     27  C   UNL A   1      33.695  25.924  25.152  1.00  0.00     0.263 C 
ATOM     28  H   UNL A   1      34.800  26.828  23.745  1.00  0.00     0.172 HD
ATOM     29  O   UNL A   1      34.472  24.994  25.308  1.00  0.00    -0.269 OA
BRANCH  20  30
ATOM     30  C   UNL A   1      31.169  29.357  24.465  1.00  0.00     0.155 C 
BRANCH  30  31
ATOM     31  C   UNL A   1      30.038  29.058  23.519  1.00  0.00    -0.013 C 
ATOM     32  C   UNL A   1      29.944  29.598  22.295  1.00  0.00     0.006 C 
ENDBRANCH  30  31
ENDBRANCH  20  30
ENDBRANCH  14  19
ENDBRANCH  12  13
ENDBRANCH  11  12
ENDBRANCH   6  11
ENDBRANCH   3   5
ENDBRANCH   2   3
ENDBRANCH   1   2
BRANCH   1  33
ATOM     33  C   UNL A   1      40.990  22.396  27.013  1.00  0.00     0.202 C 
BRANCH  33  34
ATOM     34  O   UNL A   1      41.385  21.298  26.190  1.00  0.00    -0.374 OA
BRANCH  34  35
ATOM     35  C   UNL A   1      41.757  20.086  26.846  1.00  0.00     0.202 C 
BRANCH  35  36
ATOM     36  C   UNL A   1      42.538  19.062  26.015  1.00  0.00     0.261 C 
BRANCH  36  37
ATOM     37  O   UNL A   1      42.974  19.601  24.754  1.00  0.00    -0.460 OA
BRANCH  37  38
ATOM     38  C   UNL A   1      44.317  19.700  24.615  1.00  0.00     0.338 C 
ATOM     39  O   UNL A   1      45.086  18.853  24.185  1.00  0.00    -0.246 OA
BRANCH  38  40
ATOM     40  C   UNL A   1      44.749  21.080  24.903  1.00  0.00     0.060 A 
ATOM     41  C   UNL A   1      45.259  21.345  26.181  1.00  0.00     0.016 A 
ATOM     42  C   UNL A   1      44.593  22.108  23.972  1.00  0.00     0.016 A 
ATOM     43  C   UNL A   1      45.570  22.651  26.550  1.00  0.00     0.010 A 
ATOM     44  C   UNL A   1      44.899  23.420  24.347  1.00  0.00     0.010 A 
ATOM     45  C   UNL A   1      45.356  23.701  25.648  1.00  0.00    -0.014 A 
BRANCH  45  46
ATOM     46  C   UNL A   1      45.480  25.105  26.113  1.00  0.00     0.031 A 
ATOM     47  C   UNL A   1      46.816  25.786  26.031  1.00  0.00     0.074 A 
ATOM     48  C   UNL A   1      44.409  25.771  26.580  1.00  0.00     0.049 A 
ATOM     49  N   UNL A   1      47.164  26.987  26.418  1.00  0.00    -0.248 NA
ATOM     50  C   UNL A   1      47.912  25.006  25.434  1.00  0.00     0.031 C 
ATOM     51  C   UNL A   1      43.055  25.230  26.672  1.00  0.00     0.029 A 
ATOM     52  N   UNL A   1      44.299  27.046  27.074  1.00  0.00    -0.354 N 
ATOM     53  C   UNL A   1      48.515  27.104  26.120  1.00  0.00     0.074 A 
ATOM     54  C   UNL A   1      48.934  25.842  25.549  1.00  0.00     0.031 C 
ATOM     55  C   UNL A   1      42.248  26.166  27.200  1.00  0.00     0.029 A 
ATOM     56  C   UNL A   1      43.037  27.357  27.515  1.00  0.00     0.049 A 
ATOM     57  H   UNL A   1      45.053  27.678  27.108  1.00  0.00     0.167 HD
ATOM     58  C   UNL A   1      49.330  28.172  26.297  1.00  0.00     0.037 A 
ATOM     59  C   UNL A   1      42.579  28.467  28.124  1.00  0.00     0.037 A 
ATOM     60  C   UNL A   1      48.908  29.427  26.861  1.00  0.00     0.049 A 
ATOM     61  C   UNL A   1      43.521  29.615  28.375  1.00  0.00     0.074 A 
ATOM     62  C   UNL A   1      49.652  30.577  27.062  1.00  0.00     0.029 A 
ATOM     63  N   UNL A   1      47.629  29.694  27.325  1.00  0.00    -0.354 N 
ATOM     64  N   UNL A   1      44.791  29.729  28.066  1.00  0.00    -0.248 NA
ATOM     65  C   UNL A   1      42.966  30.792  29.059  1.00  0.00     0.031 C 
ATOM     66  C   UNL A   1      48.839  31.520  27.697  1.00  0.00     0.029 A 
ATOM     67  C   UNL A   1      47.570  30.981  27.837  1.00  0.00     0.049 A 
ATOM     68  H   UNL A   1      46.874  29.063  27.295  1.00  0.00     0.167 HD
ATOM     69  C   UNL A   1      45.177  30.996  28.486  1.00  0.00     0.074 A 
ATOM     70  C   UNL A   1      44.003  31.618  29.062  1.00  0.00     0.031 C 
ATOM     71  C   UNL A   1      46.391  31.590  28.401  1.00  0.00     0.037 A 
BRANCH  58  72
ATOM     72  C   UNL A   1      50.770  28.020  25.899  1.00  0.00     0.064 A 
ATOM     73  C   UNL A   1      51.190  28.169  24.568  1.00  0.00     0.173 A 
ATOM     74  C   UNL A   1      51.749  27.755  26.869  1.00  0.00     0.173 A 
ATOM     75  F   UNL A   1      50.293  28.409  23.600  1.00  0.00    -0.203 F 
ATOM     76  C   UNL A   1      52.532  28.032  24.221  1.00  0.00     0.198 A 
ATOM     77  C   UNL A   1      53.094  27.649  26.523  1.00  0.00     0.198 A 
ATOM     78  F   UNL A   1      51.402  27.608  28.157  1.00  0.00    -0.203 F 
ATOM     79  F   UNL A   1      52.903  28.131  22.937  1.00  0.00    -0.200 F 
ATOM     80  C   UNL A   1      53.483  27.780  25.199  1.00  0.00     0.200 A 
ATOM     81  F   UNL A   1      54.012  27.420  27.471  1.00  0.00    -0.200 F 
ATOM     82  F   UNL A   1      54.774  27.656  24.864  1.00  0.00    -0.200 F 
ENDBRANCH  58  72
BRANCH  59  83
ATOM     83  C   UNL A   1      41.157  28.546  28.552  1.00  0.00     0.064 A 
ATOM     84  C   UNL A   1      40.763  28.146  29.837  1.00  0.00     0.173 A 
ATOM     85  C   UNL A   1      40.159  29.007  27.680  1.00  0.00     0.173 A 
ATOM     86  F   UNL A   1      41.676  27.674  30.699  1.00  0.00    -0.203 F 
ATOM     87  C   UNL A   1      39.426  28.184  30.225  1.00  0.00     0.198 A 
ATOM     88  C   UNL A   1      38.827  29.073  28.079  1.00  0.00     0.198 A 
ATOM     89  F   UNL A   1      40.482  29.400  26.440  1.00  0.00    -0.203 F 
ATOM     90  F   UNL A   1      39.072  27.748  31.443  1.00  0.00    -0.200 F 
ATOM     91  C   UNL A   1      38.460  28.653  29.348  1.00  0.00     0.200 A 
ATOM     92  F   UNL A   1      37.899  29.539  27.234  1.00  0.00    -0.200 F 
ATOM     93  F   UNL A   1      37.174  28.693  29.724  1.00  0.00    -0.200 F 
ENDBRANCH  59  83
BRANCH  71  94
ATOM     94  C   UNL A   1      46.509  33.001  28.905  1.00  0.00     0.064 A 
ATOM     95  C   UNL A   1      46.885  33.286  30.226  1.00  0.00     0.173 A 
ATOM     96  C   UNL A   1      46.282  34.084  28.041  1.00  0.00     0.173 A 
ATOM     97  F   UNL A   1      47.099  32.287  31.096  1.00  0.00    -0.203 F 
ATOM     98  C   UNL A   1      47.003  34.601  30.669  1.00  0.00     0.198 A 
ATOM     99  C   UNL A   1      46.433  35.397  28.479  1.00  0.00     0.198 A 
ATOM    100  F   UNL A   1      45.928  33.867  26.764  1.00  0.00    -0.203 F 
ATOM    101  F   UNL A   1      47.316  34.848  31.949  1.00  0.00    -0.200 F 
ATOM    102  C   UNL A   1      46.785  35.654  29.794  1.00  0.00     0.200 A 
ATOM    103  F   UNL A   1      46.237  36.412  27.626  1.00  0.00    -0.200 F 
ATOM    104  F   UNL A   1      46.908  36.918  30.221  1.00  0.00    -0.200 F 
ENDBRANCH  71  94
ENDBRANCH  45  46
ENDBRANCH  38  40
ENDBRANCH  37  38
ENDBRANCH  36  37
ENDBRANCH  35  36
ENDBRANCH  34  35
ENDBRANCH  33  34
ENDBRANCH   1  33
TORSDOF 20
ENDMDL
MODEL 3
REMARK VINA RESULT:     -11.1      4.428      9.916
REMARK SMILES C=CCN1C(=O)/C(=C/c2ccc(OCc3cccc(C(=O)OCCOCCOC(=O)c4ccc(-c5c6nc(c(-c7c(F)c(F)c(F)c(F)c7F)c7ccc([nH]7)c(-c7c(F)c(F)c(F)c(F)c7F)c7nc(c(-c8c(F)c(F)c(F)c(F)c8F)c8ccc5[nH]8)C=C7)C=C6)cc4)c3)cc2)C(=O)NC1=S
REMARK SMILES IDX 23 1 22 2 20 3 21 4 19 5 15 6 16 7 94 8 17 9 18 10 14 11
REMARK SMILES IDX 13 12 12 13 9 14 10 15 96 16 11 17 95 18 8 19 4 20 5 21
REMARK SMILES IDX 100 22 6 23 7 24 99 25 101 26 97 27 98 29 3 30 2 31 1 32
REMARK SMILES IDX 24 33 25 34 26 35 27 36 28 37 29 38 30 39 31 40 32 41 93 42
REMARK SMILES IDX 33 43 92 44 34 45 35 46 36 47 86 48 37 49 91 50 85 51 87 52
REMARK SMILES IDX 38 53 90 54 84 55 83 56 39 58 71 59 51 60 70 61 52 62 55 63
REMARK SMILES IDX 69 64 88 65 53 66 54 67 68 69 89 70 56 71 40 72 41 73 49 74
REMARK SMILES IDX 42 75 43 76 47 77 50 78 44 79 45 80 48 81 46 82 72 83 73 84
REMARK SMILES IDX 81 85 74 86 75 87 79 88 82 89 76 90 77 91 80 92 78 93 57 94
REMARK SMILES IDX 58 95 66 96 59 97 60 98 64 99 67 100 61 101 62 102 65 103
REMARK SMILES IDX 63 104
REMARK H PARENT 99 28 87 57 55 68
REMARK Flexibility Score: inf
ROOT
ATOM      1  C   UNL A   1      45.019  18.672  25.373  1.00  0.00     0.261 C 
ENDROOT
BRANCH   1   2
ATOM      2  O   UNL A   1      44.055  18.867  26.422  1.00  0.00    -0.460 OA
BRANCH   2   3
ATOM      3  C   UNL A   1      42.786  18.499  26.114  1.00  0.00     0.338 C 
ATOM      4  O   UNL A   1      42.408  17.389  25.770  1.00  0.00    -0.246 OA
BRANCH   3   5
ATOM      5  C   UNL A   1      41.858  19.601  26.458  1.00  0.00     0.060 A 
ATOM      6  C   UNL A   1      39.851  20.922  26.091  1.00  0.00    -0.010 A 
ATOM      7  C   UNL A   1      40.244  21.768  27.142  1.00  0.00     0.007 A 
ATOM      8  C   UNL A   1      40.694  19.858  25.724  1.00  0.00     0.023 A 
ATOM      9  C   UNL A   1      41.409  21.514  27.866  1.00  0.00     0.001 A 
ATOM     10  C   UNL A   1      42.207  20.423  27.536  1.00  0.00     0.016 A 
BRANCH   6  11
ATOM     11  C   UNL A   1      38.525  21.120  25.379  1.00  0.00     0.265 C 
BRANCH  11  12
ATOM     12  O   UNL A   1      37.496  21.737  26.166  1.00  0.00    -0.489 OA
BRANCH  12  13
ATOM     13  C   UNL A   1      36.510  22.435  25.520  1.00  0.00     0.119 A 
ATOM     14  C   UNL A   1      34.777  23.962  23.926  1.00  0.00    -0.024 A 
ATOM     15  C   UNL A   1      35.585  22.978  23.346  1.00  0.00     0.012 A 
ATOM     16  C   UNL A   1      34.781  24.120  25.312  1.00  0.00     0.012 A 
ATOM     17  C   UNL A   1      36.445  22.219  24.143  1.00  0.00     0.047 A 
ATOM     18  C   UNL A   1      35.639  23.354  26.107  1.00  0.00     0.047 A 
BRANCH  14  19
ATOM     19  C   UNL A   1      33.976  24.831  23.061  1.00  0.00     0.027 C 
ATOM     20  N   UNL A   1      30.925  26.602  22.861  1.00  0.00    -0.281 N 
ATOM     21  C   UNL A   1      32.034  26.002  22.260  1.00  0.00     0.265 C 
ATOM     22  C   UNL A   1      30.072  25.868  23.683  1.00  0.00     0.183 C 
ATOM     23  O   UNL A   1      32.514  26.327  21.178  1.00  0.00    -0.268 OA
ATOM     24  C   UNL A   1      32.630  24.898  23.050  1.00  0.00     0.106 C 
ATOM     25  N   UNL A   1      30.501  24.624  24.066  1.00  0.00    -0.298 N 
ATOM     26  S   UNL A   1      28.555  26.320  24.239  1.00  0.00    -0.040 S 
ATOM     27  C   UNL A   1      31.722  24.052  23.843  1.00  0.00     0.263 C 
ATOM     28  H   UNL A   1      29.851  24.076  24.562  1.00  0.00     0.172 HD
ATOM     29  O   UNL A   1      31.980  22.937  24.271  1.00  0.00    -0.269 OA
BRANCH  20  30
ATOM     30  C   UNL A   1      30.523  27.931  22.373  1.00  0.00     0.155 C 
BRANCH  30  31
ATOM     31  C   UNL A   1      30.847  29.037  23.340  1.00  0.00    -0.013 C 
ATOM     32  C   UNL A   1      31.549  28.845  24.465  1.00  0.00     0.006 C 
ENDBRANCH  30  31
ENDBRANCH  20  30
ENDBRANCH  14  19
ENDBRANCH  12  13
ENDBRANCH  11  12
ENDBRANCH   6  11
ENDBRANCH   3   5
ENDBRANCH   2   3
ENDBRANCH   1   2
BRANCH   1  33
ATOM     33  C   UNL A   1      44.461  19.139  24.023  1.00  0.00     0.202 C 
BRANCH  33  34
ATOM     34  O   UNL A   1      44.889  20.422  23.565  1.00  0.00    -0.374 OA
BRANCH  34  35
ATOM     35  C   UNL A   1      45.506  21.287  24.518  1.00  0.00     0.202 C 
BRANCH  35  36
ATOM     36  C   UNL A   1      45.266  22.791  24.343  1.00  0.00     0.261 C 
BRANCH  36  37
ATOM     37  O   UNL A   1      44.727  23.400  25.529  1.00  0.00    -0.460 OA
BRANCH  37  38
ATOM     38  C   UNL A   1      43.785  24.345  25.302  1.00  0.00     0.338 C 
ATOM     39  O   UNL A   1      43.096  24.485  24.302  1.00  0.00    -0.246 OA
BRANCH  38  40
ATOM     40  C   UNL A   1      43.556  25.128  26.529  1.00  0.00     0.060 A 
ATOM     41  C   UNL A   1      42.702  24.581  27.496  1.00  0.00     0.016 A 
ATOM     42  C   UNL A   1      44.102  26.401  26.702  1.00  0.00     0.016 A 
ATOM     43  C   UNL A   1      42.353  25.326  28.619  1.00  0.00     0.010 A 
ATOM     44  C   UNL A   1      43.744  27.151  27.826  1.00  0.00     0.010 A 
ATOM     45  C   UNL A   1      42.841  26.631  28.772  1.00  0.00    -0.014 A 
BRANCH  45  46
ATOM     46  C   UNL A   1      42.299  27.496  29.848  1.00  0.00     0.031 A 
ATOM     47  C   UNL A   1      42.967  27.494  31.194  1.00  0.00     0.074 A 
ATOM     48  C   UNL A   1      41.239  28.292  29.621  1.00  0.00     0.049 A 
ATOM     49  N   UNL A   1      42.640  28.134  32.287  1.00  0.00    -0.248 NA
ATOM     50  C   UNL A   1      44.166  26.651  31.327  1.00  0.00     0.031 C 
ATOM     51  C   UNL A   1      40.532  28.410  28.348  1.00  0.00     0.029 A 
ATOM     52  N   UNL A   1      40.570  29.146  30.461  1.00  0.00    -0.354 N 
ATOM     53  C   UNL A   1      43.585  27.769  33.237  1.00  0.00     0.074 A 
ATOM     54  C   UNL A   1      44.480  26.824  32.603  1.00  0.00     0.031 C 
ATOM     55  C   UNL A   1      39.518  29.282  28.493  1.00  0.00     0.029 A 
ATOM     56  C   UNL A   1      39.486  29.753  29.877  1.00  0.00     0.049 A 
ATOM     57  H   UNL A   1      40.841  29.307  31.393  1.00  0.00     0.167 HD
ATOM     58  C   UNL A   1      43.701  28.190  34.519  1.00  0.00     0.037 A 
ATOM     59  C   UNL A   1      38.562  30.577  30.408  1.00  0.00     0.037 A 
ATOM     60  C   UNL A   1      42.811  29.132  35.145  1.00  0.00     0.049 A 
ATOM     61  C   UNL A   1      38.672  30.976  31.856  1.00  0.00     0.074 A 
ATOM     62  C   UNL A   1      42.857  29.640  36.432  1.00  0.00     0.029 A 
ATOM     63  N   UNL A   1      41.706  29.703  34.531  1.00  0.00    -0.354 N 
ATOM     64  N   UNL A   1      39.582  30.647  32.741  1.00  0.00    -0.248 NA
ATOM     65  C   UNL A   1      37.624  31.863  32.381  1.00  0.00     0.031 C 
ATOM     66  C   UNL A   1      41.749  30.474  36.614  1.00  0.00     0.029 A 
ATOM     67  C   UNL A   1      41.046  30.535  35.422  1.00  0.00     0.049 A 
ATOM     68  H   UNL A   1      41.431  29.541  33.600  1.00  0.00     0.167 HD
ATOM     69  C   UNL A   1      39.238  31.310  33.912  1.00  0.00     0.074 A 
ATOM     70  C   UNL A   1      38.040  32.069  33.622  1.00  0.00     0.031 C 
ATOM     71  C   UNL A   1      39.857  31.292  35.117  1.00  0.00     0.037 A 
BRANCH  58  72
ATOM     72  C   UNL A   1      44.817  27.613  35.341  1.00  0.00     0.064 A 
ATOM     73  C   UNL A   1      46.056  28.261  35.465  1.00  0.00     0.173 A 
ATOM     74  C   UNL A   1      44.633  26.412  36.043  1.00  0.00     0.173 A 
ATOM     75  F   UNL A   1      46.288  29.406  34.805  1.00  0.00    -0.203 F 
ATOM     76  C   UNL A   1      47.076  27.714  36.240  1.00  0.00     0.198 A 
ATOM     77  C   UNL A   1      45.645  25.883  36.840  1.00  0.00     0.198 A 
ATOM     78  F   UNL A   1      43.467  25.753  35.962  1.00  0.00    -0.203 F 
ATOM     79  F   UNL A   1      48.266  28.326  36.305  1.00  0.00    -0.200 F 
ATOM     80  C   UNL A   1      46.868  26.530  36.931  1.00  0.00     0.200 A 
ATOM     81  F   UNL A   1      45.437  24.747  37.518  1.00  0.00    -0.200 F 
ATOM     82  F   UNL A   1      47.848  26.009  37.682  1.00  0.00    -0.200 F 
ENDBRANCH  58  72
BRANCH  59  83
ATOM     83  C   UNL A   1      37.441  31.075  29.567  1.00  0.00     0.064 A 
ATOM     84  C   UNL A   1      37.401  32.405  29.127  1.00  0.00     0.173 A 
ATOM     85  C   UNL A   1      36.379  30.235  29.200  1.00  0.00     0.173 A 
ATOM     86  F   UNL A   1      38.380  33.254  29.472  1.00  0.00    -0.203 F 
ATOM     87  C   UNL A   1      36.332  32.881  28.371  1.00  0.00     0.198 A 
ATOM     88  C   UNL A   1      35.327  30.704  28.419  1.00  0.00     0.198 A 
ATOM     89  F   UNL A   1      36.369  28.954  29.596  1.00  0.00    -0.203 F 
ATOM     90  F   UNL A   1      36.295  34.170  28.006  1.00  0.00    -0.200 F 
ATOM     91  C   UNL A   1      35.299  32.029  28.012  1.00  0.00     0.200 A 
ATOM     92  F   UNL A   1      34.337  29.874  28.063  1.00  0.00    -0.200 F 
ATOM     93  F   UNL A   1      34.273  32.487  27.281  1.00  0.00    -0.200 F 
ENDBRANCH  59  83
BRANCH  71  94
ATOM     94  C   UNL A   1      39.279  32.150  36.206  1.00  0.00     0.064 A 
ATOM     95  C   UNL A   1      38.284  31.673  37.073  1.00  0.00     0.173 A 
ATOM     96  C   UNL A   1      39.757  33.454  36.411  1.00  0.00     0.173 A 
ATOM     97  F   UNL A   1      37.783  30.440  36.912  1.00  0.00    -0.203 F 
ATOM     98  C   UNL A   1      37.772  32.480  38.087  1.00  0.00     0.198 A 
ATOM     99  C   UNL A   1      39.265  34.245  37.446  1.00  0.00     0.198 A 
ATOM    100  F   UNL A   1      40.714  33.956  35.615  1.00  0.00    -0.203 F 
ATOM    101  F   UNL A   1      36.787  32.020  38.872  1.00  0.00    -0.200 F 
ATOM    102  C   UNL A   1      38.268  33.760  38.277  1.00  0.00     0.200 A 
ATOM    103  F   UNL A   1      39.757  35.477  37.637  1.00  0.00    -0.200 F 
ATOM    104  F   UNL A   1      37.779  34.531  39.258  1.00  0.00    -0.200 F 
ENDBRANCH  71  94
ENDBRANCH  45  46
ENDBRANCH  38  40
ENDBRANCH  37  38
ENDBRANCH  36  37
ENDBRANCH  35  36
ENDBRANCH  34  35
ENDBRANCH  33  34
ENDBRANCH   1  33
TORSDOF 20
ENDMDL
