MODEL 1
REMARK VINA RESULT:     -11.6      0.000      0.000
REMARK SMILES O=C(/C=C/N[C@@H](Cc1c[nH]c2ccccc12)C(=O)OCCOCCOC(=O)c1ccc(-c2c3nc(c(-c4c(F)c(F)c(F)c(F)c4F)c4ccc([nH]4)c(-c4c(F)c(F)c(F)c(F)c4F)c4nc(c(-c5c(F)c(F)c(F)c(F)c5F)c5ccc2[nH]5)C=C4)C=C3)cc1)c1ccccc1
REMARK SMILES IDX 21 1 20 2 19 3 17 4 18 5 6 6 5 7 4 9 3 10 2 11 1 12 91 13
REMARK SMILES IDX 92 14 96 15 93 16 95 17 94 18 7 19 8 20 9 21 16 22 10 23
REMARK SMILES IDX 11 24 15 25 12 27 14 28 13 29 22 30 23 31 24 32 25 33 26 34
REMARK SMILES IDX 27 35 28 36 29 37 90 38 30 39 89 40 31 41 32 42 33 43 83 44
REMARK SMILES IDX 34 45 88 46 82 47 84 48 35 49 87 50 81 51 80 52 36 54 68 55
REMARK SMILES IDX 48 56 67 57 49 58 52 59 66 60 85 61 50 62 51 63 65 65 86 66
REMARK SMILES IDX 53 67 37 68 38 69 46 70 39 71 40 72 44 73 47 74 41 75 42 76
REMARK SMILES IDX 45 77 43 78 69 79 70 80 78 81 71 82 72 83 76 84 79 85 73 86
REMARK SMILES IDX 74 87 77 88 75 89 54 90 55 91 63 92 56 93 57 94 61 95 64 96
REMARK SMILES IDX 58 97 59 98 62 99 60 100
REMARK H PARENT 5 8 10 26 84 53 52 64
REMARK Flexibility Score: inf
ROOT
ATOM      1  C   UNL A   1      34.543  33.149  28.010  1.00  0.00     0.202 C 
ENDROOT
BRANCH   1   2
ATOM      2  C   UNL A   1      34.453  31.665  28.380  1.00  0.00     0.261 C 
BRANCH   2   3
ATOM      3  O   UNL A   1      34.033  30.892  27.240  1.00  0.00    -0.462 OA
BRANCH   3   4
ATOM      4  C   UNL A   1      34.592  29.676  27.031  1.00  0.00     0.328 C 
ATOM      5  O   UNL A   1      35.642  29.300  27.540  1.00  0.00    -0.250 OA
BRANCH   4   6
ATOM      6  C   UNL A   1      33.749  28.795  26.095  1.00  0.00     0.194 C 
BRANCH   6   7
ATOM      7  N   UNL A   1      33.911  29.085  24.660  1.00  0.00    -0.378 N 
ATOM      8  H   UNL A   1      34.780  29.457  24.385  1.00  0.00     0.160 HD
BRANCH   7   9
ATOM      9  C   UNL A   1      32.987  28.892  23.665  1.00  0.00     0.082 C 
ATOM     10  C   UNL A   1      31.666  29.076  23.793  1.00  0.00     0.070 C 
BRANCH  10  11
ATOM     11  C   UNL A   1      30.641  28.981  22.718  1.00  0.00     0.187 C 
ATOM     12  O   UNL A   1      30.598  27.980  22.008  1.00  0.00    -0.289 OA
BRANCH  11  13
ATOM     13  C   UNL A   1      29.627  30.040  22.553  1.00  0.00     0.022 A 
ATOM     14  C   UNL A   1      29.156  30.779  23.643  1.00  0.00     0.012 A 
ATOM     15  C   UNL A   1      29.149  30.302  21.264  1.00  0.00     0.012 A 
ATOM     16  C   UNL A   1      28.158  31.733  23.451  1.00  0.00     0.001 A 
ATOM     17  C   UNL A   1      28.155  31.260  21.077  1.00  0.00     0.001 A 
ATOM     18  C   UNL A   1      27.652  31.967  22.171  1.00  0.00     0.000 A 
ENDBRANCH  11  13
ENDBRANCH  10  11
ENDBRANCH   7   9
ENDBRANCH   6   7
BRANCH   6  19
ATOM     19  C   UNL A   1      33.859  27.301  26.402  1.00  0.00     0.074 C 
BRANCH  19  20
ATOM     20  C   UNL A   1      32.681  26.353  26.356  1.00  0.00    -0.020 A 
ATOM     21  C   UNL A   1      31.390  26.828  26.538  1.00  0.00     0.087 A 
ATOM     22  C   UNL A   1      32.543  24.937  26.116  1.00  0.00     0.003 A 
ATOM     23  N   UNL A   1      30.507  25.795  26.441  1.00  0.00    -0.361 N 
ATOM     24  C   UNL A   1      31.177  24.630  26.176  1.00  0.00     0.046 A 
ATOM     25  C   UNL A   1      33.411  23.860  25.845  1.00  0.00     0.010 A 
ATOM     26  H   UNL A   1      29.531  25.874  26.546  1.00  0.00     0.166 HD
ATOM     27  C   UNL A   1      30.659  23.343  25.975  1.00  0.00     0.026 A 
ATOM     28  C   UNL A   1      32.913  22.579  25.628  1.00  0.00     0.001 A 
ATOM     29  C   UNL A   1      31.556  22.323  25.677  1.00  0.00     0.002 A 
ENDBRANCH  19  20
ENDBRANCH   6  19
ENDBRANCH   4   6
ENDBRANCH   3   4
ENDBRANCH   2   3
ENDBRANCH   1   2
BRANCH   1  30
ATOM     30  O   UNL A   1      33.725  33.967  28.849  1.00  0.00    -0.374 OA
BRANCH  30  31
ATOM     31  C   UNL A   1      33.873  35.372  28.650  1.00  0.00     0.202 C 
BRANCH  31  32
ATOM     32  C   UNL A   1      32.904  36.184  29.511  1.00  0.00     0.261 C 
BRANCH  32  33
ATOM     33  O   UNL A   1      32.384  35.375  30.584  1.00  0.00    -0.460 OA
BRANCH  33  34
ATOM     34  C   UNL A   1      32.671  35.798  31.839  1.00  0.00     0.338 C 
ATOM     35  O   UNL A   1      32.052  36.601  32.516  1.00  0.00    -0.246 OA
BRANCH  34  36
ATOM     36  C   UNL A   1      33.819  35.021  32.351  1.00  0.00     0.060 A 
ATOM     37  C   UNL A   1      35.103  35.573  32.245  1.00  0.00     0.016 A 
ATOM     38  C   UNL A   1      33.642  33.766  32.940  1.00  0.00     0.016 A 
ATOM     39  C   UNL A   1      36.215  34.871  32.724  1.00  0.00     0.010 A 
ATOM     40  C   UNL A   1      34.749  33.080  33.444  1.00  0.00     0.010 A 
ATOM     41  C   UNL A   1      36.048  33.615  33.318  1.00  0.00    -0.014 A 
BRANCH  41  42
ATOM     42  C   UNL A   1      37.206  32.744  33.649  1.00  0.00     0.031 A 
ATOM     43  C   UNL A   1      37.987  33.065  34.894  1.00  0.00     0.074 A 
ATOM     44  C   UNL A   1      37.609  31.735  32.853  1.00  0.00     0.049 A 
ATOM     45  N   UNL A   1      39.134  32.591  35.308  1.00  0.00    -0.248 NA
ATOM     46  C   UNL A   1      37.388  34.067  35.792  1.00  0.00     0.031 C 
ATOM     47  C   UNL A   1      36.917  31.256  31.661  1.00  0.00     0.029 A 
ATOM     48  N   UNL A   1      38.745  30.961  32.912  1.00  0.00    -0.354 N 
ATOM     49  C   UNL A   1      39.387  33.233  36.511  1.00  0.00     0.074 A 
ATOM     50  C   UNL A   1      38.316  34.178  36.729  1.00  0.00     0.031 C 
ATOM     51  C   UNL A   1      37.682  30.333  31.050  1.00  0.00     0.029 A 
ATOM     52  C   UNL A   1      38.916  30.155  31.811  1.00  0.00     0.049 A 
ATOM     53  H   UNL A   1      39.374  30.982  33.668  1.00  0.00     0.167 HD
ATOM     54  C   UNL A   1      40.404  33.028  37.380  1.00  0.00     0.037 A 
ATOM     55  C   UNL A   1      39.963  29.388  31.448  1.00  0.00     0.037 A 
ATOM     56  C   UNL A   1      41.464  32.082  37.180  1.00  0.00     0.049 A 
ATOM     57  C   UNL A   1      41.154  29.269  32.365  1.00  0.00     0.074 A 
ATOM     58  C   UNL A   1      42.519  31.777  38.019  1.00  0.00     0.029 A 
ATOM     59  N   UNL A   1      41.603  31.289  36.051  1.00  0.00    -0.354 N 
ATOM     60  N   UNL A   1      41.364  29.840  33.525  1.00  0.00    -0.248 NA
ATOM     61  C   UNL A   1      42.243  28.377  31.934  1.00  0.00     0.031 C 
ATOM     62  C   UNL A   1      43.321  30.825  37.381  1.00  0.00     0.029 A 
ATOM     63  C   UNL A   1      42.741  30.509  36.164  1.00  0.00     0.049 A 
ATOM     64  H   UNL A   1      40.986  31.283  35.285  1.00  0.00     0.167 HD
ATOM     65  C   UNL A   1      42.567  29.327  33.993  1.00  0.00     0.074 A 
ATOM     66  C   UNL A   1      43.058  28.418  32.979  1.00  0.00     0.031 C 
ATOM     67  C   UNL A   1      43.195  29.573  35.168  1.00  0.00     0.037 A 
BRANCH  54  68
ATOM     68  C   UNL A   1      40.401  33.847  38.635  1.00  0.00     0.064 A 
ATOM     69  C   UNL A   1      41.152  35.029  38.736  1.00  0.00     0.173 A 
ATOM     70  C   UNL A   1      39.643  33.451  39.745  1.00  0.00     0.173 A 
ATOM     71  F   UNL A   1      41.909  35.437  37.707  1.00  0.00    -0.203 F 
ATOM     72  C   UNL A   1      41.167  35.767  39.915  1.00  0.00     0.198 A 
ATOM     73  C   UNL A   1      39.637  34.208  40.913  1.00  0.00     0.198 A 
ATOM     74  F   UNL A   1      38.908  32.329  39.697  1.00  0.00    -0.203 F 
ATOM     75  F   UNL A   1      41.933  36.862  40.008  1.00  0.00    -0.200 F 
ATOM     76  C   UNL A   1      40.405  35.359  41.000  1.00  0.00     0.200 A 
ATOM     77  F   UNL A   1      38.895  33.817  41.958  1.00  0.00    -0.200 F 
ATOM     78  F   UNL A   1      40.421  36.071  42.135  1.00  0.00    -0.200 F 
ENDBRANCH  54  68
BRANCH  55  79
ATOM     79  C   UNL A   1      39.940  28.658  30.153  1.00  0.00     0.064 A 
ATOM     80  C   UNL A   1      39.374  27.380  30.055  1.00  0.00     0.173 A 
ATOM     81  C   UNL A   1      40.518  29.206  28.999  1.00  0.00     0.173 A 
ATOM     82  F   UNL A   1      38.831  26.804  31.138  1.00  0.00    -0.203 F 
ATOM     83  C   UNL A   1      39.407  26.667  28.858  1.00  0.00     0.198 A 
ATOM     84  C   UNL A   1      40.533  28.501  27.797  1.00  0.00     0.198 A 
ATOM     85  F   UNL A   1      41.073  30.427  29.039  1.00  0.00    -0.203 F 
ATOM     86  F   UNL A   1      38.901  25.427  28.804  1.00  0.00    -0.200 F 
ATOM     87  C   UNL A   1      39.985  27.228  27.729  1.00  0.00     0.200 A 
ATOM     88  F   UNL A   1      41.084  29.051  26.706  1.00  0.00    -0.200 F 
ATOM     89  F   UNL A   1      40.023  26.541  26.580  1.00  0.00    -0.200 F 
ENDBRANCH  55  79
BRANCH  67  90
ATOM     90  C   UNL A   1      44.435  28.790  35.482  1.00  0.00     0.064 A 
ATOM     91  C   UNL A   1      44.383  27.548  36.127  1.00  0.00     0.173 A 
ATOM     92  C   UNL A   1      45.685  29.255  35.047  1.00  0.00     0.173 A 
ATOM     93  F   UNL A   1      43.212  27.068  36.575  1.00  0.00    -0.203 F 
ATOM     94  C   UNL A   1      45.541  26.801  36.331  1.00  0.00     0.198 A 
ATOM     95  C   UNL A   1      46.837  28.495  35.228  1.00  0.00     0.198 A 
ATOM     96  F   UNL A   1      45.785  30.437  34.418  1.00  0.00    -0.203 F 
ATOM     97  F   UNL A   1      45.474  25.626  36.972  1.00  0.00    -0.200 F 
ATOM     98  C   UNL A   1      46.763  27.270  35.871  1.00  0.00     0.200 A 
ATOM     99  F   UNL A   1      48.014  28.943  34.771  1.00  0.00    -0.200 F 
ATOM    100  F   UNL A   1      47.872  26.539  36.049  1.00  0.00    -0.200 F 
ENDBRANCH  67  90
ENDBRANCH  41  42
ENDBRANCH  34  36
ENDBRANCH  33  34
ENDBRANCH  32  33
ENDBRANCH  31  32
ENDBRANCH  30  31
ENDBRANCH   1  30
TORSDOF 20
ENDMDL
MODEL 2
REMARK VINA RESULT:     -11.3      1.093      3.769
REMARK SMILES O=C(/C=C/N[C@@H](Cc1c[nH]c2ccccc12)C(=O)OCCOCCOC(=O)c1ccc(-c2c3nc(c(-c4c(F)c(F)c(F)c(F)c4F)c4ccc([nH]4)c(-c4c(F)c(F)c(F)c(F)c4F)c4nc(c(-c5c(F)c(F)c(F)c(F)c5F)c5ccc2[nH]5)C=C4)C=C3)cc1)c1ccccc1
REMARK SMILES IDX 21 1 20 2 19 3 17 4 18 5 6 6 5 7 4 9 3 10 2 11 1 12 91 13
REMARK SMILES IDX 92 14 96 15 93 16 95 17 94 18 7 19 8 20 9 21 16 22 10 23
REMARK SMILES IDX 11 24 15 25 12 27 14 28 13 29 22 30 23 31 24 32 25 33 26 34
REMARK SMILES IDX 27 35 28 36 29 37 90 38 30 39 89 40 31 41 32 42 33 43 83 44
REMARK SMILES IDX 34 45 88 46 82 47 84 48 35 49 87 50 81 51 80 52 36 54 68 55
REMARK SMILES IDX 48 56 67 57 49 58 52 59 66 60 85 61 50 62 51 63 65 65 86 66
REMARK SMILES IDX 53 67 37 68 38 69 46 70 39 71 40 72 44 73 47 74 41 75 42 76
REMARK SMILES IDX 45 77 43 78 69 79 70 80 78 81 71 82 72 83 76 84 79 85 73 86
REMARK SMILES IDX 74 87 77 88 75 89 54 90 55 91 63 92 56 93 57 94 61 95 64 96
REMARK SMILES IDX 58 97 59 98 62 99 60 100
REMARK H PARENT 5 8 10 26 84 53 52 64
REMARK Flexibility Score: inf
ROOT
ATOM      1  C   UNL A   1      34.589  33.136  28.173  1.00  0.00     0.202 C 
ENDROOT
BRANCH   1   2
ATOM      2  C   UNL A   1      34.196  31.668  28.363  1.00  0.00     0.261 C 
BRANCH   2   3
ATOM      3  O   UNL A   1      33.833  31.082  27.099  1.00  0.00    -0.462 OA
BRANCH   3   4
ATOM      4  C   UNL A   1      34.009  29.751  26.919  1.00  0.00     0.328 C 
ATOM      5  O   UNL A   1      35.001  29.128  27.282  1.00  0.00    -0.250 OA
BRANCH   4   6
ATOM      6  C   UNL A   1      32.809  29.088  26.224  1.00  0.00     0.194 C 
BRANCH   6   7
ATOM      7  N   UNL A   1      32.068  28.124  27.055  1.00  0.00    -0.378 N 
ATOM      8  H   UNL A   1      31.412  28.503  27.684  1.00  0.00     0.160 HD
BRANCH   7   9
ATOM      9  C   UNL A   1      32.190  26.757  27.049  1.00  0.00     0.082 C 
ATOM     10  C   UNL A   1      31.315  25.908  26.494  1.00  0.00     0.070 C 
BRANCH  10  11
ATOM     11  C   UNL A   1      31.455  24.431  26.372  1.00  0.00     0.187 C 
ATOM     12  O   UNL A   1      31.023  23.706  27.263  1.00  0.00    -0.289 OA
BRANCH  11  13
ATOM     13  C   UNL A   1      32.035  23.831  25.155  1.00  0.00     0.022 A 
ATOM     14  C   UNL A   1      31.227  23.366  24.113  1.00  0.00     0.012 A 
ATOM     15  C   UNL A   1      33.429  23.746  25.059  1.00  0.00     0.012 A 
ATOM     16  C   UNL A   1      31.814  22.756  23.004  1.00  0.00     0.001 A 
ATOM     17  C   UNL A   1      34.010  23.140  23.947  1.00  0.00     0.001 A 
ATOM     18  C   UNL A   1      33.202  22.636  22.926  1.00  0.00     0.000 A 
ENDBRANCH  11  13
ENDBRANCH  10  11
ENDBRANCH   7   9
ENDBRANCH   6   7
BRANCH   6  19
ATOM     19  C   UNL A   1      31.884  30.083  25.524  1.00  0.00     0.074 C 
BRANCH  19  20
ATOM     20  C   UNL A   1      30.950  29.701  24.396  1.00  0.00    -0.020 A 
ATOM     21  C   UNL A   1      31.121  28.502  23.719  1.00  0.00     0.087 A 
ATOM     22  C   UNL A   1      29.787  30.318  23.806  1.00  0.00     0.003 A 
ATOM     23  N   UNL A   1      30.158  28.378  22.764  1.00  0.00    -0.361 N 
ATOM     24  C   UNL A   1      29.323  29.464  22.796  1.00  0.00     0.046 A 
ATOM     25  C   UNL A   1      29.052  31.504  24.004  1.00  0.00     0.010 A 
ATOM     26  H   UNL A   1      30.073  27.619  22.142  1.00  0.00     0.166 HD
ATOM     27  C   UNL A   1      28.193  29.729  22.011  1.00  0.00     0.026 A 
ATOM     28  C   UNL A   1      27.918  31.776  23.243  1.00  0.00     0.001 A 
ATOM     29  C   UNL A   1      27.484  30.896  22.270  1.00  0.00     0.002 A 
ENDBRANCH  19  20
ENDBRANCH   6  19
ENDBRANCH   4   6
ENDBRANCH   3   4
ENDBRANCH   2   3
ENDBRANCH   1   2
BRANCH   1  30
ATOM     30  O   UNL A   1      33.954  33.995  29.123  1.00  0.00    -0.374 OA
BRANCH  30  31
ATOM     31  C   UNL A   1      33.876  35.366  28.738  1.00  0.00     0.202 C 
BRANCH  31  32
ATOM     32  C   UNL A   1      32.867  36.147  29.581  1.00  0.00     0.261 C 
BRANCH  32  33
ATOM     33  O   UNL A   1      32.384  35.335  30.668  1.00  0.00    -0.460 OA
BRANCH  33  34
ATOM     34  C   UNL A   1      32.690  35.769  31.915  1.00  0.00     0.338 C 
ATOM     35  O   UNL A   1      32.082  36.579  32.594  1.00  0.00    -0.246 OA
BRANCH  34  36
ATOM     36  C   UNL A   1      33.844  34.994  32.418  1.00  0.00     0.060 A 
ATOM     37  C   UNL A   1      35.117  35.578  32.367  1.00  0.00     0.016 A 
ATOM     38  C   UNL A   1      33.682  33.709  32.944  1.00  0.00     0.016 A 
ATOM     39  C   UNL A   1      36.234  34.879  32.839  1.00  0.00     0.010 A 
ATOM     40  C   UNL A   1      34.794  33.025  33.441  1.00  0.00     0.010 A 
ATOM     41  C   UNL A   1      36.082  33.593  33.370  1.00  0.00    -0.014 A 
BRANCH  41  42
ATOM     42  C   UNL A   1      37.253  32.733  33.687  1.00  0.00     0.031 A 
ATOM     43  C   UNL A   1      38.040  33.057  34.928  1.00  0.00     0.074 A 
ATOM     44  C   UNL A   1      37.660  31.733  32.884  1.00  0.00     0.049 A 
ATOM     45  N   UNL A   1      39.195  32.593  35.330  1.00  0.00    -0.248 NA
ATOM     46  C   UNL A   1      37.437  34.047  35.836  1.00  0.00     0.031 C 
ATOM     47  C   UNL A   1      36.963  31.252  31.694  1.00  0.00     0.029 A 
ATOM     48  N   UNL A   1      38.805  30.971  32.929  1.00  0.00    -0.354 N 
ATOM     49  C   UNL A   1      39.451  33.231  36.535  1.00  0.00     0.074 A 
ATOM     50  C   UNL A   1      38.370  34.163  36.766  1.00  0.00     0.031 C 
ATOM     51  C   UNL A   1      37.733  30.341  31.072  1.00  0.00     0.029 A 
ATOM     52  C   UNL A   1      38.976  30.173  31.823  1.00  0.00     0.049 A 
ATOM     53  H   UNL A   1      39.439  30.995  33.681  1.00  0.00     0.167 HD
ATOM     54  C   UNL A   1      40.476  33.033  37.395  1.00  0.00     0.037 A 
ATOM     55  C   UNL A   1      40.028  29.419  31.447  1.00  0.00     0.037 A 
ATOM     56  C   UNL A   1      41.545  32.100  37.181  1.00  0.00     0.049 A 
ATOM     57  C   UNL A   1      41.227  29.309  32.354  1.00  0.00     0.074 A 
ATOM     58  C   UNL A   1      42.610  31.801  38.011  1.00  0.00     0.029 A 
ATOM     59  N   UNL A   1      41.683  31.314  36.048  1.00  0.00    -0.354 N 
ATOM     60  N   UNL A   1      41.440  29.876  33.516  1.00  0.00    -0.248 NA
ATOM     61  C   UNL A   1      42.323  28.431  31.911  1.00  0.00     0.031 C 
ATOM     62  C   UNL A   1      43.417  30.862  37.362  1.00  0.00     0.029 A 
ATOM     63  C   UNL A   1      42.831  30.546  36.147  1.00  0.00     0.049 A 
ATOM     64  H   UNL A   1      41.061  31.305  35.286  1.00  0.00     0.167 HD
ATOM     65  C   UNL A   1      42.652  29.373  33.972  1.00  0.00     0.074 A 
ATOM     66  C   UNL A   1      43.145  28.475  32.949  1.00  0.00     0.031 C 
ATOM     67  C   UNL A   1      43.287  29.620  35.143  1.00  0.00     0.037 A 
BRANCH  54  68
ATOM     68  C   UNL A   1      40.475  33.846  38.655  1.00  0.00     0.064 A 
ATOM     69  C   UNL A   1      39.747  33.439  39.783  1.00  0.00     0.173 A 
ATOM     70  C   UNL A   1      41.207  35.038  38.735  1.00  0.00     0.173 A 
ATOM     71  F   UNL A   1      39.016  32.315  39.746  1.00  0.00    -0.203 F 
ATOM     72  C   UNL A   1      39.728  34.214  40.938  1.00  0.00     0.198 A 
ATOM     73  C   UNL A   1      41.209  35.797  39.902  1.00  0.00     0.198 A 
ATOM     74  F   UNL A   1      41.919  35.468  37.683  1.00  0.00    -0.203 F 
ATOM     75  F   UNL A   1      38.983  33.836  41.985  1.00  0.00    -0.200 F 
ATOM     76  C   UNL A   1      40.463  35.389  40.998  1.00  0.00     0.200 A 
ATOM     77  F   UNL A   1      41.925  36.928  39.963  1.00  0.00    -0.200 F 
ATOM     78  F   UNL A   1      40.443  36.135  42.111  1.00  0.00    -0.200 F 
ENDBRANCH  54  68
BRANCH  55  79
ATOM     79  C   UNL A   1      40.003  28.695  30.149  1.00  0.00     0.064 A 
ATOM     80  C   UNL A   1      39.441  27.416  30.047  1.00  0.00     0.173 A 
ATOM     81  C   UNL A   1      40.574  29.251  28.996  1.00  0.00     0.173 A 
ATOM     82  F   UNL A   1      38.904  26.833  31.129  1.00  0.00    -0.203 F 
ATOM     83  C   UNL A   1      39.472  26.709  28.846  1.00  0.00     0.198 A 
ATOM     84  C   UNL A   1      40.587  28.553  27.790  1.00  0.00     0.198 A 
ATOM     85  F   UNL A   1      41.125  30.474  29.040  1.00  0.00    -0.203 F 
ATOM     86  F   UNL A   1      38.970  25.468  28.787  1.00  0.00    -0.200 F 
ATOM     87  C   UNL A   1      40.044  27.278  27.718  1.00  0.00     0.200 A 
ATOM     88  F   UNL A   1      41.132  29.110  26.700  1.00  0.00    -0.200 F 
ATOM     89  F   UNL A   1      40.080  26.597  26.565  1.00  0.00    -0.200 F 
ENDBRANCH  55  79
BRANCH  67  90
ATOM     90  C   UNL A   1      44.538  28.848  35.443  1.00  0.00     0.064 A 
ATOM     91  C   UNL A   1      45.808  29.342  35.120  1.00  0.00     0.173 A 
ATOM     92  C   UNL A   1      44.460  27.636  36.145  1.00  0.00     0.173 A 
ATOM     93  F   UNL A   1      45.933  30.490  34.436  1.00  0.00    -0.203 F 
ATOM     94  C   UNL A   1      46.958  28.646  35.485  1.00  0.00     0.198 A 
ATOM     95  C   UNL A   1      45.611  26.955  36.531  1.00  0.00     0.198 A 
ATOM     96  F   UNL A   1      43.265  27.125  36.481  1.00  0.00    -0.203 F 
ATOM     97  F   UNL A   1      48.163  29.123  35.146  1.00  0.00    -0.200 F 
ATOM     98  C   UNL A   1      46.858  27.461  36.200  1.00  0.00     0.200 A 
ATOM     99  F   UNL A   1      45.512  25.818  37.233  1.00  0.00    -0.200 F 
ATOM    100  F   UNL A   1      47.966  26.804  36.569  1.00  0.00    -0.200 F 
ENDBRANCH  67  90
ENDBRANCH  41  42
ENDBRANCH  34  36
ENDBRANCH  33  34
ENDBRANCH  32  33
ENDBRANCH  31  32
ENDBRANCH  30  31
ENDBRANCH   1  30
TORSDOF 20
ENDMDL
MODEL 3
REMARK VINA RESULT:     -11.2      2.945      9.171
REMARK SMILES O=C(/C=C/N[C@@H](Cc1c[nH]c2ccccc12)C(=O)OCCOCCOC(=O)c1ccc(-c2c3nc(c(-c4c(F)c(F)c(F)c(F)c4F)c4ccc([nH]4)c(-c4c(F)c(F)c(F)c(F)c4F)c4nc(c(-c5c(F)c(F)c(F)c(F)c5F)c5ccc2[nH]5)C=C4)C=C3)cc1)c1ccccc1
REMARK SMILES IDX 21 1 20 2 19 3 17 4 18 5 6 6 5 7 4 9 3 10 2 11 1 12 91 13
REMARK SMILES IDX 92 14 96 15 93 16 95 17 94 18 7 19 8 20 9 21 16 22 10 23
REMARK SMILES IDX 11 24 15 25 12 27 14 28 13 29 22 30 23 31 24 32 25 33 26 34
REMARK SMILES IDX 27 35 28 36 29 37 90 38 30 39 89 40 31 41 32 42 33 43 83 44
REMARK SMILES IDX 34 45 88 46 82 47 84 48 35 49 87 50 81 51 80 52 36 54 68 55
REMARK SMILES IDX 48 56 67 57 49 58 52 59 66 60 85 61 50 62 51 63 65 65 86 66
REMARK SMILES IDX 53 67 37 68 38 69 46 70 39 71 40 72 44 73 47 74 41 75 42 76
REMARK SMILES IDX 45 77 43 78 69 79 70 80 78 81 71 82 72 83 76 84 79 85 73 86
REMARK SMILES IDX 74 87 77 88 75 89 54 90 55 91 63 92 56 93 57 94 61 95 64 96
REMARK SMILES IDX 58 97 59 98 62 99 60 100
REMARK H PARENT 5 8 10 26 84 53 52 64
REMARK Flexibility Score: inf
ROOT
ATOM      1  C   UNL A   1      31.282  27.219  24.457  1.00  0.00     0.202 C 
ENDROOT
BRANCH   1   2
ATOM      2  C   UNL A   1      31.154  26.293  25.670  1.00  0.00     0.261 C 
BRANCH   2   3
ATOM      3  O   UNL A   1      30.570  25.036  25.278  1.00  0.00    -0.462 OA
BRANCH   3   4
ATOM      4  C   UNL A   1      31.146  23.886  25.703  1.00  0.00     0.328 C 
ATOM      5  O   UNL A   1      30.529  22.929  26.157  1.00  0.00    -0.250 OA
BRANCH   4   6
ATOM      6  C   UNL A   1      32.674  23.895  25.532  1.00  0.00     0.194 C 
BRANCH   6   7
ATOM      7  N   UNL A   1      33.421  23.238  26.618  1.00  0.00    -0.378 N 
ATOM      8  H   UNL A   1      32.891  22.922  27.385  1.00  0.00     0.160 HD
BRANCH   7   9
ATOM      9  C   UNL A   1      34.774  23.018  26.679  1.00  0.00     0.082 C 
ATOM     10  C   UNL A   1      35.670  23.468  25.791  1.00  0.00     0.070 C 
BRANCH  10  11
ATOM     11  C   UNL A   1      37.150  23.343  25.870  1.00  0.00     0.187 C 
ATOM     12  O   UNL A   1      37.826  24.320  26.180  1.00  0.00    -0.289 OA
BRANCH  11  13
ATOM     13  C   UNL A   1      37.805  22.036  25.660  1.00  0.00     0.022 A 
ATOM     14  C   UNL A   1      37.152  20.988  25.003  1.00  0.00     0.012 A 
ATOM     15  C   UNL A   1      39.114  21.871  26.127  1.00  0.00     0.012 A 
ATOM     16  C   UNL A   1      37.788  19.753  24.874  1.00  0.00     0.001 A 
ATOM     17  C   UNL A   1      39.746  20.636  25.990  1.00  0.00     0.001 A 
ATOM     18  C   UNL A   1      39.078  19.576  25.375  1.00  0.00     0.000 A 
ENDBRANCH  11  13
ENDBRANCH  10  11
ENDBRANCH   7   9
ENDBRANCH   6   7
BRANCH   6  19
ATOM     19  C   UNL A   1      33.135  23.435  24.149  1.00  0.00     0.074 C 
BRANCH  19  20
ATOM     20  C   UNL A   1      32.693  22.136  23.513  1.00  0.00    -0.020 A 
ATOM     21  C   UNL A   1      32.065  22.138  22.275  1.00  0.00     0.087 A 
ATOM     22  C   UNL A   1      32.798  20.747  23.892  1.00  0.00     0.003 A 
ATOM     23  N   UNL A   1      31.778  20.858  21.909  1.00  0.00    -0.361 N 
ATOM     24  C   UNL A   1      32.219  19.985  22.869  1.00  0.00     0.046 A 
ATOM     25  C   UNL A   1      33.324  20.027  24.984  1.00  0.00     0.010 A 
ATOM     26  H   UNL A   1      31.321  20.597  21.077  1.00  0.00     0.166 HD
ATOM     27  C   UNL A   1      32.153  18.586  22.884  1.00  0.00     0.026 A 
ATOM     28  C   UNL A   1      33.280  18.636  25.008  1.00  0.00     0.001 A 
ATOM     29  C   UNL A   1      32.716  17.922  23.968  1.00  0.00     0.002 A 
ENDBRANCH  19  20
ENDBRANCH   6  19
ENDBRANCH   4   6
ENDBRANCH   3   4
ENDBRANCH   2   3
ENDBRANCH   1   2
BRANCH   1  30
ATOM     30  O   UNL A   1      32.642  27.556  24.172  1.00  0.00    -0.374 OA
BRANCH  30  31
ATOM     31  C   UNL A   1      33.319  28.257  25.214  1.00  0.00     0.202 C 
BRANCH  31  32
ATOM     32  C   UNL A   1      32.806  29.689  25.375  1.00  0.00     0.261 C 
BRANCH  32  33
ATOM     33  O   UNL A   1      32.656  30.016  26.770  1.00  0.00    -0.460 OA
BRANCH  33  34
ATOM     34  C   UNL A   1      33.183  31.202  27.162  1.00  0.00     0.338 C 
ATOM     35  O   UNL A   1      32.665  32.303  27.108  1.00  0.00    -0.246 OA
BRANCH  34  36
ATOM     36  C   UNL A   1      34.484  30.949  27.816  1.00  0.00     0.060 A 
ATOM     37  C   UNL A   1      34.772  29.650  28.255  1.00  0.00     0.016 A 
ATOM     38  C   UNL A   1      35.421  31.971  27.990  1.00  0.00     0.016 A 
ATOM     39  C   UNL A   1      35.996  29.368  28.873  1.00  0.00     0.010 A 
ATOM     40  C   UNL A   1      36.653  31.682  28.580  1.00  0.00     0.010 A 
ATOM     41  C   UNL A   1      36.942  30.384  29.050  1.00  0.00    -0.014 A 
BRANCH  41  42
ATOM     42  C   UNL A   1      38.159  30.188  29.881  1.00  0.00     0.031 A 
ATOM     43  C   UNL A   1      39.194  29.217  29.382  1.00  0.00     0.074 A 
ATOM     44  C   UNL A   1      38.331  30.791  31.072  1.00  0.00     0.049 A 
ATOM     45  N   UNL A   1      40.242  28.726  29.992  1.00  0.00    -0.248 NA
ATOM     46  C   UNL A   1      39.015  28.732  28.003  1.00  0.00     0.031 C 
ATOM     47  C   UNL A   1      37.460  31.808  31.652  1.00  0.00     0.029 A 
ATOM     48  N   UNL A   1      39.291  30.586  32.037  1.00  0.00    -0.354 N 
ATOM     49  C   UNL A   1      40.844  27.881  29.071  1.00  0.00     0.074 A 
ATOM     50  C   UNL A   1      40.012  27.870  27.888  1.00  0.00     0.031 C 
ATOM     51  C   UNL A   1      37.869  32.075  32.905  1.00  0.00     0.029 A 
ATOM     52  C   UNL A   1      39.035  31.249  33.213  1.00  0.00     0.049 A 
ATOM     53  H   UNL A   1      40.084  30.020  31.898  1.00  0.00     0.167 HD
ATOM     54  C   UNL A   1      42.008  27.201  29.182  1.00  0.00     0.037 A 
ATOM     55  C   UNL A   1      39.653  31.173  34.408  1.00  0.00     0.037 A 
ATOM     56  C   UNL A   1      42.848  27.217  30.346  1.00  0.00     0.049 A 
ATOM     57  C   UNL A   1      40.877  30.306  34.560  1.00  0.00     0.074 A 
ATOM     58  C   UNL A   1      44.064  26.590  30.541  1.00  0.00     0.029 A 
ATOM     59  N   UNL A   1      42.551  27.897  31.516  1.00  0.00    -0.354 N 
ATOM     60  N   UNL A   1      41.470  29.549  33.670  1.00  0.00    -0.248 NA
ATOM     61  C   UNL A   1      41.536  30.303  35.877  1.00  0.00     0.031 C 
ATOM     62  C   UNL A   1      44.487  26.857  31.847  1.00  0.00     0.029 A 
ATOM     63  C   UNL A   1      43.554  27.686  32.448  1.00  0.00     0.049 A 
ATOM     64  H   UNL A   1      41.748  28.446  31.664  1.00  0.00     0.167 HD
ATOM     65  C   UNL A   1      42.602  29.039  34.293  1.00  0.00     0.074 A 
ATOM     66  C   UNL A   1      42.602  29.549  35.647  1.00  0.00     0.031 C 
ATOM     67  C   UNL A   1      43.565  28.237  33.778  1.00  0.00     0.037 A 
BRANCH  54  68
ATOM     68  C   UNL A   1      42.438  26.389  27.998  1.00  0.00     0.064 A 
ATOM     69  C   UNL A   1      42.013  25.062  27.832  1.00  0.00     0.173 A 
ATOM     70  C   UNL A   1      43.279  26.940  27.022  1.00  0.00     0.173 A 
ATOM     71  F   UNL A   1      41.224  24.486  28.750  1.00  0.00    -0.203 F 
ATOM     72  C   UNL A   1      42.441  24.306  26.745  1.00  0.00     0.198 A 
ATOM     73  C   UNL A   1      43.681  26.190  25.921  1.00  0.00     0.198 A 
ATOM     74  F   UNL A   1      43.711  28.205  27.136  1.00  0.00    -0.203 F 
ATOM     75  F   UNL A   1      42.068  23.024  26.634  1.00  0.00    -0.200 F 
ATOM     76  C   UNL A   1      43.270  24.872  25.788  1.00  0.00     0.200 A 
ATOM     77  F   UNL A   1      44.476  26.740  24.992  1.00  0.00    -0.200 F 
ATOM     78  F   UNL A   1      43.682  24.143  24.742  1.00  0.00    -0.200 F 
ENDBRANCH  54  68
BRANCH  55  79
ATOM     79  C   UNL A   1      39.134  31.944  35.569  1.00  0.00     0.064 A 
ATOM     80  C   UNL A   1      39.511  33.278  35.775  1.00  0.00     0.173 A 
ATOM     81  C   UNL A   1      38.284  31.352  36.514  1.00  0.00     0.173 A 
ATOM     82  F   UNL A   1      40.342  33.879  34.911  1.00  0.00    -0.203 F 
ATOM     83  C   UNL A   1      39.077  33.984  36.895  1.00  0.00     0.198 A 
ATOM     84  C   UNL A   1      37.833  32.065  37.623  1.00  0.00     0.198 A 
ATOM     85  F   UNL A   1      37.893  30.077  36.362  1.00  0.00    -0.203 F 
ATOM     86  F   UNL A   1      39.490  35.244  37.093  1.00  0.00    -0.200 F 
ATOM     87  C   UNL A   1      38.237  33.378  37.818  1.00  0.00     0.200 A 
ATOM     88  F   UNL A   1      37.015  31.479  38.507  1.00  0.00    -0.200 F 
ATOM     89  F   UNL A   1      37.824  34.054  38.898  1.00  0.00    -0.200 F 
ENDBRANCH  55  79
BRANCH  67  90
ATOM     90  C   UNL A   1      44.755  27.926  34.636  1.00  0.00     0.064 A 
ATOM     91  C   UNL A   1      45.895  28.740  34.646  1.00  0.00     0.173 A 
ATOM     92  C   UNL A   1      44.711  26.842  35.526  1.00  0.00     0.173 A 
ATOM     93  F   UNL A   1      45.989  29.779  33.803  1.00  0.00    -0.203 F 
ATOM     94  C   UNL A   1      46.951  28.477  35.515  1.00  0.00     0.198 A 
ATOM     95  C   UNL A   1      45.758  26.596  36.411  1.00  0.00     0.198 A 
ATOM     96  F   UNL A   1      43.639  26.036  35.557  1.00  0.00    -0.203 F 
ATOM     97  F   UNL A   1      48.043  29.254  35.492  1.00  0.00    -0.200 F 
ATOM     98  C   UNL A   1      46.877  27.414  36.402  1.00  0.00     0.200 A 
ATOM     99  F   UNL A   1      45.677  25.577  37.276  1.00  0.00    -0.200 F 
ATOM    100  F   UNL A   1      47.886  27.176  37.252  1.00  0.00    -0.200 F 
ENDBRANCH  67  90
ENDBRANCH  41  42
ENDBRANCH  34  36
ENDBRANCH  33  34
ENDBRANCH  32  33
ENDBRANCH  31  32
ENDBRANCH  30  31
ENDBRANCH   1  30
TORSDOF 20
ENDMDL
