MODEL 1
REMARK VINA RESULT:     -12.5      0.000      0.000
REMARK SMILES Cc1nc2cc(S(=O)(=O)N3CCC(C(=O)OCCOCCOC(=O)c4ccc(-c5c6nc(c(-c7c(F)c(F)c(F)c(F)c7F)c7ccc([nH]7)c(-c7c(F)c(F)c(F)c(F)c7F)c7nc(c(-c8c(F)c(F)c(F)c(F)c8F)c8ccc5[nH]8)C=C7)C=C6)cc4)CC3)ccc2n1C1CCCC1
REMARK SMILES IDX 18 1 17 2 16 3 14 4 15 5 13 6 10 7 11 8 89 9 12 10 88 11
REMARK SMILES IDX 7 12 8 13 9 14 6 15 1 16 2 17 3 18 93 19 4 20 92 21 5 22
REMARK SMILES IDX 91 23 90 24 94 25 95 26 98 27 96 28 97 29 19 30 20 31 21 32
REMARK SMILES IDX 22 33 23 34 24 35 25 36 26 37 87 38 27 39 86 40 28 41 29 42
REMARK SMILES IDX 30 43 80 44 31 45 85 46 79 47 81 48 32 49 84 50 78 51 77 52
REMARK SMILES IDX 33 54 65 55 45 56 64 57 46 58 49 59 63 60 82 61 47 62 48 63
REMARK SMILES IDX 62 65 83 66 50 67 34 68 35 69 43 70 36 71 37 72 41 73 44 74
REMARK SMILES IDX 38 75 39 76 42 77 40 78 66 79 67 80 75 81 68 82 69 83 73 84
REMARK SMILES IDX 76 85 70 86 71 87 74 88 72 89 51 90 52 91 60 92 53 93 54 94
REMARK SMILES IDX 58 95 61 96 55 97 56 98 59 99 57 100
REMARK H PARENT 81 53 49 64
REMARK Flexibility Score: inf
ROOT
ATOM      1  C   UNL A   1      40.740  21.264  27.359  1.00  0.00     0.202 C 
ENDROOT
BRANCH   1   2
ATOM      2  C   UNL A   1      40.171  22.013  26.151  1.00  0.00     0.261 C 
BRANCH   2   3
ATOM      3  O   UNL A   1      38.742  22.066  26.160  1.00  0.00    -0.463 OA
BRANCH   3   4
ATOM      4  C   UNL A   1      38.143  21.063  25.474  1.00  0.00     0.309 C 
ATOM      5  O   UNL A   1      38.679  20.020  25.120  1.00  0.00    -0.252 OA
BRANCH   4   6
ATOM      6  C   UNL A   1      36.706  21.372  25.146  1.00  0.00     0.102 C 
ATOM      7  N   UNL A   1      34.086  21.431  24.004  1.00  0.00    -0.198 NA
ATOM      8  C   UNL A   1      34.994  22.583  23.769  1.00  0.00     0.103 C 
ATOM      9  C   UNL A   1      34.464  20.347  24.947  1.00  0.00     0.103 C 
ATOM     10  C   UNL A   1      36.468  22.244  23.919  1.00  0.00     0.032 C 
ATOM     11  C   UNL A   1      35.952  20.070  24.953  1.00  0.00     0.032 C 
BRANCH   7  12
ATOM     12  S   UNL A   1      32.411  21.816  23.983  1.00  0.00     0.243 S 
ATOM     13  O   UNL A   1      31.828  21.239  25.183  1.00  0.00    -0.207 OA
ATOM     14  O   UNL A   1      31.911  21.506  22.668  1.00  0.00    -0.207 OA
BRANCH  12  15
ATOM     15  C   UNL A   1      32.291  23.588  24.170  1.00  0.00     0.085 A 
ATOM     16  C   UNL A   1      30.774  29.065  22.306  1.00  0.00     0.088 C 
ATOM     17  C   UNL A   1      31.175  27.779  22.930  1.00  0.00     0.106 A 
ATOM     18  N   UNL A   1      30.997  26.591  22.383  1.00  0.00    -0.233 NA
ATOM     19  N   UNL A   1      31.803  27.671  24.155  1.00  0.00    -0.325 N 
ATOM     20  C   UNL A   1      31.551  25.688  23.248  1.00  0.00     0.090 A 
ATOM     21  C   UNL A   1      32.079  26.335  24.361  1.00  0.00     0.068 A 
ATOM     22  C   UNL A   1      31.651  24.292  23.140  1.00  0.00     0.052 A 
ATOM     23  C   UNL A   1      32.727  25.647  25.388  1.00  0.00     0.030 A 
ATOM     24  C   UNL A   1      32.811  24.263  25.276  1.00  0.00     0.024 A 
BRANCH  19  25
ATOM     25  C   UNL A   1      32.143  28.759  25.054  1.00  0.00     0.089 C 
ATOM     26  C   UNL A   1      31.590  28.609  26.476  1.00  0.00     0.025 C 
ATOM     27  C   UNL A   1      33.650  28.959  25.233  1.00  0.00     0.025 C 
ATOM     28  C   UNL A   1      32.490  29.485  27.335  1.00  0.00     0.002 C 
ATOM     29  C   UNL A   1      33.834  29.566  26.619  1.00  0.00     0.002 C 
ENDBRANCH  19  25
ENDBRANCH  12  15
ENDBRANCH   7  12
ENDBRANCH   4   6
ENDBRANCH   3   4
ENDBRANCH   2   3
ENDBRANCH   1   2
BRANCH   1  30
ATOM     30  O   UNL A   1      41.988  20.597  27.233  1.00  0.00    -0.374 OA
BRANCH  30  31
ATOM     31  C   UNL A   1      42.028  19.385  26.480  1.00  0.00     0.202 C 
BRANCH  31  32
ATOM     32  C   UNL A   1      43.226  19.133  25.541  1.00  0.00     0.261 C 
BRANCH  32  33
ATOM     33  O   UNL A   1      43.499  20.272  24.712  1.00  0.00    -0.460 OA
BRANCH  33  34
ATOM     34  C   UNL A   1      44.809  20.646  24.660  1.00  0.00     0.338 C 
ATOM     35  O   UNL A   1      45.710  20.108  24.043  1.00  0.00    -0.246 OA
BRANCH  34  36
ATOM     36  C   UNL A   1      44.827  22.049  25.121  1.00  0.00     0.060 A 
ATOM     37  C   UNL A   1      45.675  22.445  26.159  1.00  0.00     0.016 A 
ATOM     38  C   UNL A   1      43.714  22.825  24.754  1.00  0.00     0.016 A 
ATOM     39  C   UNL A   1      45.338  23.568  26.906  1.00  0.00     0.010 A 
ATOM     40  C   UNL A   1      43.358  23.919  25.532  1.00  0.00     0.010 A 
ATOM     41  C   UNL A   1      44.145  24.262  26.634  1.00  0.00    -0.014 A 
BRANCH  41  42
ATOM     42  C   UNL A   1      43.850  25.464  27.418  1.00  0.00     0.031 A 
ATOM     43  C   UNL A   1      44.864  26.539  27.230  1.00  0.00     0.074 A 
ATOM     44  C   UNL A   1      42.722  25.689  28.125  1.00  0.00     0.049 A 
ATOM     45  N   UNL A   1      45.569  27.151  28.126  1.00  0.00    -0.248 NA
ATOM     46  C   UNL A   1      45.206  26.900  25.843  1.00  0.00     0.031 C 
ATOM     47  C   UNL A   1      41.508  24.876  28.192  1.00  0.00     0.029 A 
ATOM     48  N   UNL A   1      42.393  26.775  28.886  1.00  0.00    -0.354 N 
ATOM     49  C   UNL A   1      46.351  28.069  27.428  1.00  0.00     0.074 A 
ATOM     50  C   UNL A   1      46.179  27.788  26.027  1.00  0.00     0.031 C 
ATOM     51  C   UNL A   1      40.519  25.579  28.790  1.00  0.00     0.029 A 
ATOM     52  C   UNL A   1      41.046  26.858  29.227  1.00  0.00     0.049 A 
ATOM     53  H   UNL A   1      43.055  27.445  29.171  1.00  0.00     0.167 HD
ATOM     54  C   UNL A   1      46.959  29.123  28.033  1.00  0.00     0.037 A 
ATOM     55  C   UNL A   1      40.399  27.927  29.762  1.00  0.00     0.037 A 
ATOM     56  C   UNL A   1      47.107  28.927  29.446  1.00  0.00     0.049 A 
ATOM     57  C   UNL A   1      41.422  28.822  30.350  1.00  0.00     0.074 A 
ATOM     58  C   UNL A   1      47.802  28.018  30.220  1.00  0.00     0.029 A 
ATOM     59  N   UNL A   1      46.202  29.514  30.293  1.00  0.00    -0.354 N 
ATOM     60  N   UNL A   1      42.109  28.536  31.418  1.00  0.00    -0.248 NA
ATOM     61  C   UNL A   1      41.992  29.848  29.490  1.00  0.00     0.031 C 
ATOM     62  C   UNL A   1      46.952  27.752  31.334  1.00  0.00     0.029 A 
ATOM     63  C   UNL A   1      45.818  28.550  31.194  1.00  0.00     0.049 A 
ATOM     64  H   UNL A   1      45.889  30.446  30.263  1.00  0.00     0.167 HD
ATOM     65  C   UNL A   1      43.382  29.013  31.150  1.00  0.00     0.074 A 
ATOM     66  C   UNL A   1      43.231  29.882  29.987  1.00  0.00     0.031 C 
ATOM     67  C   UNL A   1      44.480  28.439  31.720  1.00  0.00     0.037 A 
BRANCH  54  68
ATOM     68  C   UNL A   1      47.170  30.443  27.349  1.00  0.00     0.064 A 
ATOM     69  C   UNL A   1      48.455  31.007  27.267  1.00  0.00     0.173 A 
ATOM     70  C   UNL A   1      46.101  31.292  26.984  1.00  0.00     0.173 A 
ATOM     71  F   UNL A   1      49.533  30.302  27.639  1.00  0.00    -0.203 F 
ATOM     72  C   UNL A   1      48.649  32.332  26.864  1.00  0.00     0.198 A 
ATOM     73  C   UNL A   1      46.301  32.592  26.529  1.00  0.00     0.198 A 
ATOM     74  F   UNL A   1      44.823  30.926  27.153  1.00  0.00    -0.203 F 
ATOM     75  F   UNL A   1      49.880  32.861  26.890  1.00  0.00    -0.200 F 
ATOM     76  C   UNL A   1      47.574  33.120  26.491  1.00  0.00     0.200 A 
ATOM     77  F   UNL A   1      45.244  33.345  26.197  1.00  0.00    -0.200 F 
ATOM     78  F   UNL A   1      47.756  34.401  26.141  1.00  0.00    -0.200 F 
ENDBRANCH  54  68
BRANCH  55  79
ATOM     79  C   UNL A   1      39.004  28.385  29.534  1.00  0.00     0.064 A 
ATOM     80  C   UNL A   1      38.127  28.614  30.611  1.00  0.00     0.173 A 
ATOM     81  C   UNL A   1      38.597  28.891  28.285  1.00  0.00     0.173 A 
ATOM     82  F   UNL A   1      38.452  28.204  31.846  1.00  0.00    -0.203 F 
ATOM     83  C   UNL A   1      36.936  29.332  30.451  1.00  0.00     0.198 A 
ATOM     84  C   UNL A   1      37.405  29.601  28.125  1.00  0.00     0.198 A 
ATOM     85  F   UNL A   1      39.393  28.796  27.211  1.00  0.00    -0.203 F 
ATOM     86  F   UNL A   1      36.161  29.589  31.515  1.00  0.00    -0.200 F 
ATOM     87  C   UNL A   1      36.584  29.836  29.210  1.00  0.00     0.200 A 
ATOM     88  F   UNL A   1      37.095  30.113  26.926  1.00  0.00    -0.200 F 
ATOM     89  F   UNL A   1      35.479  30.583  29.069  1.00  0.00    -0.200 F 
ENDBRANCH  55  79
BRANCH  67  90
ATOM     90  C   UNL A   1      44.243  27.426  32.808  1.00  0.00     0.064 A 
ATOM     91  C   UNL A   1      43.967  27.767  34.146  1.00  0.00     0.173 A 
ATOM     92  C   UNL A   1      44.174  26.071  32.465  1.00  0.00     0.173 A 
ATOM     93  F   UNL A   1      43.902  29.046  34.533  1.00  0.00    -0.203 F 
ATOM     94  C   UNL A   1      43.695  26.790  35.102  1.00  0.00     0.198 A 
ATOM     95  C   UNL A   1      43.863  25.100  33.414  1.00  0.00     0.198 A 
ATOM     96  F   UNL A   1      44.367  25.689  31.192  1.00  0.00    -0.203 F 
ATOM     97  F   UNL A   1      43.454  27.143  36.374  1.00  0.00    -0.200 F 
ATOM     98  C   UNL A   1      43.639  25.458  34.734  1.00  0.00     0.200 A 
ATOM     99  F   UNL A   1      43.757  23.816  33.044  1.00  0.00    -0.200 F 
ATOM    100  F   UNL A   1      43.338  24.520  35.644  1.00  0.00    -0.200 F 
ENDBRANCH  67  90
ENDBRANCH  41  42
ENDBRANCH  34  36
ENDBRANCH  33  34
ENDBRANCH  32  33
ENDBRANCH  31  32
ENDBRANCH  30  31
ENDBRANCH   1  30
TORSDOF 17
ENDMDL
MODEL 2
REMARK VINA RESULT:     -12.5      1.361      2.212
REMARK SMILES Cc1nc2cc(S(=O)(=O)N3CCC(C(=O)OCCOCCOC(=O)c4ccc(-c5c6nc(c(-c7c(F)c(F)c(F)c(F)c7F)c7ccc([nH]7)c(-c7c(F)c(F)c(F)c(F)c7F)c7nc(c(-c8c(F)c(F)c(F)c(F)c8F)c8ccc5[nH]8)C=C7)C=C6)cc4)CC3)ccc2n1C1CCCC1
REMARK SMILES IDX 18 1 17 2 16 3 14 4 15 5 13 6 10 7 11 8 89 9 12 10 88 11
REMARK SMILES IDX 7 12 8 13 9 14 6 15 1 16 2 17 3 18 93 19 4 20 92 21 5 22
REMARK SMILES IDX 91 23 90 24 94 25 95 26 98 27 96 28 97 29 19 30 20 31 21 32
REMARK SMILES IDX 22 33 23 34 24 35 25 36 26 37 87 38 27 39 86 40 28 41 29 42
REMARK SMILES IDX 30 43 80 44 31 45 85 46 79 47 81 48 32 49 84 50 78 51 77 52
REMARK SMILES IDX 33 54 65 55 45 56 64 57 46 58 49 59 63 60 82 61 47 62 48 63
REMARK SMILES IDX 62 65 83 66 50 67 34 68 35 69 43 70 36 71 37 72 41 73 44 74
REMARK SMILES IDX 38 75 39 76 42 77 40 78 66 79 67 80 75 81 68 82 69 83 73 84
REMARK SMILES IDX 76 85 70 86 71 87 74 88 72 89 51 90 52 91 60 92 53 93 54 94
REMARK SMILES IDX 58 95 61 96 55 97 56 98 59 99 57 100
REMARK H PARENT 81 53 49 64
REMARK Flexibility Score: inf
ROOT
ATOM      1  C   UNL A   1      40.858  21.431  25.970  1.00  0.00     0.202 C 
ENDROOT
BRANCH   1   2
ATOM      2  C   UNL A   1      39.687  22.000  26.776  1.00  0.00     0.261 C 
BRANCH   2   3
ATOM      3  O   UNL A   1      38.482  22.085  26.010  1.00  0.00    -0.463 OA
BRANCH   3   4
ATOM      4  C   UNL A   1      37.910  23.312  26.006  1.00  0.00     0.309 C 
ATOM      5  O   UNL A   1      38.413  24.337  26.449  1.00  0.00    -0.252 OA
BRANCH   4   6
ATOM      6  C   UNL A   1      36.527  23.297  25.411  1.00  0.00     0.102 C 
ATOM      7  N   UNL A   1      34.178  23.829  23.870  1.00  0.00    -0.198 NA
ATOM      8  C   UNL A   1      34.182  24.183  25.313  1.00  0.00     0.103 C 
ATOM      9  C   UNL A   1      35.302  23.064  23.274  1.00  0.00     0.103 C 
ATOM     10  C   UNL A   1      35.573  24.383  25.893  1.00  0.00     0.032 C 
ATOM     11  C   UNL A   1      36.638  23.402  23.901  1.00  0.00     0.032 C 
BRANCH   7  12
ATOM     12  S   UNL A   1      32.630  23.457  23.223  1.00  0.00     0.243 S 
ATOM     13  O   UNL A   1      31.928  22.675  24.226  1.00  0.00    -0.207 OA
ATOM     14  O   UNL A   1      32.825  22.973  21.880  1.00  0.00    -0.207 OA
BRANCH  12  15
ATOM     15  C   UNL A   1      31.747  25.003  23.086  1.00  0.00     0.085 A 
ATOM     16  C   UNL A   1      26.881  28.440  23.610  1.00  0.00     0.088 C 
ATOM     17  C   UNL A   1      28.180  27.739  23.456  1.00  0.00     0.106 A 
ATOM     18  N   UNL A   1      28.394  26.476  23.772  1.00  0.00    -0.233 NA
ATOM     19  N   UNL A   1      29.322  28.321  22.943  1.00  0.00    -0.325 N 
ATOM     20  C   UNL A   1      29.691  26.212  23.428  1.00  0.00     0.090 A 
ATOM     21  C   UNL A   1      30.295  27.344  22.889  1.00  0.00     0.068 A 
ATOM     22  C   UNL A   1      30.418  25.017  23.533  1.00  0.00     0.052 A 
ATOM     23  C   UNL A   1      31.613  27.341  22.430  1.00  0.00     0.030 A 
ATOM     24  C   UNL A   1      32.329  26.154  22.550  1.00  0.00     0.024 A 
BRANCH  19  25
ATOM     25  C   UNL A   1      29.474  29.698  22.507  1.00  0.00     0.089 C 
ATOM     26  C   UNL A   1      28.494  30.133  21.413  1.00  0.00     0.025 C 
ATOM     27  C   UNL A   1      29.292  30.721  23.633  1.00  0.00     0.025 C 
ATOM     28  C   UNL A   1      28.439  31.650  21.523  1.00  0.00     0.002 C 
ATOM     29  C   UNL A   1      28.789  31.996  22.967  1.00  0.00     0.002 C 
ENDBRANCH  19  25
ENDBRANCH  12  15
ENDBRANCH   7  12
ENDBRANCH   4   6
ENDBRANCH   3   4
ENDBRANCH   2   3
ENDBRANCH   1   2
BRANCH   1  30
ATOM     30  O   UNL A   1      41.214  20.066  26.138  1.00  0.00    -0.374 OA
BRANCH  30  31
ATOM     31  C   UNL A   1      42.589  19.753  26.362  1.00  0.00     0.202 C 
BRANCH  31  32
ATOM     32  C   UNL A   1      43.490  19.454  25.147  1.00  0.00     0.261 C 
BRANCH  32  33
ATOM     33  O   UNL A   1      43.953  20.658  24.519  1.00  0.00    -0.460 OA
BRANCH  33  34
ATOM     34  C   UNL A   1      45.237  21.008  24.819  1.00  0.00     0.338 C 
ATOM     35  O   UNL A   1      46.258  20.436  24.485  1.00  0.00    -0.246 OA
BRANCH  34  36
ATOM     36  C   UNL A   1      45.162  22.424  25.232  1.00  0.00     0.060 A 
ATOM     37  C   UNL A   1      45.988  22.911  26.249  1.00  0.00     0.016 A 
ATOM     38  C   UNL A   1      43.997  23.110  24.849  1.00  0.00     0.016 A 
ATOM     39  C   UNL A   1      45.581  24.033  26.961  1.00  0.00     0.010 A 
ATOM     40  C   UNL A   1      43.573  24.204  25.593  1.00  0.00     0.010 A 
ATOM     41  C   UNL A   1      44.342  24.636  26.676  1.00  0.00    -0.014 A 
BRANCH  41  42
ATOM     42  C   UNL A   1      43.972  25.841  27.422  1.00  0.00     0.031 A 
ATOM     43  C   UNL A   1      44.924  26.967  27.209  1.00  0.00     0.074 A 
ATOM     44  C   UNL A   1      42.826  26.021  28.114  1.00  0.00     0.049 A 
ATOM     45  N   UNL A   1      45.585  27.645  28.091  1.00  0.00    -0.248 NA
ATOM     46  C   UNL A   1      45.256  27.307  25.814  1.00  0.00     0.031 C 
ATOM     47  C   UNL A   1      41.661  25.142  28.197  1.00  0.00     0.029 A 
ATOM     48  N   UNL A   1      42.429  27.108  28.840  1.00  0.00    -0.354 N 
ATOM     49  C   UNL A   1      46.318  28.585  27.371  1.00  0.00     0.074 A 
ATOM     50  C   UNL A   1      46.175  28.254  25.978  1.00  0.00     0.031 C 
ATOM     51  C   UNL A   1      40.628  25.804  28.767  1.00  0.00     0.029 A 
ATOM     52  C   UNL A   1      41.077  27.123  29.169  1.00  0.00     0.049 A 
ATOM     53  H   UNL A   1      43.049  27.824  29.109  1.00  0.00     0.167 HD
ATOM     54  C   UNL A   1      46.859  29.691  27.949  1.00  0.00     0.037 A 
ATOM     55  C   UNL A   1      40.364  28.168  29.668  1.00  0.00     0.037 A 
ATOM     56  C   UNL A   1      47.007  29.545  29.368  1.00  0.00     0.049 A 
ATOM     57  C   UNL A   1      41.330  29.138  30.236  1.00  0.00     0.074 A 
ATOM     58  C   UNL A   1      47.746  28.701  30.174  1.00  0.00     0.029 A 
ATOM     59  N   UNL A   1      46.062  30.104  30.191  1.00  0.00    -0.354 N 
ATOM     60  N   UNL A   1      42.023  28.924  31.317  1.00  0.00    -0.248 NA
ATOM     61  C   UNL A   1      41.847  30.169  29.350  1.00  0.00     0.031 C 
ATOM     62  C   UNL A   1      46.903  28.419  31.289  1.00  0.00     0.029 A 
ATOM     63  C   UNL A   1      45.726  29.146  31.117  1.00  0.00     0.049 A 
ATOM     64  H   UNL A   1      45.696  31.014  30.131  1.00  0.00     0.167 HD
ATOM     65  C   UNL A   1      43.269  29.465  31.044  1.00  0.00     0.074 A 
ATOM     66  C   UNL A   1      43.077  30.290  29.854  1.00  0.00     0.031 C 
ATOM     67  C   UNL A   1      44.393  28.972  31.638  1.00  0.00     0.037 A 
BRANCH  54  68
ATOM     68  C   UNL A   1      47.000  31.000  27.227  1.00  0.00     0.064 A 
ATOM     69  C   UNL A   1      48.258  31.614  27.100  1.00  0.00     0.173 A 
ATOM     70  C   UNL A   1      45.888  31.795  26.866  1.00  0.00     0.173 A 
ATOM     71  F   UNL A   1      49.373  30.964  27.464  1.00  0.00    -0.203 F 
ATOM     72  C   UNL A   1      48.387  32.934  26.660  1.00  0.00     0.198 A 
ATOM     73  C   UNL A   1      46.024  33.090  26.374  1.00  0.00     0.198 A 
ATOM     74  F   UNL A   1      44.631  31.381  27.075  1.00  0.00    -0.203 F 
ATOM     75  F   UNL A   1      49.595  33.514  26.643  1.00  0.00    -0.200 F 
ATOM     76  C   UNL A   1      47.272  33.668  26.293  1.00  0.00     0.200 A 
ATOM     77  F   UNL A   1      44.929  33.790  26.049  1.00  0.00    -0.200 F 
ATOM     78  F   UNL A   1      47.393  34.946  25.907  1.00  0.00    -0.200 F 
ENDBRANCH  54  68
BRANCH  55  79
ATOM     79  C   UNL A   1      38.948  28.538  29.418  1.00  0.00     0.064 A 
ATOM     80  C   UNL A   1      38.040  28.708  30.479  1.00  0.00     0.173 A 
ATOM     81  C   UNL A   1      38.531  29.020  28.162  1.00  0.00     0.173 A 
ATOM     82  F   UNL A   1      38.370  28.316  31.719  1.00  0.00    -0.203 F 
ATOM     83  C   UNL A   1      36.809  29.350  30.301  1.00  0.00     0.198 A 
ATOM     84  C   UNL A   1      37.299  29.654  27.983  1.00  0.00     0.198 A 
ATOM     85  F   UNL A   1      39.349  28.979  27.102  1.00  0.00    -0.203 F 
ATOM     86  F   UNL A   1      36.002  29.554  31.351  1.00  0.00    -0.200 F 
ATOM     87  C   UNL A   1      36.447  29.834  29.055  1.00  0.00     0.200 A 
ATOM     88  F   UNL A   1      36.977  30.148  26.780  1.00  0.00    -0.200 F 
ATOM     89  F   UNL A   1      35.299  30.510  28.896  1.00  0.00    -0.200 F 
ENDBRANCH  55  79
BRANCH  67  90
ATOM     90  C   UNL A   1      44.206  27.980  32.754  1.00  0.00     0.064 A 
ATOM     91  C   UNL A   1      44.069  26.594  32.552  1.00  0.00     0.173 A 
ATOM     92  C   UNL A   1      44.288  28.430  34.077  1.00  0.00     0.173 A 
ATOM     93  F   UNL A   1      44.094  26.070  31.320  1.00  0.00    -0.203 F 
ATOM     94  C   UNL A   1      43.959  25.712  33.625  1.00  0.00     0.198 A 
ATOM     95  C   UNL A   1      44.218  27.541  35.147  1.00  0.00     0.198 A 
ATOM     96  F   UNL A   1      44.481  29.733  34.333  1.00  0.00    -0.203 F 
ATOM     97  F   UNL A   1      43.809  24.397  33.402  1.00  0.00    -0.200 F 
ATOM     98  C   UNL A   1      44.038  26.186  34.922  1.00  0.00     0.200 A 
ATOM     99  F   UNL A   1      44.348  27.997  36.401  1.00  0.00    -0.200 F 
ATOM    100  F   UNL A   1      43.972  25.334  35.955  1.00  0.00    -0.200 F 
ENDBRANCH  67  90
ENDBRANCH  41  42
ENDBRANCH  34  36
ENDBRANCH  33  34
ENDBRANCH  32  33
ENDBRANCH  31  32
ENDBRANCH  30  31
ENDBRANCH   1  30
TORSDOF 17
ENDMDL
MODEL 3
REMARK VINA RESULT:     -12.1      2.835      5.004
REMARK SMILES Cc1nc2cc(S(=O)(=O)N3CCC(C(=O)OCCOCCOC(=O)c4ccc(-c5c6nc(c(-c7c(F)c(F)c(F)c(F)c7F)c7ccc([nH]7)c(-c7c(F)c(F)c(F)c(F)c7F)c7nc(c(-c8c(F)c(F)c(F)c(F)c8F)c8ccc5[nH]8)C=C7)C=C6)cc4)CC3)ccc2n1C1CCCC1
REMARK SMILES IDX 18 1 17 2 16 3 14 4 15 5 13 6 10 7 11 8 89 9 12 10 88 11
REMARK SMILES IDX 7 12 8 13 9 14 6 15 1 16 2 17 3 18 93 19 4 20 92 21 5 22
REMARK SMILES IDX 91 23 90 24 94 25 95 26 98 27 96 28 97 29 19 30 20 31 21 32
REMARK SMILES IDX 22 33 23 34 24 35 25 36 26 37 87 38 27 39 86 40 28 41 29 42
REMARK SMILES IDX 30 43 80 44 31 45 85 46 79 47 81 48 32 49 84 50 78 51 77 52
REMARK SMILES IDX 33 54 65 55 45 56 64 57 46 58 49 59 63 60 82 61 47 62 48 63
REMARK SMILES IDX 62 65 83 66 50 67 34 68 35 69 43 70 36 71 37 72 41 73 44 74
REMARK SMILES IDX 38 75 39 76 42 77 40 78 66 79 67 80 75 81 68 82 69 83 73 84
REMARK SMILES IDX 76 85 70 86 71 87 74 88 72 89 51 90 52 91 60 92 53 93 54 94
REMARK SMILES IDX 58 95 61 96 55 97 56 98 59 99 57 100
REMARK H PARENT 81 53 49 64
REMARK Flexibility Score: inf
ROOT
ATOM      1  C   UNL A   1      34.068  21.763  26.413  1.00  0.00     0.202 C 
ENDROOT
BRANCH   1   2
ATOM      2  C   UNL A   1      33.462  22.976  27.125  1.00  0.00     0.261 C 
BRANCH   2   3
ATOM      3  O   UNL A   1      32.081  22.793  27.443  1.00  0.00    -0.463 OA
BRANCH   3   4
ATOM      4  C   UNL A   1      31.261  22.753  26.365  1.00  0.00     0.309 C 
ATOM      5  O   UNL A   1      30.609  21.783  25.998  1.00  0.00    -0.252 OA
BRANCH   4   6
ATOM      6  C   UNL A   1      31.248  24.054  25.607  1.00  0.00     0.102 C 
ATOM      7  N   UNL A   1      30.486  26.397  24.157  1.00  0.00    -0.198 NA
ATOM      8  C   UNL A   1      31.215  25.318  23.441  1.00  0.00     0.103 C 
ATOM      9  C   UNL A   1      30.301  26.339  25.629  1.00  0.00     0.103 C 
ATOM     10  C   UNL A   1      31.089  23.952  24.095  1.00  0.00     0.032 C 
ATOM     11  C   UNL A   1      30.127  24.926  26.142  1.00  0.00     0.032 C 
BRANCH   7  12
ATOM     12  S   UNL A   1      30.728  27.976  23.523  1.00  0.00     0.243 S 
ATOM     13  O   UNL A   1      29.435  28.639  23.532  1.00  0.00    -0.207 OA
ATOM     14  O   UNL A   1      31.508  27.845  22.318  1.00  0.00    -0.207 OA
BRANCH  12  15
ATOM     15  C   UNL A   1      31.748  28.850  24.699  1.00  0.00     0.085 A 
ATOM     16  C   UNL A   1      36.572  29.441  28.185  1.00  0.00     0.088 C 
ATOM     17  C   UNL A   1      35.344  29.468  27.351  1.00  0.00     0.106 A 
ATOM     18  N   UNL A   1      34.995  28.524  26.498  1.00  0.00    -0.233 NA
ATOM     19  N   UNL A   1      34.405  30.480  27.382  1.00  0.00    -0.325 N 
ATOM     20  C   UNL A   1      33.786  28.904  25.984  1.00  0.00     0.090 A 
ATOM     21  C   UNL A   1      33.381  30.117  26.530  1.00  0.00     0.068 A 
ATOM     22  C   UNL A   1      32.965  28.250  25.052  1.00  0.00     0.052 A 
ATOM     23  C   UNL A   1      32.167  30.720  26.196  1.00  0.00     0.030 A 
ATOM     24  C   UNL A   1      31.366  30.069  25.263  1.00  0.00     0.024 A 
BRANCH  19  25
ATOM     25  C   UNL A   1      34.459  31.690  28.181  1.00  0.00     0.089 C 
ATOM     26  C   UNL A   1      35.691  32.567  27.930  1.00  0.00     0.025 C 
ATOM     27  C   UNL A   1      33.261  32.619  27.971  1.00  0.00     0.025 C 
ATOM     28  C   UNL A   1      35.279  33.955  28.397  1.00  0.00     0.002 C 
ATOM     29  C   UNL A   1      33.761  34.029  28.266  1.00  0.00     0.002 C 
ENDBRANCH  19  25
ENDBRANCH  12  15
ENDBRANCH   7  12
ENDBRANCH   4   6
ENDBRANCH   3   4
ENDBRANCH   2   3
ENDBRANCH   1   2
BRANCH   1  30
ATOM     30  O   UNL A   1      35.093  21.967  25.450  1.00  0.00    -0.374 OA
BRANCH  30  31
ATOM     31  C   UNL A   1      36.396  21.459  25.739  1.00  0.00     0.202 C 
BRANCH  31  32
ATOM     32  C   UNL A   1      37.627  22.259  25.266  1.00  0.00     0.261 C 
BRANCH  32  33
ATOM     33  O   UNL A   1      38.125  23.125  26.296  1.00  0.00    -0.460 OA
BRANCH  33  34
ATOM     34  C   UNL A   1      39.429  22.921  26.639  1.00  0.00     0.338 C 
ATOM     35  O   UNL A   1      40.136  21.978  26.339  1.00  0.00    -0.246 OA
BRANCH  34  36
ATOM     36  C   UNL A   1      39.929  24.248  27.053  1.00  0.00     0.060 A 
ATOM     37  C   UNL A   1      41.099  24.362  27.808  1.00  0.00     0.016 A 
ATOM     38  C   UNL A   1      38.994  25.296  26.995  1.00  0.00     0.016 A 
ATOM     39  C   UNL A   1      41.276  25.491  28.600  1.00  0.00     0.010 A 
ATOM     40  C   UNL A   1      39.155  26.401  27.822  1.00  0.00     0.010 A 
ATOM     41  C   UNL A   1      40.272  26.475  28.658  1.00  0.00    -0.014 A 
BRANCH  41  42
ATOM     42  C   UNL A   1      40.519  27.668  29.471  1.00  0.00     0.031 A 
ATOM     43  C   UNL A   1      41.588  28.540  28.909  1.00  0.00     0.074 A 
ATOM     44  C   UNL A   1      39.785  28.064  30.534  1.00  0.00     0.049 A 
ATOM     45  N   UNL A   1      42.671  28.959  29.478  1.00  0.00    -0.248 NA
ATOM     46  C   UNL A   1      41.473  28.903  27.485  1.00  0.00     0.031 C 
ATOM     47  C   UNL A   1      38.543  27.494  31.051  1.00  0.00     0.029 A 
ATOM     48  N   UNL A   1      39.970  29.151  31.341  1.00  0.00    -0.354 N 
ATOM     49  C   UNL A   1      43.315  29.748  28.526  1.00  0.00     0.074 A 
ATOM     50  C   UNL A   1      42.601  29.580  27.288  1.00  0.00     0.031 C 
ATOM     51  C   UNL A   1      37.991  28.338  31.953  1.00  0.00     0.029 A 
ATOM     52  C   UNL A   1      38.879  29.469  32.144  1.00  0.00     0.049 A 
ATOM     53  H   UNL A   1      40.808  29.668  31.355  1.00  0.00     0.167 HD
ATOM     54  C   UNL A   1      44.292  30.635  28.850  1.00  0.00     0.037 A 
ATOM     55  C   UNL A   1      38.688  30.611  32.857  1.00  0.00     0.037 A 
ATOM     56  C   UNL A   1      44.896  30.340  30.117  1.00  0.00     0.049 A 
ATOM     57  C   UNL A   1      40.009  31.264  33.018  1.00  0.00     0.074 A 
ATOM     58  C   UNL A   1      45.629  29.276  30.606  1.00  0.00     0.029 A 
ATOM     59  N   UNL A   1      44.488  31.042  31.223  1.00  0.00    -0.354 N 
ATOM     60  N   UNL A   1      40.962  30.798  33.770  1.00  0.00    -0.248 NA
ATOM     61  C   UNL A   1      40.421  32.208  31.990  1.00  0.00     0.031 C 
ATOM     62  C   UNL A   1      45.200  29.117  31.956  1.00  0.00     0.029 A 
ATOM     63  C   UNL A   1      44.271  30.122  32.220  1.00  0.00     0.049 A 
ATOM     64  H   UNL A   1      44.373  32.016  31.290  1.00  0.00     0.167 HD
ATOM     65  C   UNL A   1      42.122  31.038  33.051  1.00  0.00     0.074 A 
ATOM     66  C   UNL A   1      41.737  31.981  32.005  1.00  0.00     0.031 C 
ATOM     67  C   UNL A   1      43.216  30.237  33.197  1.00  0.00     0.037 A 
BRANCH  54  68
ATOM     68  C   UNL A   1      44.499  31.925  28.111  1.00  0.00     0.064 A 
ATOM     69  C   UNL A   1      45.631  32.111  27.299  1.00  0.00     0.173 A 
ATOM     70  C   UNL A   1      43.733  33.084  28.372  1.00  0.00     0.173 A 
ATOM     71  F   UNL A   1      46.453  31.085  27.033  1.00  0.00    -0.203 F 
ATOM     72  C   UNL A   1      45.978  33.371  26.802  1.00  0.00     0.198 A 
ATOM     73  C   UNL A   1      44.049  34.327  27.829  1.00  0.00     0.198 A 
ATOM     74  F   UNL A   1      42.715  33.073  29.243  1.00  0.00    -0.203 F 
ATOM     75  F   UNL A   1      47.116  33.523  26.111  1.00  0.00    -0.200 F 
ATOM     76  C   UNL A   1      45.184  34.475  27.063  1.00  0.00     0.200 A 
ATOM     77  F   UNL A   1      43.280  35.386  28.116  1.00  0.00    -0.200 F 
ATOM     78  F   UNL A   1      45.537  35.688  26.618  1.00  0.00    -0.200 F 
ENDBRANCH  54  68
BRANCH  55  79
ATOM     79  C   UNL A   1      37.423  31.336  33.140  1.00  0.00     0.064 A 
ATOM     80  C   UNL A   1      37.269  32.104  34.309  1.00  0.00     0.173 A 
ATOM     81  C   UNL A   1      36.455  31.533  32.137  1.00  0.00     0.173 A 
ATOM     82  F   UNL A   1      38.168  32.013  35.300  1.00  0.00    -0.203 F 
ATOM     83  C   UNL A   1      36.232  33.034  34.449  1.00  0.00     0.198 A 
ATOM     84  C   UNL A   1      35.415  32.454  32.281  1.00  0.00     0.198 A 
ATOM     85  F   UNL A   1      36.551  30.909  30.954  1.00  0.00    -0.203 F 
ATOM     86  F   UNL A   1      36.159  33.796  35.549  1.00  0.00    -0.200 F 
ATOM     87  C   UNL A   1      35.314  33.216  33.428  1.00  0.00     0.200 A 
ATOM     88  F   UNL A   1      34.555  32.645  31.271  1.00  0.00    -0.200 F 
ATOM     89  F   UNL A   1      34.360  34.154  33.532  1.00  0.00    -0.200 F 
ENDBRANCH  55  79
BRANCH  67  90
ATOM     90  C   UNL A   1      43.192  29.231  34.316  1.00  0.00     0.064 A 
ATOM     91  C   UNL A   1      42.604  27.957  34.208  1.00  0.00     0.173 A 
ATOM     92  C   UNL A   1      43.890  29.518  35.495  1.00  0.00     0.173 A 
ATOM     93  F   UNL A   1      42.015  27.562  33.073  1.00  0.00    -0.203 F 
ATOM     94  C   UNL A   1      42.663  27.040  35.256  1.00  0.00     0.198 A 
ATOM     95  C   UNL A   1      43.980  28.584  36.525  1.00  0.00     0.198 A 
ATOM     96  F   UNL A   1      44.524  30.693  35.633  1.00  0.00    -0.203 F 
ATOM     97  F   UNL A   1      42.076  25.840  35.133  1.00  0.00    -0.200 F 
ATOM     98  C   UNL A   1      43.354  27.353  36.412  1.00  0.00     0.200 A 
ATOM     99  F   UNL A   1      44.696  28.870  37.622  1.00  0.00    -0.200 F 
ATOM    100  F   UNL A   1      43.446  26.457  37.406  1.00  0.00    -0.200 F 
ENDBRANCH  67  90
ENDBRANCH  41  42
ENDBRANCH  34  36
ENDBRANCH  33  34
ENDBRANCH  32  33
ENDBRANCH  31  32
ENDBRANCH  30  31
ENDBRANCH   1  30
TORSDOF 17
ENDMDL
