MODEL 1
REMARK VINA RESULT:     -10.7      0.000      0.000
REMARK SMILES O=C(Cc1cccn1-c1ccc2c(c1)OCCO2)OCCOCCOC(=O)c1ccc(-c2c3nc(c(-c4c(F)c(F)c(F)c(F)c4F)c4ccc([nH]4)c(-c4c(F)c(F)c(F)c(F)c4F)c4nc(c(-c5c(F)c(F)c(F)c(F)c5F)c5ccc2[nH]5)C=C4)C=C3)cc1
REMARK SMILES IDX 22 1 21 2 20 3 19 4 2 5 1 6 3 7 4 8 5 9 8 10 6 11 7 12 9 13
REMARK SMILES IDX 10 14 14 15 11 16 13 17 12 18 15 19 18 20 16 21 17 22 23 23
REMARK SMILES IDX 24 24 25 25 26 26 27 27 28 28 29 29 90 30 30 31 89 32 31 33
REMARK SMILES IDX 32 34 33 35 83 36 34 37 88 38 82 39 84 40 35 41 87 42 81 43
REMARK SMILES IDX 80 44 36 46 68 47 48 48 67 49 49 50 52 51 66 52 85 53 50 54
REMARK SMILES IDX 51 55 65 57 86 58 53 59 37 60 38 61 46 62 39 63 40 64 44 65
REMARK SMILES IDX 47 66 41 67 42 68 45 69 43 70 69 71 70 72 78 73 71 74 72 75
REMARK SMILES IDX 76 76 79 77 73 78 74 79 77 80 75 81 54 82 55 83 63 84 56 85
REMARK SMILES IDX 57 86 61 87 64 88 58 89 59 90 62 91 60 92
REMARK H PARENT 84 45 52 56
REMARK Flexibility Score: inf
ROOT
ATOM      1  O   UNL A   1      33.557  34.424  30.232  1.00  0.00    -0.374 OA
ENDROOT
BRANCH   1   2
ATOM      2  C   UNL A   1      33.054  35.660  30.751  1.00  0.00     0.202 C 
BRANCH   2   3
ATOM      3  C   UNL A   1      33.334  35.853  32.232  1.00  0.00     0.261 C 
BRANCH   3   4
ATOM      4  O   UNL A   1      33.927  34.702  32.838  1.00  0.00    -0.463 OA
BRANCH   4   5
ATOM      5  C   UNL A   1      35.171  34.749  33.383  1.00  0.00     0.311 C 
ATOM      6  O   UNL A   1      36.033  35.436  32.835  1.00  0.00    -0.252 OA
BRANCH   5   7
ATOM      7  C   UNL A   1      35.491  33.880  34.596  1.00  0.00     0.177 C 
BRANCH   7   8
ATOM      8  C   UNL A   1      36.580  32.894  34.314  1.00  0.00     0.034 A 
ATOM      9  C   UNL A   1      36.638  31.994  33.262  1.00  0.00     0.024 A 
ATOM     10  N   UNL A   1      37.745  32.752  35.057  1.00  0.00    -0.320 N 
ATOM     11  C   UNL A   1      37.867  31.311  33.344  1.00  0.00     0.020 A 
ATOM     12  C   UNL A   1      38.542  31.819  34.430  1.00  0.00     0.091 A 
BRANCH  10  13
ATOM     13  C   UNL A   1      38.154  33.472  36.205  1.00  0.00     0.049 A 
ATOM     14  C   UNL A   1      37.853  32.944  37.468  1.00  0.00     0.031 A 
ATOM     15  C   UNL A   1      38.868  34.669  36.082  1.00  0.00     0.077 A 
ATOM     16  C   UNL A   1      38.341  33.577  38.614  1.00  0.00     0.052 A 
ATOM     17  C   UNL A   1      39.297  35.326  37.238  1.00  0.00     0.163 A 
ATOM     18  C   UNL A   1      39.058  34.769  38.500  1.00  0.00     0.161 A 
ATOM     19  O   UNL A   1      39.937  36.526  37.066  1.00  0.00    -0.486 OA
ATOM     20  O   UNL A   1      39.517  35.316  39.670  1.00  0.00    -0.486 OA
ATOM     21  C   UNL A   1      40.696  36.889  38.221  1.00  0.00     0.271 C 
ATOM     22  C   UNL A   1      39.913  36.681  39.507  1.00  0.00     0.271 C 
ENDBRANCH  10  13
ENDBRANCH   7   8
ENDBRANCH   5   7
ENDBRANCH   4   5
ENDBRANCH   3   4
ENDBRANCH   2   3
ENDBRANCH   1   2
BRANCH   1  23
ATOM     23  C   UNL A   1      34.664  34.548  29.331  1.00  0.00     0.202 C 
BRANCH  23  24
ATOM     24  C   UNL A   1      35.739  33.489  29.565  1.00  0.00     0.261 C 
BRANCH  24  25
ATOM     25  O   UNL A   1      35.125  32.270  29.968  1.00  0.00    -0.460 OA
BRANCH  25  26
ATOM     26  C   UNL A   1      34.816  31.480  28.925  1.00  0.00     0.338 C 
ATOM     27  O   UNL A   1      33.858  31.582  28.157  1.00  0.00    -0.246 OA
BRANCH  26  28
ATOM     28  C   UNL A   1      35.779  30.392  28.810  1.00  0.00     0.060 A 
ATOM     29  C   UNL A   1      36.231  29.879  30.028  1.00  0.00     0.016 A 
ATOM     30  C   UNL A   1      36.465  30.204  27.608  1.00  0.00     0.016 A 
ATOM     31  C   UNL A   1      37.532  29.471  30.114  1.00  0.00     0.010 A 
ATOM     32  C   UNL A   1      37.776  29.801  27.690  1.00  0.00     0.010 A 
ATOM     33  C   UNL A   1      38.312  29.552  28.961  1.00  0.00    -0.014 A 
BRANCH  33  34
ATOM     34  C   UNL A   1      39.745  29.342  29.115  1.00  0.00     0.031 A 
ATOM     35  C   UNL A   1      40.426  30.596  29.616  1.00  0.00     0.074 A 
ATOM     36  C   UNL A   1      40.179  28.094  28.776  1.00  0.00     0.049 A 
ATOM     37  N   UNL A   1      41.682  30.906  29.634  1.00  0.00    -0.248 NA
ATOM     38  C   UNL A   1      39.573  31.704  30.137  1.00  0.00     0.031 C 
ATOM     39  C   UNL A   1      39.305  27.024  28.248  1.00  0.00     0.029 A 
ATOM     40  N   UNL A   1      41.404  27.467  28.792  1.00  0.00    -0.354 N 
ATOM     41  C   UNL A   1      41.778  32.087  30.383  1.00  0.00     0.074 A 
ATOM     42  C   UNL A   1      40.459  32.618  30.517  1.00  0.00     0.031 C 
ATOM     43  C   UNL A   1      40.020  25.922  27.952  1.00  0.00     0.029 A 
ATOM     44  C   UNL A   1      41.413  26.142  28.285  1.00  0.00     0.049 A 
ATOM     45  H   UNL A   1      42.217  27.908  29.131  1.00  0.00     0.167 HD
ATOM     46  C   UNL A   1      42.914  32.453  31.032  1.00  0.00     0.037 A 
ATOM     47  C   UNL A   1      42.472  25.289  28.132  1.00  0.00     0.037 A 
ATOM     48  C   UNL A   1      43.997  31.586  30.702  1.00  0.00     0.049 A 
ATOM     49  C   UNL A   1      43.595  25.949  28.825  1.00  0.00     0.074 A 
ATOM     50  C   UNL A   1      44.748  31.432  29.566  1.00  0.00     0.029 A 
ATOM     51  N   UNL A   1      44.196  30.493  31.510  1.00  0.00    -0.354 N 
ATOM     52  N   UNL A   1      43.685  26.076  30.116  1.00  0.00    -0.248 NA
ATOM     53  C   UNL A   1      44.640  26.610  28.036  1.00  0.00     0.031 C 
ATOM     54  C   UNL A   1      45.117  30.068  29.560  1.00  0.00     0.029 A 
ATOM     55  C   UNL A   1      44.639  29.455  30.722  1.00  0.00     0.049 A 
ATOM     56  H   UNL A   1      44.049  30.458  32.483  1.00  0.00     0.167 HD
ATOM     57  C   UNL A   1      44.593  27.101  30.261  1.00  0.00     0.074 A 
ATOM     58  C   UNL A   1      45.336  27.167  29.024  1.00  0.00     0.031 C 
ATOM     59  C   UNL A   1      44.342  28.102  31.144  1.00  0.00     0.037 A 
BRANCH  46  60
ATOM     60  C   UNL A   1      43.069  33.416  32.165  1.00  0.00     0.064 A 
ATOM     61  C   UNL A   1      42.617  33.021  33.442  1.00  0.00     0.173 A 
ATOM     62  C   UNL A   1      43.340  34.782  31.992  1.00  0.00     0.173 A 
ATOM     63  F   UNL A   1      42.350  31.732  33.704  1.00  0.00    -0.203 F 
ATOM     64  C   UNL A   1      42.358  33.948  34.446  1.00  0.00     0.198 A 
ATOM     65  C   UNL A   1      43.130  35.702  33.018  1.00  0.00     0.198 A 
ATOM     66  F   UNL A   1      43.716  35.276  30.804  1.00  0.00    -0.203 F 
ATOM     67  F   UNL A   1      41.812  33.544  35.601  1.00  0.00    -0.200 F 
ATOM     68  C   UNL A   1      42.605  35.292  34.230  1.00  0.00     0.200 A 
ATOM     69  F   UNL A   1      43.370  37.003  32.801  1.00  0.00    -0.200 F 
ATOM     70  F   UNL A   1      42.301  36.193  35.173  1.00  0.00    -0.200 F 
ENDBRANCH  46  60
BRANCH  47  71
ATOM     71  C   UNL A   1      42.749  23.959  27.463  1.00  0.00     0.064 A 
ATOM     72  C   UNL A   1      42.547  22.689  28.023  1.00  0.00     0.173 A 
ATOM     73  C   UNL A   1      43.178  23.924  26.106  1.00  0.00     0.173 A 
ATOM     74  F   UNL A   1      42.245  22.531  29.313  1.00  0.00    -0.203 F 
ATOM     75  C   UNL A   1      42.662  21.505  27.272  1.00  0.00     0.198 A 
ATOM     76  C   UNL A   1      43.259  22.753  25.349  1.00  0.00     0.198 A 
ATOM     77  F   UNL A   1      43.529  25.039  25.451  1.00  0.00    -0.203 F 
ATOM     78  F   UNL A   1      42.438  20.322  27.861  1.00  0.00    -0.200 F 
ATOM     79  C   UNL A   1      42.983  21.539  25.929  1.00  0.00     0.200 A 
ATOM     80  F   UNL A   1      43.583  22.824  24.049  1.00  0.00    -0.200 F 
ATOM     81  F   UNL A   1      43.035  20.414  25.204  1.00  0.00    -0.200 F 
ENDBRANCH  47  71
BRANCH  59  82
ATOM     82  C   UNL A   1      43.374  27.698  32.241  1.00  0.00     0.064 A 
ATOM     83  C   UNL A   1      42.111  28.305  32.331  1.00  0.00     0.173 A 
ATOM     84  C   UNL A   1      43.718  26.837  33.296  1.00  0.00     0.173 A 
ATOM     85  F   UNL A   1      41.692  29.122  31.354  1.00  0.00    -0.203 F 
ATOM     86  C   UNL A   1      41.268  28.086  33.426  1.00  0.00     0.198 A 
ATOM     87  C   UNL A   1      42.881  26.615  34.390  1.00  0.00     0.198 A 
ATOM     88  F   UNL A   1      44.874  26.179  33.281  1.00  0.00    -0.203 F 
ATOM     89  F   UNL A   1      40.074  28.691  33.479  1.00  0.00    -0.200 F 
ATOM     90  C   UNL A   1      41.658  27.248  34.459  1.00  0.00     0.200 A 
ATOM     91  F   UNL A   1      43.268  25.782  35.369  1.00  0.00    -0.200 F 
ATOM     92  F   UNL A   1      40.850  27.039  35.508  1.00  0.00    -0.200 F 
ENDBRANCH  59  82
ENDBRANCH  33  34
ENDBRANCH  26  28
ENDBRANCH  25  26
ENDBRANCH  24  25
ENDBRANCH  23  24
ENDBRANCH   1  23
TORSDOF 16
ENDMDL
MODEL 2
REMARK VINA RESULT:     -10.5      3.499      8.991
REMARK SMILES O=C(Cc1cccn1-c1ccc2c(c1)OCCO2)OCCOCCOC(=O)c1ccc(-c2c3nc(c(-c4c(F)c(F)c(F)c(F)c4F)c4ccc([nH]4)c(-c4c(F)c(F)c(F)c(F)c4F)c4nc(c(-c5c(F)c(F)c(F)c(F)c5F)c5ccc2[nH]5)C=C4)C=C3)cc1
REMARK SMILES IDX 22 1 21 2 20 3 19 4 2 5 1 6 3 7 4 8 5 9 8 10 6 11 7 12 9 13
REMARK SMILES IDX 10 14 14 15 11 16 13 17 12 18 15 19 18 20 16 21 17 22 23 23
REMARK SMILES IDX 24 24 25 25 26 26 27 27 28 28 29 29 90 30 30 31 89 32 31 33
REMARK SMILES IDX 32 34 33 35 83 36 34 37 88 38 82 39 84 40 35 41 87 42 81 43
REMARK SMILES IDX 80 44 36 46 68 47 48 48 67 49 49 50 52 51 66 52 85 53 50 54
REMARK SMILES IDX 51 55 65 57 86 58 53 59 37 60 38 61 46 62 39 63 40 64 44 65
REMARK SMILES IDX 47 66 41 67 42 68 45 69 43 70 69 71 70 72 78 73 71 74 72 75
REMARK SMILES IDX 76 76 79 77 73 78 74 79 77 80 75 81 54 82 55 83 63 84 56 85
REMARK SMILES IDX 57 86 61 87 64 88 58 89 59 90 62 91 60 92
REMARK H PARENT 84 45 52 56
REMARK Flexibility Score: inf
ROOT
ATOM      1  O   UNL A   1      34.221  30.827  26.980  1.00  0.00    -0.374 OA
ENDROOT
BRANCH   1   2
ATOM      2  C   UNL A   1      34.828  29.834  27.813  1.00  0.00     0.202 C 
BRANCH   2   3
ATOM      3  C   UNL A   1      36.346  29.860  27.778  1.00  0.00     0.261 C 
BRANCH   3   4
ATOM      4  O   UNL A   1      36.924  30.232  29.032  1.00  0.00    -0.463 OA
BRANCH   4   5
ATOM      5  C   UNL A   1      37.194  29.308  29.991  1.00  0.00     0.311 C 
ATOM      6  O   UNL A   1      36.462  29.246  30.978  1.00  0.00    -0.252 OA
BRANCH   5   7
ATOM      7  C   UNL A   1      38.445  28.442  29.865  1.00  0.00     0.177 C 
BRANCH   7   8
ATOM      8  C   UNL A   1      39.684  29.260  29.685  1.00  0.00     0.034 A 
ATOM      9  C   UNL A   1      39.951  30.501  30.237  1.00  0.00     0.024 A 
ATOM     10  N   UNL A   1      40.799  28.875  28.952  1.00  0.00    -0.320 N 
ATOM     11  C   UNL A   1      41.257  30.871  29.862  1.00  0.00     0.020 A 
ATOM     12  C   UNL A   1      41.768  29.842  29.106  1.00  0.00     0.091 A 
BRANCH  10  13
ATOM     13  C   UNL A   1      41.012  27.674  28.233  1.00  0.00     0.049 A 
ATOM     14  C   UNL A   1      40.699  27.648  26.866  1.00  0.00     0.031 A 
ATOM     15  C   UNL A   1      41.550  26.548  28.864  1.00  0.00     0.077 A 
ATOM     16  C   UNL A   1      41.003  26.513  26.111  1.00  0.00     0.052 A 
ATOM     17  C   UNL A   1      41.791  25.396  28.111  1.00  0.00     0.163 A 
ATOM     18  C   UNL A   1      41.544  25.387  26.733  1.00  0.00     0.161 A 
ATOM     19  O   UNL A   1      42.259  24.300  28.788  1.00  0.00    -0.486 OA
ATOM     20  O   UNL A   1      41.830  24.322  25.918  1.00  0.00    -0.486 OA
ATOM     21  C   UNL A   1      42.870  23.356  27.906  1.00  0.00     0.271 C 
ATOM     22  C   UNL A   1      42.033  23.116  26.660  1.00  0.00     0.271 C 
ENDBRANCH  10  13
ENDBRANCH   7   8
ENDBRANCH   5   7
ENDBRANCH   4   5
ENDBRANCH   3   4
ENDBRANCH   2   3
ENDBRANCH   1   2
BRANCH   1  23
ATOM     23  C   UNL A   1      32.845  31.103  27.266  1.00  0.00     0.202 C 
BRANCH  23  24
ATOM     24  C   UNL A   1      32.560  32.595  27.426  1.00  0.00     0.261 C 
BRANCH  24  25
ATOM     25  O   UNL A   1      33.699  33.238  27.988  1.00  0.00    -0.460 OA
BRANCH  25  26
ATOM     26  C   UNL A   1      33.367  34.185  28.883  1.00  0.00     0.338 C 
ATOM     27  O   UNL A   1      32.666  35.182  28.704  1.00  0.00    -0.246 OA
BRANCH  26  28
ATOM     28  C   UNL A   1      33.996  33.908  30.169  1.00  0.00     0.060 A 
ATOM     29  C   UNL A   1      34.228  35.034  30.962  1.00  0.00     0.016 A 
ATOM     30  C   UNL A   1      34.660  32.695  30.363  1.00  0.00     0.016 A 
ATOM     31  C   UNL A   1      35.359  35.062  31.727  1.00  0.00     0.010 A 
ATOM     32  C   UNL A   1      35.802  32.720  31.126  1.00  0.00     0.010 A 
ATOM     33  C   UNL A   1      36.186  33.940  31.701  1.00  0.00    -0.014 A 
BRANCH  33  34
ATOM     34  C   UNL A   1      37.496  34.067  32.325  1.00  0.00     0.031 A 
ATOM     35  C   UNL A   1      37.379  34.082  33.832  1.00  0.00     0.074 A 
ATOM     36  C   UNL A   1      38.538  34.157  31.449  1.00  0.00     0.049 A 
ATOM     37  N   UNL A   1      38.245  34.432  34.727  1.00  0.00    -0.248 NA
ATOM     38  C   UNL A   1      36.076  33.689  34.445  1.00  0.00     0.031 C 
ATOM     39  C   UNL A   1      38.391  34.173  29.978  1.00  0.00     0.029 A 
ATOM     40  N   UNL A   1      39.904  34.257  31.592  1.00  0.00    -0.354 N 
ATOM     41  C   UNL A   1      37.697  34.061  35.963  1.00  0.00     0.074 A 
ATOM     42  C   UNL A   1      36.314  33.773  35.749  1.00  0.00     0.031 C 
ATOM     43  C   UNL A   1      39.587  34.325  29.377  1.00  0.00     0.029 A 
ATOM     44  C   UNL A   1      40.630  34.388  30.380  1.00  0.00     0.049 A 
ATOM     45  H   UNL A   1      40.345  34.240  32.471  1.00  0.00     0.167 HD
ATOM     46  C   UNL A   1      38.461  33.806  37.057  1.00  0.00     0.037 A 
ATOM     47  C   UNL A   1      41.977  34.548  30.200  1.00  0.00     0.037 A 
ATOM     48  C   UNL A   1      39.828  34.136  36.818  1.00  0.00     0.049 A 
ATOM     49  C   UNL A   1      42.568  34.328  31.535  1.00  0.00     0.074 A 
ATOM     50  C   UNL A   1      40.484  35.332  36.691  1.00  0.00     0.029 A 
ATOM     51  N   UNL A   1      40.640  33.137  36.340  1.00  0.00    -0.354 N 
ATOM     52  N   UNL A   1      42.628  33.171  32.125  1.00  0.00    -0.248 NA
ATOM     53  C   UNL A   1      43.027  35.479  32.319  1.00  0.00     0.031 C 
ATOM     54  C   UNL A   1      41.553  35.064  35.807  1.00  0.00     0.029 A 
ATOM     55  C   UNL A   1      41.553  33.705  35.479  1.00  0.00     0.049 A 
ATOM     56  H   UNL A   1      40.581  32.182  36.571  1.00  0.00     0.167 HD
ATOM     57  C   UNL A   1      42.812  33.510  33.446  1.00  0.00     0.074 A 
ATOM     58  C   UNL A   1      43.335  34.857  33.454  1.00  0.00     0.031 C 
ATOM     59  C   UNL A   1      42.084  32.887  34.409  1.00  0.00     0.037 A 
BRANCH  46  60
ATOM     60  C   UNL A   1      38.100  33.031  38.283  1.00  0.00     0.064 A 
ATOM     61  C   UNL A   1      37.608  31.720  38.121  1.00  0.00     0.173 A 
ATOM     62  C   UNL A   1      37.923  33.616  39.547  1.00  0.00     0.173 A 
ATOM     63  F   UNL A   1      37.750  31.075  36.953  1.00  0.00    -0.203 F 
ATOM     64  C   UNL A   1      36.896  31.075  39.128  1.00  0.00     0.198 A 
ATOM     65  C   UNL A   1      37.254  32.946  40.572  1.00  0.00     0.198 A 
ATOM     66  F   UNL A   1      38.297  34.879  39.793  1.00  0.00    -0.203 F 
ATOM     67  F   UNL A   1      36.339  29.880  38.890  1.00  0.00    -0.200 F 
ATOM     68  C   UNL A   1      36.710  31.694  40.351  1.00  0.00     0.200 A 
ATOM     69  F   UNL A   1      37.076  33.553  41.754  1.00  0.00    -0.200 F 
ATOM     70  F   UNL A   1      35.974  31.102  41.301  1.00  0.00    -0.200 F 
ENDBRANCH  46  60
BRANCH  47  71
ATOM     71  C   UNL A   1      42.921  34.891  29.067  1.00  0.00     0.064 A 
ATOM     72  C   UNL A   1      43.975  34.094  28.594  1.00  0.00     0.173 A 
ATOM     73  C   UNL A   1      42.723  36.084  28.315  1.00  0.00     0.173 A 
ATOM     74  F   UNL A   1      44.367  32.995  29.239  1.00  0.00    -0.203 F 
ATOM     75  C   UNL A   1      44.691  34.406  27.423  1.00  0.00     0.198 A 
ATOM     76  C   UNL A   1      43.409  36.377  27.133  1.00  0.00     0.198 A 
ATOM     77  F   UNL A   1      41.838  37.015  28.694  1.00  0.00    -0.203 F 
ATOM     78  F   UNL A   1      45.675  33.593  27.012  1.00  0.00    -0.200 F 
ATOM     79  C   UNL A   1      44.385  35.527  26.676  1.00  0.00     0.200 A 
ATOM     80  F   UNL A   1      43.092  37.480  26.439  1.00  0.00    -0.200 F 
ATOM     81  F   UNL A   1      45.031  35.789  25.532  1.00  0.00    -0.200 F 
ENDBRANCH  47  71
BRANCH  59  82
ATOM     82  C   UNL A   1      41.558  31.532  33.972  1.00  0.00     0.064 A 
ATOM     83  C   UNL A   1      40.177  31.318  33.832  1.00  0.00     0.173 A 
ATOM     84  C   UNL A   1      42.372  30.396  33.835  1.00  0.00     0.173 A 
ATOM     85  F   UNL A   1      39.329  32.354  33.923  1.00  0.00    -0.203 F 
ATOM     86  C   UNL A   1      39.651  30.043  33.604  1.00  0.00     0.198 A 
ATOM     87  C   UNL A   1      41.853  29.121  33.607  1.00  0.00     0.198 A 
ATOM     88  F   UNL A   1      43.696  30.500  33.906  1.00  0.00    -0.203 F 
ATOM     89  F   UNL A   1      38.327  29.879  33.484  1.00  0.00    -0.200 F 
ATOM     90  C   UNL A   1      40.489  28.943  33.500  1.00  0.00     0.200 A 
ATOM     91  F   UNL A   1      42.682  28.072  33.488  1.00  0.00    -0.200 F 
ATOM     92  F   UNL A   1      39.984  27.720  33.282  1.00  0.00    -0.200 F 
ENDBRANCH  59  82
ENDBRANCH  33  34
ENDBRANCH  26  28
ENDBRANCH  25  26
ENDBRANCH  24  25
ENDBRANCH  23  24
ENDBRANCH   1  23
TORSDOF 16
ENDMDL
MODEL 3
REMARK VINA RESULT:     -10.5      4.675     10.374
REMARK SMILES O=C(Cc1cccn1-c1ccc2c(c1)OCCO2)OCCOCCOC(=O)c1ccc(-c2c3nc(c(-c4c(F)c(F)c(F)c(F)c4F)c4ccc([nH]4)c(-c4c(F)c(F)c(F)c(F)c4F)c4nc(c(-c5c(F)c(F)c(F)c(F)c5F)c5ccc2[nH]5)C=C4)C=C3)cc1
REMARK SMILES IDX 22 1 21 2 20 3 19 4 2 5 1 6 3 7 4 8 5 9 8 10 6 11 7 12 9 13
REMARK SMILES IDX 10 14 14 15 11 16 13 17 12 18 15 19 18 20 16 21 17 22 23 23
REMARK SMILES IDX 24 24 25 25 26 26 27 27 28 28 29 29 90 30 30 31 89 32 31 33
REMARK SMILES IDX 32 34 33 35 83 36 34 37 88 38 82 39 84 40 35 41 87 42 81 43
REMARK SMILES IDX 80 44 36 46 68 47 48 48 67 49 49 50 52 51 66 52 85 53 50 54
REMARK SMILES IDX 51 55 65 57 86 58 53 59 37 60 38 61 46 62 39 63 40 64 44 65
REMARK SMILES IDX 47 66 41 67 42 68 45 69 43 70 69 71 70 72 78 73 71 74 72 75
REMARK SMILES IDX 76 76 79 77 73 78 74 79 77 80 75 81 54 82 55 83 63 84 56 85
REMARK SMILES IDX 57 86 61 87 64 88 58 89 59 90 62 91 60 92
REMARK H PARENT 84 45 52 56
REMARK Flexibility Score: inf
ROOT
ATOM      1  O   UNL A   1      34.770  31.915  27.124  1.00  0.00    -0.374 OA
ENDROOT
BRANCH   1   2
ATOM      2  C   UNL A   1      33.872  30.841  27.425  1.00  0.00     0.202 C 
BRANCH   2   3
ATOM      3  C   UNL A   1      34.520  29.469  27.345  1.00  0.00     0.261 C 
BRANCH   3   4
ATOM      4  O   UNL A   1      33.604  28.407  27.619  1.00  0.00    -0.463 OA
BRANCH   4   5
ATOM      5  C   UNL A   1      32.968  27.743  26.619  1.00  0.00     0.311 C 
ATOM      6  O   UNL A   1      31.941  27.117  26.882  1.00  0.00    -0.252 OA
BRANCH   5   7
ATOM      7  C   UNL A   1      33.591  27.710  25.226  1.00  0.00     0.177 C 
BRANCH   7   8
ATOM      8  C   UNL A   1      33.427  26.379  24.564  1.00  0.00     0.034 A 
ATOM      9  C   UNL A   1      34.296  25.302  24.632  1.00  0.00     0.024 A 
ATOM     10  N   UNL A   1      32.337  25.995  23.794  1.00  0.00    -0.320 N 
ATOM     11  C   UNL A   1      33.718  24.234  23.919  1.00  0.00     0.020 A 
ATOM     12  C   UNL A   1      32.502  24.672  23.447  1.00  0.00     0.091 A 
BRANCH  10  13
ATOM     13  C   UNL A   1      31.179  26.742  23.468  1.00  0.00     0.049 A 
ATOM     14  C   UNL A   1      29.945  26.319  23.980  1.00  0.00     0.031 A 
ATOM     15  C   UNL A   1      31.269  27.892  22.677  1.00  0.00     0.077 A 
ATOM     16  C   UNL A   1      28.806  27.099  23.765  1.00  0.00     0.052 A 
ATOM     17  C   UNL A   1      30.111  28.630  22.416  1.00  0.00     0.163 A 
ATOM     18  C   UNL A   1      28.887  28.250  22.981  1.00  0.00     0.161 A 
ATOM     19  O   UNL A   1      30.240  29.711  21.584  1.00  0.00    -0.486 OA
ATOM     20  O   UNL A   1      27.729  28.968  22.834  1.00  0.00    -0.486 OA
ATOM     21  C   UNL A   1      29.147  30.620  21.727  1.00  0.00     0.271 C 
ATOM     22  C   UNL A   1      27.808  29.902  21.753  1.00  0.00     0.271 C 
ENDBRANCH  10  13
ENDBRANCH   7   8
ENDBRANCH   5   7
ENDBRANCH   4   5
ENDBRANCH   3   4
ENDBRANCH   2   3
ENDBRANCH   1   2
BRANCH   1  23
ATOM     23  C   UNL A   1      34.973  32.854  28.186  1.00  0.00     0.202 C 
BRANCH  23  24
ATOM     24  C   UNL A   1      34.141  34.124  28.020  1.00  0.00     0.261 C 
BRANCH  24  25
ATOM     25  O   UNL A   1      33.002  34.061  28.872  1.00  0.00    -0.460 OA
BRANCH  25  26
ATOM     26  C   UNL A   1      32.948  35.088  29.737  1.00  0.00     0.338 C 
ATOM     27  O   UNL A   1      32.447  36.199  29.562  1.00  0.00    -0.246 OA
BRANCH  26  28
ATOM     28  C   UNL A   1      33.623  34.737  30.981  1.00  0.00     0.060 A 
ATOM     29  C   UNL A   1      34.133  35.823  31.698  1.00  0.00     0.016 A 
ATOM     30  C   UNL A   1      34.060  33.426  31.181  1.00  0.00     0.016 A 
ATOM     31  C   UNL A   1      35.311  35.657  32.368  1.00  0.00     0.010 A 
ATOM     32  C   UNL A   1      35.248  33.255  31.849  1.00  0.00     0.010 A 
ATOM     33  C   UNL A   1      35.904  34.396  32.331  1.00  0.00    -0.014 A 
BRANCH  33  34
ATOM     34  C   UNL A   1      37.264  34.288  32.842  1.00  0.00     0.031 A 
ATOM     35  C   UNL A   1      37.274  34.256  34.354  1.00  0.00     0.074 A 
ATOM     36  C   UNL A   1      38.233  34.250  31.882  1.00  0.00     0.049 A 
ATOM     37  N   UNL A   1      38.255  34.426  35.179  1.00  0.00    -0.248 NA
ATOM     38  C   UNL A   1      35.979  34.047  35.065  1.00  0.00     0.031 C 
ATOM     39  C   UNL A   1      37.971  34.351  30.430  1.00  0.00     0.029 A 
ATOM     40  N   UNL A   1      39.604  34.127  31.908  1.00  0.00    -0.354 N 
ATOM     41  C   UNL A   1      37.757  34.093  36.447  1.00  0.00     0.074 A 
ATOM     42  C   UNL A   1      36.333  34.037  36.346  1.00  0.00     0.031 C 
ATOM     43  C   UNL A   1      39.123  34.339  29.732  1.00  0.00     0.029 A 
ATOM     44  C   UNL A   1      40.241  34.193  30.642  1.00  0.00     0.049 A 
ATOM     45  H   UNL A   1      40.106  34.003  32.745  1.00  0.00     0.167 HD
ATOM     46  C   UNL A   1      38.556  33.674  37.462  1.00  0.00     0.037 A 
ATOM     47  C   UNL A   1      41.577  34.147  30.350  1.00  0.00     0.037 A 
ATOM     48  C   UNL A   1      39.934  33.795  37.115  1.00  0.00     0.049 A 
ATOM     49  C   UNL A   1      42.231  33.780  31.621  1.00  0.00     0.074 A 
ATOM     50  C   UNL A   1      40.762  34.876  36.967  1.00  0.00     0.029 A 
ATOM     51  N   UNL A   1      40.534  32.702  36.539  1.00  0.00    -0.354 N 
ATOM     52  N   UNL A   1      42.152  32.603  32.169  1.00  0.00    -0.248 NA
ATOM     53  C   UNL A   1      42.932  34.809  32.396  1.00  0.00     0.031 C 
ATOM     54  C   UNL A   1      41.699  34.482  35.985  1.00  0.00     0.029 A 
ATOM     55  C   UNL A   1      41.453  33.155  35.619  1.00  0.00     0.049 A 
ATOM     56  H   UNL A   1      40.342  31.758  36.746  1.00  0.00     0.167 HD
ATOM     57  C   UNL A   1      42.495  32.852  33.480  1.00  0.00     0.074 A 
ATOM     58  C   UNL A   1      43.226  34.098  33.481  1.00  0.00     0.031 C 
ATOM     59  C   UNL A   1      41.757  32.310  34.483  1.00  0.00     0.037 A 
BRANCH  46  60
ATOM     60  C   UNL A   1      38.176  32.914  38.692  1.00  0.00     0.064 A 
ATOM     61  C   UNL A   1      37.545  31.663  38.533  1.00  0.00     0.173 A 
ATOM     62  C   UNL A   1      38.121  33.487  39.973  1.00  0.00     0.173 A 
ATOM     63  F   UNL A   1      37.564  31.033  37.348  1.00  0.00    -0.203 F 
ATOM     64  C   UNL A   1      36.819  31.073  39.563  1.00  0.00     0.198 A 
ATOM     65  C   UNL A   1      37.436  32.867  41.018  1.00  0.00     0.198 A 
ATOM     66  F   UNL A   1      38.634  34.699  40.220  1.00  0.00    -0.203 F 
ATOM     67  F   UNL A   1      36.132  29.947  39.333  1.00  0.00    -0.200 F 
ATOM     68  C   UNL A   1      36.756  31.681  40.804  1.00  0.00     0.200 A 
ATOM     69  F   UNL A   1      37.378  33.462  42.217  1.00  0.00    -0.200 F 
ATOM     70  F   UNL A   1      36.010  31.147  41.779  1.00  0.00    -0.200 F 
ENDBRANCH  46  60
BRANCH  47  71
ATOM     71  C   UNL A   1      42.468  34.385  29.150  1.00  0.00     0.064 A 
ATOM     72  C   UNL A   1      43.475  33.528  28.680  1.00  0.00     0.173 A 
ATOM     73  C   UNL A   1      42.262  35.530  28.328  1.00  0.00     0.173 A 
ATOM     74  F   UNL A   1      43.873  32.464  29.378  1.00  0.00    -0.203 F 
ATOM     75  C   UNL A   1      44.136  33.740  27.456  1.00  0.00     0.198 A 
ATOM     76  C   UNL A   1      42.891  35.723  27.096  1.00  0.00     0.198 A 
ATOM     77  F   UNL A   1      41.422  36.509  28.687  1.00  0.00    -0.203 F 
ATOM     78  F   UNL A   1      45.077  32.873  27.053  1.00  0.00    -0.200 F 
ATOM     79  C   UNL A   1      43.820  34.816  26.649  1.00  0.00     0.200 A 
ATOM     80  F   UNL A   1      42.567  36.784  26.344  1.00  0.00    -0.200 F 
ATOM     81  F   UNL A   1      44.412  34.982  25.459  1.00  0.00    -0.200 F 
ENDBRANCH  47  71
BRANCH  59  82
ATOM     82  C   UNL A   1      40.986  31.075  34.054  1.00  0.00     0.064 A 
ATOM     83  C   UNL A   1      41.669  29.896  33.717  1.00  0.00     0.173 A 
ATOM     84  C   UNL A   1      39.602  31.071  33.821  1.00  0.00     0.173 A 
ATOM     85  F   UNL A   1      42.990  29.804  33.930  1.00  0.00    -0.203 F 
ATOM     86  C   UNL A   1      41.007  28.801  33.152  1.00  0.00     0.198 A 
ATOM     87  C   UNL A   1      38.936  29.982  33.259  1.00  0.00     0.198 A 
ATOM     88  F   UNL A   1      38.858  32.124  34.149  1.00  0.00    -0.203 F 
ATOM     89  F   UNL A   1      41.696  27.695  32.836  1.00  0.00    -0.200 F 
ATOM     90  C   UNL A   1      39.642  28.847  32.915  1.00  0.00     0.200 A 
ATOM     91  F   UNL A   1      37.610  30.039  33.058  1.00  0.00    -0.200 F 
ATOM     92  F   UNL A   1      39.008  27.798  32.374  1.00  0.00    -0.200 F 
ENDBRANCH  59  82
ENDBRANCH  33  34
ENDBRANCH  26  28
ENDBRANCH  25  26
ENDBRANCH  24  25
ENDBRANCH  23  24
ENDBRANCH   1  23
TORSDOF 16
ENDMDL
