MODEL 1
REMARK VINA RESULT:     -11.4      0.000      0.000
REMARK SMILES CC(C)=CC[C@@]1(C(=O)OCCOCCOC(=O)c2ccc(-c3c4nc(c(-c5c(F)c(F)c(F)c(F)c5F)c5ccc([nH]5)c(-c5c(F)c(F)c(F)c(F)c5F)c5nc(c(-c6c(F)c(F)c(F)c(F)c6F)c6ccc3[nH]6)C=C5)C=C4)cc2)CCC[C@H](C)C1
REMARK SMILES IDX 12 1 11 2 10 3 9 4 7 5 8 6 6 7 81 8 86 9 82 10 84 11 83 12
REMARK SMILES IDX 85 13 5 14 4 15 1 16 2 17 3 18 13 19 14 20 15 21 16 22 17 23
REMARK SMILES IDX 18 24 19 25 80 26 20 27 79 28 21 29 22 30 23 31 73 32 24 33
REMARK SMILES IDX 78 34 72 35 74 36 25 37 77 38 71 39 70 40 26 42 58 43 38 44
REMARK SMILES IDX 57 45 39 46 42 47 56 48 75 49 40 50 41 51 55 53 76 54 43 55
REMARK SMILES IDX 27 56 28 57 36 58 29 59 30 60 34 61 37 62 31 63 32 64 35 65
REMARK SMILES IDX 33 66 59 67 60 68 68 69 61 70 62 71 66 72 69 73 63 74 64 75
REMARK SMILES IDX 67 76 65 77 44 78 45 79 53 80 46 81 47 82 51 83 54 84 48 85
REMARK SMILES IDX 49 86 52 87 50 88
REMARK H PARENT 74 41 42 52
REMARK Flexibility Score: inf
ROOT
ATOM      1  O   UNL A   1      32.573  29.492  24.788  1.00  0.00    -0.374 OA
ENDROOT
BRANCH   1   2
ATOM      2  C   UNL A   1      32.452  28.140  24.344  1.00  0.00     0.202 C 
BRANCH   2   3
ATOM      3  C   UNL A   1      33.616  27.634  23.491  1.00  0.00     0.261 C 
BRANCH   3   4
ATOM      4  O   UNL A   1      33.987  26.296  23.870  1.00  0.00    -0.463 OA
BRANCH   4   5
ATOM      5  C   UNL A   1      33.842  25.356  22.904  1.00  0.00     0.312 C 
ATOM      6  O   UNL A   1      33.654  25.617  21.719  1.00  0.00    -0.252 OA
BRANCH   5   7
ATOM      7  C   UNL A   1      33.898  23.918  23.435  1.00  0.00     0.072 C 
ATOM      8  C   UNL A   1      32.898  23.077  22.601  1.00  0.00     0.019 C 
ATOM      9  C   UNL A   1      33.403  24.025  24.902  1.00  0.00     0.022 C 
ATOM     10  C   UNL A   1      32.531  21.742  23.244  1.00  0.00     0.001 C 
ATOM     11  C   UNL A   1      33.071  22.667  25.539  1.00  0.00    -0.013 C 
ATOM     12  C   UNL A   1      32.046  21.918  24.683  1.00  0.00     0.003 C 
ATOM     13  C   UNL A   1      32.592  22.863  26.978  1.00  0.00     0.007 C 
BRANCH   7  14
ATOM     14  C   UNL A   1      35.315  23.284  23.477  1.00  0.00     0.046 C 
BRANCH  14  15
ATOM     15  C   UNL A   1      36.309  23.703  24.525  1.00  0.00    -0.027 C 
ATOM     16  C   UNL A   1      36.589  21.438  25.632  1.00  0.00     0.039 C 
ATOM     17  C   UNL A   1      36.937  22.882  25.388  1.00  0.00    -0.080 C 
ATOM     18  C   UNL A   1      38.146  23.382  26.126  1.00  0.00     0.039 C 
ENDBRANCH  14  15
ENDBRANCH   7  14
ENDBRANCH   5   7
ENDBRANCH   4   5
ENDBRANCH   3   4
ENDBRANCH   2   3
ENDBRANCH   1   2
BRANCH   1  19
ATOM     19  C   UNL A   1      31.403  30.058  25.379  1.00  0.00     0.202 C 
BRANCH  19  20
ATOM     20  C   UNL A   1      31.653  31.300  26.241  1.00  0.00     0.261 C 
BRANCH  20  21
ATOM     21  O   UNL A   1      32.645  31.058  27.252  1.00  0.00    -0.460 OA
BRANCH  21  22
ATOM     22  C   UNL A   1      33.455  32.107  27.544  1.00  0.00     0.338 C 
ATOM     23  O   UNL A   1      33.151  33.276  27.650  1.00  0.00    -0.246 OA
BRANCH  22  24
ATOM     24  C   UNL A   1      34.795  31.578  27.881  1.00  0.00     0.060 A 
ATOM     25  C   UNL A   1      34.993  30.196  27.910  1.00  0.00     0.016 A 
ATOM     26  C   UNL A   1      35.848  32.439  28.181  1.00  0.00     0.016 A 
ATOM     27  C   UNL A   1      36.229  29.677  28.307  1.00  0.00     0.010 A 
ATOM     28  C   UNL A   1      37.110  31.923  28.480  1.00  0.00     0.010 A 
ATOM     29  C   UNL A   1      37.288  30.537  28.637  1.00  0.00    -0.014 A 
BRANCH  29  30
ATOM     30  C   UNL A   1      38.481  30.023  29.371  1.00  0.00     0.031 A 
ATOM     31  C   UNL A   1      38.699  30.472  30.801  1.00  0.00     0.074 A 
ATOM     32  C   UNL A   1      39.343  29.151  28.812  1.00  0.00     0.049 A 
ATOM     33  N   UNL A   1      39.665  30.175  31.635  1.00  0.00    -0.248 NA
ATOM     34  C   UNL A   1      37.711  31.413  31.356  1.00  0.00     0.031 C 
ATOM     35  C   UNL A   1      39.276  28.646  27.442  1.00  0.00     0.029 A 
ATOM     36  N   UNL A   1      40.448  28.529  29.343  1.00  0.00    -0.354 N 
ATOM     37  C   UNL A   1      39.411  30.917  32.785  1.00  0.00     0.074 A 
ATOM     38  C   UNL A   1      38.259  31.742  32.512  1.00  0.00     0.031 C 
ATOM     39  C   UNL A   1      40.277  27.770  27.249  1.00  0.00     0.029 A 
ATOM     40  C   UNL A   1      41.072  27.669  28.471  1.00  0.00     0.049 A 
ATOM     41  H   UNL A   1      40.763  28.684  30.262  1.00  0.00     0.167 HD
ATOM     42  C   UNL A   1      40.043  30.886  33.981  1.00  0.00     0.037 A 
ATOM     43  C   UNL A   1      42.158  26.888  28.644  1.00  0.00     0.037 A 
ATOM     44  C   UNL A   1      41.154  30.025  34.281  1.00  0.00     0.049 A 
ATOM     45  C   UNL A   1      42.847  26.864  29.987  1.00  0.00     0.074 A 
ATOM     46  C   UNL A   1      41.836  29.878  35.475  1.00  0.00     0.029 A 
ATOM     47  N   UNL A   1      41.741  29.157  33.374  1.00  0.00    -0.354 N 
ATOM     48  N   UNL A   1      42.562  27.529  31.082  1.00  0.00    -0.248 NA
ATOM     49  C   UNL A   1      43.998  25.960  30.122  1.00  0.00     0.031 C 
ATOM     50  C   UNL A   1      42.870  28.959  35.276  1.00  0.00     0.029 A 
ATOM     51  C   UNL A   1      42.786  28.480  33.979  1.00  0.00     0.049 A 
ATOM     52  H   UNL A   1      41.456  29.039  32.438  1.00  0.00     0.167 HD
ATOM     53  C   UNL A   1      43.467  27.090  32.044  1.00  0.00     0.074 A 
ATOM     54  C   UNL A   1      44.301  26.095  31.406  1.00  0.00     0.031 C 
ATOM     55  C   UNL A   1      43.593  27.474  33.339  1.00  0.00     0.037 A 
BRANCH  42  56
ATOM     56  C   UNL A   1      39.536  31.807  35.057  1.00  0.00     0.064 A 
ATOM     57  C   UNL A   1      39.953  33.146  35.146  1.00  0.00     0.173 A 
ATOM     58  C   UNL A   1      38.615  31.346  36.010  1.00  0.00     0.173 A 
ATOM     59  F   UNL A   1      40.845  33.635  34.272  1.00  0.00    -0.203 F 
ATOM     60  C   UNL A   1      39.503  33.972  36.172  1.00  0.00     0.198 A 
ATOM     61  C   UNL A   1      38.134  32.187  37.010  1.00  0.00     0.198 A 
ATOM     62  F   UNL A   1      38.177  30.078  35.971  1.00  0.00    -0.203 F 
ATOM     63  F   UNL A   1      39.973  35.222  36.278  1.00  0.00    -0.200 F 
ATOM     64  C   UNL A   1      38.588  33.495  37.098  1.00  0.00     0.200 A 
ATOM     65  F   UNL A   1      37.238  31.730  37.894  1.00  0.00    -0.200 F 
ATOM     66  F   UNL A   1      38.152  34.292  38.083  1.00  0.00    -0.200 F 
ENDBRANCH  42  56
BRANCH  43  67
ATOM     67  C   UNL A   1      42.648  26.028  27.532  1.00  0.00     0.064 A 
ATOM     68  C   UNL A   1      43.667  26.466  26.672  1.00  0.00     0.173 A 
ATOM     69  C   UNL A   1      42.086  24.767  27.281  1.00  0.00     0.173 A 
ATOM     70  F   UNL A   1      44.222  27.674  26.852  1.00  0.00    -0.203 F 
ATOM     71  C   UNL A   1      44.083  25.692  25.589  1.00  0.00     0.198 A 
ATOM     72  C   UNL A   1      42.526  23.979  26.218  1.00  0.00     0.198 A 
ATOM     73  F   UNL A   1      41.111  24.298  28.072  1.00  0.00    -0.203 F 
ATOM     74  F   UNL A   1      45.014  26.164  24.749  1.00  0.00    -0.200 F 
ATOM     75  C   UNL A   1      43.515  24.447  25.366  1.00  0.00     0.200 A 
ATOM     76  F   UNL A   1      41.984  22.771  26.014  1.00  0.00    -0.200 F 
ATOM     77  F   UNL A   1      43.914  23.703  24.325  1.00  0.00    -0.200 F 
ENDBRANCH  43  67
BRANCH  55  78
ATOM     78  C   UNL A   1      44.619  26.764  34.178  1.00  0.00     0.064 A 
ATOM     79  C   UNL A   1      44.329  25.581  34.873  1.00  0.00     0.173 A 
ATOM     80  C   UNL A   1      45.927  27.267  34.261  1.00  0.00     0.173 A 
ATOM     81  F   UNL A   1      43.093  25.060  34.832  1.00  0.00    -0.203 F 
ATOM     82  C   UNL A   1      45.296  24.954  35.655  1.00  0.00     0.198 A 
ATOM     83  C   UNL A   1      46.902  26.617  35.011  1.00  0.00     0.198 A 
ATOM     84  F   UNL A   1      46.266  28.387  33.604  1.00  0.00    -0.203 F 
ATOM     85  F   UNL A   1      44.977  23.862  36.363  1.00  0.00    -0.200 F 
ATOM     86  C   UNL A   1      46.582  25.468  35.719  1.00  0.00     0.200 A 
ATOM     87  F   UNL A   1      48.150  27.104  35.054  1.00  0.00    -0.200 F 
ATOM     88  F   UNL A   1      47.512  24.862  36.469  1.00  0.00    -0.200 F 
ENDBRANCH  55  78
ENDBRANCH  29  30
ENDBRANCH  22  24
ENDBRANCH  21  22
ENDBRANCH  20  21
ENDBRANCH  19  20
ENDBRANCH   1  19
TORSDOF 16
ENDMDL
MODEL 2
REMARK VINA RESULT:     -11.4      4.176      9.853
REMARK SMILES CC(C)=CC[C@@]1(C(=O)OCCOCCOC(=O)c2ccc(-c3c4nc(c(-c5c(F)c(F)c(F)c(F)c5F)c5ccc([nH]5)c(-c5c(F)c(F)c(F)c(F)c5F)c5nc(c(-c6c(F)c(F)c(F)c(F)c6F)c6ccc3[nH]6)C=C5)C=C4)cc2)CCC[C@H](C)C1
REMARK SMILES IDX 12 1 11 2 10 3 9 4 7 5 8 6 6 7 81 8 86 9 82 10 84 11 83 12
REMARK SMILES IDX 85 13 5 14 4 15 1 16 2 17 3 18 13 19 14 20 15 21 16 22 17 23
REMARK SMILES IDX 18 24 19 25 80 26 20 27 79 28 21 29 22 30 23 31 73 32 24 33
REMARK SMILES IDX 78 34 72 35 74 36 25 37 77 38 71 39 70 40 26 42 58 43 38 44
REMARK SMILES IDX 57 45 39 46 42 47 56 48 75 49 40 50 41 51 55 53 76 54 43 55
REMARK SMILES IDX 27 56 28 57 36 58 29 59 30 60 34 61 37 62 31 63 32 64 35 65
REMARK SMILES IDX 33 66 59 67 60 68 68 69 61 70 62 71 66 72 69 73 63 74 64 75
REMARK SMILES IDX 67 76 65 77 44 78 45 79 53 80 46 81 47 82 51 83 54 84 48 85
REMARK SMILES IDX 49 86 52 87 50 88
REMARK H PARENT 74 41 42 52
REMARK Flexibility Score: inf
ROOT
ATOM      1  O   UNL A   1      35.707  21.710  25.933  1.00  0.00    -0.374 OA
ENDROOT
BRANCH   1   2
ATOM      2  C   UNL A   1      34.690  22.581  25.435  1.00  0.00     0.202 C 
BRANCH   2   3
ATOM      3  C   UNL A   1      33.700  23.084  26.486  1.00  0.00     0.261 C 
BRANCH   3   4
ATOM      4  O   UNL A   1      33.443  24.491  26.319  1.00  0.00    -0.463 OA
BRANCH   4   5
ATOM      5  C   UNL A   1      32.159  24.877  26.522  1.00  0.00     0.312 C 
ATOM      6  O   UNL A   1      31.373  24.279  27.251  1.00  0.00    -0.252 OA
BRANCH   5   7
ATOM      7  C   UNL A   1      31.760  26.123  25.721  1.00  0.00     0.072 C 
ATOM      8  C   UNL A   1      30.276  25.952  25.307  1.00  0.00     0.019 C 
ATOM      9  C   UNL A   1      32.667  26.083  24.460  1.00  0.00     0.022 C 
ATOM     10  C   UNL A   1      29.839  26.887  24.184  1.00  0.00     0.001 C 
ATOM     11  C   UNL A   1      32.227  27.055  23.357  1.00  0.00    -0.013 C 
ATOM     12  C   UNL A   1      30.768  26.795  22.973  1.00  0.00     0.003 C 
ATOM     13  C   UNL A   1      33.170  26.952  22.157  1.00  0.00     0.007 C 
BRANCH   7  14
ATOM     14  C   UNL A   1      32.026  27.478  26.431  1.00  0.00     0.046 C 
BRANCH  14  15
ATOM     15  C   UNL A   1      33.432  27.955  26.664  1.00  0.00    -0.027 C 
ATOM     16  C   UNL A   1      32.870  30.364  27.228  1.00  0.00     0.039 C 
ATOM     17  C   UNL A   1      33.787  29.175  27.111  1.00  0.00    -0.080 C 
ATOM     18  C   UNL A   1      35.181  29.390  27.627  1.00  0.00     0.039 C 
ENDBRANCH  14  15
ENDBRANCH   7  14
ENDBRANCH   5   7
ENDBRANCH   4   5
ENDBRANCH   3   4
ENDBRANCH   2   3
ENDBRANCH   1   2
BRANCH   1  19
ATOM     19  C   UNL A   1      36.005  20.575  25.120  1.00  0.00     0.202 C 
BRANCH  19  20
ATOM     20  C   UNL A   1      37.496  20.241  25.001  1.00  0.00     0.261 C 
BRANCH  20  21
ATOM     21  O   UNL A   1      38.322  21.385  25.269  1.00  0.00    -0.460 OA
BRANCH  21  22
ATOM     22  C   UNL A   1      39.372  21.170  26.103  1.00  0.00     0.338 C 
ATOM     23  O   UNL A   1      40.031  20.160  26.225  1.00  0.00    -0.246 OA
BRANCH  22  24
ATOM     24  C   UNL A   1      39.709  22.450  26.762  1.00  0.00     0.060 A 
ATOM     25  C   UNL A   1      38.936  23.581  26.489  1.00  0.00     0.016 A 
ATOM     26  C   UNL A   1      40.792  22.541  27.634  1.00  0.00     0.016 A 
ATOM     27  C   UNL A   1      39.290  24.817  27.038  1.00  0.00     0.010 A 
ATOM     28  C   UNL A   1      41.086  23.754  28.260  1.00  0.00     0.010 A 
ATOM     29  C   UNL A   1      40.396  24.923  27.896  1.00  0.00    -0.014 A 
BRANCH  29  30
ATOM     30  C   UNL A   1      40.982  26.257  28.217  1.00  0.00     0.031 A 
ATOM     31  C   UNL A   1      42.389  26.561  27.747  1.00  0.00     0.074 A 
ATOM     32  C   UNL A   1      40.286  27.204  28.876  1.00  0.00     0.049 A 
ATOM     33  N   UNL A   1      43.116  27.638  27.915  1.00  0.00    -0.248 NA
ATOM     34  C   UNL A   1      43.088  25.489  27.017  1.00  0.00     0.031 C 
ATOM     35  C   UNL A   1      38.933  27.051  29.408  1.00  0.00     0.029 A 
ATOM     36  N   UNL A   1      40.629  28.494  29.205  1.00  0.00    -0.354 N 
ATOM     37  C   UNL A   1      44.352  27.352  27.344  1.00  0.00     0.074 A 
ATOM     38  C   UNL A   1      44.310  25.977  26.907  1.00  0.00     0.031 C 
ATOM     39  C   UNL A   1      38.550  28.211  29.970  1.00  0.00     0.029 A 
ATOM     40  C   UNL A   1      39.638  29.181  29.862  1.00  0.00     0.049 A 
ATOM     41  H   UNL A   1      41.504  28.889  28.990  1.00  0.00     0.167 HD
ATOM     42  C   UNL A   1      45.415  28.167  27.150  1.00  0.00     0.037 A 
ATOM     43  C   UNL A   1      39.611  30.450  30.318  1.00  0.00     0.037 A 
ATOM     44  C   UNL A   1      45.445  29.553  27.529  1.00  0.00     0.049 A 
ATOM     45  C   UNL A   1      40.805  31.345  30.090  1.00  0.00     0.074 A 
ATOM     46  C   UNL A   1      46.452  30.480  27.334  1.00  0.00     0.029 A 
ATOM     47  N   UNL A   1      44.411  30.212  28.174  1.00  0.00    -0.354 N 
ATOM     48  N   UNL A   1      41.946  31.077  29.499  1.00  0.00    -0.248 NA
ATOM     49  C   UNL A   1      40.696  32.728  30.574  1.00  0.00     0.031 C 
ATOM     50  C   UNL A   1      46.049  31.689  27.909  1.00  0.00     0.029 A 
ATOM     51  C   UNL A   1      44.761  31.533  28.397  1.00  0.00     0.049 A 
ATOM     52  H   UNL A   1      43.554  29.802  28.434  1.00  0.00     0.167 HD
ATOM     53  C   UNL A   1      42.668  32.266  29.501  1.00  0.00     0.074 A 
ATOM     54  C   UNL A   1      41.831  33.259  30.141  1.00  0.00     0.031 C 
ATOM     55  C   UNL A   1      43.909  32.516  29.013  1.00  0.00     0.037 A 
BRANCH  42  56
ATOM     56  C   UNL A   1      46.631  27.575  26.490  1.00  0.00     0.064 A 
ATOM     57  C   UNL A   1      47.650  26.953  27.232  1.00  0.00     0.173 A 
ATOM     58  C   UNL A   1      46.777  27.625  25.097  1.00  0.00     0.173 A 
ATOM     59  F   UNL A   1      47.571  26.891  28.570  1.00  0.00    -0.203 F 
ATOM     60  C   UNL A   1      48.786  26.446  26.607  1.00  0.00     0.198 A 
ATOM     61  C   UNL A   1      47.895  27.080  24.471  1.00  0.00     0.198 A 
ATOM     62  F   UNL A   1      45.833  28.203  24.337  1.00  0.00    -0.203 F 
ATOM     63  F   UNL A   1      49.776  25.925  27.343  1.00  0.00    -0.200 F 
ATOM     64  C   UNL A   1      48.904  26.502  25.227  1.00  0.00     0.200 A 
ATOM     65  F   UNL A   1      48.000  27.120  23.136  1.00  0.00    -0.200 F 
ATOM     66  F   UNL A   1      49.996  26.010  24.626  1.00  0.00    -0.200 F 
ENDBRANCH  42  56
BRANCH  43  67
ATOM     67  C   UNL A   1      38.399  30.975  31.007  1.00  0.00     0.064 A 
ATOM     68  C   UNL A   1      37.315  31.487  30.278  1.00  0.00     0.173 A 
ATOM     69  C   UNL A   1      38.313  31.009  32.407  1.00  0.00     0.173 A 
ATOM     70  F   UNL A   1      37.357  31.501  28.937  1.00  0.00    -0.203 F 
ATOM     71  C   UNL A   1      36.208  32.041  30.920  1.00  0.00     0.198 A 
ATOM     72  C   UNL A   1      37.190  31.533  33.048  1.00  0.00     0.198 A 
ATOM     73  F   UNL A   1      39.319  30.532  33.153  1.00  0.00    -0.203 F 
ATOM     74  F   UNL A   1      35.217  32.579  30.197  1.00  0.00    -0.200 F 
ATOM     75  C   UNL A   1      36.145  32.058  32.305  1.00  0.00     0.200 A 
ATOM     76  F   UNL A   1      37.128  31.535  34.386  1.00  0.00    -0.200 F 
ATOM     77  F   UNL A   1      35.081  32.591  32.922  1.00  0.00    -0.200 F 
ENDBRANCH  43  67
BRANCH  55  78
ATOM     78  C   UNL A   1      44.411  33.931  29.081  1.00  0.00     0.064 A 
ATOM     79  C   UNL A   1      45.153  34.410  30.171  1.00  0.00     0.173 A 
ATOM     80  C   UNL A   1      44.168  34.815  28.017  1.00  0.00     0.173 A 
ATOM     81  F   UNL A   1      45.410  33.610  31.217  1.00  0.00    -0.203 F 
ATOM     82  C   UNL A   1      45.593  35.731  30.213  1.00  0.00     0.198 A 
ATOM     83  C   UNL A   1      44.643  36.122  28.044  1.00  0.00     0.198 A 
ATOM     84  F   UNL A   1      43.477  34.406  26.942  1.00  0.00    -0.203 F 
ATOM     85  F   UNL A   1      46.243  36.185  31.294  1.00  0.00    -0.200 F 
ATOM     86  C   UNL A   1      45.343  36.584  29.148  1.00  0.00     0.200 A 
ATOM     87  F   UNL A   1      44.418  36.938  27.005  1.00  0.00    -0.200 F 
ATOM     88  F   UNL A   1      45.769  37.853  29.190  1.00  0.00    -0.200 F 
ENDBRANCH  55  78
ENDBRANCH  29  30
ENDBRANCH  22  24
ENDBRANCH  21  22
ENDBRANCH  20  21
ENDBRANCH  19  20
ENDBRANCH   1  19
TORSDOF 16
ENDMDL
MODEL 3
REMARK VINA RESULT:     -11.1      4.235      9.925
REMARK SMILES CC(C)=CC[C@@]1(C(=O)OCCOCCOC(=O)c2ccc(-c3c4nc(c(-c5c(F)c(F)c(F)c(F)c5F)c5ccc([nH]5)c(-c5c(F)c(F)c(F)c(F)c5F)c5nc(c(-c6c(F)c(F)c(F)c(F)c6F)c6ccc3[nH]6)C=C5)C=C4)cc2)CCC[C@H](C)C1
REMARK SMILES IDX 12 1 11 2 10 3 9 4 7 5 8 6 6 7 81 8 86 9 82 10 84 11 83 12
REMARK SMILES IDX 85 13 5 14 4 15 1 16 2 17 3 18 13 19 14 20 15 21 16 22 17 23
REMARK SMILES IDX 18 24 19 25 80 26 20 27 79 28 21 29 22 30 23 31 73 32 24 33
REMARK SMILES IDX 78 34 72 35 74 36 25 37 77 38 71 39 70 40 26 42 58 43 38 44
REMARK SMILES IDX 57 45 39 46 42 47 56 48 75 49 40 50 41 51 55 53 76 54 43 55
REMARK SMILES IDX 27 56 28 57 36 58 29 59 30 60 34 61 37 62 31 63 32 64 35 65
REMARK SMILES IDX 33 66 59 67 60 68 68 69 61 70 62 71 66 72 69 73 63 74 64 75
REMARK SMILES IDX 67 76 65 77 44 78 45 79 53 80 46 81 47 82 51 83 54 84 48 85
REMARK SMILES IDX 49 86 52 87 50 88
REMARK H PARENT 74 41 42 52
REMARK Flexibility Score: inf
ROOT
ATOM      1  O   UNL A   1      35.985  21.617  25.582  1.00  0.00    -0.374 OA
ENDROOT
BRANCH   1   2
ATOM      2  C   UNL A   1      35.104  22.428  24.804  1.00  0.00     0.202 C 
BRANCH   2   3
ATOM      3  C   UNL A   1      33.647  21.964  24.785  1.00  0.00     0.261 C 
BRANCH   3   4
ATOM      4  O   UNL A   1      32.759  23.068  24.526  1.00  0.00    -0.463 OA
BRANCH   4   5
ATOM      5  C   UNL A   1      32.528  23.889  25.579  1.00  0.00     0.312 C 
ATOM      6  O   UNL A   1      32.360  23.495  26.729  1.00  0.00    -0.252 OA
BRANCH   5   7
ATOM      7  C   UNL A   1      32.459  25.373  25.195  1.00  0.00     0.072 C 
ATOM      8  C   UNL A   1      33.911  25.854  24.943  1.00  0.00     0.019 C 
ATOM      9  C   UNL A   1      31.882  26.075  26.454  1.00  0.00     0.022 C 
ATOM     10  C   UNL A   1      34.066  27.372  24.947  1.00  0.00     0.001 C 
ATOM     11  C   UNL A   1      32.019  27.604  26.421  1.00  0.00    -0.013 C 
ATOM     12  C   UNL A   1      33.484  27.999  26.214  1.00  0.00     0.003 C 
ATOM     13  C   UNL A   1      31.428  28.213  27.693  1.00  0.00     0.007 C 
BRANCH   7  14
ATOM     14  C   UNL A   1      31.511  25.705  24.011  1.00  0.00     0.046 C 
BRANCH  14  15
ATOM     15  C   UNL A   1      30.034  25.868  24.239  1.00  0.00    -0.027 C 
ATOM     16  C   UNL A   1      29.826  28.235  23.351  1.00  0.00     0.039 C 
ATOM     17  C   UNL A   1      29.289  26.923  23.856  1.00  0.00    -0.080 C 
ATOM     18  C   UNL A   1      27.793  26.793  23.833  1.00  0.00     0.039 C 
ENDBRANCH  14  15
ENDBRANCH   7  14
ENDBRANCH   5   7
ENDBRANCH   4   5
ENDBRANCH   3   4
ENDBRANCH   2   3
ENDBRANCH   1   2
BRANCH   1  19
ATOM     19  C   UNL A   1      36.340  20.358  25.010  1.00  0.00     0.202 C 
BRANCH  19  20
ATOM     20  C   UNL A   1      37.842  20.054  25.002  1.00  0.00     0.261 C 
BRANCH  20  21
ATOM     21  O   UNL A   1      38.625  21.223  25.294  1.00  0.00    -0.460 OA
BRANCH  21  22
ATOM     22  C   UNL A   1      39.666  21.037  26.144  1.00  0.00     0.338 C 
ATOM     23  O   UNL A   1      40.342  20.040  26.287  1.00  0.00    -0.246 OA
BRANCH  22  24
ATOM     24  C   UNL A   1      39.971  22.330  26.794  1.00  0.00     0.060 A 
ATOM     25  C   UNL A   1      39.228  23.459  26.443  1.00  0.00     0.016 A 
ATOM     26  C   UNL A   1      40.994  22.434  27.733  1.00  0.00     0.016 A 
ATOM     27  C   UNL A   1      39.556  24.706  26.985  1.00  0.00     0.010 A 
ATOM     28  C   UNL A   1      41.257  23.659  28.349  1.00  0.00     0.010 A 
ATOM     29  C   UNL A   1      40.604  24.824  27.912  1.00  0.00    -0.014 A 
BRANCH  29  30
ATOM     30  C   UNL A   1      41.179  26.161  28.239  1.00  0.00     0.031 A 
ATOM     31  C   UNL A   1      42.569  26.492  27.739  1.00  0.00     0.074 A 
ATOM     32  C   UNL A   1      40.487  27.088  28.931  1.00  0.00     0.049 A 
ATOM     33  N   UNL A   1      43.285  27.577  27.905  1.00  0.00    -0.248 NA
ATOM     34  C   UNL A   1      43.265  25.441  26.975  1.00  0.00     0.031 C 
ATOM     35  C   UNL A   1      39.150  26.908  29.494  1.00  0.00     0.029 A 
ATOM     36  N   UNL A   1      40.821  28.377  29.271  1.00  0.00    -0.354 N 
ATOM     37  C   UNL A   1      44.510  27.317  27.299  1.00  0.00     0.074 A 
ATOM     38  C   UNL A   1      44.476  25.949  26.842  1.00  0.00     0.031 C 
ATOM     39  C   UNL A   1      38.765  28.053  30.084  1.00  0.00     0.029 A 
ATOM     40  C   UNL A   1      39.837  29.040  29.964  1.00  0.00     0.049 A 
ATOM     41  H   UNL A   1      41.685  28.788  29.040  1.00  0.00     0.167 HD
ATOM     42  C   UNL A   1      45.557  28.149  27.092  1.00  0.00     0.037 A 
ATOM     43  C   UNL A   1      39.805  30.301  30.440  1.00  0.00     0.037 A 
ATOM     44  C   UNL A   1      45.578  29.529  27.491  1.00  0.00     0.049 A 
ATOM     45  C   UNL A   1      40.981  31.216  30.196  1.00  0.00     0.074 A 
ATOM     46  C   UNL A   1      46.567  30.474  27.286  1.00  0.00     0.029 A 
ATOM     47  N   UNL A   1      44.551  30.164  28.173  1.00  0.00    -0.354 N 
ATOM     48  N   UNL A   1      42.110  30.974  29.573  1.00  0.00    -0.248 NA
ATOM     49  C   UNL A   1      40.865  32.590  30.705  1.00  0.00     0.031 C 
ATOM     50  C   UNL A   1      46.162  31.668  27.891  1.00  0.00     0.029 A 
ATOM     51  C   UNL A   1      44.890  31.486  28.408  1.00  0.00     0.049 A 
ATOM     52  H   UNL A   1      43.707  29.739  28.448  1.00  0.00     0.167 HD
ATOM     53  C   UNL A   1      42.815  32.173  29.576  1.00  0.00     0.074 A 
ATOM     54  C   UNL A   1      41.981  33.144  30.252  1.00  0.00     0.031 C 
ATOM     55  C   UNL A   1      44.040  32.448  29.061  1.00  0.00     0.037 A 
BRANCH  42  56
ATOM     56  C   UNL A   1      46.764  27.585  26.392  1.00  0.00     0.064 A 
ATOM     57  C   UNL A   1      46.929  27.683  25.000  1.00  0.00     0.173 A 
ATOM     58  C   UNL A   1      47.773  26.943  27.125  1.00  0.00     0.173 A 
ATOM     59  F   UNL A   1      45.987  28.272  24.248  1.00  0.00    -0.203 F 
ATOM     60  C   UNL A   1      48.033  27.120  24.366  1.00  0.00     0.198 A 
ATOM     61  C   UNL A   1      48.897  26.418  26.492  1.00  0.00     0.198 A 
ATOM     62  F   UNL A   1      47.672  26.825  28.458  1.00  0.00    -0.203 F 
ATOM     63  F   UNL A   1      48.130  27.162  23.031  1.00  0.00    -0.200 F 
ATOM     64  C   UNL A   1      49.021  26.496  25.113  1.00  0.00     0.200 A 
ATOM     65  F   UNL A   1      49.858  25.830  27.217  1.00  0.00    -0.200 F 
ATOM     66  F   UNL A   1      50.085  25.958  24.503  1.00  0.00    -0.200 F 
ENDBRANCH  42  56
BRANCH  43  67
ATOM     67  C   UNL A   1      38.604  30.798  31.168  1.00  0.00     0.064 A 
ATOM     68  C   UNL A   1      37.506  31.331  30.476  1.00  0.00     0.173 A 
ATOM     69  C   UNL A   1      38.542  30.786  32.569  1.00  0.00     0.173 A 
ATOM     70  F   UNL A   1      37.524  31.390  29.136  1.00  0.00    -0.203 F 
ATOM     71  C   UNL A   1      36.409  31.859  31.155  1.00  0.00     0.198 A 
ATOM     72  C   UNL A   1      37.430  31.283  33.248  1.00  0.00     0.198 A 
ATOM     73  F   UNL A   1      39.563  30.287  33.281  1.00  0.00    -0.203 F 
ATOM     74  F   UNL A   1      35.403  32.417  30.468  1.00  0.00    -0.200 F 
ATOM     75  C   UNL A   1      36.369  31.829  32.541  1.00  0.00     0.200 A 
ATOM     76  F   UNL A   1      37.391  31.240  34.586  1.00  0.00    -0.200 F 
ATOM     77  F   UNL A   1      35.315  32.337  33.194  1.00  0.00    -0.200 F 
ENDBRANCH  43  67
BRANCH  55  78
ATOM     78  C   UNL A   1      44.524  33.868  29.139  1.00  0.00     0.064 A 
ATOM     79  C   UNL A   1      44.250  34.808  28.135  1.00  0.00     0.173 A 
ATOM     80  C   UNL A   1      45.254  34.301  30.258  1.00  0.00     0.173 A 
ATOM     81  F   UNL A   1      43.562  34.447  27.041  1.00  0.00    -0.203 F 
ATOM     82  C   UNL A   1      44.726  36.114  28.227  1.00  0.00     0.198 A 
ATOM     83  C   UNL A   1      45.694  35.617  30.366  1.00  0.00     0.198 A 
ATOM     84  F   UNL A   1      45.532  33.449  31.256  1.00  0.00    -0.203 F 
ATOM     85  F   UNL A   1      44.508  36.977  27.224  1.00  0.00    -0.200 F 
ATOM     86  C   UNL A   1      45.441  36.519  29.344  1.00  0.00     0.200 A 
ATOM     87  F   UNL A   1      46.366  36.011  31.456  1.00  0.00    -0.200 F 
ATOM     88  F   UNL A   1      45.895  37.776  29.432  1.00  0.00    -0.200 F 
ENDBRANCH  55  78
ENDBRANCH  29  30
ENDBRANCH  22  24
ENDBRANCH  21  22
ENDBRANCH  20  21
ENDBRANCH  19  20
ENDBRANCH   1  19
TORSDOF 16
ENDMDL
