MODEL 1
REMARK VINA RESULT:     -13.0      0.000      0.000
REMARK SMILES O=C(OCCOCCOC(=O)[C@@H]1c2ccccc2C(=O)N(C2CCCC2)C12CCCCC2)c1ccc(-c2c3nc(c(-c4c(F)c(F)c(F)c(F)c4F)c4ccc([nH]4)c(-c4c(F)c(F)c(F)c(F)c4F)c4nc(c(-c5c(F)c(F)c(F)c(F)c5F)c5ccc2[nH]5)C=C4)C=C3)cc1
REMARK SMILES IDX 5 1 4 2 3 3 2 4 1 5 33 6 34 7 95 8 35 9 94 10 36 11 37 12
REMARK SMILES IDX 38 13 88 14 39 15 93 16 87 17 89 18 40 19 92 20 86 21 85 22
REMARK SMILES IDX 41 24 73 25 53 26 72 27 54 28 57 29 71 30 90 31 55 32 56 33
REMARK SMILES IDX 70 35 91 36 58 37 42 38 43 39 51 40 44 41 45 42 49 43 52 44
REMARK SMILES IDX 46 45 47 46 50 47 48 48 74 49 75 50 83 51 76 52 77 53 81 54
REMARK SMILES IDX 84 55 78 56 79 57 82 58 80 59 59 60 60 61 68 62 61 63 62 64
REMARK SMILES IDX 66 65 69 66 63 67 64 68 67 69 65 70 6 71 7 72 8 73 9 74
REMARK SMILES IDX 10 75 11 76 12 77 13 78 27 79 14 80 18 81 21 82 28 83 32 84
REMARK SMILES IDX 15 85 17 86 19 87 29 88 31 89 16 90 20 91 30 92 22 93 23 94
REMARK SMILES IDX 26 95 24 96 25 97
REMARK H PARENT 89 23 57 34
REMARK Flexibility Score: inf
ROOT
ATOM      1  C   UNL A   1      31.628  29.455  25.235  1.00  0.00     0.202 C 
ENDROOT
BRANCH   1   2
ATOM      2  C   UNL A   1      31.877  30.404  26.418  1.00  0.00     0.261 C 
BRANCH   2   3
ATOM      3  O   UNL A   1      33.152  31.056  26.367  1.00  0.00    -0.460 OA
BRANCH   3   4
ATOM      4  C   UNL A   1      33.776  31.744  27.354  1.00  0.00     0.338 C 
ATOM      5  O   UNL A   1      33.404  32.896  27.574  1.00  0.00    -0.246 OA
BRANCH   4   6
ATOM      6  C   UNL A   1      34.960  31.235  28.131  1.00  0.00     0.060 A 
ATOM      7  C   UNL A   1      36.090  32.070  28.196  1.00  0.00     0.016 A 
ATOM      8  C   UNL A   1      35.074  29.965  28.694  1.00  0.00     0.016 A 
ATOM      9  C   UNL A   1      37.289  31.617  28.755  1.00  0.00     0.010 A 
ATOM     10  C   UNL A   1      36.278  29.459  29.129  1.00  0.00     0.010 A 
ATOM     11  C   UNL A   1      37.377  30.297  29.197  1.00  0.00    -0.014 A 
BRANCH  11  12
ATOM     12  C   UNL A   1      38.471  29.771  30.011  1.00  0.00     0.031 A 
ATOM     13  C   UNL A   1      38.757  30.339  31.358  1.00  0.00     0.074 A 
ATOM     14  C   UNL A   1      39.352  29.014  29.332  1.00  0.00     0.049 A 
ATOM     15  N   UNL A   1      39.712  30.024  32.187  1.00  0.00    -0.248 NA
ATOM     16  C   UNL A   1      37.889  31.437  31.824  1.00  0.00     0.031 C 
ATOM     17  C   UNL A   1      39.217  28.645  27.914  1.00  0.00     0.029 A 
ATOM     18  N   UNL A   1      40.551  28.482  29.697  1.00  0.00    -0.354 N 
ATOM     19  C   UNL A   1      39.536  30.845  33.291  1.00  0.00     0.074 A 
ATOM     20  C   UNL A   1      38.438  31.736  32.996  1.00  0.00     0.031 C 
ATOM     21  C   UNL A   1      40.290  27.943  27.534  1.00  0.00     0.029 A 
ATOM     22  C   UNL A   1      41.165  27.786  28.686  1.00  0.00     0.049 A 
ATOM     23  H   UNL A   1      40.939  28.587  30.595  1.00  0.00     0.167 HD
ATOM     24  C   UNL A   1      40.227  30.800  34.452  1.00  0.00     0.037 A 
ATOM     25  C   UNL A   1      42.292  27.059  28.718  1.00  0.00     0.037 A 
ATOM     26  C   UNL A   1      41.338  29.905  34.652  1.00  0.00     0.049 A 
ATOM     27  C   UNL A   1      42.975  26.943  30.045  1.00  0.00     0.074 A 
ATOM     28  C   UNL A   1      42.075  29.671  35.796  1.00  0.00     0.029 A 
ATOM     29  N   UNL A   1      41.877  29.100  33.652  1.00  0.00    -0.354 N 
ATOM     30  N   UNL A   1      42.697  27.566  31.167  1.00  0.00    -0.248 NA
ATOM     31  C   UNL A   1      44.091  26.000  30.134  1.00  0.00     0.031 C 
ATOM     32  C   UNL A   1      43.081  28.752  35.480  1.00  0.00     0.029 A 
ATOM     33  C   UNL A   1      42.942  28.373  34.151  1.00  0.00     0.049 A 
ATOM     34  H   UNL A   1      41.548  29.054  32.726  1.00  0.00     0.167 HD
ATOM     35  C   UNL A   1      43.584  27.075  32.107  1.00  0.00     0.074 A 
ATOM     36  C   UNL A   1      44.396  26.084  31.422  1.00  0.00     0.031 C 
ATOM     37  C   UNL A   1      43.724  27.410  33.414  1.00  0.00     0.037 A 
BRANCH  24  38
ATOM     38  C   UNL A   1      39.771  31.661  35.597  1.00  0.00     0.064 A 
ATOM     39  C   UNL A   1      40.332  32.932  35.807  1.00  0.00     0.173 A 
ATOM     40  C   UNL A   1      38.699  31.282  36.417  1.00  0.00     0.173 A 
ATOM     41  F   UNL A   1      41.364  33.348  35.058  1.00  0.00    -0.203 F 
ATOM     42  C   UNL A   1      39.837  33.788  36.790  1.00  0.00     0.198 A 
ATOM     43  C   UNL A   1      38.189  32.150  37.383  1.00  0.00     0.198 A 
ATOM     44  F   UNL A   1      38.121  30.081  36.265  1.00  0.00    -0.203 F 
ATOM     45  F   UNL A   1      40.400  34.990  36.975  1.00  0.00    -0.200 F 
ATOM     46  C   UNL A   1      38.757  33.401  37.566  1.00  0.00     0.200 A 
ATOM     47  F   UNL A   1      37.135  31.782  38.125  1.00  0.00    -0.200 F 
ATOM     48  F   UNL A   1      38.259  34.238  38.488  1.00  0.00    -0.200 F 
ENDBRANCH  24  38
BRANCH  25  49
ATOM     49  C   UNL A   1      42.679  26.275  27.521  1.00  0.00     0.064 A 
ATOM     50  C   UNL A   1      43.671  26.756  26.655  1.00  0.00     0.173 A 
ATOM     51  C   UNL A   1      42.173  24.989  27.281  1.00  0.00     0.173 A 
ATOM     52  F   UNL A   1      44.201  27.973  26.855  1.00  0.00    -0.203 F 
ATOM     53  C   UNL A   1      44.129  25.991  25.586  1.00  0.00     0.198 A 
ATOM     54  C   UNL A   1      42.649  24.214  26.225  1.00  0.00     0.198 A 
ATOM     55  F   UNL A   1      41.255  24.464  28.106  1.00  0.00    -0.203 F 
ATOM     56  F   UNL A   1      45.068  26.484  24.766  1.00  0.00    -0.200 F 
ATOM     57  C   UNL A   1      43.623  24.718  25.375  1.00  0.00     0.200 A 
ATOM     58  F   UNL A   1      42.183  22.971  26.044  1.00  0.00    -0.200 F 
ATOM     59  F   UNL A   1      44.081  23.973  24.360  1.00  0.00    -0.200 F 
ENDBRANCH  25  49
BRANCH  37  60
ATOM     60  C   UNL A   1      44.804  26.700  34.166  1.00  0.00     0.064 A 
ATOM     61  C   UNL A   1      44.562  25.469  34.788  1.00  0.00     0.173 A 
ATOM     62  C   UNL A   1      46.102  27.229  34.212  1.00  0.00     0.173 A 
ATOM     63  F   UNL A   1      43.330  24.937  34.778  1.00  0.00    -0.203 F 
ATOM     64  C   UNL A   1      45.579  24.799  35.455  1.00  0.00     0.198 A 
ATOM     65  C   UNL A   1      47.125  26.538  34.851  1.00  0.00     0.198 A 
ATOM     66  F   UNL A   1      46.378  28.401  33.621  1.00  0.00    -0.203 F 
ATOM     67  F   UNL A   1      45.318  23.645  36.084  1.00  0.00    -0.200 F 
ATOM     68  C   UNL A   1      46.862  25.330  35.477  1.00  0.00     0.200 A 
ATOM     69  F   UNL A   1      48.367  27.042  34.857  1.00  0.00    -0.200 F 
ATOM     70  F   UNL A   1      47.845  24.674  36.108  1.00  0.00    -0.200 F 
ENDBRANCH  37  60
ENDBRANCH  11  12
ENDBRANCH   4   6
ENDBRANCH   3   4
ENDBRANCH   2   3
ENDBRANCH   1   2
BRANCH   1  71
ATOM     71  O   UNL A   1      32.773  28.790  24.697  1.00  0.00    -0.374 OA
BRANCH  71  72
ATOM     72  C   UNL A   1      33.090  28.951  23.315  1.00  0.00     0.202 C 
BRANCH  72  73
ATOM     73  C   UNL A   1      34.013  27.839  22.829  1.00  0.00     0.261 C 
BRANCH  73  74
ATOM     74  O   UNL A   1      33.587  26.588  23.380  1.00  0.00    -0.463 OA
BRANCH  74  75
ATOM     75  C   UNL A   1      33.389  25.590  22.497  1.00  0.00     0.315 C 
ATOM     76  O   UNL A   1      33.653  25.644  21.299  1.00  0.00    -0.251 OA
BRANCH  75  77
ATOM     77  C   UNL A   1      32.627  24.433  23.097  1.00  0.00     0.156 C 
ATOM     78  C   UNL A   1      31.353  25.020  23.693  1.00  0.00    -0.019 A 
ATOM     79  C   UNL A   1      33.423  23.440  24.066  1.00  0.00     0.061 C 
ATOM     80  C   UNL A   1      30.691  26.112  23.089  1.00  0.00     0.005 A 
ATOM     81  C   UNL A   1      30.835  24.501  24.874  1.00  0.00     0.044 A 
ATOM     82  N   UNL A   1      32.302  22.534  24.612  1.00  0.00    -0.329 N 
ATOM     83  C   UNL A   1      34.068  24.090  25.349  1.00  0.00     0.030 C 
ATOM     84  C   UNL A   1      34.518  22.641  23.268  1.00  0.00     0.030 C 
ATOM     85  C   UNL A   1      29.669  26.785  23.747  1.00  0.00     0.000 A 
ATOM     86  C   UNL A   1      29.816  25.188  25.546  1.00  0.00     0.014 A 
ATOM     87  C   UNL A   1      31.247  23.146  25.319  1.00  0.00     0.254 C 
ATOM     88  C   UNL A   1      35.562  24.430  25.371  1.00  0.00     0.002 C 
ATOM     89  C   UNL A   1      35.987  23.046  23.380  1.00  0.00     0.002 C 
ATOM     90  C   UNL A   1      29.262  26.350  25.000  1.00  0.00     0.001 A 
ATOM     91  O   UNL A   1      30.593  22.583  26.196  1.00  0.00    -0.269 OA
ATOM     92  C   UNL A   1      36.431  23.337  24.790  1.00  0.00     0.000 C 
BRANCH  82  93
ATOM     93  C   UNL A   1      32.289  21.064  24.600  1.00  0.00     0.086 C 
ATOM     94  C   UNL A   1      32.155  20.386  23.233  1.00  0.00     0.025 C 
ATOM     95  C   UNL A   1      33.436  20.368  25.333  1.00  0.00     0.025 C 
ATOM     96  C   UNL A   1      32.562  18.950  23.523  1.00  0.00     0.002 C 
ATOM     97  C   UNL A   1      33.637  19.039  24.605  1.00  0.00     0.002 C 
ENDBRANCH  82  93
ENDBRANCH  75  77
ENDBRANCH  74  75
ENDBRANCH  73  74
ENDBRANCH  72  73
ENDBRANCH  71  72
ENDBRANCH   1  71
TORSDOF 15
ENDMDL
MODEL 2
REMARK VINA RESULT:     -12.9      4.026      9.000
REMARK SMILES O=C(OCCOCCOC(=O)[C@@H]1c2ccccc2C(=O)N(C2CCCC2)C12CCCCC2)c1ccc(-c2c3nc(c(-c4c(F)c(F)c(F)c(F)c4F)c4ccc([nH]4)c(-c4c(F)c(F)c(F)c(F)c4F)c4nc(c(-c5c(F)c(F)c(F)c(F)c5F)c5ccc2[nH]5)C=C4)C=C3)cc1
REMARK SMILES IDX 5 1 4 2 3 3 2 4 1 5 33 6 34 7 95 8 35 9 94 10 36 11 37 12
REMARK SMILES IDX 38 13 88 14 39 15 93 16 87 17 89 18 40 19 92 20 86 21 85 22
REMARK SMILES IDX 41 24 73 25 53 26 72 27 54 28 57 29 71 30 90 31 55 32 56 33
REMARK SMILES IDX 70 35 91 36 58 37 42 38 43 39 51 40 44 41 45 42 49 43 52 44
REMARK SMILES IDX 46 45 47 46 50 47 48 48 74 49 75 50 83 51 76 52 77 53 81 54
REMARK SMILES IDX 84 55 78 56 79 57 82 58 80 59 59 60 60 61 68 62 61 63 62 64
REMARK SMILES IDX 66 65 69 66 63 67 64 68 67 69 65 70 6 71 7 72 8 73 9 74
REMARK SMILES IDX 10 75 11 76 12 77 13 78 27 79 14 80 18 81 21 82 28 83 32 84
REMARK SMILES IDX 15 85 17 86 19 87 29 88 31 89 16 90 20 91 30 92 22 93 23 94
REMARK SMILES IDX 26 95 24 96 25 97
REMARK H PARENT 89 23 57 34
REMARK Flexibility Score: inf
ROOT
ATOM      1  C   UNL A   1      35.759  21.249  24.997  1.00  0.00     0.202 C 
ENDROOT
BRANCH   1   2
ATOM      2  C   UNL A   1      37.287  21.410  24.978  1.00  0.00     0.261 C 
BRANCH   2   3
ATOM      3  O   UNL A   1      37.750  22.549  25.713  1.00  0.00    -0.460 OA
BRANCH   3   4
ATOM      4  C   UNL A   1      38.965  22.735  26.285  1.00  0.00     0.338 C 
ATOM      5  O   UNL A   1      39.671  21.744  26.465  1.00  0.00    -0.246 OA
BRANCH   4   6
ATOM      6  C   UNL A   1      39.468  24.053  26.809  1.00  0.00     0.060 A 
ATOM      7  C   UNL A   1      39.030  24.444  28.087  1.00  0.00     0.016 A 
ATOM      8  C   UNL A   1      40.238  24.968  26.092  1.00  0.00     0.016 A 
ATOM      9  C   UNL A   1      39.313  25.718  28.587  1.00  0.00     0.010 A 
ATOM     10  C   UNL A   1      40.416  26.266  26.512  1.00  0.00     0.010 A 
ATOM     11  C   UNL A   1      39.988  26.632  27.777  1.00  0.00    -0.014 A 
BRANCH  11  12
ATOM     12  C   UNL A   1      40.556  27.892  28.250  1.00  0.00     0.031 A 
ATOM     13  C   UNL A   1      41.984  27.974  28.666  1.00  0.00     0.074 A 
ATOM     14  C   UNL A   1      39.641  28.821  28.582  1.00  0.00     0.049 A 
ATOM     15  N   UNL A   1      42.632  28.995  29.152  1.00  0.00    -0.248 NA
ATOM     16  C   UNL A   1      42.785  26.739  28.569  1.00  0.00     0.031 C 
ATOM     17  C   UNL A   1      38.188  28.660  28.413  1.00  0.00     0.029 A 
ATOM     18  N   UNL A   1      39.769  30.035  29.187  1.00  0.00    -0.354 N 
ATOM     19  C   UNL A   1      43.926  28.546  29.373  1.00  0.00     0.074 A 
ATOM     20  C   UNL A   1      43.955  27.137  29.055  1.00  0.00     0.031 C 
ATOM     21  C   UNL A   1      37.563  29.739  28.898  1.00  0.00     0.029 A 
ATOM     22  C   UNL A   1      38.569  30.673  29.378  1.00  0.00     0.049 A 
ATOM     23  H   UNL A   1      40.634  30.416  29.460  1.00  0.00     0.167 HD
ATOM     24  C   UNL A   1      44.983  29.289  29.771  1.00  0.00     0.037 A 
ATOM     25  C   UNL A   1      38.330  31.907  29.846  1.00  0.00     0.037 A 
ATOM     26  C   UNL A   1      44.860  30.684  30.109  1.00  0.00     0.049 A 
ATOM     27  C   UNL A   1      39.528  32.742  30.177  1.00  0.00     0.074 A 
ATOM     28  C   UNL A   1      45.847  31.594  30.433  1.00  0.00     0.029 A 
ATOM     29  N   UNL A   1      43.647  31.364  30.174  1.00  0.00    -0.354 N 
ATOM     30  N   UNL A   1      40.792  32.388  30.198  1.00  0.00    -0.248 NA
ATOM     31  C   UNL A   1      39.284  34.148  30.502  1.00  0.00     0.031 C 
ATOM     32  C   UNL A   1      45.229  32.813  30.730  1.00  0.00     0.029 A 
ATOM     33  C   UNL A   1      43.860  32.680  30.542  1.00  0.00     0.049 A 
ATOM     34  H   UNL A   1      42.766  30.967  29.987  1.00  0.00     0.167 HD
ATOM     35  C   UNL A   1      41.504  33.530  30.514  1.00  0.00     0.074 A 
ATOM     36  C   UNL A   1      40.525  34.594  30.653  1.00  0.00     0.031 C 
ATOM     37  C   UNL A   1      42.840  33.691  30.679  1.00  0.00     0.037 A 
BRANCH  24  38
ATOM     38  C   UNL A   1      46.345  28.654  29.789  1.00  0.00     0.064 A 
ATOM     39  C   UNL A   1      47.163  28.673  28.647  1.00  0.00     0.173 A 
ATOM     40  C   UNL A   1      46.893  28.129  30.969  1.00  0.00     0.173 A 
ATOM     41  F   UNL A   1      46.692  29.157  27.487  1.00  0.00    -0.203 F 
ATOM     42  C   UNL A   1      48.471  28.196  28.685  1.00  0.00     0.198 A 
ATOM     43  C   UNL A   1      48.211  27.675  31.011  1.00  0.00     0.198 A 
ATOM     44  F   UNL A   1      46.163  28.084  32.093  1.00  0.00    -0.203 F 
ATOM     45  F   UNL A   1      49.223  28.216  27.575  1.00  0.00    -0.200 F 
ATOM     46  C   UNL A   1      48.999  27.711  29.870  1.00  0.00     0.200 A 
ATOM     47  F   UNL A   1      48.726  27.219  32.161  1.00  0.00    -0.200 F 
ATOM     48  F   UNL A   1      50.268  27.282  29.915  1.00  0.00    -0.200 F 
ENDBRANCH  24  38
BRANCH  25  49
ATOM     49  C   UNL A   1      36.942  32.430  29.825  1.00  0.00     0.064 A 
ATOM     50  C   UNL A   1      36.130  32.318  30.961  1.00  0.00     0.173 A 
ATOM     51  C   UNL A   1      36.441  33.158  28.735  1.00  0.00     0.173 A 
ATOM     52  F   UNL A   1      36.573  31.649  32.037  1.00  0.00    -0.203 F 
ATOM     53  C   UNL A   1      34.864  32.895  31.004  1.00  0.00     0.198 A 
ATOM     54  C   UNL A   1      35.183  33.756  28.788  1.00  0.00     0.198 A 
ATOM     55  F   UNL A   1      37.195  33.333  27.640  1.00  0.00    -0.203 F 
ATOM     56  F   UNL A   1      34.104  32.758  32.100  1.00  0.00    -0.200 F 
ATOM     57  C   UNL A   1      34.393  33.620  29.920  1.00  0.00     0.200 A 
ATOM     58  F   UNL A   1      34.744  34.485  27.751  1.00  0.00    -0.200 F 
ATOM     59  F   UNL A   1      33.184  34.195  29.971  1.00  0.00    -0.200 F 
ENDBRANCH  25  49
BRANCH  37  60
ATOM     60  C   UNL A   1      43.300  35.068  31.040  1.00  0.00     0.064 A 
ATOM     61  C   UNL A   1      43.636  36.000  30.050  1.00  0.00     0.173 A 
ATOM     62  C   UNL A   1      43.346  35.471  32.382  1.00  0.00     0.173 A 
ATOM     63  F   UNL A   1      43.617  35.648  28.756  1.00  0.00    -0.203 F 
ATOM     64  C   UNL A   1      44.028  37.288  30.393  1.00  0.00     0.198 A 
ATOM     65  C   UNL A   1      43.706  36.771  32.718  1.00  0.00     0.198 A 
ATOM     66  F   UNL A   1      43.023  34.612  33.360  1.00  0.00    -0.203 F 
ATOM     67  F   UNL A   1      44.390  38.152  29.435  1.00  0.00    -0.200 F 
ATOM     68  C   UNL A   1      44.052  37.675  31.726  1.00  0.00     0.200 A 
ATOM     69  F   UNL A   1      43.713  37.149  34.004  1.00  0.00    -0.200 F 
ATOM     70  F   UNL A   1      44.417  38.922  32.052  1.00  0.00    -0.200 F 
ENDBRANCH  37  60
ENDBRANCH  11  12
ENDBRANCH   4   6
ENDBRANCH   3   4
ENDBRANCH   2   3
ENDBRANCH   1   2
BRANCH   1  71
ATOM     71  O   UNL A   1      35.026  22.202  25.770  1.00  0.00    -0.374 OA
BRANCH  71  72
ATOM     72  C   UNL A   1      34.270  21.756  26.895  1.00  0.00     0.202 C 
BRANCH  72  73
ATOM     73  C   UNL A   1      33.579  22.924  27.591  1.00  0.00     0.261 C 
BRANCH  73  74
ATOM     74  O   UNL A   1      33.134  23.869  26.612  1.00  0.00    -0.463 OA
BRANCH  74  75
ATOM     75  C   UNL A   1      31.808  24.109  26.581  1.00  0.00     0.315 C 
ATOM     76  O   UNL A   1      31.005  23.748  27.437  1.00  0.00    -0.251 OA
BRANCH  75  77
ATOM     77  C   UNL A   1      31.364  24.722  25.275  1.00  0.00     0.156 C 
ATOM     78  C   UNL A   1      31.770  23.743  24.180  1.00  0.00    -0.019 A 
ATOM     79  C   UNL A   1      31.766  26.245  24.993  1.00  0.00     0.061 C 
ATOM     80  C   UNL A   1      31.743  22.346  24.393  1.00  0.00     0.005 A 
ATOM     81  C   UNL A   1      32.208  24.219  22.949  1.00  0.00     0.044 A 
ATOM     82  N   UNL A   1      31.317  26.445  23.533  1.00  0.00    -0.329 N 
ATOM     83  C   UNL A   1      33.310  26.565  24.981  1.00  0.00     0.030 C 
ATOM     84  C   UNL A   1      31.031  27.210  25.994  1.00  0.00     0.030 C 
ATOM     85  C   UNL A   1      32.320  21.470  23.482  1.00  0.00     0.000 A 
ATOM     86  C   UNL A   1      32.806  23.338  22.038  1.00  0.00     0.014 A 
ATOM     87  C   UNL A   1      31.888  25.611  22.548  1.00  0.00     0.254 C 
ATOM     88  C   UNL A   1      33.975  27.191  26.211  1.00  0.00     0.002 C 
ATOM     89  C   UNL A   1      31.794  27.803  27.177  1.00  0.00     0.002 C 
ATOM     90  C   UNL A   1      32.896  21.973  22.323  1.00  0.00     0.001 A 
ATOM     91  O   UNL A   1      32.029  25.940  21.371  1.00  0.00    -0.269 OA
ATOM     92  C   UNL A   1      33.166  28.315  26.820  1.00  0.00     0.000 C 
BRANCH  82  93
ATOM     93  C   UNL A   1      30.455  27.524  23.028  1.00  0.00     0.086 C 
ATOM     94  C   UNL A   1      28.986  27.493  23.462  1.00  0.00     0.025 C 
ATOM     95  C   UNL A   1      30.955  28.952  23.245  1.00  0.00     0.025 C 
ATOM     96  C   UNL A   1      28.500  28.892  23.116  1.00  0.00     0.002 C 
ATOM     97  C   UNL A   1      29.696  29.812  23.352  1.00  0.00     0.002 C 
ENDBRANCH  82  93
ENDBRANCH  75  77
ENDBRANCH  74  75
ENDBRANCH  73  74
ENDBRANCH  72  73
ENDBRANCH  71  72
ENDBRANCH   1  71
TORSDOF 15
ENDMDL
MODEL 3
REMARK VINA RESULT:     -12.7      4.147      9.634
REMARK SMILES O=C(OCCOCCOC(=O)[C@@H]1c2ccccc2C(=O)N(C2CCCC2)C12CCCCC2)c1ccc(-c2c3nc(c(-c4c(F)c(F)c(F)c(F)c4F)c4ccc([nH]4)c(-c4c(F)c(F)c(F)c(F)c4F)c4nc(c(-c5c(F)c(F)c(F)c(F)c5F)c5ccc2[nH]5)C=C4)C=C3)cc1
REMARK SMILES IDX 5 1 4 2 3 3 2 4 1 5 33 6 34 7 95 8 35 9 94 10 36 11 37 12
REMARK SMILES IDX 38 13 88 14 39 15 93 16 87 17 89 18 40 19 92 20 86 21 85 22
REMARK SMILES IDX 41 24 73 25 53 26 72 27 54 28 57 29 71 30 90 31 55 32 56 33
REMARK SMILES IDX 70 35 91 36 58 37 42 38 43 39 51 40 44 41 45 42 49 43 52 44
REMARK SMILES IDX 46 45 47 46 50 47 48 48 74 49 75 50 83 51 76 52 77 53 81 54
REMARK SMILES IDX 84 55 78 56 79 57 82 58 80 59 59 60 60 61 68 62 61 63 62 64
REMARK SMILES IDX 66 65 69 66 63 67 64 68 67 69 65 70 6 71 7 72 8 73 9 74
REMARK SMILES IDX 10 75 11 76 12 77 13 78 27 79 14 80 18 81 21 82 28 83 32 84
REMARK SMILES IDX 15 85 17 86 19 87 29 88 31 89 16 90 20 91 30 92 22 93 23 94
REMARK SMILES IDX 26 95 24 96 25 97
REMARK H PARENT 89 23 57 34
REMARK Flexibility Score: inf
ROOT
ATOM      1  C   UNL A   1      35.983  22.147  24.507  1.00  0.00     0.202 C 
ENDROOT
BRANCH   1   2
ATOM      2  C   UNL A   1      36.987  21.033  24.844  1.00  0.00     0.261 C 
BRANCH   2   3
ATOM      3  O   UNL A   1      37.716  21.271  26.054  1.00  0.00    -0.460 OA
BRANCH   3   4
ATOM      4  C   UNL A   1      39.054  21.430  26.204  1.00  0.00     0.338 C 
ATOM      5  O   UNL A   1      39.757  20.420  26.187  1.00  0.00    -0.246 OA
BRANCH   4   6
ATOM      6  C   UNL A   1      39.730  22.743  26.492  1.00  0.00     0.060 A 
ATOM      7  C   UNL A   1      40.700  22.754  27.510  1.00  0.00     0.016 A 
ATOM      8  C   UNL A   1      39.397  23.968  25.916  1.00  0.00     0.016 A 
ATOM      9  C   UNL A   1      41.262  23.954  27.956  1.00  0.00     0.010 A 
ATOM     10  C   UNL A   1      39.842  25.165  26.428  1.00  0.00     0.010 A 
ATOM     11  C   UNL A   1      40.805  25.159  27.422  1.00  0.00    -0.014 A 
BRANCH  11  12
ATOM     12  C   UNL A   1      41.462  26.450  27.615  1.00  0.00     0.031 A 
ATOM     13  C   UNL A   1      42.890  26.639  27.234  1.00  0.00     0.074 A 
ATOM     14  C   UNL A   1      40.804  27.289  28.434  1.00  0.00     0.049 A 
ATOM     15  N   UNL A   1      43.636  27.697  27.380  1.00  0.00    -0.248 NA
ATOM     16  C   UNL A   1      43.592  25.479  26.654  1.00  0.00     0.031 C 
ATOM     17  C   UNL A   1      39.489  27.012  29.034  1.00  0.00     0.029 A 
ATOM     18  N   UNL A   1      41.159  28.493  28.964  1.00  0.00    -0.354 N 
ATOM     19  C   UNL A   1      44.878  27.353  26.867  1.00  0.00     0.074 A 
ATOM     20  C   UNL A   1      44.818  25.961  26.487  1.00  0.00     0.031 C 
ATOM     21  C   UNL A   1      39.149  28.021  29.843  1.00  0.00     0.029 A 
ATOM     22  C   UNL A   1      40.201  29.023  29.792  1.00  0.00     0.049 A 
ATOM     23  H   UNL A   1      42.016  28.937  28.773  1.00  0.00     0.167 HD
ATOM     24  C   UNL A   1      45.944  28.170  26.707  1.00  0.00     0.037 A 
ATOM     25  C   UNL A   1      40.171  30.220  30.397  1.00  0.00     0.037 A 
ATOM     26  C   UNL A   1      45.935  29.541  27.152  1.00  0.00     0.049 A 
ATOM     27  C   UNL A   1      41.316  31.142  30.113  1.00  0.00     0.074 A 
ATOM     28  C   UNL A   1      46.892  30.521  26.977  1.00  0.00     0.029 A 
ATOM     29  N   UNL A   1      44.898  30.115  27.882  1.00  0.00    -0.354 N 
ATOM     30  N   UNL A   1      42.422  30.895  29.452  1.00  0.00    -0.248 NA
ATOM     31  C   UNL A   1      41.198  32.514  30.610  1.00  0.00     0.031 C 
ATOM     32  C   UNL A   1      46.451  31.676  27.631  1.00  0.00     0.029 A 
ATOM     33  C   UNL A   1      45.196  31.433  28.173  1.00  0.00     0.049 A 
ATOM     34  H   UNL A   1      44.074  29.651  28.153  1.00  0.00     0.167 HD
ATOM     35  C   UNL A   1      43.128  32.084  29.428  1.00  0.00     0.074 A 
ATOM     36  C   UNL A   1      42.307  33.058  30.125  1.00  0.00     0.031 C 
ATOM     37  C   UNL A   1      44.342  32.352  28.887  1.00  0.00     0.037 A 
BRANCH  24  38
ATOM     38  C   UNL A   1      47.148  27.651  25.974  1.00  0.00     0.064 A 
ATOM     39  C   UNL A   1      47.215  27.706  24.572  1.00  0.00     0.173 A 
ATOM     40  C   UNL A   1      48.288  27.208  26.660  1.00  0.00     0.173 A 
ATOM     41  F   UNL A   1      46.154  28.116  23.860  1.00  0.00    -0.203 F 
ATOM     42  C   UNL A   1      48.372  27.340  23.887  1.00  0.00     0.198 A 
ATOM     43  C   UNL A   1      49.454  26.866  25.974  1.00  0.00     0.198 A 
ATOM     44  F   UNL A   1      48.287  27.134  27.999  1.00  0.00    -0.203 F 
ATOM     45  F   UNL A   1      48.401  27.391  22.548  1.00  0.00    -0.200 F 
ATOM     46  C   UNL A   1      49.495  26.934  24.590  1.00  0.00     0.200 A 
ATOM     47  F   UNL A   1      50.545  26.487  26.654  1.00  0.00    -0.200 F 
ATOM     48  F   UNL A   1      50.619  26.614  23.933  1.00  0.00    -0.200 F 
ENDBRANCH  24  38
BRANCH  25  49
ATOM     49  C   UNL A   1      38.950  30.625  31.134  1.00  0.00     0.064 A 
ATOM     50  C   UNL A   1      38.892  30.493  32.528  1.00  0.00     0.173 A 
ATOM     51  C   UNL A   1      37.877  31.263  30.495  1.00  0.00     0.173 A 
ATOM     52  F   UNL A   1      39.904  29.907  33.187  1.00  0.00    -0.203 F 
ATOM     53  C   UNL A   1      37.801  30.965  33.254  1.00  0.00     0.198 A 
ATOM     54  C   UNL A   1      36.796  31.757  31.225  1.00  0.00     0.198 A 
ATOM     55  F   UNL A   1      37.902  31.455  29.168  1.00  0.00    -0.203 F 
ATOM     56  F   UNL A   1      37.768  30.810  34.585  1.00  0.00    -0.200 F 
ATOM     57  C   UNL A   1      36.757  31.603  32.603  1.00  0.00     0.200 A 
ATOM     58  F   UNL A   1      35.804  32.404  30.597  1.00  0.00    -0.200 F 
ATOM     59  F   UNL A   1      35.719  32.078  33.304  1.00  0.00    -0.200 F 
ENDBRANCH  25  49
BRANCH  37  60
ATOM     60  C   UNL A   1      44.842  33.752  29.048  1.00  0.00     0.064 A 
ATOM     61  C   UNL A   1      44.529  34.744  28.108  1.00  0.00     0.173 A 
ATOM     62  C   UNL A   1      45.588  34.113  30.178  1.00  0.00     0.173 A 
ATOM     63  F   UNL A   1      43.829  34.435  27.007  1.00  0.00    -0.203 F 
ATOM     64  C   UNL A   1      44.969  36.050  28.283  1.00  0.00     0.198 A 
ATOM     65  C   UNL A   1      45.996  35.428  30.366  1.00  0.00     0.198 A 
ATOM     66  F   UNL A   1      45.902  33.196  31.105  1.00  0.00    -0.203 F 
ATOM     67  F   UNL A   1      44.699  36.975  27.352  1.00  0.00    -0.200 F 
ATOM     68  C   UNL A   1      45.693  36.392  29.417  1.00  0.00     0.200 A 
ATOM     69  F   UNL A   1      46.681  35.763  31.468  1.00  0.00    -0.200 F 
ATOM     70  F   UNL A   1      46.102  37.656  29.591  1.00  0.00    -0.200 F 
ENDBRANCH  37  60
ENDBRANCH  11  12
ENDBRANCH   4   6
ENDBRANCH   3   4
ENDBRANCH   2   3
ENDBRANCH   1   2
BRANCH   1  71
ATOM     71  O   UNL A   1      35.338  22.782  25.613  1.00  0.00    -0.374 OA
BRANCH  71  72
ATOM     72  C   UNL A   1      34.567  21.993  26.519  1.00  0.00     0.202 C 
BRANCH  72  73
ATOM     73  C   UNL A   1      33.619  22.863  27.337  1.00  0.00     0.261 C 
BRANCH  73  74
ATOM     74  O   UNL A   1      33.174  23.966  26.539  1.00  0.00    -0.463 OA
BRANCH  74  75
ATOM     75  C   UNL A   1      31.845  24.187  26.526  1.00  0.00     0.315 C 
ATOM     76  O   UNL A   1      31.058  23.816  27.392  1.00  0.00    -0.251 OA
BRANCH  75  77
ATOM     77  C   UNL A   1      31.375  24.792  25.224  1.00  0.00     0.156 C 
ATOM     78  C   UNL A   1      31.777  23.814  24.126  1.00  0.00    -0.019 A 
ATOM     79  C   UNL A   1      31.755  26.318  24.933  1.00  0.00     0.061 C 
ATOM     80  C   UNL A   1      31.770  22.418  24.342  1.00  0.00     0.005 A 
ATOM     81  C   UNL A   1      32.193  24.292  22.888  1.00  0.00     0.044 A 
ATOM     82  N   UNL A   1      31.283  26.509  23.478  1.00  0.00    -0.329 N 
ATOM     83  C   UNL A   1      33.294  26.657  24.899  1.00  0.00     0.030 C 
ATOM     84  C   UNL A   1      31.022  27.277  25.941  1.00  0.00     0.030 C 
ATOM     85  C   UNL A   1      32.345  21.546  23.426  1.00  0.00     0.000 A 
ATOM     86  C   UNL A   1      32.788  23.416  21.971  1.00  0.00     0.014 A 
ATOM     87  C   UNL A   1      31.850  25.679  22.488  1.00  0.00     0.254 C 
ATOM     88  C   UNL A   1      33.969  27.294  26.118  1.00  0.00     0.002 C 
ATOM     89  C   UNL A   1      31.795  27.882  27.113  1.00  0.00     0.002 C 
ATOM     90  C   UNL A   1      32.899  22.053  22.258  1.00  0.00     0.001 A 
ATOM     91  O   UNL A   1      31.971  26.007  21.309  1.00  0.00    -0.269 OA
ATOM     92  C   UNL A   1      33.155  28.410  26.735  1.00  0.00     0.000 C 
BRANCH  82  93
ATOM     93  C   UNL A   1      30.401  27.576  22.983  1.00  0.00     0.086 C 
ATOM     94  C   UNL A   1      28.927  27.498  23.393  1.00  0.00     0.025 C 
ATOM     95  C   UNL A   1      30.861  29.011  23.238  1.00  0.00     0.025 C 
ATOM     96  C   UNL A   1      28.410  28.892  23.069  1.00  0.00     0.002 C 
ATOM     97  C   UNL A   1      29.579  29.837  23.343  1.00  0.00     0.002 C 
ENDBRANCH  82  93
ENDBRANCH  75  77
ENDBRANCH  74  75
ENDBRANCH  73  74
ENDBRANCH  72  73
ENDBRANCH  71  72
ENDBRANCH   1  71
TORSDOF 15
ENDMDL
