MODEL 1
REMARK VINA RESULT:     -10.7      0.000      0.000
REMARK SMILES O=C(Cc1cc[nH]n1)Nc1nc(CC(=O)OCCOCCOC(=O)c2ccc(-c3c4nc(c(-c5c(F)c(F)c(F)c(F)c5F)c5ccc([nH]5)c(-c5c(F)c(F)c(F)c(F)c5F)c5nc(c(-c6c(F)c(F)c(F)c(F)c6F)c6ccc3[nH]6)C=C5)C=C4)cc2)cs1
REMARK SMILES IDX 18 1 17 2 16 3 14 4 15 5 13 6 12 7 10 8 11 9 89 10 88 11
REMARK SMILES IDX 9 12 1 13 2 14 3 16 4 17 5 18 8 19 6 20 7 21 19 23 20 24
REMARK SMILES IDX 21 25 22 26 23 27 24 28 25 29 26 30 87 31 27 32 86 33 28 34
REMARK SMILES IDX 29 35 30 36 80 37 31 38 85 39 79 40 81 41 32 42 84 43 78 44
REMARK SMILES IDX 77 45 33 47 65 48 45 49 64 50 46 51 49 52 63 53 82 54 47 55
REMARK SMILES IDX 48 56 62 58 83 59 50 60 34 61 35 62 43 63 36 64 37 65 41 66
REMARK SMILES IDX 44 67 38 68 39 69 42 70 40 71 66 72 67 73 75 74 68 75 69 76
REMARK SMILES IDX 73 77 76 78 70 79 71 80 74 81 72 82 51 83 52 84 60 85 53 86
REMARK SMILES IDX 54 87 58 88 61 89 55 90 56 91 59 92 57 93
REMARK H PARENT 9 15 7 22 81 46 49 57
REMARK Flexibility Score: inf
ROOT
ATOM      1  C   UNL A   1      32.086  28.724  27.278  1.00  0.00     0.202 C 
ENDROOT
BRANCH   1   2
ATOM      2  C   UNL A   1      32.537  27.262  27.197  1.00  0.00     0.261 C 
BRANCH   2   3
ATOM      3  O   UNL A   1      31.432  26.334  27.166  1.00  0.00    -0.463 OA
BRANCH   3   4
ATOM      4  C   UNL A   1      31.723  25.096  26.684  1.00  0.00     0.311 C 
ATOM      5  O   UNL A   1      31.412  24.049  27.249  1.00  0.00    -0.252 OA
BRANCH   4   6
ATOM      6  C   UNL A   1      32.514  25.074  25.403  1.00  0.00     0.179 C 
BRANCH   6   7
ATOM      7  C   UNL A   1      31.929  25.723  24.192  1.00  0.00     0.065 A 
ATOM      8  C   UNL A   1      30.505  27.144  23.272  1.00  0.00     0.189 A 
ATOM      9  N   UNL A   1      30.788  26.490  24.368  1.00  0.00    -0.224 NA
ATOM     10  S   UNL A   1      31.473  26.790  21.916  1.00  0.00    -0.105 S 
ATOM     11  C   UNL A   1      32.474  25.819  22.922  1.00  0.00     0.093 A 
BRANCH   8  12
ATOM     12  N   UNL A   1      29.547  28.090  23.065  1.00  0.00    -0.302 N 
ATOM     13  O   UNL A   1      27.756  26.860  23.880  1.00  0.00    -0.274 OA
ATOM     14  C   UNL A   1      28.221  27.870  23.350  1.00  0.00     0.232 C 
ATOM     15  H   UNL A   1      29.815  28.965  22.699  1.00  0.00     0.172 HD
BRANCH  14  16
ATOM     16  C   UNL A   1      27.277  28.953  22.860  1.00  0.00     0.158 C 
BRANCH  16  17
ATOM     17  C   UNL A   1      27.891  30.249  22.434  1.00  0.00     0.071 A 
ATOM     18  C   UNL A   1      27.828  31.473  23.147  1.00  0.00     0.045 A 
ATOM     19  N   UNL A   1      28.511  30.406  21.252  1.00  0.00    -0.180 NA
ATOM     20  C   UNL A   1      28.470  32.388  22.351  1.00  0.00     0.105 A 
ATOM     21  N   UNL A   1      28.881  31.703  21.247  1.00  0.00    -0.285 N 
ATOM     22  H   UNL A   1      29.397  32.115  20.518  1.00  0.00     0.189 HD
ENDBRANCH  16  17
ENDBRANCH  14  16
ENDBRANCH   8  12
ENDBRANCH   6   7
ENDBRANCH   4   6
ENDBRANCH   3   4
ENDBRANCH   2   3
ENDBRANCH   1   2
BRANCH   1  23
ATOM     23  O   UNL A   1      32.261  29.513  26.104  1.00  0.00    -0.374 OA
BRANCH  23  24
ATOM     24  C   UNL A   1      31.383  30.622  25.929  1.00  0.00     0.202 C 
BRANCH  24  25
ATOM     25  C   UNL A   1      31.749  31.902  26.693  1.00  0.00     0.261 C 
BRANCH  25  26
ATOM     26  O   UNL A   1      33.148  32.222  26.576  1.00  0.00    -0.460 OA
BRANCH  26  27
ATOM     27  C   UNL A   1      33.660  32.903  27.629  1.00  0.00     0.338 C 
ATOM     28  O   UNL A   1      33.128  33.810  28.254  1.00  0.00    -0.246 OA
BRANCH  27  29
ATOM     29  C   UNL A   1      34.934  32.302  28.068  1.00  0.00     0.060 A 
ATOM     30  C   UNL A   1      34.898  30.971  28.504  1.00  0.00     0.016 A 
ATOM     31  C   UNL A   1      36.112  33.045  28.154  1.00  0.00     0.016 A 
ATOM     32  C   UNL A   1      36.025  30.396  29.089  1.00  0.00     0.010 A 
ATOM     33  C   UNL A   1      37.240  32.469  28.750  1.00  0.00     0.010 A 
ATOM     34  C   UNL A   1      37.187  31.157  29.258  1.00  0.00    -0.014 A 
BRANCH  34  35
ATOM     35  C   UNL A   1      38.279  30.639  30.120  1.00  0.00     0.031 A 
ATOM     36  C   UNL A   1      39.245  29.640  29.543  1.00  0.00     0.074 A 
ATOM     37  C   UNL A   1      38.437  31.078  31.379  1.00  0.00     0.049 A 
ATOM     38  N   UNL A   1      40.250  29.027  30.113  1.00  0.00    -0.248 NA
ATOM     39  C   UNL A   1      39.049  29.286  28.127  1.00  0.00     0.031 C 
ATOM     40  C   UNL A   1      37.603  32.083  32.033  1.00  0.00     0.029 A 
ATOM     41  N   UNL A   1      39.357  30.728  32.335  1.00  0.00    -0.354 N 
ATOM     42  C   UNL A   1      40.804  28.216  29.131  1.00  0.00     0.074 A 
ATOM     43  C   UNL A   1      40.006  28.391  27.937  1.00  0.00     0.031 C 
ATOM     44  C   UNL A   1      38.046  32.266  33.289  1.00  0.00     0.029 A 
ATOM     45  C   UNL A   1      39.172  31.367  33.535  1.00  0.00     0.049 A 
ATOM     46  H   UNL A   1      40.081  30.080  32.175  1.00  0.00     0.167 HD
ATOM     47  C   UNL A   1      41.885  27.405  29.215  1.00  0.00     0.037 A 
ATOM     48  C   UNL A   1      39.829  31.227  34.704  1.00  0.00     0.037 A 
ATOM     49  C   UNL A   1      42.677  27.228  30.404  1.00  0.00     0.049 A 
ATOM     50  C   UNL A   1      40.975  30.252  34.797  1.00  0.00     0.074 A 
ATOM     51  C   UNL A   1      43.790  26.427  30.591  1.00  0.00     0.029 A 
ATOM     52  N   UNL A   1      42.432  27.862  31.613  1.00  0.00    -0.354 N 
ATOM     53  N   UNL A   1      41.496  29.494  33.864  1.00  0.00    -0.248 NA
ATOM     54  C   UNL A   1      41.622  30.116  36.110  1.00  0.00     0.031 C 
ATOM     55  C   UNL A   1      44.193  26.545  31.926  1.00  0.00     0.029 A 
ATOM     56  C   UNL A   1      43.360  27.455  32.557  1.00  0.00     0.049 A 
ATOM     57  H   UNL A   1      41.706  28.506  31.777  1.00  0.00     0.167 HD
ATOM     58  C   UNL A   1      42.550  28.817  34.465  1.00  0.00     0.074 A 
ATOM     59  C   UNL A   1      42.597  29.257  35.844  1.00  0.00     0.031 C 
ATOM     60  C   UNL A   1      43.404  27.915  33.922  1.00  0.00     0.037 A 
BRANCH  47  61
ATOM     61  C   UNL A   1      42.257  26.624  27.990  1.00  0.00     0.064 A 
ATOM     62  C   UNL A   1      43.171  27.123  27.048  1.00  0.00     0.173 A 
ATOM     63  C   UNL A   1      41.707  25.355  27.761  1.00  0.00     0.173 A 
ATOM     64  F   UNL A   1      43.714  28.339  27.213  1.00  0.00    -0.203 F 
ATOM     65  C   UNL A   1      43.497  26.390  25.911  1.00  0.00     0.198 A 
ATOM     66  C   UNL A   1      42.057  24.614  26.636  1.00  0.00     0.198 A 
ATOM     67  F   UNL A   1      40.832  24.831  28.632  1.00  0.00    -0.203 F 
ATOM     68  F   UNL A   1      44.335  26.907  25.000  1.00  0.00    -0.200 F 
ATOM     69  C   UNL A   1      42.945  25.135  25.708  1.00  0.00     0.200 A 
ATOM     70  F   UNL A   1      41.529  23.396  26.446  1.00  0.00    -0.200 F 
ATOM     71  F   UNL A   1      43.261  24.430  24.612  1.00  0.00    -0.200 F 
ENDBRANCH  47  61
BRANCH  48  72
ATOM     72  C   UNL A   1      39.416  32.026  35.886  1.00  0.00     0.064 A 
ATOM     73  C   UNL A   1      38.403  31.577  36.742  1.00  0.00     0.173 A 
ATOM     74  C   UNL A   1      40.017  33.261  36.175  1.00  0.00     0.173 A 
ATOM     75  F   UNL A   1      37.779  30.416  36.490  1.00  0.00    -0.203 F 
ATOM     76  C   UNL A   1      37.996  32.336  37.837  1.00  0.00     0.198 A 
ATOM     77  C   UNL A   1      39.628  34.007  37.284  1.00  0.00     0.198 A 
ATOM     78  F   UNL A   1      40.986  33.737  35.382  1.00  0.00    -0.203 F 
ATOM     79  F   UNL A   1      36.997  31.904  38.617  1.00  0.00    -0.200 F 
ATOM     80  C   UNL A   1      38.614  33.548  38.111  1.00  0.00     0.200 A 
ATOM     81  F   UNL A   1      40.231  35.174  37.550  1.00  0.00    -0.200 F 
ATOM     82  F   UNL A   1      38.224  34.277  39.166  1.00  0.00    -0.200 F 
ENDBRANCH  48  72
BRANCH  60  83
ATOM     83  C   UNL A   1      44.493  27.376  34.801  1.00  0.00     0.064 A 
ATOM     84  C   UNL A   1      44.324  26.203  35.551  1.00  0.00     0.173 A 
ATOM     85  C   UNL A   1      45.743  28.013  34.850  1.00  0.00     0.173 A 
ATOM     86  F   UNL A   1      43.143  25.565  35.548  1.00  0.00    -0.203 F 
ATOM     87  C   UNL A   1      45.360  25.697  36.332  1.00  0.00     0.198 A 
ATOM     88  C   UNL A   1      46.785  27.490  35.611  1.00  0.00     0.198 A 
ATOM     89  F   UNL A   1      45.958  29.134  34.145  1.00  0.00    -0.203 F 
ATOM     90  F   UNL A   1      45.164  24.595  37.069  1.00  0.00    -0.200 F 
ATOM     91  C   UNL A   1      46.591  26.336  36.355  1.00  0.00     0.200 A 
ATOM     92  F   UNL A   1      47.977  28.102  35.621  1.00  0.00    -0.200 F 
ATOM     93  F   UNL A   1      47.590  25.842  37.099  1.00  0.00    -0.200 F 
ENDBRANCH  60  83
ENDBRANCH  34  35
ENDBRANCH  27  29
ENDBRANCH  26  27
ENDBRANCH  25  26
ENDBRANCH  24  25
ENDBRANCH  23  24
ENDBRANCH   1  23
TORSDOF 18
ENDMDL
MODEL 2
REMARK VINA RESULT:     -10.4      2.602      8.476
REMARK SMILES O=C(Cc1cc[nH]n1)Nc1nc(CC(=O)OCCOCCOC(=O)c2ccc(-c3c4nc(c(-c5c(F)c(F)c(F)c(F)c5F)c5ccc([nH]5)c(-c5c(F)c(F)c(F)c(F)c5F)c5nc(c(-c6c(F)c(F)c(F)c(F)c6F)c6ccc3[nH]6)C=C5)C=C4)cc2)cs1
REMARK SMILES IDX 18 1 17 2 16 3 14 4 15 5 13 6 12 7 10 8 11 9 89 10 88 11
REMARK SMILES IDX 9 12 1 13 2 14 3 16 4 17 5 18 8 19 6 20 7 21 19 23 20 24
REMARK SMILES IDX 21 25 22 26 23 27 24 28 25 29 26 30 87 31 27 32 86 33 28 34
REMARK SMILES IDX 29 35 30 36 80 37 31 38 85 39 79 40 81 41 32 42 84 43 78 44
REMARK SMILES IDX 77 45 33 47 65 48 45 49 64 50 46 51 49 52 63 53 82 54 47 55
REMARK SMILES IDX 48 56 62 58 83 59 50 60 34 61 35 62 43 63 36 64 37 65 41 66
REMARK SMILES IDX 44 67 38 68 39 69 42 70 40 71 66 72 67 73 75 74 68 75 69 76
REMARK SMILES IDX 73 77 76 78 70 79 71 80 74 81 72 82 51 83 52 84 60 85 53 86
REMARK SMILES IDX 54 87 58 88 61 89 55 90 56 91 59 92 57 93
REMARK H PARENT 9 15 7 22 81 46 49 57
REMARK Flexibility Score: inf
ROOT
ATOM      1  C   UNL A   1      34.030  29.452  27.247  1.00  0.00     0.202 C 
ENDROOT
BRANCH   1   2
ATOM      2  C   UNL A   1      34.014  28.137  26.460  1.00  0.00     0.261 C 
BRANCH   2   3
ATOM      3  O   UNL A   1      32.679  27.673  26.170  1.00  0.00    -0.463 OA
BRANCH   3   4
ATOM      4  C   UNL A   1      32.361  27.595  24.849  1.00  0.00     0.311 C 
ATOM      5  O   UNL A   1      32.916  28.251  23.970  1.00  0.00    -0.252 OA
BRANCH   4   6
ATOM      6  C   UNL A   1      31.225  26.665  24.515  1.00  0.00     0.179 C 
BRANCH   6   7
ATOM      7  C   UNL A   1      31.240  25.285  25.087  1.00  0.00     0.065 A 
ATOM      8  C   UNL A   1      32.255  23.344  25.396  1.00  0.00     0.189 A 
ATOM      9  N   UNL A   1      32.256  24.436  24.678  1.00  0.00    -0.224 NA
ATOM     10  S   UNL A   1      30.969  23.175  26.501  1.00  0.00    -0.105 S 
ATOM     11  C   UNL A   1      30.474  24.778  26.123  1.00  0.00     0.093 A 
BRANCH   8  12
ATOM     12  N   UNL A   1      33.154  22.321  25.398  1.00  0.00    -0.302 N 
ATOM     13  O   UNL A   1      32.404  21.286  23.461  1.00  0.00    -0.274 OA
ATOM     14  C   UNL A   1      33.145  21.332  24.444  1.00  0.00     0.232 C 
ATOM     15  H   UNL A   1      33.836  22.289  26.108  1.00  0.00     0.172 HD
BRANCH  14  16
ATOM     16  C   UNL A   1      34.079  20.169  24.726  1.00  0.00     0.158 C 
BRANCH  16  17
ATOM     17  C   UNL A   1      33.514  18.792  24.582  1.00  0.00     0.071 A 
ATOM     18  C   UNL A   1      34.124  17.711  23.896  1.00  0.00     0.045 A 
ATOM     19  N   UNL A   1      32.292  18.457  25.030  1.00  0.00    -0.180 NA
ATOM     20  C   UNL A   1      33.221  16.680  23.972  1.00  0.00     0.105 A 
ATOM     21  N   UNL A   1      32.159  17.161  24.676  1.00  0.00    -0.285 N 
ATOM     22  H   UNL A   1      31.372  16.617  24.905  1.00  0.00     0.189 HD
ENDBRANCH  16  17
ENDBRANCH  14  16
ENDBRANCH   8  12
ENDBRANCH   6   7
ENDBRANCH   4   6
ENDBRANCH   3   4
ENDBRANCH   2   3
ENDBRANCH   1   2
BRANCH   1  23
ATOM     23  O   UNL A   1      33.463  30.590  26.603  1.00  0.00    -0.374 OA
BRANCH  23  24
ATOM     24  C   UNL A   1      32.247  31.103  27.143  1.00  0.00     0.202 C 
BRANCH  24  25
ATOM     25  C   UNL A   1      31.997  32.603  26.940  1.00  0.00     0.261 C 
BRANCH  25  26
ATOM     26  O   UNL A   1      33.211  33.373  27.024  1.00  0.00    -0.460 OA
BRANCH  26  27
ATOM     27  C   UNL A   1      33.283  34.196  28.097  1.00  0.00     0.338 C 
ATOM     28  O   UNL A   1      32.528  35.117  28.376  1.00  0.00    -0.246 OA
BRANCH  27  29
ATOM     29  C   UNL A   1      34.333  33.744  29.030  1.00  0.00     0.060 A 
ATOM     30  C   UNL A   1      35.642  34.176  28.780  1.00  0.00     0.016 A 
ATOM     31  C   UNL A   1      34.069  32.839  30.059  1.00  0.00     0.016 A 
ATOM     32  C   UNL A   1      36.703  33.655  29.517  1.00  0.00     0.010 A 
ATOM     33  C   UNL A   1      35.137  32.308  30.791  1.00  0.00     0.010 A 
ATOM     34  C   UNL A   1      36.461  32.682  30.495  1.00  0.00    -0.014 A 
BRANCH  34  35
ATOM     35  C   UNL A   1      37.603  31.935  31.078  1.00  0.00     0.031 A 
ATOM     36  C   UNL A   1      38.027  32.245  32.488  1.00  0.00     0.074 A 
ATOM     37  C   UNL A   1      38.226  30.968  30.384  1.00  0.00     0.049 A 
ATOM     38  N   UNL A   1      39.013  31.747  33.190  1.00  0.00    -0.248 NA
ATOM     39  C   UNL A   1      37.229  33.254  33.202  1.00  0.00     0.031 C 
ATOM     40  C   UNL A   1      37.873  30.537  29.034  1.00  0.00     0.029 A 
ATOM     41  N   UNL A   1      39.293  30.175  30.725  1.00  0.00    -0.354 N 
ATOM     42  C   UNL A   1      38.954  32.382  34.424  1.00  0.00     0.074 A 
ATOM     43  C   UNL A   1      37.856  33.322  34.366  1.00  0.00     0.031 C 
ATOM     44  C   UNL A   1      38.714  29.559  28.656  1.00  0.00     0.029 A 
ATOM     45  C   UNL A   1      39.683  29.320  29.725  1.00  0.00     0.049 A 
ATOM     46  H   UNL A   1      39.737  30.216  31.603  1.00  0.00     0.167 HD
ATOM     47  C   UNL A   1      39.741  32.192  35.511  1.00  0.00     0.037 A 
ATOM     48  C   UNL A   1      40.717  28.457  29.675  1.00  0.00     0.037 A 
ATOM     49  C   UNL A   1      40.835  31.259  35.567  1.00  0.00     0.049 A 
ATOM     50  C   UNL A   1      41.631  28.326  30.866  1.00  0.00     0.074 A 
ATOM     51  C   UNL A   1      41.693  30.994  36.621  1.00  0.00     0.029 A 
ATOM     52  N   UNL A   1      41.225  30.440  34.518  1.00  0.00    -0.354 N 
ATOM     53  N   UNL A   1      41.567  28.924  32.030  1.00  0.00    -0.248 NA
ATOM     54  C   UNL A   1      42.764  27.398  30.732  1.00  0.00     0.031 C 
ATOM     55  C   UNL A   1      42.628  30.045  36.194  1.00  0.00     0.029 A 
ATOM     56  C   UNL A   1      42.324  29.684  34.892  1.00  0.00     0.049 A 
ATOM     57  H   UNL A   1      40.786  30.401  33.638  1.00  0.00     0.167 HD
ATOM     58  C   UNL A   1      42.625  28.423  32.777  1.00  0.00     0.074 A 
ATOM     59  C   UNL A   1      43.315  27.468  31.936  1.00  0.00     0.031 C 
ATOM     60  C   UNL A   1      42.989  28.725  34.048  1.00  0.00     0.037 A 
BRANCH  47  61
ATOM     61  C   UNL A   1      39.459  33.033  36.720  1.00  0.00     0.064 A 
ATOM     62  C   UNL A   1      40.137  34.240  36.951  1.00  0.00     0.173 A 
ATOM     63  C   UNL A   1      38.488  32.637  37.651  1.00  0.00     0.173 A 
ATOM     64  F   UNL A   1      41.087  34.655  36.099  1.00  0.00    -0.203 F 
ATOM     65  C   UNL A   1      39.872  35.004  38.084  1.00  0.00     0.198 A 
ATOM     66  C   UNL A   1      38.206  33.418  38.769  1.00  0.00     0.198 A 
ATOM     67  F   UNL A   1      37.809  31.494  37.475  1.00  0.00    -0.203 F 
ATOM     68  F   UNL A   1      40.566  36.128  38.310  1.00  0.00    -0.200 F 
ATOM     69  C   UNL A   1      38.904  34.596  38.989  1.00  0.00     0.200 A 
ATOM     70  F   UNL A   1      37.263  33.026  39.638  1.00  0.00    -0.200 F 
ATOM     71  F   UNL A   1      38.649  35.333  40.079  1.00  0.00    -0.200 F 
ENDBRANCH  47  61
BRANCH  48  72
ATOM     72  C   UNL A   1      40.948  27.649  28.450  1.00  0.00     0.064 A 
ATOM     73  C   UNL A   1      41.800  28.104  27.436  1.00  0.00     0.173 A 
ATOM     74  C   UNL A   1      40.312  26.412  28.263  1.00  0.00     0.173 A 
ATOM     75  F   UNL A   1      42.408  29.294  27.557  1.00  0.00    -0.203 F 
ATOM     76  C   UNL A   1      41.999  27.360  26.275  1.00  0.00     0.198 A 
ATOM     77  C   UNL A   1      40.531  25.657  27.114  1.00  0.00     0.198 A 
ATOM     78  F   UNL A   1      39.481  25.937  29.201  1.00  0.00    -0.203 F 
ATOM     79  F   UNL A   1      42.787  27.838  25.302  1.00  0.00    -0.200 F 
ATOM     80  C   UNL A   1      41.370  26.134  26.117  1.00  0.00     0.200 A 
ATOM     81  F   UNL A   1      39.926  24.470  26.968  1.00  0.00    -0.200 F 
ATOM     82  F   UNL A   1      41.564  25.418  25.001  1.00  0.00    -0.200 F 
ENDBRANCH  48  72
BRANCH  60  83
ATOM     83  C   UNL A   1      44.158  27.984  34.627  1.00  0.00     0.064 A 
ATOM     84  C   UNL A   1      44.005  26.744  35.264  1.00  0.00     0.173 A 
ATOM     85  C   UNL A   1      45.457  28.498  34.494  1.00  0.00     0.173 A 
ATOM     86  F   UNL A   1      42.782  26.217  35.428  1.00  0.00    -0.203 F 
ATOM     87  C   UNL A   1      45.107  26.054  35.762  1.00  0.00     0.198 A 
ATOM     88  C   UNL A   1      46.561  27.793  34.969  1.00  0.00     0.198 A 
ATOM     89  F   UNL A   1      45.659  29.677  33.886  1.00  0.00    -0.203 F 
ATOM     90  F   UNL A   1      44.933  24.888  36.399  1.00  0.00    -0.200 F 
ATOM     91  C   UNL A   1      46.383  26.575  35.607  1.00  0.00     0.200 A 
ATOM     92  F   UNL A   1      47.793  28.292  34.806  1.00  0.00    -0.200 F 
ATOM     93  F   UNL A   1      47.444  25.904  36.077  1.00  0.00    -0.200 F 
ENDBRANCH  60  83
ENDBRANCH  34  35
ENDBRANCH  27  29
ENDBRANCH  26  27
ENDBRANCH  25  26
ENDBRANCH  24  25
ENDBRANCH  23  24
ENDBRANCH   1  23
TORSDOF 18
ENDMDL
MODEL 3
REMARK VINA RESULT:     -10.3      2.890      8.558
REMARK SMILES O=C(Cc1cc[nH]n1)Nc1nc(CC(=O)OCCOCCOC(=O)c2ccc(-c3c4nc(c(-c5c(F)c(F)c(F)c(F)c5F)c5ccc([nH]5)c(-c5c(F)c(F)c(F)c(F)c5F)c5nc(c(-c6c(F)c(F)c(F)c(F)c6F)c6ccc3[nH]6)C=C5)C=C4)cc2)cs1
REMARK SMILES IDX 18 1 17 2 16 3 14 4 15 5 13 6 12 7 10 8 11 9 89 10 88 11
REMARK SMILES IDX 9 12 1 13 2 14 3 16 4 17 5 18 8 19 6 20 7 21 19 23 20 24
REMARK SMILES IDX 21 25 22 26 23 27 24 28 25 29 26 30 87 31 27 32 86 33 28 34
REMARK SMILES IDX 29 35 30 36 80 37 31 38 85 39 79 40 81 41 32 42 84 43 78 44
REMARK SMILES IDX 77 45 33 47 65 48 45 49 64 50 46 51 49 52 63 53 82 54 47 55
REMARK SMILES IDX 48 56 62 58 83 59 50 60 34 61 35 62 43 63 36 64 37 65 41 66
REMARK SMILES IDX 44 67 38 68 39 69 42 70 40 71 66 72 67 73 75 74 68 75 69 76
REMARK SMILES IDX 73 77 76 78 70 79 71 80 74 81 72 82 51 83 52 84 60 85 53 86
REMARK SMILES IDX 54 87 58 88 61 89 55 90 56 91 59 92 57 93
REMARK H PARENT 9 15 7 22 81 46 49 57
REMARK Flexibility Score: inf
ROOT
ATOM      1  C   UNL A   1      34.786  32.405  28.502  1.00  0.00     0.202 C 
ENDROOT
BRANCH   1   2
ATOM      2  C   UNL A   1      33.420  31.957  27.971  1.00  0.00     0.261 C 
BRANCH   2   3
ATOM      3  O   UNL A   1      33.521  31.077  26.832  1.00  0.00    -0.463 OA
BRANCH   3   4
ATOM      4  C   UNL A   1      32.988  29.837  27.004  1.00  0.00     0.311 C 
ATOM      5  O   UNL A   1      31.815  29.630  27.307  1.00  0.00    -0.252 OA
BRANCH   4   6
ATOM      6  C   UNL A   1      33.955  28.694  26.843  1.00  0.00     0.179 C 
BRANCH   6   7
ATOM      7  C   UNL A   1      33.685  27.674  25.786  1.00  0.00     0.065 A 
ATOM      8  C   UNL A   1      32.962  25.669  25.190  1.00  0.00     0.189 A 
ATOM      9  N   UNL A   1      33.354  26.394  26.204  1.00  0.00    -0.224 NA
ATOM     10  S   UNL A   1      33.095  26.395  23.654  1.00  0.00    -0.105 S 
ATOM     11  C   UNL A   1      33.540  27.868  24.422  1.00  0.00     0.093 A 
BRANCH   8  12
ATOM     12  N   UNL A   1      32.441  24.411  25.189  1.00  0.00    -0.302 N 
ATOM     13  O   UNL A   1      30.583  24.877  26.500  1.00  0.00    -0.274 OA
ATOM     14  C   UNL A   1      31.297  24.088  25.880  1.00  0.00     0.232 C 
ATOM     15  H   UNL A   1      32.899  23.708  24.674  1.00  0.00     0.172 HD
BRANCH  14  16
ATOM     16  C   UNL A   1      30.988  22.603  25.935  1.00  0.00     0.158 C 
BRANCH  16  17
ATOM     17  C   UNL A   1      32.141  21.661  25.788  1.00  0.00     0.071 A 
ATOM     18  C   UNL A   1      32.240  20.610  24.842  1.00  0.00     0.045 A 
ATOM     19  N   UNL A   1      33.194  21.666  26.622  1.00  0.00    -0.180 NA
ATOM     20  C   UNL A   1      33.428  19.984  25.121  1.00  0.00     0.105 A 
ATOM     21  N   UNL A   1      33.973  20.661  26.169  1.00  0.00    -0.285 N 
ATOM     22  H   UNL A   1      34.849  20.439  26.559  1.00  0.00     0.189 HD
ENDBRANCH  16  17
ENDBRANCH  14  16
ENDBRANCH   8  12
ENDBRANCH   6   7
ENDBRANCH   4   6
ENDBRANCH   3   4
ENDBRANCH   2   3
ENDBRANCH   1   2
BRANCH   1  23
ATOM     23  O   UNL A   1      34.861  33.720  29.046  1.00  0.00    -0.374 OA
BRANCH  23  24
ATOM     24  C   UNL A   1      34.173  34.753  28.345  1.00  0.00     0.202 C 
BRANCH  24  25
ATOM     25  C   UNL A   1      33.262  35.654  29.189  1.00  0.00     0.261 C 
BRANCH  25  26
ATOM     26  O   UNL A   1      32.647  34.938  30.277  1.00  0.00    -0.460 OA
BRANCH  26  27
ATOM     27  C   UNL A   1      32.801  35.517  31.491  1.00  0.00     0.338 C 
ATOM     28  O   UNL A   1      32.065  36.338  32.019  1.00  0.00    -0.246 OA
BRANCH  27  29
ATOM     29  C   UNL A   1      33.928  34.904  32.221  1.00  0.00     0.060 A 
ATOM     30  C   UNL A   1      35.172  35.542  32.132  1.00  0.00     0.016 A 
ATOM     31  C   UNL A   1      33.802  33.684  32.887  1.00  0.00     0.016 A 
ATOM     32  C   UNL A   1      36.310  34.930  32.654  1.00  0.00     0.010 A 
ATOM     33  C   UNL A   1      34.947  33.066  33.402  1.00  0.00     0.010 A 
ATOM     34  C   UNL A   1      36.211  33.667  33.250  1.00  0.00    -0.014 A 
BRANCH  34  35
ATOM     35  C   UNL A   1      37.448  32.904  33.551  1.00  0.00     0.031 A 
ATOM     36  C   UNL A   1      38.167  33.172  34.845  1.00  0.00     0.074 A 
ATOM     37  C   UNL A   1      37.903  31.960  32.710  1.00  0.00     0.049 A 
ATOM     38  N   UNL A   1      39.278  32.655  35.304  1.00  0.00    -0.248 NA
ATOM     39  C   UNL A   1      37.545  34.157  35.745  1.00  0.00     0.031 C 
ATOM     40  C   UNL A   1      37.267  31.570  31.456  1.00  0.00     0.029 A 
ATOM     41  N   UNL A   1      39.015  31.160  32.790  1.00  0.00    -0.354 N 
ATOM     42  C   UNL A   1      39.489  33.251  36.540  1.00  0.00     0.074 A 
ATOM     43  C   UNL A   1      38.409  34.191  36.749  1.00  0.00     0.031 C 
ATOM     44  C   UNL A   1      38.002  30.606  30.876  1.00  0.00     0.029 A 
ATOM     45  C   UNL A   1      39.177  30.336  31.704  1.00  0.00     0.049 A 
ATOM     46  H   UNL A   1      39.637  31.174  33.553  1.00  0.00     0.167 HD
ATOM     47  C   UNL A   1      40.490  33.030  37.426  1.00  0.00     0.037 A 
ATOM     48  C   UNL A   1      40.171  29.477  31.407  1.00  0.00     0.037 A 
ATOM     49  C   UNL A   1      41.566  32.098  37.218  1.00  0.00     0.049 A 
ATOM     50  C   UNL A   1      41.320  29.311  32.369  1.00  0.00     0.074 A 
ATOM     51  C   UNL A   1      42.629  31.802  38.054  1.00  0.00     0.029 A 
ATOM     52  N   UNL A   1      41.718  31.312  36.085  1.00  0.00    -0.354 N 
ATOM     53  N   UNL A   1      41.510  29.873  33.537  1.00  0.00    -0.248 NA
ATOM     54  C   UNL A   1      42.393  28.390  31.967  1.00  0.00     0.031 C 
ATOM     55  C   UNL A   1      43.446  30.869  37.408  1.00  0.00     0.029 A 
ATOM     56  C   UNL A   1      42.868  30.547  36.191  1.00  0.00     0.049 A 
ATOM     57  H   UNL A   1      41.100  31.299  35.319  1.00  0.00     0.167 HD
ATOM     58  C   UNL A   1      42.702  29.352  34.024  1.00  0.00     0.074 A 
ATOM     59  C   UNL A   1      43.191  28.424  33.025  1.00  0.00     0.031 C 
ATOM     60  C   UNL A   1      43.332  29.615  35.195  1.00  0.00     0.037 A 
BRANCH  47  61
ATOM     61  C   UNL A   1      40.479  33.833  38.693  1.00  0.00     0.064 A 
ATOM     62  C   UNL A   1      41.230  35.011  38.824  1.00  0.00     0.173 A 
ATOM     63  C   UNL A   1      39.694  33.430  39.783  1.00  0.00     0.173 A 
ATOM     64  F   UNL A   1      42.009  35.431  37.815  1.00  0.00    -0.203 F 
ATOM     65  C   UNL A   1      41.218  35.739  40.010  1.00  0.00     0.198 A 
ATOM     66  C   UNL A   1      39.663  34.176  40.958  1.00  0.00     0.198 A 
ATOM     67  F   UNL A   1      38.955  32.314  39.709  1.00  0.00    -0.203 F 
ATOM     68  F   UNL A   1      41.980  36.835  40.130  1.00  0.00    -0.200 F 
ATOM     69  C   UNL A   1      40.431  35.325  41.074  1.00  0.00     0.200 A 
ATOM     70  F   UNL A   1      38.894  33.779  41.983  1.00  0.00    -0.200 F 
ATOM     71  F   UNL A   1      40.419  36.028  42.215  1.00  0.00    -0.200 F 
ENDBRANCH  47  61
BRANCH  48  72
ATOM     72  C   UNL A   1      40.131  28.707  30.137  1.00  0.00     0.064 A 
ATOM     73  C   UNL A   1      40.705  29.217  28.965  1.00  0.00     0.173 A 
ATOM     74  C   UNL A   1      39.505  27.453  30.066  1.00  0.00     0.173 A 
ATOM     75  F   UNL A   1      41.289  30.425  28.978  1.00  0.00    -0.203 F 
ATOM     76  C   UNL A   1      40.646  28.509  27.767  1.00  0.00     0.198 A 
ATOM     77  C   UNL A   1      39.468  26.734  28.874  1.00  0.00     0.198 A 
ATOM     78  F   UNL A   1      38.934  26.926  31.158  1.00  0.00    -0.203 F 
ATOM     79  F   UNL A   1      41.167  29.037  26.652  1.00  0.00    -0.200 F 
ATOM     80  C   UNL A   1      40.033  27.265  27.724  1.00  0.00     0.200 A 
ATOM     81  F   UNL A   1      38.881  25.530  28.837  1.00  0.00    -0.200 F 
ATOM     82  F   UNL A   1      39.979  26.583  26.571  1.00  0.00    -0.200 F 
ENDBRANCH  48  72
BRANCH  60  83
ATOM     83  C   UNL A   1      44.594  28.860  35.487  1.00  0.00     0.064 A 
ATOM     84  C   UNL A   1      44.577  27.610  36.124  1.00  0.00     0.173 A 
ATOM     85  C   UNL A   1      45.835  29.369  35.074  1.00  0.00     0.173 A 
ATOM     86  F   UNL A   1      43.417  27.087  36.550  1.00  0.00    -0.203 F 
ATOM     87  C   UNL A   1      45.757  26.907  36.351  1.00  0.00     0.198 A 
ATOM     88  C   UNL A   1      47.011  28.651  35.279  1.00  0.00     0.198 A 
ATOM     89  F   UNL A   1      45.906  30.557  34.453  1.00  0.00    -0.203 F 
ATOM     90  F   UNL A   1      45.720  25.731  36.994  1.00  0.00    -0.200 F 
ATOM     91  C   UNL A   1      46.970  27.423  35.922  1.00  0.00     0.200 A 
ATOM     92  F   UNL A   1      48.180  29.147  34.852  1.00  0.00    -0.200 F 
ATOM     93  F   UNL A   1      48.104  26.740  36.133  1.00  0.00    -0.200 F 
ENDBRANCH  60  83
ENDBRANCH  34  35
ENDBRANCH  27  29
ENDBRANCH  26  27
ENDBRANCH  25  26
ENDBRANCH  24  25
ENDBRANCH  23  24
ENDBRANCH   1  23
TORSDOF 18
ENDMDL
