MODEL 1
REMARK VINA RESULT:     -11.6      0.000      0.000
REMARK SMILES O=C(OCCOCCOC(=O)c1ccc(NC(=O)c2ccc([N+](=O)[O-])cc2Cl)cc1Cl)c1ccc(-c2c3nc(c(-c4c(F)c(F)c(F)c(F)c4F)c4ccc([nH]4)c(-c4c(F)c(F)c(F)c(F)c4F)c4nc(c(-c5c(F)c(F)c(F)c(F)c5F)c5ccc2[nH]5)C=C4)C=C3)cc1
REMARK SMILES IDX 7 1 6 2 5 3 4 4 3 5 2 6 1 7 32 8 33 9 94 10 34 11 93 12
REMARK SMILES IDX 35 13 36 14 37 15 87 16 38 17 92 18 86 19 88 20 39 21 91 22
REMARK SMILES IDX 85 23 84 24 40 26 72 27 52 28 71 29 53 30 56 31 70 32 89 33
REMARK SMILES IDX 54 34 55 35 69 37 90 38 57 39 41 40 42 41 50 42 43 43 44 44
REMARK SMILES IDX 48 45 51 46 45 47 46 48 49 49 47 50 73 51 74 52 82 53 75 54
REMARK SMILES IDX 76 55 80 56 83 57 77 58 78 59 81 60 79 61 58 62 59 63 67 64
REMARK SMILES IDX 60 65 61 66 65 67 68 68 62 69 63 70 66 71 64 72 8 73 9 74
REMARK SMILES IDX 10 75 11 76 12 77 13 78 30 79 14 80 29 81 31 82 15 83 16 84
REMARK SMILES IDX 17 85 18 87 19 88 20 89 27 90 21 91 26 92 28 93 22 94 23 95
REMARK SMILES IDX 24 96 25 97
REMARK H PARENT 88 25 56 36 16 86
REMARK Flexibility Score: inf
ROOT
ATOM      1  C   UNL A   1      33.618  28.592  23.358  1.00  0.00     0.202 C 
ENDROOT
BRANCH   1   2
ATOM      2  O   UNL A   1      32.272  28.624  23.856  1.00  0.00    -0.374 OA
BRANCH   2   3
ATOM      3  C   UNL A   1      32.142  28.392  25.261  1.00  0.00     0.202 C 
BRANCH   3   4
ATOM      4  C   UNL A   1      31.738  29.625  26.080  1.00  0.00     0.261 C 
BRANCH   4   5
ATOM      5  O   UNL A   1      32.748  30.646  25.999  1.00  0.00    -0.460 OA
BRANCH   5   6
ATOM      6  C   UNL A   1      33.289  31.390  26.992  1.00  0.00     0.338 C 
ATOM      7  O   UNL A   1      32.733  32.438  27.311  1.00  0.00    -0.246 OA
BRANCH   6   8
ATOM      8  C   UNL A   1      34.546  31.022  27.716  1.00  0.00     0.060 A 
ATOM      9  C   UNL A   1      34.887  29.729  28.111  1.00  0.00     0.016 A 
ATOM     10  C   UNL A   1      35.494  32.040  27.924  1.00  0.00     0.016 A 
ATOM     11  C   UNL A   1      36.087  29.456  28.750  1.00  0.00     0.010 A 
ATOM     12  C   UNL A   1      36.733  31.766  28.517  1.00  0.00     0.010 A 
ATOM     13  C   UNL A   1      37.024  30.467  28.942  1.00  0.00    -0.014 A 
BRANCH  13  14
ATOM     14  C   UNL A   1      38.270  30.108  29.642  1.00  0.00     0.031 A 
ATOM     15  C   UNL A   1      38.479  30.595  31.041  1.00  0.00     0.074 A 
ATOM     16  C   UNL A   1      39.097  29.209  29.076  1.00  0.00     0.049 A 
ATOM     17  N   UNL A   1      39.467  30.357  31.860  1.00  0.00    -0.248 NA
ATOM     18  C   UNL A   1      37.420  31.449  31.603  1.00  0.00     0.031 C 
ATOM     19  C   UNL A   1      38.899  28.601  27.757  1.00  0.00     0.029 A 
ATOM     20  N   UNL A   1      40.236  28.614  29.547  1.00  0.00    -0.354 N 
ATOM     21  C   UNL A   1      39.154  31.033  33.030  1.00  0.00     0.074 A 
ATOM     22  C   UNL A   1      37.893  31.705  32.814  1.00  0.00     0.031 C 
ATOM     23  C   UNL A   1      39.862  27.691  27.543  1.00  0.00     0.029 A 
ATOM     24  C   UNL A   1      40.779  27.701  28.676  1.00  0.00     0.049 A 
ATOM     25  H   UNL A   1      40.628  28.820  30.427  1.00  0.00     0.167 HD
ATOM     26  C   UNL A   1      39.867  31.085  34.179  1.00  0.00     0.037 A 
ATOM     27  C   UNL A   1      41.911  26.978  28.780  1.00  0.00     0.037 A 
ATOM     28  C   UNL A   1      41.126  30.415  34.359  1.00  0.00     0.049 A 
ATOM     29  C   UNL A   1      42.730  27.135  30.033  1.00  0.00     0.074 A 
ATOM     30  C   UNL A   1      41.988  30.464  35.438  1.00  0.00     0.029 A 
ATOM     31  N   UNL A   1      41.700  29.565  33.422  1.00  0.00    -0.354 N 
ATOM     32  N   UNL A   1      42.467  27.836  31.112  1.00  0.00    -0.248 NA
ATOM     33  C   UNL A   1      44.007  26.415  30.082  1.00  0.00     0.031 C 
ATOM     34  C   UNL A   1      43.102  29.671  35.139  1.00  0.00     0.029 A 
ATOM     35  C   UNL A   1      42.912  29.091  33.893  1.00  0.00     0.049 A 
ATOM     36  H   UNL A   1      41.302  29.333  32.553  1.00  0.00     0.167 HD
ATOM     37  C   UNL A   1      43.540  27.637  31.968  1.00  0.00     0.074 A 
ATOM     38  C   UNL A   1      44.439  26.720  31.297  1.00  0.00     0.031 C 
ATOM     39  C   UNL A   1      43.774  28.174  33.191  1.00  0.00     0.037 A 
BRANCH  26  40
ATOM     40  C   UNL A   1      39.322  31.937  35.285  1.00  0.00     0.064 A 
ATOM     41  C   UNL A   1      39.639  33.298  35.394  1.00  0.00     0.173 A 
ATOM     42  C   UNL A   1      38.486  31.376  36.262  1.00  0.00     0.173 A 
ATOM     43  F   UNL A   1      40.459  33.875  34.502  1.00  0.00    -0.203 F 
ATOM     44  C   UNL A   1      39.154  34.064  36.452  1.00  0.00     0.198 A 
ATOM     45  C   UNL A   1      37.984  32.149  37.305  1.00  0.00     0.198 A 
ATOM     46  F   UNL A   1      38.160  30.076  36.208  1.00  0.00    -0.203 F 
ATOM     47  F   UNL A   1      39.510  35.352  36.565  1.00  0.00    -0.200 F 
ATOM     48  C   UNL A   1      38.324  33.491  37.404  1.00  0.00     0.200 A 
ATOM     49  F   UNL A   1      37.182  31.593  38.223  1.00  0.00    -0.200 F 
ATOM     50  F   UNL A   1      37.862  34.226  38.425  1.00  0.00    -0.200 F 
ENDBRANCH  26  40
BRANCH  27  51
ATOM     51  C   UNL A   1      42.360  26.105  27.662  1.00  0.00     0.064 A 
ATOM     52  C   UNL A   1      41.900  24.788  27.528  1.00  0.00     0.173 A 
ATOM     53  C   UNL A   1      43.299  26.560  26.721  1.00  0.00     0.173 A 
ATOM     54  F   UNL A   1      41.021  24.291  28.411  1.00  0.00    -0.203 F 
ATOM     55  C   UNL A   1      42.381  23.954  26.518  1.00  0.00     0.198 A 
ATOM     56  C   UNL A   1      43.751  25.738  25.691  1.00  0.00     0.198 A 
ATOM     57  F   UNL A   1      43.779  27.810  26.801  1.00  0.00    -0.203 F 
ATOM     58  F   UNL A   1      41.970  22.680  26.452  1.00  0.00    -0.200 F 
ATOM     59  C   UNL A   1      43.302  24.431  25.598  1.00  0.00     0.200 A 
ATOM     60  F   UNL A   1      44.631  26.211  24.798  1.00  0.00    -0.200 F 
ATOM     61  F   UNL A   1      43.767  23.628  24.631  1.00  0.00    -0.200 F 
ENDBRANCH  27  51
BRANCH  39  62
ATOM     62  C   UNL A   1      45.043  27.761  33.872  1.00  0.00     0.064 A 
ATOM     63  C   UNL A   1      46.230  28.490  33.711  1.00  0.00     0.173 A 
ATOM     64  C   UNL A   1      45.064  26.640  34.714  1.00  0.00     0.173 A 
ATOM     65  F   UNL A   1      46.261  29.560  32.902  1.00  0.00    -0.203 F 
ATOM     66  C   UNL A   1      47.401  28.094  34.347  1.00  0.00     0.198 A 
ATOM     67  C   UNL A   1      46.230  26.264  35.372  1.00  0.00     0.198 A 
ATOM     68  F   UNL A   1      43.950  25.915  34.903  1.00  0.00    -0.203 F 
ATOM     69  F   UNL A   1      48.537  28.773  34.139  1.00  0.00    -0.200 F 
ATOM     70  C   UNL A   1      47.399  26.985  35.182  1.00  0.00     0.200 A 
ATOM     71  F   UNL A   1      46.222  25.201  36.188  1.00  0.00    -0.200 F 
ATOM     72  F   UNL A   1      48.527  26.607  35.797  1.00  0.00    -0.200 F 
ENDBRANCH  39  62
ENDBRANCH  13  14
ENDBRANCH   6   8
ENDBRANCH   5   6
ENDBRANCH   4   5
ENDBRANCH   3   4
ENDBRANCH   2   3
ENDBRANCH   1   2
BRANCH   1  73
ATOM     73  C   UNL A   1      33.647  27.872  22.009  1.00  0.00     0.261 C 
BRANCH  73  74
ATOM     74  O   UNL A   1      33.429  26.477  22.264  1.00  0.00    -0.460 OA
BRANCH  74  75
ATOM     75  C   UNL A   1      32.260  25.971  21.803  1.00  0.00     0.339 C 
ATOM     76  O   UNL A   1      31.601  26.361  20.858  1.00  0.00    -0.246 OA
BRANCH  75  77
ATOM     77  C   UNL A   1      32.062  24.657  22.449  1.00  0.00     0.078 A 
ATOM     78  C   UNL A   1      32.903  23.621  22.018  1.00  0.00     0.019 A 
ATOM     79  C   UNL A   1      31.174  24.426  23.498  1.00  0.00     0.057 A 
ATOM     80  C   UNL A   1      32.911  22.390  22.680  1.00  0.00     0.027 A 
ATOM     81  C   UNL A   1      31.196  23.192  24.161  1.00  0.00     0.047 A 
ATOM     82  Cl  UNL A   1      30.005  25.586  24.019  1.00  0.00    -0.083 Cl
ATOM     83  C   UNL A   1      32.094  22.180  23.788  1.00  0.00     0.043 A 
BRANCH  83  84
ATOM     84  N   UNL A   1      32.075  21.009  24.568  1.00  0.00    -0.322 N 
ATOM     85  C   UNL A   1      33.037  20.327  25.274  1.00  0.00     0.257 C 
ATOM     86  H   UNL A   1      31.185  20.590  24.619  1.00  0.00     0.170 HD
ATOM     87  O   UNL A   1      32.784  19.223  25.751  1.00  0.00    -0.269 OA
BRANCH  85  88
ATOM     88  C   UNL A   1      34.382  20.872  25.502  1.00  0.00     0.059 A 
ATOM     89  C   UNL A   1      35.447  20.230  24.850  1.00  0.00     0.022 A 
ATOM     90  C   UNL A   1      34.626  21.951  26.362  1.00  0.00     0.060 A 
ATOM     91  C   UNL A   1      36.749  20.712  24.996  1.00  0.00     0.086 A 
ATOM     92  C   UNL A   1      35.928  22.438  26.511  1.00  0.00     0.107 A 
ATOM     93  Cl  UNL A   1      33.375  22.728  27.262  1.00  0.00    -0.083 Cl
ATOM     94  C   UNL A   1      36.980  21.826  25.813  1.00  0.00     0.270 A 
BRANCH  94  95
ATOM     95  N   UNL A   1      38.336  22.376  25.925  1.00  0.00     0.062 N 
ATOM     96  O   UNL A   1      38.453  23.606  26.006  1.00  0.00    -0.258 OA
ATOM     97  O   UNL A   1      39.276  21.569  25.955  1.00  0.00    -0.258 OA
ENDBRANCH  94  95
ENDBRANCH  85  88
ENDBRANCH  83  84
ENDBRANCH  75  77
ENDBRANCH  74  75
ENDBRANCH  73  74
ENDBRANCH   1  73
TORSDOF 17
ENDMDL
MODEL 2
REMARK VINA RESULT:     -11.6      1.354      2.780
REMARK SMILES O=C(OCCOCCOC(=O)c1ccc(NC(=O)c2ccc([N+](=O)[O-])cc2Cl)cc1Cl)c1ccc(-c2c3nc(c(-c4c(F)c(F)c(F)c(F)c4F)c4ccc([nH]4)c(-c4c(F)c(F)c(F)c(F)c4F)c4nc(c(-c5c(F)c(F)c(F)c(F)c5F)c5ccc2[nH]5)C=C4)C=C3)cc1
REMARK SMILES IDX 7 1 6 2 5 3 4 4 3 5 2 6 1 7 32 8 33 9 94 10 34 11 93 12
REMARK SMILES IDX 35 13 36 14 37 15 87 16 38 17 92 18 86 19 88 20 39 21 91 22
REMARK SMILES IDX 85 23 84 24 40 26 72 27 52 28 71 29 53 30 56 31 70 32 89 33
REMARK SMILES IDX 54 34 55 35 69 37 90 38 57 39 41 40 42 41 50 42 43 43 44 44
REMARK SMILES IDX 48 45 51 46 45 47 46 48 49 49 47 50 73 51 74 52 82 53 75 54
REMARK SMILES IDX 76 55 80 56 83 57 77 58 78 59 81 60 79 61 58 62 59 63 67 64
REMARK SMILES IDX 60 65 61 66 65 67 68 68 62 69 63 70 66 71 64 72 8 73 9 74
REMARK SMILES IDX 10 75 11 76 12 77 13 78 30 79 14 80 29 81 31 82 15 83 16 84
REMARK SMILES IDX 17 85 18 87 19 88 20 89 27 90 21 91 26 92 28 93 22 94 23 95
REMARK SMILES IDX 24 96 25 97
REMARK H PARENT 88 25 56 36 16 86
REMARK Flexibility Score: inf
ROOT
ATOM      1  C   UNL A   1      31.046  28.854  22.791  1.00  0.00     0.202 C 
ENDROOT
BRANCH   1   2
ATOM      2  O   UNL A   1      30.681  28.874  24.180  1.00  0.00    -0.374 OA
BRANCH   2   3
ATOM      3  C   UNL A   1      31.781  28.894  25.093  1.00  0.00     0.202 C 
BRANCH   3   4
ATOM      4  C   UNL A   1      31.778  30.073  26.075  1.00  0.00     0.261 C 
BRANCH   4   5
ATOM      5  O   UNL A   1      33.087  30.663  26.169  1.00  0.00    -0.460 OA
BRANCH   5   6
ATOM      6  C   UNL A   1      33.624  31.389  27.177  1.00  0.00     0.338 C 
ATOM      7  O   UNL A   1      33.064  32.429  27.515  1.00  0.00    -0.246 OA
BRANCH   6   8
ATOM      8  C   UNL A   1      34.880  31.011  27.897  1.00  0.00     0.060 A 
ATOM      9  C   UNL A   1      35.166  29.735  28.381  1.00  0.00     0.016 A 
ATOM     10  C   UNL A   1      35.884  31.991  28.005  1.00  0.00     0.016 A 
ATOM     11  C   UNL A   1      36.368  29.448  29.010  1.00  0.00     0.010 A 
ATOM     12  C   UNL A   1      37.123  31.697  28.587  1.00  0.00     0.010 A 
ATOM     13  C   UNL A   1      37.360  30.420  29.102  1.00  0.00    -0.014 A 
BRANCH  13  14
ATOM     14  C   UNL A   1      38.605  30.049  29.798  1.00  0.00     0.031 A 
ATOM     15  C   UNL A   1      38.830  30.547  31.191  1.00  0.00     0.074 A 
ATOM     16  C   UNL A   1      39.415  29.133  29.235  1.00  0.00     0.049 A 
ATOM     17  N   UNL A   1      39.820  30.302  32.006  1.00  0.00    -0.248 NA
ATOM     18  C   UNL A   1      37.787  31.422  31.752  1.00  0.00     0.031 C 
ATOM     19  C   UNL A   1      39.200  28.515  27.924  1.00  0.00     0.029 A 
ATOM     20  N   UNL A   1      40.548  28.526  29.705  1.00  0.00    -0.354 N 
ATOM     21  C   UNL A   1      39.524  30.995  33.171  1.00  0.00     0.074 A 
ATOM     22  C   UNL A   1      38.271  31.683  32.957  1.00  0.00     0.031 C 
ATOM     23  C   UNL A   1      40.148  27.590  27.713  1.00  0.00     0.029 A 
ATOM     24  C   UNL A   1      41.073  27.597  28.839  1.00  0.00     0.049 A 
ATOM     25  H   UNL A   1      40.949  28.735  30.580  1.00  0.00     0.167 HD
ATOM     26  C   UNL A   1      40.245  31.047  34.315  1.00  0.00     0.037 A 
ATOM     27  C   UNL A   1      42.194  26.859  28.944  1.00  0.00     0.037 A 
ATOM     28  C   UNL A   1      41.496  30.360  34.494  1.00  0.00     0.049 A 
ATOM     29  C   UNL A   1      43.024  27.015  30.190  1.00  0.00     0.074 A 
ATOM     30  C   UNL A   1      42.366  30.406  35.567  1.00  0.00     0.029 A 
ATOM     31  N   UNL A   1      42.051  29.493  33.561  1.00  0.00    -0.354 N 
ATOM     32  N   UNL A   1      42.778  27.730  31.263  1.00  0.00    -0.248 NA
ATOM     33  C   UNL A   1      44.290  26.277  30.237  1.00  0.00     0.031 C 
ATOM     34  C   UNL A   1      43.466  29.595  35.268  1.00  0.00     0.029 A 
ATOM     35  C   UNL A   1      43.260  29.006  34.029  1.00  0.00     0.049 A 
ATOM     36  H   UNL A   1      41.644  29.259  32.697  1.00  0.00     0.167 HD
ATOM     37  C   UNL A   1      43.853  27.525  32.114  1.00  0.00     0.074 A 
ATOM     38  C   UNL A   1      44.735  26.587  31.447  1.00  0.00     0.031 C 
ATOM     39  C   UNL A   1      44.103  28.070  33.330  1.00  0.00     0.037 A 
BRANCH  26  40
ATOM     40  C   UNL A   1      39.720  31.917  35.416  1.00  0.00     0.064 A 
ATOM     41  C   UNL A   1      38.758  31.459  36.326  1.00  0.00     0.173 A 
ATOM     42  C   UNL A   1      40.176  33.237  35.550  1.00  0.00     0.173 A 
ATOM     43  F   UNL A   1      38.268  30.214  36.222  1.00  0.00    -0.203 F 
ATOM     44  C   UNL A   1      38.253  32.297  37.318  1.00  0.00     0.198 A 
ATOM     45  C   UNL A   1      39.687  34.065  36.557  1.00  0.00     0.198 A 
ATOM     46  F   UNL A   1      41.090  33.727  34.700  1.00  0.00    -0.203 F 
ATOM     47  F   UNL A   1      37.296  31.854  38.147  1.00  0.00    -0.200 F 
ATOM     48  C   UNL A   1      38.721  33.597  37.436  1.00  0.00     0.200 A 
ATOM     49  F   UNL A   1      40.141  35.321  36.669  1.00  0.00    -0.200 F 
ATOM     50  F   UNL A   1      38.232  34.405  38.388  1.00  0.00    -0.200 F 
ENDBRANCH  26  40
BRANCH  27  51
ATOM     51  C   UNL A   1      42.623  25.968  27.831  1.00  0.00     0.064 A 
ATOM     52  C   UNL A   1      43.520  26.403  26.846  1.00  0.00     0.173 A 
ATOM     53  C   UNL A   1      42.107  24.667  27.706  1.00  0.00     0.173 A 
ATOM     54  F   UNL A   1      44.027  27.644  26.902  1.00  0.00    -0.203 F 
ATOM     55  C   UNL A   1      43.861  25.586  25.768  1.00  0.00     0.198 A 
ATOM     56  C   UNL A   1      42.477  23.839  26.649  1.00  0.00     0.198 A 
ATOM     57  F   UNL A   1      41.241  24.197  28.615  1.00  0.00    -0.203 F 
ATOM     58  F   UNL A   1      44.673  26.051  24.808  1.00  0.00    -0.200 F 
ATOM     59  C   UNL A   1      43.343  24.303  25.673  1.00  0.00     0.200 A 
ATOM     60  F   UNL A   1      41.982  22.596  26.570  1.00  0.00    -0.200 F 
ATOM     61  F   UNL A   1      43.668  23.521  24.634  1.00  0.00    -0.200 F 
ENDBRANCH  27  51
BRANCH  39  62
ATOM     62  C   UNL A   1      45.371  27.644  34.007  1.00  0.00     0.064 A 
ATOM     63  C   UNL A   1      45.412  26.516  34.839  1.00  0.00     0.173 A 
ATOM     64  C   UNL A   1      46.560  28.357  33.800  1.00  0.00     0.173 A 
ATOM     65  F   UNL A   1      44.294  25.813  35.079  1.00  0.00    -0.203 F 
ATOM     66  C   UNL A   1      46.594  26.133  35.463  1.00  0.00     0.198 A 
ATOM     67  C   UNL A   1      47.747  27.954  34.401  1.00  0.00     0.198 A 
ATOM     68  F   UNL A   1      46.570  29.440  33.007  1.00  0.00    -0.203 F 
ATOM     69  F   UNL A   1      46.600  25.084  36.295  1.00  0.00    -0.200 F 
ATOM     70  C   UNL A   1      47.761  26.849  35.238  1.00  0.00     0.200 A 
ATOM     71  F   UNL A   1      48.876  28.638  34.174  1.00  0.00    -0.200 F 
ATOM     72  F   UNL A   1      48.901  26.476  35.837  1.00  0.00    -0.200 F 
ENDBRANCH  39  62
ENDBRANCH  13  14
ENDBRANCH   6   8
ENDBRANCH   5   6
ENDBRANCH   4   5
ENDBRANCH   3   4
ENDBRANCH   2   3
ENDBRANCH   1   2
BRANCH   1  73
ATOM     73  C   UNL A   1      32.190  27.863  22.578  1.00  0.00     0.261 C 
BRANCH  73  74
ATOM     74  O   UNL A   1      31.629  26.682  21.987  1.00  0.00    -0.460 OA
BRANCH  74  75
ATOM     75  C   UNL A   1      32.522  25.759  21.554  1.00  0.00     0.339 C 
ATOM     76  O   UNL A   1      33.139  25.755  20.506  1.00  0.00    -0.246 OA
BRANCH  75  77
ATOM     77  C   UNL A   1      32.865  24.901  22.707  1.00  0.00     0.078 A 
ATOM     78  C   UNL A   1      34.229  24.776  23.003  1.00  0.00     0.019 A 
ATOM     79  C   UNL A   1      31.925  24.304  23.546  1.00  0.00     0.057 A 
ATOM     80  C   UNL A   1      34.648  24.127  24.168  1.00  0.00     0.027 A 
ATOM     81  C   UNL A   1      32.353  23.663  24.715  1.00  0.00     0.047 A 
ATOM     82  Cl  UNL A   1      30.232  24.282  23.203  1.00  0.00    -0.083 Cl
ATOM     83  C   UNL A   1      33.712  23.607  25.060  1.00  0.00     0.043 A 
BRANCH  83  84
ATOM     84  N   UNL A   1      34.020  23.000  26.291  1.00  0.00    -0.322 N 
ATOM     85  C   UNL A   1      34.056  21.694  26.719  1.00  0.00     0.257 C 
ATOM     86  H   UNL A   1      34.262  23.646  26.994  1.00  0.00     0.170 HD
ATOM     87  O   UNL A   1      34.210  21.442  27.913  1.00  0.00    -0.269 OA
BRANCH  85  88
ATOM     88  C   UNL A   1      33.929  20.559  25.796  1.00  0.00     0.059 A 
ATOM     89  C   UNL A   1      32.675  19.929  25.733  1.00  0.00     0.022 A 
ATOM     90  C   UNL A   1      35.003  20.075  25.038  1.00  0.00     0.060 A 
ATOM     91  C   UNL A   1      32.472  18.862  24.856  1.00  0.00     0.086 A 
ATOM     92  C   UNL A   1      34.803  19.008  24.157  1.00  0.00     0.107 A 
ATOM     93  Cl  UNL A   1      36.590  20.746  25.135  1.00  0.00    -0.083 Cl
ATOM     94  C   UNL A   1      33.534  18.419  24.058  1.00  0.00     0.270 A 
BRANCH  94  95
ATOM     95  N   UNL A   1      33.314  17.337  23.090  1.00  0.00     0.062 N 
ATOM     96  O   UNL A   1      32.604  17.582  22.107  1.00  0.00    -0.258 OA
ATOM     97  O   UNL A   1      33.874  16.254  23.311  1.00  0.00    -0.258 OA
ENDBRANCH  94  95
ENDBRANCH  85  88
ENDBRANCH  83  84
ENDBRANCH  75  77
ENDBRANCH  74  75
ENDBRANCH  73  74
ENDBRANCH   1  73
TORSDOF 17
ENDMDL
MODEL 3
REMARK VINA RESULT:     -11.6      2.994      5.327
REMARK SMILES O=C(OCCOCCOC(=O)c1ccc(NC(=O)c2ccc([N+](=O)[O-])cc2Cl)cc1Cl)c1ccc(-c2c3nc(c(-c4c(F)c(F)c(F)c(F)c4F)c4ccc([nH]4)c(-c4c(F)c(F)c(F)c(F)c4F)c4nc(c(-c5c(F)c(F)c(F)c(F)c5F)c5ccc2[nH]5)C=C4)C=C3)cc1
REMARK SMILES IDX 7 1 6 2 5 3 4 4 3 5 2 6 1 7 32 8 33 9 94 10 34 11 93 12
REMARK SMILES IDX 35 13 36 14 37 15 87 16 38 17 92 18 86 19 88 20 39 21 91 22
REMARK SMILES IDX 85 23 84 24 40 26 72 27 52 28 71 29 53 30 56 31 70 32 89 33
REMARK SMILES IDX 54 34 55 35 69 37 90 38 57 39 41 40 42 41 50 42 43 43 44 44
REMARK SMILES IDX 48 45 51 46 45 47 46 48 49 49 47 50 73 51 74 52 82 53 75 54
REMARK SMILES IDX 76 55 80 56 83 57 77 58 78 59 81 60 79 61 58 62 59 63 67 64
REMARK SMILES IDX 60 65 61 66 65 67 68 68 62 69 63 70 66 71 64 72 8 73 9 74
REMARK SMILES IDX 10 75 11 76 12 77 13 78 30 79 14 80 29 81 31 82 15 83 16 84
REMARK SMILES IDX 17 85 18 87 19 88 20 89 27 90 21 91 26 92 28 93 22 94 23 95
REMARK SMILES IDX 24 96 25 97
REMARK H PARENT 88 25 56 36 16 86
REMARK Flexibility Score: inf
ROOT
ATOM      1  C   UNL A   1      34.343  34.439  28.431  1.00  0.00     0.202 C 
ENDROOT
BRANCH   1   2
ATOM      2  O   UNL A   1      33.031  34.880  28.814  1.00  0.00    -0.374 OA
BRANCH   2   3
ATOM      3  C   UNL A   1      32.870  36.299  28.893  1.00  0.00     0.202 C 
BRANCH   3   4
ATOM      4  C   UNL A   1      33.253  36.912  30.246  1.00  0.00     0.261 C 
BRANCH   4   5
ATOM      5  O   UNL A   1      32.323  36.514  31.269  1.00  0.00    -0.460 OA
BRANCH   5   6
ATOM      6  C   UNL A   1      32.426  35.510  32.171  1.00  0.00     0.338 C 
ATOM      7  O   UNL A   1      31.408  35.128  32.745  1.00  0.00    -0.246 OA
BRANCH   6   8
ATOM      8  C   UNL A   1      33.717  34.844  32.531  1.00  0.00     0.060 A 
ATOM      9  C   UNL A   1      33.837  33.528  32.975  1.00  0.00     0.016 A 
ATOM     10  C   UNL A   1      34.902  35.570  32.310  1.00  0.00     0.016 A 
ATOM     11  C   UNL A   1      35.072  32.965  33.258  1.00  0.00     0.010 A 
ATOM     12  C   UNL A   1      36.158  34.993  32.539  1.00  0.00     0.010 A 
ATOM     13  C   UNL A   1      36.240  33.686  33.027  1.00  0.00    -0.014 A 
BRANCH  13  14
ATOM     14  C   UNL A   1      37.516  33.030  33.366  1.00  0.00     0.031 A 
ATOM     15  C   UNL A   1      38.116  33.271  34.715  1.00  0.00     0.074 A 
ATOM     16  C   UNL A   1      38.009  32.098  32.529  1.00  0.00     0.049 A 
ATOM     17  N   UNL A   1      39.194  32.759  35.243  1.00  0.00    -0.248 NA
ATOM     18  C   UNL A   1      37.390  34.199  35.599  1.00  0.00     0.031 C 
ATOM     19  C   UNL A   1      37.414  31.726  31.242  1.00  0.00     0.029 A 
ATOM     20  N   UNL A   1      39.087  31.263  32.649  1.00  0.00    -0.354 N 
ATOM     21  C   UNL A   1      39.281  33.304  36.516  1.00  0.00     0.074 A 
ATOM     22  C   UNL A   1      38.156  34.197  36.680  1.00  0.00     0.031 C 
ATOM     23  C   UNL A   1      38.112  30.711  30.712  1.00  0.00     0.029 A 
ATOM     24  C   UNL A   1      39.240  30.408  31.585  1.00  0.00     0.049 A 
ATOM     25  H   UNL A   1      39.694  31.274  33.425  1.00  0.00     0.167 HD
ATOM     26  C   UNL A   1      40.224  33.073  37.459  1.00  0.00     0.037 A 
ATOM     27  C   UNL A   1      40.205  29.501  31.340  1.00  0.00     0.037 A 
ATOM     28  C   UNL A   1      41.338  32.186  37.262  1.00  0.00     0.049 A 
ATOM     29  C   UNL A   1      41.293  29.340  32.368  1.00  0.00     0.074 A 
ATOM     30  C   UNL A   1      42.408  31.937  38.100  1.00  0.00     0.029 A 
ATOM     31  N   UNL A   1      41.518  31.396  36.132  1.00  0.00    -0.354 N 
ATOM     32  N   UNL A   1      41.413  29.913  33.543  1.00  0.00    -0.248 NA
ATOM     33  C   UNL A   1      42.386  28.421  32.034  1.00  0.00     0.031 C 
ATOM     34  C   UNL A   1      43.255  31.024  37.462  1.00  0.00     0.029 A 
ATOM     35  C   UNL A   1      42.689  30.667  36.247  1.00  0.00     0.049 A 
ATOM     36  H   UNL A   1      40.903  31.360  35.366  1.00  0.00     0.167 HD
ATOM     37  C   UNL A   1      42.587  29.421  34.091  1.00  0.00     0.074 A 
ATOM     38  C   UNL A   1      43.124  28.474  33.134  1.00  0.00     0.031 C 
ATOM     39  C   UNL A   1      43.183  29.732  35.269  1.00  0.00     0.037 A 
BRANCH  26  40
ATOM     40  C   UNL A   1      40.109  33.835  38.744  1.00  0.00     0.064 A 
ATOM     41  C   UNL A   1      40.831  35.016  38.969  1.00  0.00     0.173 A 
ATOM     42  C   UNL A   1      39.277  33.366  39.771  1.00  0.00     0.173 A 
ATOM     43  F   UNL A   1      41.663  35.489  38.029  1.00  0.00    -0.203 F 
ATOM     44  C   UNL A   1      40.741  35.688  40.186  1.00  0.00     0.198 A 
ATOM     45  C   UNL A   1      39.172  34.053  40.977  1.00  0.00     0.198 A 
ATOM     46  F   UNL A   1      38.573  32.237  39.609  1.00  0.00    -0.203 F 
ATOM     47  F   UNL A   1      41.478  36.788  40.400  1.00  0.00    -0.200 F 
ATOM     48  C   UNL A   1      39.909  35.209  41.187  1.00  0.00     0.200 A 
ATOM     49  F   UNL A   1      38.366  33.589  41.943  1.00  0.00    -0.200 F 
ATOM     50  F   UNL A   1      39.826  35.854  42.359  1.00  0.00    -0.200 F 
ENDBRANCH  26  40
BRANCH  27  51
ATOM     51  C   UNL A   1      40.222  28.735  30.064  1.00  0.00     0.064 A 
ATOM     52  C   UNL A   1      40.852  29.233  28.916  1.00  0.00     0.173 A 
ATOM     53  C   UNL A   1      39.564  27.499  29.955  1.00  0.00     0.173 A 
ATOM     54  F   UNL A   1      41.476  30.421  28.956  1.00  0.00    -0.203 F 
ATOM     55  C   UNL A   1      40.802  28.542  27.706  1.00  0.00     0.198 A 
ATOM     56  C   UNL A   1      39.545  26.791  28.755  1.00  0.00     0.198 A 
ATOM     57  F   UNL A   1      38.938  26.973  31.018  1.00  0.00    -0.203 F 
ATOM     58  F   UNL A   1      41.360  29.072  26.609  1.00  0.00    -0.200 F 
ATOM     59  C   UNL A   1      40.152  27.319  27.628  1.00  0.00     0.200 A 
ATOM     60  F   UNL A   1      38.927  25.603  28.691  1.00  0.00    -0.200 F 
ATOM     61  F   UNL A   1      40.100  26.657  26.463  1.00  0.00    -0.200 F 
ENDBRANCH  27  51
BRANCH  39  62
ATOM     62  C   UNL A   1      44.466  29.022  35.579  1.00  0.00     0.064 A 
ATOM     63  C   UNL A   1      44.482  27.830  36.317  1.00  0.00     0.173 A 
ATOM     64  C   UNL A   1      45.687  29.526  35.108  1.00  0.00     0.173 A 
ATOM     65  F   UNL A   1      43.339  27.321  36.801  1.00  0.00    -0.203 F 
ATOM     66  C   UNL A   1      45.680  27.183  36.599  1.00  0.00     0.198 A 
ATOM     67  C   UNL A   1      46.880  28.860  35.366  1.00  0.00     0.198 A 
ATOM     68  F   UNL A   1      45.720  30.660  34.391  1.00  0.00    -0.203 F 
ATOM     69  F   UNL A   1      45.679  26.075  37.352  1.00  0.00    -0.200 F 
ATOM     70  C   UNL A   1      46.877  27.695  36.119  1.00  0.00     0.200 A 
ATOM     71  F   UNL A   1      48.033  29.348  34.890  1.00  0.00    -0.200 F 
ATOM     72  F   UNL A   1      48.030  27.067  36.388  1.00  0.00    -0.200 F 
ENDBRANCH  39  62
ENDBRANCH  13  14
ENDBRANCH   6   8
ENDBRANCH   5   6
ENDBRANCH   4   5
ENDBRANCH   3   4
ENDBRANCH   2   3
ENDBRANCH   1   2
BRANCH   1  73
ATOM     73  C   UNL A   1      34.759  33.256  29.306  1.00  0.00     0.261 C 
BRANCH  73  74
ATOM     74  O   UNL A   1      34.072  32.097  28.813  1.00  0.00    -0.460 OA
BRANCH  74  75
ATOM     75  C   UNL A   1      34.719  31.392  27.853  1.00  0.00     0.339 C 
ATOM     76  O   UNL A   1      35.902  31.425  27.577  1.00  0.00    -0.246 OA
BRANCH  75  77
ATOM     77  C   UNL A   1      33.800  30.332  27.388  1.00  0.00     0.078 A 
ATOM     78  C   UNL A   1      34.311  29.027  27.385  1.00  0.00     0.019 A 
ATOM     79  C   UNL A   1      32.464  30.546  27.052  1.00  0.00     0.057 A 
ATOM     80  C   UNL A   1      33.475  27.937  27.124  1.00  0.00     0.027 A 
ATOM     81  C   UNL A   1      31.633  29.447  26.801  1.00  0.00     0.047 A 
ATOM     82  Cl  UNL A   1      31.769  32.120  26.896  1.00  0.00    -0.083 Cl
ATOM     83  C   UNL A   1      32.118  28.133  26.878  1.00  0.00     0.043 A 
BRANCH  83  84
ATOM     84  N   UNL A   1      31.178  27.106  26.675  1.00  0.00    -0.322 N 
ATOM     85  C   UNL A   1      31.208  25.920  25.981  1.00  0.00     0.257 C 
ATOM     86  H   UNL A   1      30.317  27.272  27.124  1.00  0.00     0.170 HD
ATOM     87  O   UNL A   1      30.177  25.266  25.834  1.00  0.00    -0.269 OA
BRANCH  85  88
ATOM     88  C   UNL A   1      32.445  25.375  25.405  1.00  0.00     0.059 A 
ATOM     89  C   UNL A   1      33.148  24.438  26.180  1.00  0.00     0.022 A 
ATOM     90  C   UNL A   1      32.947  25.787  24.163  1.00  0.00     0.060 A 
ATOM     91  C   UNL A   1      34.315  23.856  25.684  1.00  0.00     0.086 A 
ATOM     92  C   UNL A   1      34.115  25.204  23.662  1.00  0.00     0.107 A 
ATOM     93  Cl  UNL A   1      32.180  26.996  23.202  1.00  0.00    -0.083 Cl
ATOM     94  C   UNL A   1      34.783  24.229  24.417  1.00  0.00     0.270 A 
BRANCH  94  95
ATOM     95  N   UNL A   1      35.975  23.578  23.861  1.00  0.00     0.062 N 
ATOM     96  O   UNL A   1      35.877  23.058  22.743  1.00  0.00    -0.258 OA
ATOM     97  O   UNL A   1      37.010  23.612  24.542  1.00  0.00    -0.258 OA
ENDBRANCH  94  95
ENDBRANCH  85  88
ENDBRANCH  83  84
ENDBRANCH  75  77
ENDBRANCH  74  75
ENDBRANCH  73  74
ENDBRANCH   1  73
TORSDOF 17
ENDMDL
