MODEL 1
REMARK VINA RESULT:     -11.7      0.000      0.000
REMARK SMILES CC1=C(C(=O)OCCOCCOC(=O)c2ccc(-c3c4nc(c(-c5c(F)c(F)c(F)c(F)c5F)c5ccc([nH]5)c(-c5c(F)c(F)c(F)c(F)c5F)c5nc(c(-c6c(F)c(F)c(F)c(F)c6F)c6ccc3[nH]6)C=C5)C=C4)cc2)N2C(=O)[C@H](NC(=O)c3c(Cl)c(C(F)(F)F)nn3C)[C@@H]2SC1
REMARK SMILES IDX 8 1 7 2 6 3 4 4 5 5 3 6 1 7 2 8 98 9 78 10 97 11 79 12 96 13
REMARK SMILES IDX 80 14 81 15 82 16 83 17 84 19 85 20 86 21 94 22 87 23 88 24
REMARK SMILES IDX 93 25 95 26 89 27 90 28 91 29 92 30 9 31 10 32 11 33 12 34
REMARK SMILES IDX 13 35 14 36 15 37 16 38 77 39 17 40 76 41 18 42 19 43 20 44
REMARK SMILES IDX 70 45 21 46 75 47 69 48 71 49 22 50 74 51 68 52 67 53 23 55
REMARK SMILES IDX 55 56 35 57 54 58 36 59 39 60 53 61 72 62 37 63 38 64 52 66
REMARK SMILES IDX 73 67 40 68 24 69 25 70 33 71 26 72 27 73 31 74 34 75 28 76
REMARK SMILES IDX 29 77 32 78 30 79 56 80 57 81 65 82 58 83 59 84 63 85 66 86
REMARK SMILES IDX 60 87 61 88 64 89 62 90 41 91 42 92 50 93 43 94 44 95 48 96
REMARK SMILES IDX 51 97 45 98 46 99 49 100 47 101
REMARK H PARENT 82 18 71 54 39 65
REMARK Flexibility Score: inf
ROOT
ATOM      1  C   UNL A   1      33.250  29.922  26.356  1.00  0.00     0.202 C 
ENDROOT
BRANCH   1   2
ATOM      2  C   UNL A   1      32.480  29.714  25.051  1.00  0.00     0.261 C 
BRANCH   2   3
ATOM      3  O   UNL A   1      33.413  29.359  24.021  1.00  0.00    -0.459 OA
BRANCH   3   4
ATOM      4  C   UNL A   1      32.922  28.559  23.045  1.00  0.00     0.355 C 
ATOM      5  O   UNL A   1      33.464  28.288  21.987  1.00  0.00    -0.244 OA
BRANCH   4   6
ATOM      6  C   UNL A   1      31.629  27.956  23.506  1.00  0.00     0.131 C 
ATOM      7  C   UNL A   1      30.272  29.676  22.272  1.00  0.00     0.043 C 
ATOM      8  C   UNL A   1      30.426  28.411  23.081  1.00  0.00    -0.032 C 
ATOM      9  C   UNL A   1      29.113  27.692  23.340  1.00  0.00     0.105 C 
ATOM     10  N   UNL A   1      31.710  26.883  24.339  1.00  0.00    -0.289 N 
ATOM     11  S   UNL A   1      29.304  25.946  23.828  1.00  0.00    -0.129 SA
ATOM     12  C   UNL A   1      32.661  26.157  24.958  1.00  0.00     0.253 C 
ATOM     13  C   UNL A   1      30.584  26.318  25.043  1.00  0.00     0.181 C 
ATOM     14  O   UNL A   1      33.863  26.258  25.035  1.00  0.00    -0.272 OA
ATOM     15  C   UNL A   1      31.550  25.178  25.499  1.00  0.00     0.206 C 
BRANCH  15  16
ATOM     16  N   UNL A   1      31.466  23.880  24.782  1.00  0.00    -0.336 N 
ATOM     17  C   UNL A   1      32.414  22.900  24.627  1.00  0.00     0.271 C 
ATOM     18  H   UNL A   1      30.599  23.695  24.353  1.00  0.00     0.164 HD
ATOM     19  O   UNL A   1      32.155  21.960  23.881  1.00  0.00    -0.267 OA
BRANCH  17  20
ATOM     20  C   UNL A   1      33.658  23.009  25.334  1.00  0.00     0.145 A 
ATOM     21  C   UNL A   1      34.934  23.121  24.810  1.00  0.00     0.104 A 
ATOM     22  N   UNL A   1      33.852  22.868  26.682  1.00  0.00    -0.261 N 
ATOM     23  Cl  UNL A   1      35.383  23.226  23.176  1.00  0.00    -0.079 Cl
ATOM     24  C   UNL A   1      35.818  23.142  25.917  1.00  0.00     0.185 A 
ATOM     25  N   UNL A   1      35.127  23.043  27.073  1.00  0.00    -0.166 NA
ATOM     26  C   UNL A   1      32.878  22.514  27.691  1.00  0.00     0.174 C 
BRANCH  24  27
ATOM     27  C   UNL A   1      37.315  23.245  25.860  1.00  0.00     0.436 C 
ATOM     28  F   UNL A   1      37.819  23.901  26.940  1.00  0.00    -0.164 F 
ATOM     29  F   UNL A   1      37.910  22.021  25.835  1.00  0.00    -0.164 F 
ATOM     30  F   UNL A   1      37.766  23.909  24.761  1.00  0.00    -0.164 F 
ENDBRANCH  24  27
ENDBRANCH  17  20
ENDBRANCH  15  16
ENDBRANCH   4   6
ENDBRANCH   3   4
ENDBRANCH   2   3
ENDBRANCH   1   2
BRANCH   1  31
ATOM     31  O   UNL A   1      32.662  30.853  27.269  1.00  0.00    -0.374 OA
BRANCH  31  32
ATOM     32  C   UNL A   1      31.729  31.795  26.745  1.00  0.00     0.202 C 
BRANCH  32  33
ATOM     33  C   UNL A   1      32.047  33.270  27.013  1.00  0.00     0.261 C 
BRANCH  33  34
ATOM     34  O   UNL A   1      32.756  33.466  28.250  1.00  0.00    -0.460 OA
BRANCH  34  35
ATOM     35  C   UNL A   1      33.901  34.181  28.130  1.00  0.00     0.338 C 
ATOM     36  O   UNL A   1      34.012  35.369  27.878  1.00  0.00    -0.246 OA
BRANCH  35  37
ATOM     37  C   UNL A   1      35.061  33.347  28.498  1.00  0.00     0.060 A 
ATOM     38  C   UNL A   1      34.802  32.091  29.057  1.00  0.00     0.016 A 
ATOM     39  C   UNL A   1      36.371  33.819  28.386  1.00  0.00     0.016 A 
ATOM     40  C   UNL A   1      35.850  31.314  29.547  1.00  0.00     0.010 A 
ATOM     41  C   UNL A   1      37.422  33.041  28.885  1.00  0.00     0.010 A 
ATOM     42  C   UNL A   1      37.162  31.801  29.497  1.00  0.00    -0.014 A 
BRANCH  42  43
ATOM     43  C   UNL A   1      38.242  31.071  30.205  1.00  0.00     0.031 A 
ATOM     44  C   UNL A   1      38.520  31.393  31.648  1.00  0.00     0.074 A 
ATOM     45  C   UNL A   1      38.950  30.115  29.578  1.00  0.00     0.049 A 
ATOM     46  N   UNL A   1      39.434  30.904  32.447  1.00  0.00    -0.248 NA
ATOM     47  C   UNL A   1      37.651  32.402  32.272  1.00  0.00     0.031 C 
ATOM     48  C   UNL A   1      38.750  29.688  28.195  1.00  0.00     0.029 A 
ATOM     49  N   UNL A   1      39.986  29.335  30.027  1.00  0.00    -0.354 N 
ATOM     50  C   UNL A   1      39.254  31.548  33.665  1.00  0.00     0.074 A 
ATOM     51  C   UNL A   1      38.165  32.485  33.491  1.00  0.00     0.031 C 
ATOM     52  C   UNL A   1      39.643  28.728  27.903  1.00  0.00     0.029 A 
ATOM     53  C   UNL A   1      40.496  28.495  29.068  1.00  0.00     0.049 A 
ATOM     54  H   UNL A   1      40.332  29.374  30.949  1.00  0.00     0.167 HD
ATOM     55  C   UNL A   1      39.930  31.367  34.824  1.00  0.00     0.037 A 
ATOM     56  C   UNL A   1      41.545  27.651  29.122  1.00  0.00     0.037 A 
ATOM     57  C   UNL A   1      41.009  30.431  34.997  1.00  0.00     0.049 A 
ATOM     58  C   UNL A   1      42.323  27.515  30.405  1.00  0.00     0.074 A 
ATOM     59  C   UNL A   1      41.741  30.158  36.140  1.00  0.00     0.029 A 
ATOM     60  N   UNL A   1      41.518  29.618  33.995  1.00  0.00    -0.354 N 
ATOM     61  N   UNL A   1      42.130  28.109  31.558  1.00  0.00    -0.248 NA
ATOM     62  C   UNL A   1      43.464  26.590  30.394  1.00  0.00     0.031 C 
ATOM     63  C   UNL A   1      42.722  29.216  35.817  1.00  0.00     0.029 A 
ATOM     64  C   UNL A   1      42.571  28.863  34.486  1.00  0.00     0.049 A 
ATOM     65  H   UNL A   1      41.179  29.583  33.071  1.00  0.00     0.167 HD
ATOM     66  C   UNL A   1      43.102  27.609  32.414  1.00  0.00     0.074 A 
ATOM     67  C   UNL A   1      43.878  26.654  31.652  1.00  0.00     0.031 C 
ATOM     68  C   UNL A   1      43.330  27.911  33.717  1.00  0.00     0.037 A 
BRANCH  55  69
ATOM     69  C   UNL A   1      39.535  32.218  35.995  1.00  0.00     0.064 A 
ATOM     70  C   UNL A   1      40.129  33.467  36.233  1.00  0.00     0.173 A 
ATOM     71  C   UNL A   1      38.523  31.795  36.870  1.00  0.00     0.173 A 
ATOM     72  F   UNL A   1      41.111  33.910  35.435  1.00  0.00    -0.203 F 
ATOM     73  C   UNL A   1      39.742  34.248  37.320  1.00  0.00     0.198 A 
ATOM     74  C   UNL A   1      38.119  32.591  37.938  1.00  0.00     0.198 A 
ATOM     75  F   UNL A   1      37.920  30.611  36.684  1.00  0.00    -0.203 F 
ATOM     76  F   UNL A   1      40.354  35.417  37.555  1.00  0.00    -0.200 F 
ATOM     77  C   UNL A   1      38.733  33.814  38.167  1.00  0.00     0.200 A 
ATOM     78  F   UNL A   1      37.136  32.174  38.748  1.00  0.00    -0.200 F 
ATOM     79  F   UNL A   1      38.357  34.569  39.207  1.00  0.00    -0.200 F 
ENDBRANCH  55  69
BRANCH  56  80
ATOM     80  C   UNL A   1      41.930  26.872  27.916  1.00  0.00     0.064 A 
ATOM     81  C   UNL A   1      42.871  27.368  27.004  1.00  0.00     0.173 A 
ATOM     82  C   UNL A   1      41.352  25.624  27.644  1.00  0.00     0.173 A 
ATOM     83  F   UNL A   1      43.433  28.569  27.209  1.00  0.00    -0.203 F 
ATOM     84  C   UNL A   1      43.207  26.652  25.856  1.00  0.00     0.198 A 
ATOM     85  C   UNL A   1      41.709  24.897  26.510  1.00  0.00     0.198 A 
ATOM     86  F   UNL A   1      40.444  25.106  28.484  1.00  0.00    -0.203 F 
ATOM     87  F   UNL A   1      44.076  27.171  24.978  1.00  0.00    -0.200 F 
ATOM     88  C   UNL A   1      42.630  25.416  25.613  1.00  0.00     0.200 A 
ATOM     89  F   UNL A   1      41.157  23.697  26.286  1.00  0.00    -0.200 F 
ATOM     90  F   UNL A   1      42.956  24.726  24.511  1.00  0.00    -0.200 F 
ENDBRANCH  56  80
BRANCH  68  91
ATOM     91  C   UNL A   1      44.440  27.179  34.412  1.00  0.00     0.064 A 
ATOM     92  C   UNL A   1      44.233  25.934  35.026  1.00  0.00     0.173 A 
ATOM     93  C   UNL A   1      45.739  27.710  34.428  1.00  0.00     0.173 A 
ATOM     94  F   UNL A   1      43.007  25.391  35.050  1.00  0.00    -0.203 F 
ATOM     95  C   UNL A   1      45.280  25.261  35.649  1.00  0.00     0.198 A 
ATOM     96  C   UNL A   1      46.789  27.020  35.026  1.00  0.00     0.198 A 
ATOM     97  F   UNL A   1      45.993  28.893  33.849  1.00  0.00    -0.203 F 
ATOM     98  F   UNL A   1      45.049  24.094  36.267  1.00  0.00    -0.200 F 
ATOM     99  C   UNL A   1      46.558  25.799  35.642  1.00  0.00     0.200 A 
ATOM    100  F   UNL A   1      48.026  27.536  35.007  1.00  0.00    -0.200 F 
ATOM    101  F   UNL A   1      47.565  25.145  36.237  1.00  0.00    -0.200 F 
ENDBRANCH  68  91
ENDBRANCH  42  43
ENDBRANCH  35  37
ENDBRANCH  34  35
ENDBRANCH  33  34
ENDBRANCH  32  33
ENDBRANCH  31  32
ENDBRANCH   1  31
TORSDOF 17
ENDMDL
MODEL 2
REMARK VINA RESULT:     -11.5     10.159     15.616
REMARK SMILES CC1=C(C(=O)OCCOCCOC(=O)c2ccc(-c3c4nc(c(-c5c(F)c(F)c(F)c(F)c5F)c5ccc([nH]5)c(-c5c(F)c(F)c(F)c(F)c5F)c5nc(c(-c6c(F)c(F)c(F)c(F)c6F)c6ccc3[nH]6)C=C5)C=C4)cc2)N2C(=O)[C@H](NC(=O)c3c(Cl)c(C(F)(F)F)nn3C)[C@@H]2SC1
REMARK SMILES IDX 8 1 7 2 6 3 4 4 5 5 3 6 1 7 2 8 98 9 78 10 97 11 79 12 96 13
REMARK SMILES IDX 80 14 81 15 82 16 83 17 84 19 85 20 86 21 94 22 87 23 88 24
REMARK SMILES IDX 93 25 95 26 89 27 90 28 91 29 92 30 9 31 10 32 11 33 12 34
REMARK SMILES IDX 13 35 14 36 15 37 16 38 77 39 17 40 76 41 18 42 19 43 20 44
REMARK SMILES IDX 70 45 21 46 75 47 69 48 71 49 22 50 74 51 68 52 67 53 23 55
REMARK SMILES IDX 55 56 35 57 54 58 36 59 39 60 53 61 72 62 37 63 38 64 52 66
REMARK SMILES IDX 73 67 40 68 24 69 25 70 33 71 26 72 27 73 31 74 34 75 28 76
REMARK SMILES IDX 29 77 32 78 30 79 56 80 57 81 65 82 58 83 59 84 63 85 66 86
REMARK SMILES IDX 60 87 61 88 64 89 62 90 41 91 42 92 50 93 43 94 44 95 48 96
REMARK SMILES IDX 51 97 45 98 46 99 49 100 47 101
REMARK H PARENT 82 18 71 54 39 65
REMARK Flexibility Score: inf
ROOT
ATOM      1  C   UNL A   1      42.463  40.384  27.677  1.00  0.00     0.202 C 
ENDROOT
BRANCH   1   2
ATOM      2  C   UNL A   1      41.854  40.540  26.283  1.00  0.00     0.261 C 
BRANCH   2   3
ATOM      3  O   UNL A   1      42.404  41.717  25.673  1.00  0.00    -0.459 OA
BRANCH   3   4
ATOM      4  C   UNL A   1      43.700  41.620  25.293  1.00  0.00     0.355 C 
ATOM      5  O   UNL A   1      44.342  40.593  25.160  1.00  0.00    -0.244 OA
BRANCH   4   6
ATOM      6  C   UNL A   1      44.217  42.985  24.953  1.00  0.00     0.131 C 
ATOM      7  C   UNL A   1      45.041  43.366  27.298  1.00  0.00     0.043 C 
ATOM      8  C   UNL A   1      44.905  43.742  25.841  1.00  0.00    -0.032 C 
ATOM      9  C   UNL A   1      45.638  45.020  25.473  1.00  0.00     0.105 C 
ATOM     10  N   UNL A   1      44.013  43.424  23.681  1.00  0.00    -0.289 N 
ATOM     11  S   UNL A   1      45.942  45.215  23.686  1.00  0.00    -0.129 SA
ATOM     12  C   UNL A   1      43.412  43.000  22.553  1.00  0.00     0.253 C 
ATOM     13  C   UNL A   1      44.249  44.779  23.245  1.00  0.00     0.181 C 
ATOM     14  O   UNL A   1      42.747  42.027  22.282  1.00  0.00    -0.272 OA
ATOM     15  C   UNL A   1      43.948  44.276  21.797  1.00  0.00     0.206 C 
BRANCH  15  16
ATOM     16  N   UNL A   1      45.108  44.024  20.903  1.00  0.00    -0.336 N 
ATOM     17  C   UNL A   1      45.256  44.279  19.563  1.00  0.00     0.271 C 
ATOM     18  H   UNL A   1      45.889  43.611  21.339  1.00  0.00     0.164 HD
ATOM     19  O   UNL A   1      46.269  43.867  19.006  1.00  0.00    -0.267 OA
BRANCH  17  20
ATOM     20  C   UNL A   1      44.232  45.009  18.871  1.00  0.00     0.145 A 
ATOM     21  C   UNL A   1      44.166  46.368  18.625  1.00  0.00     0.104 A 
ATOM     22  N   UNL A   1      43.025  44.523  18.442  1.00  0.00    -0.261 N 
ATOM     23  Cl  UNL A   1      45.315  47.555  19.021  1.00  0.00    -0.079 Cl
ATOM     24  C   UNL A   1      42.937  46.593  17.957  1.00  0.00     0.185 A 
ATOM     25  N   UNL A   1      42.268  45.431  17.799  1.00  0.00    -0.166 NA
ATOM     26  C   UNL A   1      42.474  43.202  18.641  1.00  0.00     0.174 C 
BRANCH  24  27
ATOM     27  C   UNL A   1      42.407  47.917  17.487  1.00  0.00     0.436 C 
ATOM     28  F   UNL A   1      42.786  48.190  16.209  1.00  0.00    -0.164 F 
ATOM     29  F   UNL A   1      41.047  47.959  17.507  1.00  0.00    -0.164 F 
ATOM     30  F   UNL A   1      42.830  48.965  18.246  1.00  0.00    -0.164 F 
ENDBRANCH  24  27
ENDBRANCH  17  20
ENDBRANCH  15  16
ENDBRANCH   4   6
ENDBRANCH   3   4
ENDBRANCH   2   3
ENDBRANCH   1   2
BRANCH   1  31
ATOM     31  O   UNL A   1      43.178  39.165  27.898  1.00  0.00    -0.374 OA
BRANCH  31  32
ATOM     32  C   UNL A   1      43.313  38.711  29.243  1.00  0.00     0.202 C 
BRANCH  32  33
ATOM     33  C   UNL A   1      44.731  38.757  29.823  1.00  0.00     0.261 C 
BRANCH  33  34
ATOM     34  O   UNL A   1      45.286  37.446  30.030  1.00  0.00    -0.460 OA
BRANCH  34  35
ATOM     35  C   UNL A   1      46.106  37.024  29.036  1.00  0.00     0.338 C 
ATOM     36  O   UNL A   1      47.002  37.650  28.495  1.00  0.00    -0.246 OA
BRANCH  35  37
ATOM     37  C   UNL A   1      45.874  35.594  28.760  1.00  0.00     0.060 A 
ATOM     38  C   UNL A   1      45.109  35.268  27.634  1.00  0.00     0.016 A 
ATOM     39  C   UNL A   1      46.315  34.596  29.632  1.00  0.00     0.016 A 
ATOM     40  C   UNL A   1      44.744  33.945  27.396  1.00  0.00     0.010 A 
ATOM     41  C   UNL A   1      45.941  33.267  29.396  1.00  0.00     0.010 A 
ATOM     42  C   UNL A   1      45.127  32.942  28.295  1.00  0.00    -0.014 A 
BRANCH  42  43
ATOM     43  C   UNL A   1      44.562  31.578  28.155  1.00  0.00     0.031 A 
ATOM     44  C   UNL A   1      45.312  30.552  27.350  1.00  0.00     0.074 A 
ATOM     45  C   UNL A   1      43.407  31.248  28.759  1.00  0.00     0.049 A 
ATOM     46  N   UNL A   1      44.988  29.315  27.071  1.00  0.00    -0.248 NA
ATOM     47  C   UNL A   1      46.600  30.980  26.784  1.00  0.00     0.031 C 
ATOM     48  C   UNL A   1      42.608  32.141  29.595  1.00  0.00     0.029 A 
ATOM     49  N   UNL A   1      42.704  30.069  28.755  1.00  0.00    -0.354 N 
ATOM     50  C   UNL A   1      46.028  28.820  26.293  1.00  0.00     0.074 A 
ATOM     51  C   UNL A   1      46.977  29.898  26.119  1.00  0.00     0.031 C 
ATOM     52  C   UNL A   1      41.516  31.481  30.016  1.00  0.00     0.029 A 
ATOM     53  C   UNL A   1      41.525  30.131  29.456  1.00  0.00     0.049 A 
ATOM     54  H   UNL A   1      43.015  29.257  28.293  1.00  0.00     0.167 HD
ATOM     55  C   UNL A   1      46.179  27.576  25.780  1.00  0.00     0.037 A 
ATOM     56  C   UNL A   1      40.556  29.207  29.608  1.00  0.00     0.037 A 
ATOM     57  C   UNL A   1      45.237  26.503  25.960  1.00  0.00     0.049 A 
ATOM     58  C   UNL A   1      40.718  27.850  28.972  1.00  0.00     0.074 A 
ATOM     59  C   UNL A   1      45.314  25.200  25.498  1.00  0.00     0.029 A 
ATOM     60  N   UNL A   1      44.039  26.611  26.650  1.00  0.00    -0.354 N 
ATOM     61  N   UNL A   1      41.715  27.382  28.260  1.00  0.00    -0.248 NA
ATOM     62  C   UNL A   1      39.619  26.894  29.163  1.00  0.00     0.031 C 
ATOM     63  C   UNL A   1      44.141  24.534  25.869  1.00  0.00     0.029 A 
ATOM     64  C   UNL A   1      43.356  25.406  26.605  1.00  0.00     0.049 A 
ATOM     65  H   UNL A   1      43.722  27.425  27.106  1.00  0.00     0.167 HD
ATOM     66  C   UNL A   1      41.379  26.072  27.946  1.00  0.00     0.074 A 
ATOM     67  C   UNL A   1      40.090  25.815  28.553  1.00  0.00     0.031 C 
ATOM     68  C   UNL A   1      42.076  25.163  27.221  1.00  0.00     0.037 A 
BRANCH  55  69
ATOM     69  C   UNL A   1      47.404  27.313  24.953  1.00  0.00     0.064 A 
ATOM     70  C   UNL A   1      47.482  27.701  23.608  1.00  0.00     0.173 A 
ATOM     71  C   UNL A   1      48.526  26.697  25.527  1.00  0.00     0.173 A 
ATOM     72  F   UNL A   1      46.431  28.280  23.010  1.00  0.00    -0.203 F 
ATOM     73  C   UNL A   1      48.632  27.457  22.859  1.00  0.00     0.198 A 
ATOM     74  C   UNL A   1      49.684  26.482  24.783  1.00  0.00     0.198 A 
ATOM     75  F   UNL A   1      48.505  26.311  26.811  1.00  0.00    -0.203 F 
ATOM     76  F   UNL A   1      48.669  27.796  21.562  1.00  0.00    -0.200 F 
ATOM     77  C   UNL A   1      49.733  26.856  23.448  1.00  0.00     0.200 A 
ATOM     78  F   UNL A   1      50.751  25.911  25.357  1.00  0.00    -0.200 F 
ATOM     79  F   UNL A   1      50.841  26.629  22.729  1.00  0.00    -0.200 F 
ENDBRANCH  55  69
BRANCH  56  80
ATOM     80  C   UNL A   1      39.336  29.536  30.390  1.00  0.00     0.064 A 
ATOM     81  C   UNL A   1      39.299  29.365  31.781  1.00  0.00     0.173 A 
ATOM     82  C   UNL A   1      38.177  30.013  29.760  1.00  0.00     0.173 A 
ATOM     83  F   UNL A   1      40.375  28.888  32.425  1.00  0.00    -0.203 F 
ATOM     84  C   UNL A   1      38.144  29.642  32.509  1.00  0.00     0.198 A 
ATOM     85  C   UNL A   1      37.032  30.315  30.493  1.00  0.00     0.198 A 
ATOM     86  F   UNL A   1      38.160  30.192  28.431  1.00  0.00    -0.203 F 
ATOM     87  F   UNL A   1      38.122  29.426  33.831  1.00  0.00    -0.200 F 
ATOM     88  C   UNL A   1      37.013  30.122  31.867  1.00  0.00     0.200 A 
ATOM     89  F   UNL A   1      35.946  30.790  29.869  1.00  0.00    -0.200 F 
ATOM     90  F   UNL A   1      35.904  30.391  32.568  1.00  0.00    -0.200 F 
ENDBRANCH  56  80
BRANCH  68  91
ATOM     91  C   UNL A   1      41.479  23.794  27.071  1.00  0.00     0.064 A 
ATOM     92  C   UNL A   1      40.318  23.574  26.316  1.00  0.00     0.173 A 
ATOM     93  C   UNL A   1      42.102  22.680  27.657  1.00  0.00     0.173 A 
ATOM     94  F   UNL A   1      39.678  24.607  25.748  1.00  0.00    -0.203 F 
ATOM     95  C   UNL A   1      39.790  22.294  26.172  1.00  0.00     0.198 A 
ATOM     96  C   UNL A   1      41.587  21.399  27.487  1.00  0.00     0.198 A 
ATOM     97  F   UNL A   1      43.218  22.835  28.385  1.00  0.00    -0.203 F 
ATOM     98  F   UNL A   1      38.654  22.114  25.482  1.00  0.00    -0.200 F 
ATOM     99  C   UNL A   1      40.427  21.207  26.751  1.00  0.00     0.200 A 
ATOM    100  F   UNL A   1      42.212  20.348  28.037  1.00  0.00    -0.200 F 
ATOM    101  F   UNL A   1      39.920  19.975  26.605  1.00  0.00    -0.200 F 
ENDBRANCH  68  91
ENDBRANCH  42  43
ENDBRANCH  35  37
ENDBRANCH  34  35
ENDBRANCH  33  34
ENDBRANCH  32  33
ENDBRANCH  31  32
ENDBRANCH   1  31
TORSDOF 17
ENDMDL
MODEL 3
REMARK VINA RESULT:     -11.5     10.091     14.356
REMARK SMILES CC1=C(C(=O)OCCOCCOC(=O)c2ccc(-c3c4nc(c(-c5c(F)c(F)c(F)c(F)c5F)c5ccc([nH]5)c(-c5c(F)c(F)c(F)c(F)c5F)c5nc(c(-c6c(F)c(F)c(F)c(F)c6F)c6ccc3[nH]6)C=C5)C=C4)cc2)N2C(=O)[C@H](NC(=O)c3c(Cl)c(C(F)(F)F)nn3C)[C@@H]2SC1
REMARK SMILES IDX 8 1 7 2 6 3 4 4 5 5 3 6 1 7 2 8 98 9 78 10 97 11 79 12 96 13
REMARK SMILES IDX 80 14 81 15 82 16 83 17 84 19 85 20 86 21 94 22 87 23 88 24
REMARK SMILES IDX 93 25 95 26 89 27 90 28 91 29 92 30 9 31 10 32 11 33 12 34
REMARK SMILES IDX 13 35 14 36 15 37 16 38 77 39 17 40 76 41 18 42 19 43 20 44
REMARK SMILES IDX 70 45 21 46 75 47 69 48 71 49 22 50 74 51 68 52 67 53 23 55
REMARK SMILES IDX 55 56 35 57 54 58 36 59 39 60 53 61 72 62 37 63 38 64 52 66
REMARK SMILES IDX 73 67 40 68 24 69 25 70 33 71 26 72 27 73 31 74 34 75 28 76
REMARK SMILES IDX 29 77 32 78 30 79 56 80 57 81 65 82 58 83 59 84 63 85 66 86
REMARK SMILES IDX 60 87 61 88 64 89 62 90 41 91 42 92 50 93 43 94 44 95 48 96
REMARK SMILES IDX 51 97 45 98 46 99 49 100 47 101
REMARK H PARENT 82 18 71 54 39 65
REMARK Flexibility Score: inf
ROOT
ATOM      1  C   UNL A   1      46.664  39.949  25.478  1.00  0.00     0.202 C 
ENDROOT
BRANCH   1   2
ATOM      2  C   UNL A   1      45.287  39.998  26.142  1.00  0.00     0.261 C 
BRANCH   2   3
ATOM      3  O   UNL A   1      44.351  40.562  25.213  1.00  0.00    -0.459 OA
BRANCH   3   4
ATOM      4  C   UNL A   1      43.576  41.558  25.704  1.00  0.00     0.355 C 
ATOM      5  O   UNL A   1      42.564  41.429  26.371  1.00  0.00    -0.244 OA
BRANCH   4   6
ATOM      6  C   UNL A   1      44.213  42.879  25.390  1.00  0.00     0.131 C 
ATOM      7  C   UNL A   1      44.956  43.197  27.771  1.00  0.00     0.043 C 
ATOM      8  C   UNL A   1      44.917  43.580  26.311  1.00  0.00    -0.032 C 
ATOM      9  C   UNL A   1      45.763  44.797  25.979  1.00  0.00     0.105 C 
ATOM     10  N   UNL A   1      44.101  43.330  24.112  1.00  0.00    -0.289 N 
ATOM     11  S   UNL A   1      46.162  44.966  24.208  1.00  0.00    -0.129 SA
ATOM     12  C   UNL A   1      43.521  42.953  22.956  1.00  0.00     0.253 C 
ATOM     13  C   UNL A   1      44.461  44.663  23.690  1.00  0.00     0.181 C 
ATOM     14  O   UNL A   1      42.795  42.035  22.654  1.00  0.00    -0.272 OA
ATOM     15  C   UNL A   1      44.188  44.182  22.228  1.00  0.00     0.206 C 
BRANCH  15  16
ATOM     16  N   UNL A   1      45.364  43.840  21.388  1.00  0.00    -0.336 N 
ATOM     17  C   UNL A   1      45.607  44.112  20.065  1.00  0.00     0.271 C 
ATOM     18  H   UNL A   1      46.077  43.342  21.850  1.00  0.00     0.164 HD
ATOM     19  O   UNL A   1      46.605  43.617  19.548  1.00  0.00    -0.267 OA
BRANCH  17  20
ATOM     20  C   UNL A   1      44.697  44.956  19.343  1.00  0.00     0.145 A 
ATOM     21  C   UNL A   1      43.437  44.646  18.865  1.00  0.00     0.104 A 
ATOM     22  N   UNL A   1      44.957  46.204  18.843  1.00  0.00    -0.261 N 
ATOM     23  Cl  UNL A   1      42.582  43.191  19.054  1.00  0.00    -0.079 Cl
ATOM     24  C   UNL A   1      42.976  45.797  18.181  1.00  0.00     0.185 A 
ATOM     25  N   UNL A   1      43.906  46.775  18.226  1.00  0.00    -0.166 NA
ATOM     26  C   UNL A   1      46.207  46.930  18.860  1.00  0.00     0.174 C 
BRANCH  24  27
ATOM     27  C   UNL A   1      41.657  45.948  17.479  1.00  0.00     0.436 C 
ATOM     28  F   UNL A   1      40.637  45.404  18.196  1.00  0.00    -0.164 F 
ATOM     29  F   UNL A   1      41.336  47.254  17.272  1.00  0.00    -0.164 F 
ATOM     30  F   UNL A   1      41.628  45.352  16.256  1.00  0.00    -0.164 F 
ENDBRANCH  24  27
ENDBRANCH  17  20
ENDBRANCH  15  16
ENDBRANCH   4   6
ENDBRANCH   3   4
ENDBRANCH   2   3
ENDBRANCH   1   2
BRANCH   1  31
ATOM     31  O   UNL A   1      47.220  38.640  25.323  1.00  0.00    -0.374 OA
BRANCH  31  32
ATOM     32  C   UNL A   1      48.389  38.324  26.077  1.00  0.00     0.202 C 
BRANCH  32  33
ATOM     33  C   UNL A   1      48.195  37.325  27.222  1.00  0.00     0.261 C 
BRANCH  33  34
ATOM     34  O   UNL A   1      46.981  37.557  27.958  1.00  0.00    -0.460 OA
BRANCH  34  35
ATOM     35  C   UNL A   1      46.936  36.946  29.168  1.00  0.00     0.338 C 
ATOM     36  O   UNL A   1      47.369  37.365  30.228  1.00  0.00    -0.246 OA
BRANCH  35  37
ATOM     37  C   UNL A   1      46.135  35.711  29.083  1.00  0.00     0.060 A 
ATOM     38  C   UNL A   1      46.442  34.679  29.976  1.00  0.00     0.016 A 
ATOM     39  C   UNL A   1      45.167  35.529  28.092  1.00  0.00     0.016 A 
ATOM     40  C   UNL A   1      45.812  33.441  29.858  1.00  0.00     0.010 A 
ATOM     41  C   UNL A   1      44.541  34.283  27.969  1.00  0.00     0.010 A 
ATOM     42  C   UNL A   1      44.885  33.225  28.831  1.00  0.00    -0.014 A 
BRANCH  42  43
ATOM     43  C   UNL A   1      44.378  31.855  28.577  1.00  0.00     0.031 A 
ATOM     44  C   UNL A   1      43.049  31.446  29.150  1.00  0.00     0.074 A 
ATOM     45  C   UNL A   1      45.082  30.991  27.824  1.00  0.00     0.049 A 
ATOM     46  N   UNL A   1      42.433  30.294  29.081  1.00  0.00    -0.248 NA
ATOM     47  C   UNL A   1      42.317  32.477  29.902  1.00  0.00     0.031 C 
ATOM     48  C   UNL A   1      46.364  31.280  27.185  1.00  0.00     0.029 A 
ATOM     49  N   UNL A   1      44.817  29.690  27.477  1.00  0.00    -0.354 N 
ATOM     50  C   UNL A   1      41.245  30.458  29.784  1.00  0.00     0.074 A 
ATOM     51  C   UNL A   1      41.241  31.811  30.296  1.00  0.00     0.031 C 
ATOM     52  C   UNL A   1      46.780  30.184  26.529  1.00  0.00     0.029 A 
ATOM     53  C   UNL A   1      45.810  29.109  26.728  1.00  0.00     0.049 A 
ATOM     54  H   UNL A   1      43.993  29.218  27.740  1.00  0.00     0.167 HD
ATOM     55  C   UNL A   1      40.247  29.564  29.974  1.00  0.00     0.037 A 
ATOM     56  C   UNL A   1      45.929  27.846  26.274  1.00  0.00     0.037 A 
ATOM     57  C   UNL A   1      40.249  28.220  29.459  1.00  0.00     0.049 A 
ATOM     58  C   UNL A   1      44.833  26.850  26.556  1.00  0.00     0.074 A 
ATOM     59  C   UNL A   1      39.272  27.247  29.579  1.00  0.00     0.029 A 
ATOM     60  N   UNL A   1      41.286  27.657  28.730  1.00  0.00    -0.354 N 
ATOM     61  N   UNL A   1      43.703  27.021  27.199  1.00  0.00    -0.248 NA
ATOM     62  C   UNL A   1      45.030  25.486  26.047  1.00  0.00     0.031 C 
ATOM     63  C   UNL A   1      39.739  26.081  28.965  1.00  0.00     0.029 A 
ATOM     64  C   UNL A   1      40.984  26.341  28.417  1.00  0.00     0.049 A 
ATOM     65  H   UNL A   1      42.114  28.124  28.473  1.00  0.00     0.167 HD
ATOM     66  C   UNL A   1      43.043  25.800  27.145  1.00  0.00     0.074 A 
ATOM     67  C   UNL A   1      43.894  24.899  26.397  1.00  0.00     0.031 C 
ATOM     68  C   UNL A   1      41.839  25.458  27.666  1.00  0.00     0.037 A 
BRANCH  55  69
ATOM     69  C   UNL A   1      39.071  30.005  30.797  1.00  0.00     0.064 A 
ATOM     70  C   UNL A   1      39.041  29.837  32.189  1.00  0.00     0.173 A 
ATOM     71  C   UNL A   1      37.977  30.637  30.187  1.00  0.00     0.173 A 
ATOM     72  F   UNL A   1      40.056  29.226  32.818  1.00  0.00    -0.203 F 
ATOM     73  C   UNL A   1      37.945  30.262  32.938  1.00  0.00     0.198 A 
ATOM     74  C   UNL A   1      36.897  31.086  30.942  1.00  0.00     0.198 A 
ATOM     75  F   UNL A   1      37.958  30.826  28.859  1.00  0.00    -0.203 F 
ATOM     76  F   UNL A   1      37.917  30.051  34.261  1.00  0.00    -0.200 F 
ATOM     77  C   UNL A   1      36.879  30.893  32.316  1.00  0.00     0.200 A 
ATOM     78  F   UNL A   1      35.872  31.705  30.340  1.00  0.00    -0.200 F 
ATOM     79  F   UNL A   1      35.829  31.308  33.038  1.00  0.00    -0.200 F 
ENDBRANCH  55  69
BRANCH  56  80
ATOM     80  C   UNL A   1      47.140  27.444  25.512  1.00  0.00     0.064 A 
ATOM     81  C   UNL A   1      48.234  26.847  26.154  1.00  0.00     0.173 A 
ATOM     82  C   UNL A   1      47.233  27.664  24.130  1.00  0.00     0.173 A 
ATOM     83  F   UNL A   1      48.201  26.640  27.479  1.00  0.00    -0.203 F 
ATOM     84  C   UNL A   1      49.382  26.502  25.444  1.00  0.00     0.198 A 
ATOM     85  C   UNL A   1      48.371  27.293  23.418  1.00  0.00     0.198 A 
ATOM     86  F   UNL A   1      46.215  28.234  23.471  1.00  0.00    -0.203 F 
ATOM     87  F   UNL A   1      50.431  25.975  26.090  1.00  0.00    -0.200 F 
ATOM     88  C   UNL A   1      49.449  26.719  24.077  1.00  0.00     0.200 A 
ATOM     89  F   UNL A   1      48.425  27.495  22.095  1.00  0.00    -0.200 F 
ATOM     90  F   UNL A   1      50.552  26.384  23.395  1.00  0.00    -0.200 F 
ENDBRANCH  56  80
BRANCH  68  91
ATOM     91  C   UNL A   1      41.351  24.060  27.418  1.00  0.00     0.064 A 
ATOM     92  C   UNL A   1      41.943  22.951  28.041  1.00  0.00     0.173 A 
ATOM     93  C   UNL A   1      40.251  23.830  26.578  1.00  0.00     0.173 A 
ATOM     94  F   UNL A   1      43.007  23.116  28.842  1.00  0.00    -0.203 F 
ATOM     95  C   UNL A   1      41.465  21.663  27.815  1.00  0.00     0.198 A 
ATOM     96  C   UNL A   1      39.757  22.545  26.377  1.00  0.00     0.198 A 
ATOM     97  F   UNL A   1      39.644  24.856  25.963  1.00  0.00    -0.203 F 
ATOM     98  F   UNL A   1      42.075  20.614  28.386  1.00  0.00    -0.200 F 
ATOM     99  C   UNL A   1      40.369  21.461  26.990  1.00  0.00     0.200 A 
ATOM    100  F   UNL A   1      38.690  22.353  25.590  1.00  0.00    -0.200 F 
ATOM    101  F   UNL A   1      39.907  20.221  26.779  1.00  0.00    -0.200 F 
ENDBRANCH  68  91
ENDBRANCH  42  43
ENDBRANCH  35  37
ENDBRANCH  34  35
ENDBRANCH  33  34
ENDBRANCH  32  33
ENDBRANCH  31  32
ENDBRANCH   1  31
TORSDOF 17
ENDMDL
