MODEL 1
REMARK VINA RESULT:     -11.3      0.000      0.000
REMARK SMILES C[C@H]1[C@H](C(=O)OCCOCCOC(=O)c2ccc(-c3c4nc(c(-c5c(F)c(F)c(F)c(F)c5F)c5ccc([nH]5)c(-c5c(F)c(F)c(F)c(F)c5F)c5nc(c(-c6c(F)c(F)c(F)c(F)c6F)c6ccc3[nH]6)C=C5)C=C4)cc2)CCN1C(=O)COc1ccc(F)cc1Br
REMARK SMILES IDX 8 1 7 2 6 3 4 4 5 5 3 6 1 7 2 8 80 9 78 10 79 11 81 12 82 13
REMARK SMILES IDX 83 14 84 15 85 16 86 17 91 18 87 19 90 20 92 21 88 22 89 23
REMARK SMILES IDX 9 24 10 25 11 26 12 27 13 28 14 29 15 30 16 31 77 32 17 33
REMARK SMILES IDX 76 34 18 35 19 36 20 37 70 38 21 39 75 40 69 41 71 42 22 43
REMARK SMILES IDX 74 44 68 45 67 46 23 48 55 49 35 50 54 51 36 52 39 53 53 54
REMARK SMILES IDX 72 55 37 56 38 57 52 59 73 60 40 61 24 62 25 63 33 64 26 65
REMARK SMILES IDX 27 66 31 67 34 68 28 69 29 70 32 71 30 72 56 73 57 74 65 75
REMARK SMILES IDX 58 76 59 77 63 78 66 79 60 80 61 81 64 82 62 83 41 84 42 85
REMARK SMILES IDX 50 86 43 87 44 88 48 89 51 90 45 91 46 92 49 93 47 94
REMARK H PARENT 71 47 39 58
REMARK Flexibility Score: inf
ROOT
ATOM      1  C   UNL A   1      37.149  22.172  25.610  1.00  0.00     0.202 C 
ENDROOT
BRANCH   1   2
ATOM      2  C   UNL A   1      37.040  23.656  25.251  1.00  0.00     0.261 C 
BRANCH   2   3
ATOM      3  O   UNL A   1      35.806  23.949  24.570  1.00  0.00    -0.463 OA
BRANCH   3   4
ATOM      4  C   UNL A   1      35.554  23.219  23.451  1.00  0.00     0.311 C 
ATOM      5  O   UNL A   1      36.337  23.056  22.525  1.00  0.00    -0.252 OA
BRANCH   4   6
ATOM      6  C   UNL A   1      34.154  22.658  23.433  1.00  0.00     0.123 C 
ATOM      7  C   UNL A   1      33.819  20.677  24.935  1.00  0.00     0.032 C 
ATOM      8  C   UNL A   1      33.586  22.182  24.792  1.00  0.00     0.096 C 
ATOM      9  N   UNL A   1      32.169  22.595  24.747  1.00  0.00    -0.336 N 
ATOM     10  C   UNL A   1      33.179  23.720  22.948  1.00  0.00     0.039 C 
ATOM     11  C   UNL A   1      31.856  23.211  23.468  1.00  0.00     0.121 C 
BRANCH   9  12
ATOM     12  C   UNL A   1      31.294  22.780  25.803  1.00  0.00     0.260 C 
ATOM     13  O   UNL A   1      30.300  22.058  25.944  1.00  0.00    -0.271 OA
BRANCH  12  14
ATOM     14  C   UNL A   1      31.580  23.856  26.854  1.00  0.00     0.329 C 
BRANCH  14  15
ATOM     15  O   UNL A   1      30.782  25.021  26.828  1.00  0.00    -0.483 OA
BRANCH  15  16
ATOM     16  C   UNL A   1      30.785  25.863  25.754  1.00  0.00     0.134 A 
ATOM     17  C   UNL A   1      29.537  25.904  25.107  1.00  0.00     0.050 A 
ATOM     18  C   UNL A   1      31.880  26.484  25.138  1.00  0.00     0.062 A 
ATOM     19  C   UNL A   1      29.384  26.524  23.867  1.00  0.00     0.043 A 
ATOM     20  C   UNL A   1      31.724  27.092  23.884  1.00  0.00     0.058 A 
ATOM     21  Br  UNL A   1      33.649  26.534  25.801  1.00  0.00    -0.047 Br
ATOM     22  C   UNL A   1      30.487  27.096  23.258  1.00  0.00     0.124 A 
ATOM     23  F   UNL A   1      30.366  27.642  22.041  1.00  0.00    -0.207 F 
ENDBRANCH  15  16
ENDBRANCH  14  15
ENDBRANCH  12  14
ENDBRANCH   9  12
ENDBRANCH   4   6
ENDBRANCH   3   4
ENDBRANCH   2   3
ENDBRANCH   1   2
BRANCH   1  24
ATOM     24  O   UNL A   1      38.138  21.427  24.901  1.00  0.00    -0.374 OA
BRANCH  24  25
ATOM     25  C   UNL A   1      38.156  20.015  25.094  1.00  0.00     0.202 C 
BRANCH  25  26
ATOM     26  C   UNL A   1      39.473  19.422  25.604  1.00  0.00     0.261 C 
BRANCH  26  27
ATOM     27  O   UNL A   1      39.980  20.148  26.739  1.00  0.00    -0.460 OA
BRANCH  27  28
ATOM     28  C   UNL A   1      41.211  20.679  26.554  1.00  0.00     0.338 C 
ATOM     29  O   UNL A   1      42.112  20.231  25.856  1.00  0.00    -0.246 OA
BRANCH  28  30
ATOM     30  C   UNL A   1      41.316  22.004  27.191  1.00  0.00     0.060 A 
ATOM     31  C   UNL A   1      40.694  23.072  26.532  1.00  0.00     0.016 A 
ATOM     32  C   UNL A   1      42.094  22.229  28.328  1.00  0.00     0.016 A 
ATOM     33  C   UNL A   1      40.920  24.378  26.953  1.00  0.00     0.010 A 
ATOM     34  C   UNL A   1      42.323  23.546  28.752  1.00  0.00     0.010 A 
ATOM     35  C   UNL A   1      41.783  24.626  28.030  1.00  0.00    -0.014 A 
BRANCH  35  36
ATOM     36  C   UNL A   1      42.258  26.016  28.244  1.00  0.00     0.031 A 
ATOM     37  C   UNL A   1      43.569  26.436  27.635  1.00  0.00     0.074 A 
ATOM     38  C   UNL A   1      41.492  26.917  28.883  1.00  0.00     0.049 A 
ATOM     39  N   UNL A   1      44.138  27.615  27.615  1.00  0.00    -0.248 NA
ATOM     40  C   UNL A   1      44.341  25.385  26.952  1.00  0.00     0.031 C 
ATOM     41  C   UNL A   1      40.191  26.642  29.487  1.00  0.00     0.029 A 
ATOM     42  N   UNL A   1      41.698  28.253  29.117  1.00  0.00    -0.354 N 
ATOM     43  C   UNL A   1      45.328  27.447  26.916  1.00  0.00     0.074 A 
ATOM     44  C   UNL A   1      45.420  26.048  26.563  1.00  0.00     0.031 C 
ATOM     45  C   UNL A   1      39.710  27.779  30.019  1.00  0.00     0.029 A 
ATOM     46  C   UNL A   1      40.676  28.855  29.806  1.00  0.00     0.049 A 
ATOM     47  H   UNL A   1      42.504  28.735  28.818  1.00  0.00     0.167 HD
ATOM     48  C   UNL A   1      46.253  28.380  26.583  1.00  0.00     0.037 A 
ATOM     49  C   UNL A   1      40.538  30.131  30.216  1.00  0.00     0.037 A 
ATOM     50  C   UNL A   1      46.162  29.774  26.928  1.00  0.00     0.049 A 
ATOM     51  C   UNL A   1      41.604  31.139  29.874  1.00  0.00     0.074 A 
ATOM     52  C   UNL A   1      47.042  30.798  26.627  1.00  0.00     0.029 A 
ATOM     53  N   UNL A   1      45.126  30.337  27.658  1.00  0.00    -0.354 N 
ATOM     54  N   UNL A   1      42.707  30.978  29.185  1.00  0.00    -0.248 NA
ATOM     55  C   UNL A   1      41.395  32.512  30.357  1.00  0.00     0.031 C 
ATOM     56  C   UNL A   1      46.560  31.975  27.211  1.00  0.00     0.029 A 
ATOM     57  C   UNL A   1      45.355  31.692  27.833  1.00  0.00     0.049 A 
ATOM     58  H   UNL A   1      44.344  29.848  28.000  1.00  0.00     0.167 HD
ATOM     59  C   UNL A   1      43.309  32.229  29.127  1.00  0.00     0.074 A 
ATOM     60  C   UNL A   1      42.439  33.142  29.838  1.00  0.00     0.031 C 
ATOM     61  C   UNL A   1      44.476  32.590  28.538  1.00  0.00     0.037 A 
BRANCH  48  62
ATOM     62  C   UNL A   1      47.456  27.913  25.818  1.00  0.00     0.064 A 
ATOM     63  C   UNL A   1      47.425  27.749  24.425  1.00  0.00     0.173 A 
ATOM     64  C   UNL A   1      48.663  27.652  26.483  1.00  0.00     0.173 A 
ATOM     65  F   UNL A   1      46.290  27.971  23.745  1.00  0.00    -0.203 F 
ATOM     66  C   UNL A   1      48.550  27.317  23.729  1.00  0.00     0.198 A 
ATOM     67  C   UNL A   1      49.794  27.245  25.781  1.00  0.00     0.198 A 
ATOM     68  F   UNL A   1      48.746  27.795  27.814  1.00  0.00    -0.203 F 
ATOM     69  F   UNL A   1      48.485  27.121  22.405  1.00  0.00    -0.200 F 
ATOM     70  C   UNL A   1      49.736  27.070  24.407  1.00  0.00     0.200 A 
ATOM     71  F   UNL A   1      50.942  27.017  26.436  1.00  0.00    -0.200 F 
ATOM     72  F   UNL A   1      50.820  26.658  23.735  1.00  0.00    -0.200 F 
ENDBRANCH  48  62
BRANCH  49  73
ATOM     73  C   UNL A   1      39.336  30.534  30.992  1.00  0.00     0.064 A 
ATOM     74  C   UNL A   1      39.237  30.271  32.365  1.00  0.00     0.173 A 
ATOM     75  C   UNL A   1      38.254  31.173  30.370  1.00  0.00     0.173 A 
ATOM     76  F   UNL A   1      40.236  29.638  32.999  1.00  0.00    -0.203 F 
ATOM     77  C   UNL A   1      38.093  30.614  33.082  1.00  0.00     0.198 A 
ATOM     78  C   UNL A   1      37.122  31.540  31.094  1.00  0.00     0.198 A 
ATOM     79  F   UNL A   1      38.299  31.444  29.057  1.00  0.00    -0.203 F 
ATOM     80  F   UNL A   1      38.005  30.310  34.384  1.00  0.00    -0.200 F 
ATOM     81  C   UNL A   1      37.039  31.253  32.447  1.00  0.00     0.200 A 
ATOM     82  F   UNL A   1      36.110  32.165  30.478  1.00  0.00    -0.200 F 
ATOM     83  F   UNL A   1      35.940  31.585  33.139  1.00  0.00    -0.200 F 
ENDBRANCH  49  73
BRANCH  61  84
ATOM     84  C   UNL A   1      44.862  34.039  28.607  1.00  0.00     0.064 A 
ATOM     85  C   UNL A   1      45.730  34.524  29.596  1.00  0.00     0.173 A 
ATOM     86  C   UNL A   1      44.379  34.948  27.654  1.00  0.00     0.173 A 
ATOM     87  F   UNL A   1      46.209  33.696  30.538  1.00  0.00    -0.203 F 
ATOM     88  C   UNL A   1      46.075  35.872  29.647  1.00  0.00     0.198 A 
ATOM     89  C   UNL A   1      44.749  36.290  27.691  1.00  0.00     0.198 A 
ATOM     90  F   UNL A   1      43.552  34.535  26.682  1.00  0.00    -0.203 F 
ATOM     91  F   UNL A   1      46.865  36.322  30.632  1.00  0.00    -0.200 F 
ATOM     92  C   UNL A   1      45.589  36.752  28.692  1.00  0.00     0.200 A 
ATOM     93  F   UNL A   1      44.288  37.137  26.759  1.00  0.00    -0.200 F 
ATOM     94  F   UNL A   1      45.924  38.049  28.742  1.00  0.00    -0.200 F 
ENDBRANCH  61  84
ENDBRANCH  35  36
ENDBRANCH  28  30
ENDBRANCH  27  28
ENDBRANCH  26  27
ENDBRANCH  25  26
ENDBRANCH  24  25
ENDBRANCH   1  24
TORSDOF 18
ENDMDL
MODEL 2
REMARK VINA RESULT:     -11.2      1.838      2.819
REMARK SMILES C[C@H]1[C@H](C(=O)OCCOCCOC(=O)c2ccc(-c3c4nc(c(-c5c(F)c(F)c(F)c(F)c5F)c5ccc([nH]5)c(-c5c(F)c(F)c(F)c(F)c5F)c5nc(c(-c6c(F)c(F)c(F)c(F)c6F)c6ccc3[nH]6)C=C5)C=C4)cc2)CCN1C(=O)COc1ccc(F)cc1Br
REMARK SMILES IDX 8 1 7 2 6 3 4 4 5 5 3 6 1 7 2 8 80 9 78 10 79 11 81 12 82 13
REMARK SMILES IDX 83 14 84 15 85 16 86 17 91 18 87 19 90 20 92 21 88 22 89 23
REMARK SMILES IDX 9 24 10 25 11 26 12 27 13 28 14 29 15 30 16 31 77 32 17 33
REMARK SMILES IDX 76 34 18 35 19 36 20 37 70 38 21 39 75 40 69 41 71 42 22 43
REMARK SMILES IDX 74 44 68 45 67 46 23 48 55 49 35 50 54 51 36 52 39 53 53 54
REMARK SMILES IDX 72 55 37 56 38 57 52 59 73 60 40 61 24 62 25 63 33 64 26 65
REMARK SMILES IDX 27 66 31 67 34 68 28 69 29 70 32 71 30 72 56 73 57 74 65 75
REMARK SMILES IDX 58 76 59 77 63 78 66 79 60 80 61 81 64 82 62 83 41 84 42 85
REMARK SMILES IDX 50 86 43 87 44 88 48 89 51 90 45 91 46 92 49 93 47 94
REMARK H PARENT 71 47 39 58
REMARK Flexibility Score: inf
ROOT
ATOM      1  C   UNL A   1      35.034  22.208  24.783  1.00  0.00     0.202 C 
ENDROOT
BRANCH   1   2
ATOM      2  C   UNL A   1      33.531  21.921  24.815  1.00  0.00     0.261 C 
BRANCH   2   3
ATOM      3  O   UNL A   1      32.995  21.757  23.489  1.00  0.00    -0.463 OA
BRANCH   3   4
ATOM      4  C   UNL A   1      32.831  22.896  22.766  1.00  0.00     0.311 C 
ATOM      5  O   UNL A   1      33.181  23.048  21.603  1.00  0.00    -0.252 OA
BRANCH   4   6
ATOM      6  C   UNL A   1      32.206  24.006  23.573  1.00  0.00     0.123 C 
ATOM      7  C   UNL A   1      33.829  25.757  24.346  1.00  0.00     0.032 C 
ATOM      8  C   UNL A   1      32.747  25.433  23.314  1.00  0.00     0.096 C 
ATOM      9  N   UNL A   1      31.543  26.285  23.381  1.00  0.00    -0.336 N 
ATOM     10  C   UNL A   1      30.717  24.088  23.271  1.00  0.00     0.039 C 
ATOM     11  C   UNL A   1      30.372  25.490  23.711  1.00  0.00     0.121 C 
BRANCH   9  12
ATOM     12  C   UNL A   1      31.357  27.553  22.858  1.00  0.00     0.260 C 
ATOM     13  O   UNL A   1      30.494  27.772  22.001  1.00  0.00    -0.271 OA
BRANCH  12  14
ATOM     14  C   UNL A   1      32.192  28.726  23.382  1.00  0.00     0.329 C 
BRANCH  14  15
ATOM     15  O   UNL A   1      31.823  29.284  24.625  1.00  0.00    -0.483 OA
BRANCH  15  16
ATOM     16  C   UNL A   1      32.759  29.658  25.545  1.00  0.00     0.134 A 
ATOM     17  C   UNL A   1      33.785  28.706  25.678  1.00  0.00     0.050 A 
ATOM     18  C   UNL A   1      32.701  30.714  26.466  1.00  0.00     0.062 A 
ATOM     19  C   UNL A   1      34.716  28.784  26.714  1.00  0.00     0.043 A 
ATOM     20  C   UNL A   1      33.629  30.778  27.514  1.00  0.00     0.058 A 
ATOM     21  Br  UNL A   1      31.402  32.087  26.503  1.00  0.00    -0.047 Br
ATOM     22  C   UNL A   1      34.616  29.812  27.635  1.00  0.00     0.124 A 
ATOM     23  F   UNL A   1      35.467  29.864  28.667  1.00  0.00    -0.207 F 
ENDBRANCH  15  16
ENDBRANCH  14  15
ENDBRANCH  12  14
ENDBRANCH   9  12
ENDBRANCH   4   6
ENDBRANCH   3   4
ENDBRANCH   2   3
ENDBRANCH   1   2
BRANCH   1  24
ATOM     24  O   UNL A   1      35.854  21.341  25.566  1.00  0.00    -0.374 OA
BRANCH  24  25
ATOM     25  C   UNL A   1      36.385  20.185  24.922  1.00  0.00     0.202 C 
BRANCH  25  26
ATOM     26  C   UNL A   1      37.876  19.915  25.146  1.00  0.00     0.261 C 
BRANCH  26  27
ATOM     27  O   UNL A   1      38.608  21.132  25.378  1.00  0.00    -0.460 OA
BRANCH  27  28
ATOM     28  C   UNL A   1      39.723  20.975  26.128  1.00  0.00     0.338 C 
ATOM     29  O   UNL A   1      40.484  20.016  26.130  1.00  0.00    -0.246 OA
BRANCH  28  30
ATOM     30  C   UNL A   1      40.033  22.207  26.877  1.00  0.00     0.060 A 
ATOM     31  C   UNL A   1      39.357  23.369  26.488  1.00  0.00     0.016 A 
ATOM     32  C   UNL A   1      41.037  22.261  27.847  1.00  0.00     0.016 A 
ATOM     33  C   UNL A   1      39.740  24.604  27.000  1.00  0.00     0.010 A 
ATOM     34  C   UNL A   1      41.425  23.506  28.361  1.00  0.00     0.010 A 
ATOM     35  C   UNL A   1      40.816  24.686  27.895  1.00  0.00    -0.014 A 
BRANCH  35  36
ATOM     36  C   UNL A   1      41.406  26.021  28.165  1.00  0.00     0.031 A 
ATOM     37  C   UNL A   1      42.775  26.331  27.620  1.00  0.00     0.074 A 
ATOM     38  C   UNL A   1      40.700  26.975  28.795  1.00  0.00     0.049 A 
ATOM     39  N   UNL A   1      43.451  27.453  27.653  1.00  0.00    -0.248 NA
ATOM     40  C   UNL A   1      43.477  25.229  26.942  1.00  0.00     0.031 C 
ATOM     41  C   UNL A   1      39.354  26.808  29.339  1.00  0.00     0.029 A 
ATOM     42  N   UNL A   1      41.017  28.281  29.071  1.00  0.00    -0.354 N 
ATOM     43  C   UNL A   1      44.648  27.191  26.999  1.00  0.00     0.074 A 
ATOM     44  C   UNL A   1      44.627  25.797  26.615  1.00  0.00     0.031 C 
ATOM     45  C   UNL A   1      38.957  27.973  29.880  1.00  0.00     0.029 A 
ATOM     46  C   UNL A   1      40.026  28.960  29.733  1.00  0.00     0.049 A 
ATOM     47  H   UNL A   1      41.876  28.692  28.818  1.00  0.00     0.167 HD
ATOM     48  C   UNL A   1      45.668  28.041  26.728  1.00  0.00     0.037 A 
ATOM     49  C   UNL A   1      39.988  30.233  30.171  1.00  0.00     0.037 A 
ATOM     50  C   UNL A   1      45.691  29.429  27.104  1.00  0.00     0.049 A 
ATOM     51  C   UNL A   1      41.156  31.146  29.898  1.00  0.00     0.074 A 
ATOM     52  C   UNL A   1      46.673  30.374  26.866  1.00  0.00     0.029 A 
ATOM     53  N   UNL A   1      44.681  30.070  27.806  1.00  0.00    -0.354 N 
ATOM     54  N   UNL A   1      42.268  30.898  29.250  1.00  0.00    -0.248 NA
ATOM     55  C   UNL A   1      41.053  32.521  30.406  1.00  0.00     0.031 C 
ATOM     56  C   UNL A   1      46.277  31.577  27.460  1.00  0.00     0.029 A 
ATOM     57  C   UNL A   1      45.025  31.394  28.025  1.00  0.00     0.049 A 
ATOM     58  H   UNL A   1      43.843  29.647  28.104  1.00  0.00     0.167 HD
ATOM     59  C   UNL A   1      42.984  32.090  29.249  1.00  0.00     0.074 A 
ATOM     60  C   UNL A   1      42.172  33.064  29.947  1.00  0.00     0.031 C 
ATOM     61  C   UNL A   1      44.203  32.353  28.716  1.00  0.00     0.037 A 
BRANCH  48  62
ATOM     62  C   UNL A   1      46.855  27.482  26.000  1.00  0.00     0.064 A 
ATOM     63  C   UNL A   1      46.992  27.606  24.609  1.00  0.00     0.173 A 
ATOM     64  C   UNL A   1      47.881  26.836  26.706  1.00  0.00     0.173 A 
ATOM     65  F   UNL A   1      46.031  28.201  23.887  1.00  0.00    -0.203 F 
ATOM     66  C   UNL A   1      48.101  27.083  23.949  1.00  0.00     0.198 A 
ATOM     67  C   UNL A   1      49.001  26.337  26.046  1.00  0.00     0.198 A 
ATOM     68  F   UNL A   1      47.799  26.692  28.037  1.00  0.00    -0.203 F 
ATOM     69  F   UNL A   1      48.188  27.172  22.615  1.00  0.00    -0.200 F 
ATOM     70  C   UNL A   1      49.107  26.454  24.668  1.00  0.00     0.200 A 
ATOM     71  F   UNL A   1      49.977  25.738  26.743  1.00  0.00    -0.200 F 
ATOM     72  F   UNL A   1      50.175  25.953  24.032  1.00  0.00    -0.200 F 
ENDBRANCH  48  62
BRANCH  49  73
ATOM     73  C   UNL A   1      38.796  30.729  30.907  1.00  0.00     0.064 A 
ATOM     74  C   UNL A   1      37.749  31.378  30.240  1.00  0.00     0.173 A 
ATOM     75  C   UNL A   1      38.693  30.582  32.298  1.00  0.00     0.173 A 
ATOM     76  F   UNL A   1      37.815  31.565  28.913  1.00  0.00    -0.203 F 
ATOM     77  C   UNL A   1      36.651  31.877  30.938  1.00  0.00     0.198 A 
ATOM     78  C   UNL A   1      37.582  31.057  32.992  1.00  0.00     0.198 A 
ATOM     79  F   UNL A   1      39.671  29.971  32.984  1.00  0.00    -0.203 F 
ATOM     80  F   UNL A   1      35.685  32.534  30.282  1.00  0.00    -0.200 F 
ATOM     81  C   UNL A   1      36.566  31.712  32.312  1.00  0.00     0.200 A 
ATOM     82  F   UNL A   1      37.500  30.887  34.318  1.00  0.00    -0.200 F 
ATOM     83  F   UNL A   1      35.509  32.190  32.982  1.00  0.00    -0.200 F 
ENDBRANCH  49  73
BRANCH  61  84
ATOM     84  C   UNL A   1      44.717  33.759  28.839  1.00  0.00     0.064 A 
ATOM     85  C   UNL A   1      45.516  34.160  29.918  1.00  0.00     0.173 A 
ATOM     86  C   UNL A   1      44.428  34.708  27.847  1.00  0.00     0.173 A 
ATOM     87  F   UNL A   1      45.810  33.292  30.899  1.00  0.00    -0.203 F 
ATOM     88  C   UNL A   1      45.981  35.469  30.017  1.00  0.00     0.198 A 
ATOM     89  C   UNL A   1      44.919  36.008  27.934  1.00  0.00     0.198 A 
ATOM     90  F   UNL A   1      43.675  34.374  26.788  1.00  0.00    -0.203 F 
ATOM     91  F   UNL A   1      46.701  35.843  31.084  1.00  0.00    -0.200 F 
ATOM     92  C   UNL A   1      45.688  36.389  29.023  1.00  0.00     0.200 A 
ATOM     93  F   UNL A   1      44.645  36.893  26.965  1.00  0.00    -0.200 F 
ATOM     94  F   UNL A   1      46.138  37.647  29.119  1.00  0.00    -0.200 F 
ENDBRANCH  61  84
ENDBRANCH  35  36
ENDBRANCH  28  30
ENDBRANCH  27  28
ENDBRANCH  26  27
ENDBRANCH  25  26
ENDBRANCH  24  25
ENDBRANCH   1  24
TORSDOF 18
ENDMDL
MODEL 3
REMARK VINA RESULT:     -10.9      3.864      9.092
REMARK SMILES C[C@H]1[C@H](C(=O)OCCOCCOC(=O)c2ccc(-c3c4nc(c(-c5c(F)c(F)c(F)c(F)c5F)c5ccc([nH]5)c(-c5c(F)c(F)c(F)c(F)c5F)c5nc(c(-c6c(F)c(F)c(F)c(F)c6F)c6ccc3[nH]6)C=C5)C=C4)cc2)CCN1C(=O)COc1ccc(F)cc1Br
REMARK SMILES IDX 8 1 7 2 6 3 4 4 5 5 3 6 1 7 2 8 80 9 78 10 79 11 81 12 82 13
REMARK SMILES IDX 83 14 84 15 85 16 86 17 91 18 87 19 90 20 92 21 88 22 89 23
REMARK SMILES IDX 9 24 10 25 11 26 12 27 13 28 14 29 15 30 16 31 77 32 17 33
REMARK SMILES IDX 76 34 18 35 19 36 20 37 70 38 21 39 75 40 69 41 71 42 22 43
REMARK SMILES IDX 74 44 68 45 67 46 23 48 55 49 35 50 54 51 36 52 39 53 53 54
REMARK SMILES IDX 72 55 37 56 38 57 52 59 73 60 40 61 24 62 25 63 33 64 26 65
REMARK SMILES IDX 27 66 31 67 34 68 28 69 29 70 32 71 30 72 56 73 57 74 65 75
REMARK SMILES IDX 58 76 59 77 63 78 66 79 60 80 61 81 64 82 62 83 41 84 42 85
REMARK SMILES IDX 50 86 43 87 44 88 48 89 51 90 45 91 46 92 49 93 47 94
REMARK H PARENT 71 47 39 58
REMARK Flexibility Score: inf
ROOT
ATOM      1  C   UNL A   1      33.623  34.973  29.395  1.00  0.00     0.202 C 
ENDROOT
BRANCH   1   2
ATOM      2  C   UNL A   1      33.611  34.096  28.140  1.00  0.00     0.261 C 
BRANCH   2   3
ATOM      3  O   UNL A   1      33.603  32.696  28.472  1.00  0.00    -0.463 OA
BRANCH   3   4
ATOM      4  C   UNL A   1      34.564  31.937  27.881  1.00  0.00     0.311 C 
ATOM      5  O   UNL A   1      35.660  32.344  27.521  1.00  0.00    -0.252 OA
BRANCH   4   6
ATOM      6  C   UNL A   1      34.117  30.514  27.656  1.00  0.00     0.123 C 
ATOM      7  C   UNL A   1      31.765  30.296  26.810  1.00  0.00     0.032 C 
ATOM      8  C   UNL A   1      33.239  30.259  26.406  1.00  0.00     0.096 C 
ATOM      9  N   UNL A   1      33.718  28.958  25.899  1.00  0.00    -0.336 N 
ATOM     10  C   UNL A   1      35.330  29.614  27.476  1.00  0.00     0.039 C 
ATOM     11  C   UNL A   1      34.745  28.414  26.771  1.00  0.00     0.121 C 
BRANCH   9  12
ATOM     12  C   UNL A   1      33.580  28.428  24.627  1.00  0.00     0.260 C 
ATOM     13  O   UNL A   1      34.249  28.856  23.680  1.00  0.00    -0.271 OA
BRANCH  12  14
ATOM     14  C   UNL A   1      32.627  27.253  24.387  1.00  0.00     0.329 C 
BRANCH  14  15
ATOM     15  O   UNL A   1      33.152  26.109  23.748  1.00  0.00    -0.483 OA
BRANCH  15  16
ATOM     16  C   UNL A   1      33.467  24.981  24.449  1.00  0.00     0.134 A 
ATOM     17  C   UNL A   1      34.688  25.106  25.135  1.00  0.00     0.050 A 
ATOM     18  C   UNL A   1      32.857  23.720  24.389  1.00  0.00     0.062 A 
ATOM     19  C   UNL A   1      35.302  24.002  25.727  1.00  0.00     0.043 A 
ATOM     20  C   UNL A   1      33.487  22.612  24.972  1.00  0.00     0.058 A 
ATOM     21  Br  UNL A   1      31.239  23.308  23.504  1.00  0.00    -0.047 Br
ATOM     22  C   UNL A   1      34.703  22.760  25.622  1.00  0.00     0.124 A 
ATOM     23  F   UNL A   1      35.311  21.683  26.134  1.00  0.00    -0.207 F 
ENDBRANCH  15  16
ENDBRANCH  14  15
ENDBRANCH  12  14
ENDBRANCH   9  12
ENDBRANCH   4   6
ENDBRANCH   3   4
ENDBRANCH   2   3
ENDBRANCH   1   2
BRANCH   1  24
ATOM     24  O   UNL A   1      33.634  34.280  30.643  1.00  0.00    -0.374 OA
BRANCH  24  25
ATOM     25  C   UNL A   1      34.043  35.014  31.795  1.00  0.00     0.202 C 
BRANCH  25  26
ATOM     26  C   UNL A   1      34.698  34.199  32.914  1.00  0.00     0.261 C 
BRANCH  26  27
ATOM     27  O   UNL A   1      35.043  32.872  32.475  1.00  0.00    -0.460 OA
BRANCH  27  28
ATOM     28  C   UNL A   1      36.074  32.315  33.151  1.00  0.00     0.338 C 
ATOM     29  O   UNL A   1      36.284  32.367  34.356  1.00  0.00    -0.246 OA
BRANCH  28  30
ATOM     30  C   UNL A   1      36.887  31.462  32.264  1.00  0.00     0.060 A 
ATOM     31  C   UNL A   1      37.935  30.750  32.860  1.00  0.00     0.016 A 
ATOM     32  C   UNL A   1      36.717  31.446  30.878  1.00  0.00     0.016 A 
ATOM     33  C   UNL A   1      38.869  30.091  32.068  1.00  0.00     0.010 A 
ATOM     34  C   UNL A   1      37.660  30.783  30.080  1.00  0.00     0.010 A 
ATOM     35  C   UNL A   1      38.770  30.153  30.672  1.00  0.00    -0.014 A 
BRANCH  35  36
ATOM     36  C   UNL A   1      39.942  29.729  29.864  1.00  0.00     0.031 A 
ATOM     37  C   UNL A   1      41.095  30.684  29.705  1.00  0.00     0.074 A 
ATOM     38  C   UNL A   1      40.023  28.484  29.365  1.00  0.00     0.049 A 
ATOM     39  N   UNL A   1      42.254  30.500  29.123  1.00  0.00    -0.248 NA
ATOM     40  C   UNL A   1      40.921  32.026  30.285  1.00  0.00     0.031 C 
ATOM     41  C   UNL A   1      38.989  27.459  29.481  1.00  0.00     0.029 A 
ATOM     42  N   UNL A   1      41.035  27.869  28.671  1.00  0.00    -0.354 N 
ATOM     43  C   UNL A   1      42.943  31.698  29.271  1.00  0.00     0.074 A 
ATOM     44  C   UNL A   1      42.063  32.614  29.960  1.00  0.00     0.031 C 
ATOM     45  C   UNL A   1      39.422  26.336  28.881  1.00  0.00     0.029 A 
ATOM     46  C   UNL A   1      40.755  26.570  28.329  1.00  0.00     0.049 A 
ATOM     47  H   UNL A   1      41.881  28.317  28.440  1.00  0.00     0.167 HD
ATOM     48  C   UNL A   1      44.206  32.001  28.882  1.00  0.00     0.037 A 
ATOM     49  C   UNL A   1      41.494  25.673  27.647  1.00  0.00     0.037 A 
ATOM     50  C   UNL A   1      45.086  31.091  28.200  1.00  0.00     0.049 A 
ATOM     51  C   UNL A   1      42.877  26.051  27.183  1.00  0.00     0.074 A 
ATOM     52  C   UNL A   1      46.386  31.302  27.774  1.00  0.00     0.029 A 
ATOM     53  N   UNL A   1      44.752  29.794  27.840  1.00  0.00    -0.354 N 
ATOM     54  N   UNL A   1      43.532  27.173  27.357  1.00  0.00    -0.248 NA
ATOM     55  C   UNL A   1      43.627  25.029  26.440  1.00  0.00     0.031 C 
ATOM     56  C   UNL A   1      46.824  30.146  27.119  1.00  0.00     0.029 A 
ATOM     57  C   UNL A   1      45.815  29.199  27.180  1.00  0.00     0.049 A 
ATOM     58  H   UNL A   1      43.888  29.361  28.026  1.00  0.00     0.167 HD
ATOM     59  C   UNL A   1      44.778  26.984  26.772  1.00  0.00     0.074 A 
ATOM     60  C   UNL A   1      44.792  25.633  26.251  1.00  0.00     0.031 C 
ATOM     61  C   UNL A   1      45.816  27.850  26.675  1.00  0.00     0.037 A 
BRANCH  48  62
ATOM     62  C   UNL A   1      44.700  33.387  29.172  1.00  0.00     0.064 A 
ATOM     63  C   UNL A   1      45.401  33.688  30.349  1.00  0.00     0.173 A 
ATOM     64  C   UNL A   1      44.493  34.423  28.249  1.00  0.00     0.173 A 
ATOM     65  F   UNL A   1      45.611  32.736  31.271  1.00  0.00    -0.203 F 
ATOM     66  C   UNL A   1      45.855  34.980  30.603  1.00  0.00     0.198 A 
ATOM     67  C   UNL A   1      44.972  35.708  28.493  1.00  0.00     0.198 A 
ATOM     68  F   UNL A   1      43.830  34.188  27.106  1.00  0.00    -0.203 F 
ATOM     69  F   UNL A   1      46.481  35.254  31.756  1.00  0.00    -0.200 F 
ATOM     70  C   UNL A   1      45.645  35.987  29.673  1.00  0.00     0.200 A 
ATOM     71  F   UNL A   1      44.776  36.678  27.588  1.00  0.00    -0.200 F 
ATOM     72  F   UNL A   1      46.086  37.229  29.916  1.00  0.00    -0.200 F 
ENDBRANCH  48  62
BRANCH  49  73
ATOM     73  C   UNL A   1      40.945  24.321  27.366  1.00  0.00     0.064 A 
ATOM     74  C   UNL A   1      39.881  24.141  26.473  1.00  0.00     0.173 A 
ATOM     75  C   UNL A   1      41.462  23.184  28.004  1.00  0.00     0.173 A 
ATOM     76  F   UNL A   1      39.336  25.202  25.859  1.00  0.00    -0.203 F 
ATOM     77  C   UNL A   1      39.342  22.877  26.242  1.00  0.00     0.198 A 
ATOM     78  C   UNL A   1      40.940  21.917  27.751  1.00  0.00     0.198 A 
ATOM     79  F   UNL A   1      42.480  23.304  28.870  1.00  0.00    -0.203 F 
ATOM     80  F   UNL A   1      38.294  22.738  25.418  1.00  0.00    -0.200 F 
ATOM     81  C   UNL A   1      39.876  21.765  26.877  1.00  0.00     0.200 A 
ATOM     82  F   UNL A   1      41.465  20.845  28.360  1.00  0.00    -0.200 F 
ATOM     83  F   UNL A   1      39.358  20.550  26.652  1.00  0.00    -0.200 F 
ENDBRANCH  49  73
BRANCH  61  84
ATOM     84  C   UNL A   1      47.068  27.351  26.010  1.00  0.00     0.064 A 
ATOM     85  C   UNL A   1      47.314  27.566  24.647  1.00  0.00     0.173 A 
ATOM     86  C   UNL A   1      48.045  26.675  26.756  1.00  0.00     0.173 A 
ATOM     87  F   UNL A   1      46.404  28.198  23.888  1.00  0.00    -0.203 F 
ATOM     88  C   UNL A   1      48.478  27.093  24.047  1.00  0.00     0.198 A 
ATOM     89  C   UNL A   1      49.221  26.229  26.158  1.00  0.00     0.198 A 
ATOM     90  F   UNL A   1      47.862  26.451  28.066  1.00  0.00    -0.203 F 
ATOM     91  F   UNL A   1      48.668  27.266  22.732  1.00  0.00    -0.200 F 
ATOM     92  C   UNL A   1      49.433  26.432  24.804  1.00  0.00     0.200 A 
ATOM     93  F   UNL A   1      50.148  25.600  26.895  1.00  0.00    -0.200 F 
ATOM     94  F   UNL A   1      50.553  25.980  24.224  1.00  0.00    -0.200 F 
ENDBRANCH  61  84
ENDBRANCH  35  36
ENDBRANCH  28  30
ENDBRANCH  27  28
ENDBRANCH  26  27
ENDBRANCH  25  26
ENDBRANCH  24  25
ENDBRANCH   1  24
TORSDOF 18
ENDMDL
