MODEL 1
REMARK VINA RESULT:      -9.6      0.000      0.000
REMARK SMILES O=C(CCC(=O)OCCOCCOC(=O)c1ccc(-c2c3nc(c(-c4c(F)c(F)c(F)c(F)c4F)c4ccc([nH]4)c(-c4c(F)c(F)c(F)c(F)c4F)c4nc(c(-c5c(F)c(F)c(F)c(F)c5F)c5ccc2[nH]5)C=C4)C=C3)cc1)Nc1nncs1
REMARK SMILES IDX 9 1 8 2 7 3 5 4 6 5 4 6 3 7 2 8 1 9 79 10 80 12 81 13 84 14
REMARK SMILES IDX 82 15 83 16 10 17 11 18 12 19 13 20 14 21 15 22 16 23 17 24
REMARK SMILES IDX 78 25 18 26 77 27 19 28 20 29 21 30 71 31 22 32 76 33 70 34
REMARK SMILES IDX 72 35 23 36 75 37 69 38 68 39 24 41 56 42 36 43 55 44 37 45
REMARK SMILES IDX 40 46 54 47 73 48 38 49 39 50 53 52 74 53 41 54 25 55 26 56
REMARK SMILES IDX 34 57 27 58 28 59 32 60 35 61 29 62 30 63 33 64 31 65 57 66
REMARK SMILES IDX 58 67 66 68 59 69 60 70 64 71 67 72 61 73 62 74 65 75 63 76
REMARK SMILES IDX 42 77 43 78 51 79 44 80 45 81 49 82 52 83 46 84 47 85 50 86
REMARK SMILES IDX 48 87
REMARK H PARENT 79 11 72 40 40 51
REMARK Flexibility Score: inf
ROOT
ATOM      1  C   UNL A   1      33.578  35.319  29.730  1.00  0.00     0.202 C 
ENDROOT
BRANCH   1   2
ATOM      2  C   UNL A   1      33.305  36.762  30.165  1.00  0.00     0.261 C 
BRANCH   2   3
ATOM      3  O   UNL A   1      32.152  36.825  31.038  1.00  0.00    -0.463 OA
BRANCH   3   4
ATOM      4  C   UNL A   1      32.400  36.813  32.378  1.00  0.00     0.306 C 
ATOM      5  O   UNL A   1      31.544  36.828  33.249  1.00  0.00    -0.252 OA
BRANCH   4   6
ATOM      6  C   UNL A   1      33.886  36.834  32.669  1.00  0.00     0.132 C 
BRANCH   6   7
ATOM      7  C   UNL A   1      34.329  35.987  33.861  1.00  0.00     0.112 C 
BRANCH   7   8
ATOM      8  C   UNL A   1      35.422  34.984  33.536  1.00  0.00     0.226 C 
ATOM      9  O   UNL A   1      36.396  35.328  32.876  1.00  0.00    -0.275 OA
ATOM     10  N   UNL A   1      35.195  33.736  34.055  1.00  0.00    -0.301 N 
ATOM     11  H   UNL A   1      34.367  33.575  34.563  1.00  0.00     0.172 HD
BRANCH  10  12
ATOM     12  C   UNL A   1      36.080  32.710  33.892  1.00  0.00     0.212 A 
ATOM     13  N   UNL A   1      37.040  32.281  34.671  1.00  0.00    -0.120 NA
ATOM     14  S   UNL A   1      35.915  31.871  32.414  1.00  0.00    -0.083 S 
ATOM     15  N   UNL A   1      37.725  31.222  34.104  1.00  0.00    -0.145 NA
ATOM     16  C   UNL A   1      37.266  30.932  32.906  1.00  0.00     0.204 A 
ENDBRANCH  10  12
ENDBRANCH   7   8
ENDBRANCH   6   7
ENDBRANCH   4   6
ENDBRANCH   3   4
ENDBRANCH   2   3
ENDBRANCH   1   2
BRANCH   1  17
ATOM     17  O   UNL A   1      32.611  34.745  28.852  1.00  0.00    -0.374 OA
BRANCH  17  18
ATOM     18  C   UNL A   1      33.064  33.744  27.947  1.00  0.00     0.202 C 
BRANCH  18  19
ATOM     19  C   UNL A   1      34.077  32.736  28.506  1.00  0.00     0.261 C 
BRANCH  19  20
ATOM     20  O   UNL A   1      34.641  31.895  27.483  1.00  0.00    -0.460 OA
BRANCH  20  21
ATOM     21  C   UNL A   1      34.563  30.569  27.749  1.00  0.00     0.338 C 
ATOM     22  O   UNL A   1      33.578  29.851  27.643  1.00  0.00    -0.246 OA
BRANCH  21  23
ATOM     23  C   UNL A   1      35.899  30.017  28.036  1.00  0.00     0.060 A 
ATOM     24  C   UNL A   1      36.110  29.476  29.312  1.00  0.00     0.016 A 
ATOM     25  C   UNL A   1      36.948  30.091  27.120  1.00  0.00     0.016 A 
ATOM     26  C   UNL A   1      37.385  29.062  29.697  1.00  0.00     0.010 A 
ATOM     27  C   UNL A   1      38.226  29.672  27.510  1.00  0.00     0.010 A 
ATOM     28  C   UNL A   1      38.463  29.190  28.813  1.00  0.00    -0.014 A 
BRANCH  28  29
ATOM     29  C   UNL A   1      39.851  28.972  29.303  1.00  0.00     0.031 A 
ATOM     30  C   UNL A   1      40.566  27.702  28.920  1.00  0.00     0.074 A 
ATOM     31  C   UNL A   1      40.490  29.896  30.046  1.00  0.00     0.049 A 
ATOM     32  N   UNL A   1      41.773  27.300  29.234  1.00  0.00    -0.248 NA
ATOM     33  C   UNL A   1      39.826  26.767  28.059  1.00  0.00     0.031 C 
ATOM     34  C   UNL A   1      39.951  31.196  30.437  1.00  0.00     0.029 A 
ATOM     35  N   UNL A   1      41.736  29.867  30.624  1.00  0.00    -0.354 N 
ATOM     36  C   UNL A   1      41.941  26.080  28.590  1.00  0.00     0.074 A 
ATOM     37  C   UNL A   1      40.690  25.772  27.931  1.00  0.00     0.031 C 
ATOM     38  C   UNL A   1      40.832  31.815  31.242  1.00  0.00     0.029 A 
ATOM     39  C   UNL A   1      42.005  30.960  31.411  1.00  0.00     0.049 A 
ATOM     40  H   UNL A   1      42.377  29.132  30.487  1.00  0.00     0.167 HD
ATOM     41  C   UNL A   1      43.048  25.302  28.520  1.00  0.00     0.037 A 
ATOM     42  C   UNL A   1      43.073  31.238  32.185  1.00  0.00     0.037 A 
ATOM     43  C   UNL A   1      44.293  25.595  29.179  1.00  0.00     0.049 A 
ATOM     44  C   UNL A   1      44.253  30.301  32.184  1.00  0.00     0.074 A 
ATOM     45  C   UNL A   1      45.473  24.873  29.158  1.00  0.00     0.029 A 
ATOM     46  N   UNL A   1      44.513  26.698  29.990  1.00  0.00    -0.354 N 
ATOM     47  N   UNL A   1      44.422  29.181  31.524  1.00  0.00    -0.248 NA
ATOM     48  C   UNL A   1      45.406  30.687  33.009  1.00  0.00     0.031 C 
ATOM     49  C   UNL A   1      46.393  25.513  29.995  1.00  0.00     0.029 A 
ATOM     50  C   UNL A   1      45.805  26.666  30.492  1.00  0.00     0.049 A 
ATOM     51  H   UNL A   1      43.850  27.400  30.181  1.00  0.00     0.167 HD
ATOM     52  C   UNL A   1      45.716  28.762  31.808  1.00  0.00     0.074 A 
ATOM     53  C   UNL A   1      46.288  29.748  32.699  1.00  0.00     0.031 C 
ATOM     54  C   UNL A   1      46.375  27.664  31.360  1.00  0.00     0.037 A 
BRANCH  41  55
ATOM     55  C   UNL A   1      42.958  24.053  27.690  1.00  0.00     0.064 A 
ATOM     56  C   UNL A   1      42.551  22.830  28.250  1.00  0.00     0.173 A 
ATOM     57  C   UNL A   1      43.250  24.081  26.319  1.00  0.00     0.173 A 
ATOM     58  F   UNL A   1      42.273  22.747  29.559  1.00  0.00    -0.203 F 
ATOM     59  C   UNL A   1      42.474  21.677  27.473  1.00  0.00     0.198 A 
ATOM     60  C   UNL A   1      43.139  22.932  25.539  1.00  0.00     0.198 A 
ATOM     61  F   UNL A   1      43.635  25.224  25.732  1.00  0.00    -0.203 F 
ATOM     62  F   UNL A   1      42.135  20.511  28.041  1.00  0.00    -0.200 F 
ATOM     63  C   UNL A   1      42.760  21.730  26.118  1.00  0.00     0.200 A 
ATOM     64  F   UNL A   1      43.403  22.988  24.226  1.00  0.00    -0.200 F 
ATOM     65  F   UNL A   1      42.678  20.621  25.371  1.00  0.00    -0.200 F 
ENDBRANCH  41  55
BRANCH  42  66
ATOM     66  C   UNL A   1      43.091  32.468  33.021  1.00  0.00     0.064 A 
ATOM     67  C   UNL A   1      42.667  32.448  34.357  1.00  0.00     0.173 A 
ATOM     68  C   UNL A   1      43.489  33.701  32.482  1.00  0.00     0.173 A 
ATOM     69  F   UNL A   1      42.260  31.297  34.912  1.00  0.00    -0.203 F 
ATOM     70  C   UNL A   1      42.607  33.619  35.111  1.00  0.00     0.198 A 
ATOM     71  C   UNL A   1      43.455  34.866  33.246  1.00  0.00     0.198 A 
ATOM     72  F   UNL A   1      43.913  33.773  31.212  1.00  0.00    -0.203 F 
ATOM     73  F   UNL A   1      42.143  33.579  36.367  1.00  0.00    -0.200 F 
ATOM     74  C   UNL A   1      43.002  34.825  34.556  1.00  0.00     0.200 A 
ATOM     75  F   UNL A   1      43.852  36.028  32.709  1.00  0.00    -0.200 F 
ATOM     76  F   UNL A   1      42.939  35.951  35.279  1.00  0.00    -0.200 F 
ENDBRANCH  42  66
BRANCH  54  77
ATOM     77  C   UNL A   1      47.812  27.505  31.766  1.00  0.00     0.064 A 
ATOM     78  C   UNL A   1      48.188  26.791  32.914  1.00  0.00     0.173 A 
ATOM     79  C   UNL A   1      48.833  28.059  30.977  1.00  0.00     0.173 A 
ATOM     80  F   UNL A   1      47.252  26.253  33.710  1.00  0.00    -0.203 F 
ATOM     81  C   UNL A   1      49.528  26.670  33.276  1.00  0.00     0.198 A 
ATOM     82  C   UNL A   1      50.174  27.906  31.323  1.00  0.00     0.198 A 
ATOM     83  F   UNL A   1      48.533  28.745  29.864  1.00  0.00    -0.203 F 
ATOM     84  F   UNL A   1      49.857  26.037  34.410  1.00  0.00    -0.200 F 
ATOM     85  C   UNL A   1      50.519  27.221  32.478  1.00  0.00     0.200 A 
ATOM     86  F   UNL A   1      51.130  28.426  30.541  1.00  0.00    -0.200 F 
ATOM     87  F   UNL A   1      51.807  27.101  32.826  1.00  0.00    -0.200 F 
ENDBRANCH  54  77
ENDBRANCH  28  29
ENDBRANCH  21  23
ENDBRANCH  20  21
ENDBRANCH  19  20
ENDBRANCH  18  19
ENDBRANCH  17  18
ENDBRANCH   1  17
TORSDOF 17
ENDMDL
MODEL 2
REMARK VINA RESULT:      -9.5      4.746     10.152
REMARK SMILES O=C(CCC(=O)OCCOCCOC(=O)c1ccc(-c2c3nc(c(-c4c(F)c(F)c(F)c(F)c4F)c4ccc([nH]4)c(-c4c(F)c(F)c(F)c(F)c4F)c4nc(c(-c5c(F)c(F)c(F)c(F)c5F)c5ccc2[nH]5)C=C4)C=C3)cc1)Nc1nncs1
REMARK SMILES IDX 9 1 8 2 7 3 5 4 6 5 4 6 3 7 2 8 1 9 79 10 80 12 81 13 84 14
REMARK SMILES IDX 82 15 83 16 10 17 11 18 12 19 13 20 14 21 15 22 16 23 17 24
REMARK SMILES IDX 78 25 18 26 77 27 19 28 20 29 21 30 71 31 22 32 76 33 70 34
REMARK SMILES IDX 72 35 23 36 75 37 69 38 68 39 24 41 56 42 36 43 55 44 37 45
REMARK SMILES IDX 40 46 54 47 73 48 38 49 39 50 53 52 74 53 41 54 25 55 26 56
REMARK SMILES IDX 34 57 27 58 28 59 32 60 35 61 29 62 30 63 33 64 31 65 57 66
REMARK SMILES IDX 58 67 66 68 59 69 60 70 64 71 67 72 61 73 62 74 65 75 63 76
REMARK SMILES IDX 42 77 43 78 51 79 44 80 45 81 49 82 52 83 46 84 47 85 50 86
REMARK SMILES IDX 48 87
REMARK H PARENT 79 11 72 40 40 51
REMARK Flexibility Score: inf
ROOT
ATOM      1  C   UNL A   1      32.368  29.200  27.122  1.00  0.00     0.202 C 
ENDROOT
BRANCH   1   2
ATOM      2  C   UNL A   1      32.112  28.607  25.733  1.00  0.00     0.261 C 
BRANCH   2   3
ATOM      3  O   UNL A   1      31.080  27.595  25.791  1.00  0.00    -0.463 OA
BRANCH   3   4
ATOM      4  C   UNL A   1      31.283  26.473  25.043  1.00  0.00     0.306 C 
ATOM      5  O   UNL A   1      31.840  25.460  25.439  1.00  0.00    -0.252 OA
BRANCH   4   6
ATOM      6  C   UNL A   1      30.782  26.650  23.626  1.00  0.00     0.132 C 
BRANCH   6   7
ATOM      7  C   UNL A   1      29.424  27.338  23.496  1.00  0.00     0.112 C 
BRANCH   7   8
ATOM      8  C   UNL A   1      29.486  28.709  22.845  1.00  0.00     0.226 C 
ATOM      9  O   UNL A   1      30.560  29.287  22.726  1.00  0.00    -0.275 OA
ATOM     10  N   UNL A   1      28.265  29.174  22.425  1.00  0.00    -0.301 N 
ATOM     11  H   UNL A   1      27.466  28.622  22.585  1.00  0.00     0.172 HD
BRANCH  10  12
ATOM     12  C   UNL A   1      28.124  30.375  21.793  1.00  0.00     0.212 A 
ATOM     13  N   UNL A   1      27.944  30.655  20.527  1.00  0.00    -0.120 NA
ATOM     14  S   UNL A   1      28.226  31.728  22.830  1.00  0.00    -0.083 S 
ATOM     15  N   UNL A   1      27.881  32.019  20.309  1.00  0.00    -0.145 NA
ATOM     16  C   UNL A   1      28.055  32.698  21.422  1.00  0.00     0.204 A 
ENDBRANCH  10  12
ENDBRANCH   7   8
ENDBRANCH   6   7
ENDBRANCH   4   6
ENDBRANCH   3   4
ENDBRANCH   2   3
ENDBRANCH   1   2
BRANCH   1  17
ATOM     17  O   UNL A   1      32.610  30.606  27.158  1.00  0.00    -0.374 OA
BRANCH  17  18
ATOM     18  C   UNL A   1      31.638  31.451  26.551  1.00  0.00     0.202 C 
BRANCH  18  19
ATOM     19  C   UNL A   1      31.743  32.947  26.880  1.00  0.00     0.261 C 
BRANCH  19  20
ATOM     20  O   UNL A   1      33.097  33.361  27.141  1.00  0.00    -0.460 OA
BRANCH  20  21
ATOM     21  C   UNL A   1      33.229  34.178  28.213  1.00  0.00     0.338 C 
ATOM     22  O   UNL A   1      32.488  35.097  28.538  1.00  0.00    -0.246 OA
BRANCH  21  23
ATOM     23  C   UNL A   1      34.323  33.717  29.087  1.00  0.00     0.060 A 
ATOM     24  C   UNL A   1      35.620  34.142  28.771  1.00  0.00     0.016 A 
ATOM     25  C   UNL A   1      34.109  32.828  30.141  1.00  0.00     0.016 A 
ATOM     26  C   UNL A   1      36.716  33.635  29.470  1.00  0.00     0.010 A 
ATOM     27  C   UNL A   1      35.211  32.323  30.842  1.00  0.00     0.010 A 
ATOM     28  C   UNL A   1      36.524  32.693  30.488  1.00  0.00    -0.014 A 
BRANCH  28  29
ATOM     29  C   UNL A   1      37.697  31.981  31.066  1.00  0.00     0.031 A 
ATOM     30  C   UNL A   1      38.190  32.383  32.432  1.00  0.00     0.074 A 
ATOM     31  C   UNL A   1      38.300  30.969  30.414  1.00  0.00     0.049 A 
ATOM     32  N   UNL A   1      39.192  31.906  33.129  1.00  0.00    -0.248 NA
ATOM     33  C   UNL A   1      37.445  33.457  33.108  1.00  0.00     0.031 C 
ATOM     34  C   UNL A   1      37.893  30.428  29.119  1.00  0.00     0.029 A 
ATOM     35  N   UNL A   1      39.405  30.226  30.751  1.00  0.00    -0.354 N 
ATOM     36  C   UNL A   1      39.181  32.606  34.329  1.00  0.00     0.074 A 
ATOM     37  C   UNL A   1      38.123  33.589  34.238  1.00  0.00     0.031 C 
ATOM     38  C   UNL A   1      38.772  29.484  28.740  1.00  0.00     0.029 A 
ATOM     39  C   UNL A   1      39.796  29.343  29.774  1.00  0.00     0.049 A 
ATOM     40  H   UNL A   1      39.873  30.317  31.612  1.00  0.00     0.167 HD
ATOM     41  C   UNL A   1      39.956  32.424  35.426  1.00  0.00     0.037 A 
ATOM     42  C   UNL A   1      40.861  28.520  29.715  1.00  0.00     0.037 A 
ATOM     43  C   UNL A   1      41.016  31.456  35.522  1.00  0.00     0.049 A 
ATOM     44  C   UNL A   1      41.781  28.413  30.904  1.00  0.00     0.074 A 
ATOM     45  C   UNL A   1      41.848  31.190  36.595  1.00  0.00     0.029 A 
ATOM     46  N   UNL A   1      41.397  30.602  34.499  1.00  0.00    -0.354 N 
ATOM     47  N   UNL A   1      41.724  29.037  32.055  1.00  0.00    -0.248 NA
ATOM     48  C   UNL A   1      42.894  27.458  30.797  1.00  0.00     0.031 C 
ATOM     49  C   UNL A   1      42.765  30.208  36.205  1.00  0.00     0.029 A 
ATOM     50  C   UNL A   1      42.467  29.821  34.908  1.00  0.00     0.049 A 
ATOM     51  H   UNL A   1      40.971  30.557  33.612  1.00  0.00     0.167 HD
ATOM     52  C   UNL A   1      42.754  28.510  32.826  1.00  0.00     0.074 A 
ATOM     53  C   UNL A   1      43.418  27.516  32.012  1.00  0.00     0.031 C 
ATOM     54  C   UNL A   1      43.107  28.816  34.100  1.00  0.00     0.037 A 
BRANCH  41  55
ATOM     55  C   UNL A   1      39.675  33.295  36.616  1.00  0.00     0.064 A 
ATOM     56  C   UNL A   1      40.325  34.529  36.791  1.00  0.00     0.173 A 
ATOM     57  C   UNL A   1      38.730  32.912  37.578  1.00  0.00     0.173 A 
ATOM     58  F   UNL A   1      41.248  34.936  35.906  1.00  0.00    -0.203 F 
ATOM     59  C   UNL A   1      40.061  35.328  37.899  1.00  0.00     0.198 A 
ATOM     60  C   UNL A   1      38.444  33.730  38.669  1.00  0.00     0.198 A 
ATOM     61  F   UNL A   1      38.075  31.748  37.457  1.00  0.00    -0.203 F 
ATOM     62  F   UNL A   1      40.732  36.475  38.071  1.00  0.00    -0.200 F 
ATOM     63  C   UNL A   1      39.116  34.932  38.833  1.00  0.00     0.200 A 
ATOM     64  F   UNL A   1      37.521  33.353  39.564  1.00  0.00    -0.200 F 
ATOM     65  F   UNL A   1      38.859  35.706  39.896  1.00  0.00    -0.200 F 
ENDBRANCH  41  55
BRANCH  42  66
ATOM     66  C   UNL A   1      41.115  27.711  28.493  1.00  0.00     0.064 A 
ATOM     67  C   UNL A   1      41.983  28.161  27.489  1.00  0.00     0.173 A 
ATOM     68  C   UNL A   1      40.455  26.490  28.286  1.00  0.00     0.173 A 
ATOM     69  F   UNL A   1      42.622  29.331  27.633  1.00  0.00    -0.203 F 
ATOM     70  C   UNL A   1      42.154  27.440  26.308  1.00  0.00     0.198 A 
ATOM     71  C   UNL A   1      40.648  25.757  27.116  1.00  0.00     0.198 A 
ATOM     72  F   UNL A   1      39.623  26.009  29.220  1.00  0.00    -0.203 F 
ATOM     73  F   UNL A   1      42.945  27.924  25.341  1.00  0.00    -0.200 F 
ATOM     74  C   UNL A   1      41.489  26.239  26.124  1.00  0.00     0.200 A 
ATOM     75  F   UNL A   1      40.014  24.588  26.949  1.00  0.00    -0.200 F 
ATOM     76  F   UNL A   1      41.649  25.549  24.987  1.00  0.00    -0.200 F 
ENDBRANCH  42  66
BRANCH  54  77
ATOM     77  C   UNL A   1      44.219  28.018  34.720  1.00  0.00     0.064 A 
ATOM     78  C   UNL A   1      43.988  26.798  35.371  1.00  0.00     0.173 A 
ATOM     79  C   UNL A   1      45.545  28.474  34.638  1.00  0.00     0.173 A 
ATOM     80  F   UNL A   1      42.739  26.322  35.489  1.00  0.00    -0.203 F 
ATOM     81  C   UNL A   1      45.035  26.083  35.949  1.00  0.00     0.198 A 
ATOM     82  C   UNL A   1      46.594  27.741  35.186  1.00  0.00     0.198 A 
ATOM     83  F   UNL A   1      45.826  29.631  34.020  1.00  0.00    -0.203 F 
ATOM     84  F   UNL A   1      44.781  24.952  36.620  1.00  0.00    -0.200 F 
ATOM     85  C   UNL A   1      46.337  26.552  35.851  1.00  0.00     0.200 A 
ATOM     86  F   UNL A   1      47.852  28.188  35.076  1.00  0.00    -0.200 F 
ATOM     87  F   UNL A   1      47.343  25.862  36.405  1.00  0.00    -0.200 F 
ENDBRANCH  54  77
ENDBRANCH  28  29
ENDBRANCH  21  23
ENDBRANCH  20  21
ENDBRANCH  19  20
ENDBRANCH  18  19
ENDBRANCH  17  18
ENDBRANCH   1  17
TORSDOF 17
ENDMDL
MODEL 3
REMARK VINA RESULT:      -9.5      1.192      7.748
REMARK SMILES O=C(CCC(=O)OCCOCCOC(=O)c1ccc(-c2c3nc(c(-c4c(F)c(F)c(F)c(F)c4F)c4ccc([nH]4)c(-c4c(F)c(F)c(F)c(F)c4F)c4nc(c(-c5c(F)c(F)c(F)c(F)c5F)c5ccc2[nH]5)C=C4)C=C3)cc1)Nc1nncs1
REMARK SMILES IDX 9 1 8 2 7 3 5 4 6 5 4 6 3 7 2 8 1 9 79 10 80 12 81 13 84 14
REMARK SMILES IDX 82 15 83 16 10 17 11 18 12 19 13 20 14 21 15 22 16 23 17 24
REMARK SMILES IDX 78 25 18 26 77 27 19 28 20 29 21 30 71 31 22 32 76 33 70 34
REMARK SMILES IDX 72 35 23 36 75 37 69 38 68 39 24 41 56 42 36 43 55 44 37 45
REMARK SMILES IDX 40 46 54 47 73 48 38 49 39 50 53 52 74 53 41 54 25 55 26 56
REMARK SMILES IDX 34 57 27 58 28 59 32 60 35 61 29 62 30 63 33 64 31 65 57 66
REMARK SMILES IDX 58 67 66 68 59 69 60 70 64 71 67 72 61 73 62 74 65 75 63 76
REMARK SMILES IDX 42 77 43 78 51 79 44 80 45 81 49 82 52 83 46 84 47 85 50 86
REMARK SMILES IDX 48 87
REMARK H PARENT 79 11 72 40 40 51
REMARK Flexibility Score: inf
ROOT
ATOM      1  C   UNL A   1      33.912  34.732  30.015  1.00  0.00     0.202 C 
ENDROOT
BRANCH   1   2
ATOM      2  C   UNL A   1      33.102  35.293  31.189  1.00  0.00     0.261 C 
BRANCH   2   3
ATOM      3  O   UNL A   1      33.513  34.679  32.433  1.00  0.00    -0.463 OA
BRANCH   3   4
ATOM      4  C   UNL A   1      34.557  35.265  33.085  1.00  0.00     0.306 C 
ATOM      5  O   UNL A   1      34.682  36.466  33.269  1.00  0.00    -0.252 OA
BRANCH   4   6
ATOM      6  C   UNL A   1      35.590  34.244  33.515  1.00  0.00     0.132 C 
BRANCH   6   7
ATOM      7  C   UNL A   1      35.342  32.819  33.023  1.00  0.00     0.112 C 
BRANCH   7   8
ATOM      8  C   UNL A   1      36.609  32.042  32.713  1.00  0.00     0.226 C 
ATOM      9  O   UNL A   1      37.187  32.208  31.645  1.00  0.00    -0.275 OA
ATOM     10  N   UNL A   1      36.999  31.201  33.724  1.00  0.00    -0.301 N 
ATOM     11  H   UNL A   1      36.445  31.144  34.536  1.00  0.00     0.172 HD
BRANCH  10  12
ATOM     12  C   UNL A   1      38.129  30.440  33.640  1.00  0.00     0.212 A 
ATOM     13  N   UNL A   1      38.317  29.246  33.139  1.00  0.00    -0.120 NA
ATOM     14  S   UNL A   1      39.514  31.166  34.326  1.00  0.00    -0.083 S 
ATOM     15  N   UNL A   1      39.626  28.828  33.289  1.00  0.00    -0.145 NA
ATOM     16  C   UNL A   1      40.351  29.719  33.930  1.00  0.00     0.204 A 
ENDBRANCH  10  12
ENDBRANCH   7   8
ENDBRANCH   6   7
ENDBRANCH   4   6
ENDBRANCH   3   4
ENDBRANCH   2   3
ENDBRANCH   1   2
BRANCH   1  17
ATOM     17  O   UNL A   1      33.152  34.333  28.875  1.00  0.00    -0.374 OA
BRANCH  17  18
ATOM     18  C   UNL A   1      33.779  33.453  27.948  1.00  0.00     0.202 C 
BRANCH  18  19
ATOM     19  C   UNL A   1      33.700  31.956  28.277  1.00  0.00     0.261 C 
BRANCH  19  20
ATOM     20  O   UNL A   1      34.299  31.135  27.258  1.00  0.00    -0.460 OA
BRANCH  20  21
ATOM     21  C   UNL A   1      34.580  29.872  27.659  1.00  0.00     0.338 C 
ATOM     22  O   UNL A   1      33.880  28.877  27.516  1.00  0.00    -0.246 OA
BRANCH  21  23
ATOM     23  C   UNL A   1      35.963  29.782  28.163  1.00  0.00     0.060 A 
ATOM     24  C   UNL A   1      36.996  30.047  27.255  1.00  0.00     0.016 A 
ATOM     25  C   UNL A   1      36.256  29.372  29.464  1.00  0.00     0.016 A 
ATOM     26  C   UNL A   1      38.326  29.848  27.625  1.00  0.00     0.010 A 
ATOM     27  C   UNL A   1      37.592  29.175  29.833  1.00  0.00     0.010 A 
ATOM     28  C   UNL A   1      38.635  29.374  28.906  1.00  0.00    -0.014 A 
BRANCH  28  29
ATOM     29  C   UNL A   1      40.024  28.939  29.218  1.00  0.00     0.031 A 
ATOM     30  C   UNL A   1      40.927  29.877  29.976  1.00  0.00     0.074 A 
ATOM     31  C   UNL A   1      40.476  27.719  28.870  1.00  0.00     0.049 A 
ATOM     32  N   UNL A   1      42.170  29.712  30.354  1.00  0.00    -0.248 NA
ATOM     33  C   UNL A   1      40.345  31.169  30.373  1.00  0.00     0.031 C 
ATOM     34  C   UNL A   1      39.698  26.684  28.194  1.00  0.00     0.029 A 
ATOM     35  N   UNL A   1      41.718  27.153  29.023  1.00  0.00    -0.354 N 
ATOM     36  C   UNL A   1      42.508  30.866  31.050  1.00  0.00     0.074 A 
ATOM     37  C   UNL A   1      41.367  31.754  30.979  1.00  0.00     0.031 C 
ATOM     38  C   UNL A   1      40.495  25.633  27.933  1.00  0.00     0.029 A 
ATOM     39  C   UNL A   1      41.837  25.916  28.438  1.00  0.00     0.049 A 
ATOM     40  H   UNL A   1      42.454  27.591  29.509  1.00  0.00     0.167 HD
ATOM     41  C   UNL A   1      43.650  31.150  31.721  1.00  0.00     0.037 A 
ATOM     42  C   UNL A   1      42.907  25.106  28.318  1.00  0.00     0.037 A 
ATOM     43  C   UNL A   1      44.792  30.279  31.790  1.00  0.00     0.049 A 
ATOM     44  C   UNL A   1      44.207  25.491  28.976  1.00  0.00     0.074 A 
ATOM     45  C   UNL A   1      45.990  30.473  32.454  1.00  0.00     0.029 A 
ATOM     46  N   UNL A   1      44.882  29.047  31.158  1.00  0.00    -0.354 N 
ATOM     47  N   UNL A   1      44.494  26.558  29.681  1.00  0.00    -0.248 NA
ATOM     48  C   UNL A   1      45.320  24.540  28.851  1.00  0.00     0.031 C 
ATOM     49  C   UNL A   1      46.824  29.382  32.185  1.00  0.00     0.029 A 
ATOM     50  C   UNL A   1      46.123  28.480  31.401  1.00  0.00     0.049 A 
ATOM     51  H   UNL A   1      44.169  28.636  30.617  1.00  0.00     0.167 HD
ATOM     52  C   UNL A   1      45.797  26.379  30.130  1.00  0.00     0.074 A 
ATOM     53  C   UNL A   1      46.243  25.102  29.618  1.00  0.00     0.031 C 
ATOM     54  C   UNL A   1      46.551  27.196  30.907  1.00  0.00     0.037 A 
BRANCH  41  55
ATOM     55  C   UNL A   1      43.713  32.465  32.443  1.00  0.00     0.064 A 
ATOM     56  C   UNL A   1      44.083  33.648  31.780  1.00  0.00     0.173 A 
ATOM     57  C   UNL A   1      43.373  32.555  33.801  1.00  0.00     0.173 A 
ATOM     58  F   UNL A   1      44.430  33.614  30.485  1.00  0.00    -0.203 F 
ATOM     59  C   UNL A   1      44.142  34.862  32.459  1.00  0.00     0.198 A 
ATOM     60  C   UNL A   1      43.401  33.778  34.467  1.00  0.00     0.198 A 
ATOM     61  F   UNL A   1      43.006  31.459  34.480  1.00  0.00    -0.203 F 
ATOM     62  F   UNL A   1      44.549  35.966  31.817  1.00  0.00    -0.200 F 
ATOM     63  C   UNL A   1      43.794  34.927  33.798  1.00  0.00     0.200 A 
ATOM     64  F   UNL A   1      43.051  33.843  35.759  1.00  0.00    -0.200 F 
ATOM     65  F   UNL A   1      43.844  36.098  34.448  1.00  0.00    -0.200 F 
ENDBRANCH  41  55
BRANCH  42  66
ATOM     66  C   UNL A   1      42.800  23.834  27.554  1.00  0.00     0.064 A 
ATOM     67  C   UNL A   1      43.141  23.767  26.196  1.00  0.00     0.173 A 
ATOM     68  C   UNL A   1      42.307  22.668  28.160  1.00  0.00     0.173 A 
ATOM     69  F   UNL A   1      43.600  24.860  25.568  1.00  0.00    -0.203 F 
ATOM     70  C   UNL A   1      42.960  22.595  25.464  1.00  0.00     0.198 A 
ATOM     71  C   UNL A   1      42.153  21.489  27.433  1.00  0.00     0.198 A 
ATOM     72  F   UNL A   1      41.976  22.675  29.459  1.00  0.00    -0.203 F 
ATOM     73  F   UNL A   1      43.241  22.578  24.154  1.00  0.00    -0.200 F 
ATOM     74  C   UNL A   1      42.468  21.458  26.083  1.00  0.00     0.200 A 
ATOM     75  F   UNL A   1      41.691  20.387  28.039  1.00  0.00    -0.200 F 
ATOM     76  F   UNL A   1      42.289  20.332  25.378  1.00  0.00    -0.200 F 
ENDBRANCH  42  66
BRANCH  54  77
ATOM     77  C   UNL A   1      47.911  26.704  31.313  1.00  0.00     0.064 A 
ATOM     78  C   UNL A   1      48.109  25.916  32.456  1.00  0.00     0.173 A 
ATOM     79  C   UNL A   1      49.035  27.010  30.528  1.00  0.00     0.173 A 
ATOM     80  F   UNL A   1      47.071  25.606  33.249  1.00  0.00    -0.203 F 
ATOM     81  C   UNL A   1      49.382  25.483  32.818  1.00  0.00     0.198 A 
ATOM     82  C   UNL A   1      50.302  26.546  30.873  1.00  0.00     0.198 A 
ATOM     83  F   UNL A   1      48.904  27.754  29.420  1.00  0.00    -0.203 F 
ATOM     84  F   UNL A   1      49.554  24.783  33.948  1.00  0.00    -0.200 F 
ATOM     85  C   UNL A   1      50.476  25.793  32.024  1.00  0.00     0.200 A 
ATOM     86  F   UNL A   1      51.354  26.834  30.094  1.00  0.00    -0.200 F 
ATOM     87  F   UNL A   1      51.700  25.374  32.371  1.00  0.00    -0.200 F 
ENDBRANCH  54  77
ENDBRANCH  28  29
ENDBRANCH  21  23
ENDBRANCH  20  21
ENDBRANCH  19  20
ENDBRANCH  18  19
ENDBRANCH  17  18
ENDBRANCH   1  17
TORSDOF 17
ENDMDL
