MODEL 1
REMARK VINA RESULT:     -11.0      0.000      0.000
REMARK SMILES CN(Cc1ccc(Cl)cc1Cl)S(=O)(=O)CCCC(=O)OCCOCCOC(=O)c1ccc(-c2c3nc(c(-c4c(F)c(F)c(F)c(F)c4F)c4ccc([nH]4)c(-c4c(F)c(F)c(F)c(F)c4F)c4nc(c(-c5c(F)c(F)c(F)c(F)c5F)c5ccc2[nH]5)C=C4)C=C3)cc1
REMARK SMILES IDX 21 1 20 2 18 3 19 4 17 5 16 6 15 7 12 8 13 9 14 10 2 11 1 12
REMARK SMILES IDX 3 13 4 14 5 15 10 16 6 17 9 18 11 19 7 20 8 21 22 22 23 23
REMARK SMILES IDX 24 24 25 25 26 26 27 27 28 28 29 29 30 30 91 31 31 32 90 33
REMARK SMILES IDX 32 34 33 35 34 36 84 37 35 38 89 39 83 40 85 41 36 42 88 43
REMARK SMILES IDX 82 44 81 45 37 47 69 48 49 49 68 50 50 51 53 52 67 53 86 54
REMARK SMILES IDX 51 55 52 56 66 58 87 59 54 60 38 61 39 62 47 63 40 64 41 65
REMARK SMILES IDX 45 66 48 67 42 68 43 69 46 70 44 71 70 72 71 73 79 74 72 75
REMARK SMILES IDX 73 76 77 77 80 78 74 79 75 80 78 81 76 82 55 83 56 84 64 85
REMARK SMILES IDX 57 86 58 87 62 88 65 89 59 90 60 91 63 92 61 93
REMARK H PARENT 85 46 53 57
REMARK Flexibility Score: inf
ROOT
ATOM      1  C   UNL A   1      39.634  21.946  26.839  1.00  0.00     0.261 C 
ENDROOT
BRANCH   1   2
ATOM      2  O   UNL A   1      39.030  21.861  25.533  1.00  0.00    -0.463 OA
BRANCH   2   3
ATOM      3  C   UNL A   1      37.671  21.874  25.522  1.00  0.00     0.305 C 
ATOM      4  O   UNL A   1      36.974  20.876  25.380  1.00  0.00    -0.252 OA
BRANCH   3   5
ATOM      5  C   UNL A   1      37.073  23.250  25.709  1.00  0.00     0.124 C 
BRANCH   5   6
ATOM      6  C   UNL A   1      35.561  23.405  25.871  1.00  0.00     0.029 C 
BRANCH   6   7
ATOM      7  C   UNL A   1      34.924  23.025  27.202  1.00  0.00     0.155 C 
BRANCH   7   8
ATOM      8  S   UNL A   1      33.351  22.181  27.100  1.00  0.00     0.214 S 
ATOM      9  O   UNL A   1      32.635  22.421  28.329  1.00  0.00    -0.212 OA
ATOM     10  O   UNL A   1      33.605  20.817  26.670  1.00  0.00    -0.212 OA
BRANCH   8  11
ATOM     11  N   UNL A   1      32.533  22.965  25.845  1.00  0.00    -0.201 NA
ATOM     12  C   UNL A   1      32.265  22.098  24.669  1.00  0.00     0.124 C 
BRANCH  11  13
ATOM     13  C   UNL A   1      31.428  23.923  26.132  1.00  0.00     0.138 C 
BRANCH  13  14
ATOM     14  C   UNL A   1      31.612  25.327  25.632  1.00  0.00    -0.014 A 
ATOM     15  C   UNL A   1      32.314  26.235  26.442  1.00  0.00     0.008 A 
ATOM     16  C   UNL A   1      31.019  25.790  24.450  1.00  0.00     0.047 A 
ATOM     17  C   UNL A   1      32.227  27.598  26.205  1.00  0.00     0.021 A 
ATOM     18  C   UNL A   1      30.967  27.152  24.188  1.00  0.00     0.041 A 
ATOM     19  Cl  UNL A   1      30.288  24.733  23.300  1.00  0.00    -0.084 Cl
ATOM     20  C   UNL A   1      31.498  28.043  25.110  1.00  0.00     0.042 A 
ATOM     21  Cl  UNL A   1      31.163  29.705  24.917  1.00  0.00    -0.084 Cl
ENDBRANCH  13  14
ENDBRANCH  11  13
ENDBRANCH   8  11
ENDBRANCH   7   8
ENDBRANCH   6   7
ENDBRANCH   5   6
ENDBRANCH   3   5
ENDBRANCH   2   3
ENDBRANCH   1   2
BRANCH   1  22
ATOM     22  C   UNL A   1      40.626  20.809  27.086  1.00  0.00     0.202 C 
BRANCH  22  23
ATOM     23  O   UNL A   1      41.368  20.358  25.956  1.00  0.00    -0.374 OA
BRANCH  23  24
ATOM     24  C   UNL A   1      42.786  20.287  26.070  1.00  0.00     0.202 C 
BRANCH  24  25
ATOM     25  C   UNL A   1      43.598  21.470  25.521  1.00  0.00     0.261 C 
BRANCH  25  26
ATOM     26  O   UNL A   1      42.807  22.537  24.956  1.00  0.00    -0.460 OA
BRANCH  26  27
ATOM     27  C   UNL A   1      43.442  23.737  24.913  1.00  0.00     0.338 C 
ATOM     28  O   UNL A   1      44.452  24.014  24.287  1.00  0.00    -0.246 OA
BRANCH  27  29
ATOM     29  C   UNL A   1      42.702  24.770  25.662  1.00  0.00     0.060 A 
ATOM     30  C   UNL A   1      43.138  26.099  25.559  1.00  0.00     0.016 A 
ATOM     31  C   UNL A   1      41.738  24.416  26.605  1.00  0.00     0.016 A 
ATOM     32  C   UNL A   1      42.657  27.068  26.443  1.00  0.00     0.010 A 
ATOM     33  C   UNL A   1      41.259  25.390  27.492  1.00  0.00     0.010 A 
ATOM     34  C   UNL A   1      41.749  26.710  27.447  1.00  0.00    -0.014 A 
BRANCH  34  35
ATOM     35  C   UNL A   1      41.438  27.645  28.562  1.00  0.00     0.031 A 
ATOM     36  C   UNL A   1      42.226  27.547  29.842  1.00  0.00     0.074 A 
ATOM     37  C   UNL A   1      40.469  28.572  28.461  1.00  0.00     0.049 A 
ATOM     38  N   UNL A   1      42.026  28.141  30.992  1.00  0.00    -0.248 NA
ATOM     39  C   UNL A   1      43.405  26.668  29.815  1.00  0.00     0.031 C 
ATOM     40  C   UNL A   1      39.701  28.869  27.258  1.00  0.00     0.029 A 
ATOM     41  N   UNL A   1      39.951  29.421  29.411  1.00  0.00    -0.354 N 
ATOM     42  C   UNL A   1      43.050  27.708  31.824  1.00  0.00     0.074 A 
ATOM     43  C   UNL A   1      43.849  26.774  31.059  1.00  0.00     0.031 C 
ATOM     44  C   UNL A   1      38.768  29.789  27.557  1.00  0.00     0.029 A 
ATOM     45  C   UNL A   1      38.841  30.103  28.978  1.00  0.00     0.049 A 
ATOM     46  H   UNL A   1      40.337  29.529  30.310  1.00  0.00     0.167 HD
ATOM     47  C   UNL A   1      43.309  28.069  33.104  1.00  0.00     0.037 A 
ATOM     48  C   UNL A   1      37.955  30.852  29.661  1.00  0.00     0.037 A 
ATOM     49  C   UNL A   1      42.520  29.001  33.866  1.00  0.00     0.049 A 
ATOM     50  C   UNL A   1      38.165  31.115  31.122  1.00  0.00     0.074 A 
ATOM     51  C   UNL A   1      42.727  29.458  35.157  1.00  0.00     0.029 A 
ATOM     52  N   UNL A   1      41.361  29.611  33.410  1.00  0.00    -0.354 N 
ATOM     53  N   UNL A   1      39.123  30.694  31.907  1.00  0.00    -0.248 NA
ATOM     54  C   UNL A   1      37.179  31.984  31.781  1.00  0.00     0.031 C 
ATOM     55  C   UNL A   1      41.663  30.299  35.502  1.00  0.00     0.029 A 
ATOM     56  C   UNL A   1      40.825  30.413  34.407  1.00  0.00     0.049 A 
ATOM     57  H   UNL A   1      40.976  29.492  32.512  1.00  0.00     0.167 HD
ATOM     58  C   UNL A   1      38.883  31.279  33.142  1.00  0.00     0.074 A 
ATOM     59  C   UNL A   1      37.676  32.068  33.007  1.00  0.00     0.031 C 
ATOM     60  C   UNL A   1      39.620  31.191  34.274  1.00  0.00     0.037 A 
BRANCH  47  61
ATOM     61  C   UNL A   1      44.486  27.424  33.777  1.00  0.00     0.064 A 
ATOM     62  C   UNL A   1      45.762  28.010  33.755  1.00  0.00     0.173 A 
ATOM     63  C   UNL A   1      44.330  26.217  34.473  1.00  0.00     0.173 A 
ATOM     64  F   UNL A   1      45.968  29.158  33.094  1.00  0.00    -0.203 F 
ATOM     65  C   UNL A   1      46.843  27.390  34.378  1.00  0.00     0.198 A 
ATOM     66  C   UNL A   1      45.406  25.616  35.120  1.00  0.00     0.198 A 
ATOM     67  F   UNL A   1      43.129  25.620  34.529  1.00  0.00    -0.203 F 
ATOM     68  F   UNL A   1      48.064  27.938  34.300  1.00  0.00    -0.200 F 
ATOM     69  C   UNL A   1      46.664  26.197  35.063  1.00  0.00     0.200 A 
ATOM     70  F   UNL A   1      45.228  24.471  35.791  1.00  0.00    -0.200 F 
ATOM     71  F   UNL A   1      47.705  25.603  35.662  1.00  0.00    -0.200 F 
ENDBRANCH  47  61
BRANCH  48  72
ATOM     72  C   UNL A   1      36.735  31.367  28.996  1.00  0.00     0.064 A 
ATOM     73  C   UNL A   1      36.607  32.715  28.649  1.00  0.00     0.173 A 
ATOM     74  C   UNL A   1      35.652  30.513  28.745  1.00  0.00     0.173 A 
ATOM     75  F   UNL A   1      37.595  33.575  28.929  1.00  0.00    -0.203 F 
ATOM     76  C   UNL A   1      35.444  33.189  28.044  1.00  0.00     0.198 A 
ATOM     77  C   UNL A   1      34.490  30.988  28.142  1.00  0.00     0.198 A 
ATOM     78  F   UNL A   1      35.734  29.215  29.072  1.00  0.00    -0.203 F 
ATOM     79  F   UNL A   1      35.335  34.487  27.731  1.00  0.00    -0.200 F 
ATOM     80  C   UNL A   1      34.391  32.323  27.779  1.00  0.00     0.200 A 
ATOM     81  F   UNL A   1      33.479  30.148  27.881  1.00  0.00    -0.200 F 
ATOM     82  F   UNL A   1      33.283  32.776  27.178  1.00  0.00    -0.200 F 
ENDBRANCH  48  72
BRANCH  60  83
ATOM     83  C   UNL A   1      39.179  32.015  35.446  1.00  0.00     0.064 A 
ATOM     84  C   UNL A   1      38.387  31.483  36.470  1.00  0.00     0.173 A 
ATOM     85  C   UNL A   1      39.586  33.354  35.554  1.00  0.00     0.173 A 
ATOM     86  F   UNL A   1      37.952  30.215  36.400  1.00  0.00    -0.203 F 
ATOM     87  C   UNL A   1      38.003  32.267  37.555  1.00  0.00     0.198 A 
ATOM     88  C   UNL A   1      39.225  34.126  36.652  1.00  0.00     0.198 A 
ATOM     89  F   UNL A   1      40.342  33.911  34.595  1.00  0.00    -0.203 F 
ATOM     90  F   UNL A   1      37.209  31.751  38.505  1.00  0.00    -0.200 F 
ATOM     91  C   UNL A   1      38.430  33.584  37.650  1.00  0.00     0.200 A 
ATOM     92  F   UNL A   1      39.644  35.396  36.745  1.00  0.00    -0.200 F 
ATOM     93  F   UNL A   1      38.065  34.333  38.700  1.00  0.00    -0.200 F 
ENDBRANCH  60  83
ENDBRANCH  34  35
ENDBRANCH  27  29
ENDBRANCH  26  27
ENDBRANCH  25  26
ENDBRANCH  24  25
ENDBRANCH  23  24
ENDBRANCH  22  23
ENDBRANCH   1  22
TORSDOF 20
ENDMDL
MODEL 2
REMARK VINA RESULT:     -10.7      1.091      2.164
REMARK SMILES CN(Cc1ccc(Cl)cc1Cl)S(=O)(=O)CCCC(=O)OCCOCCOC(=O)c1ccc(-c2c3nc(c(-c4c(F)c(F)c(F)c(F)c4F)c4ccc([nH]4)c(-c4c(F)c(F)c(F)c(F)c4F)c4nc(c(-c5c(F)c(F)c(F)c(F)c5F)c5ccc2[nH]5)C=C4)C=C3)cc1
REMARK SMILES IDX 21 1 20 2 18 3 19 4 17 5 16 6 15 7 12 8 13 9 14 10 2 11 1 12
REMARK SMILES IDX 3 13 4 14 5 15 10 16 6 17 9 18 11 19 7 20 8 21 22 22 23 23
REMARK SMILES IDX 24 24 25 25 26 26 27 27 28 28 29 29 30 30 91 31 31 32 90 33
REMARK SMILES IDX 32 34 33 35 34 36 84 37 35 38 89 39 83 40 85 41 36 42 88 43
REMARK SMILES IDX 82 44 81 45 37 47 69 48 49 49 68 50 50 51 53 52 67 53 86 54
REMARK SMILES IDX 51 55 52 56 66 58 87 59 54 60 38 61 39 62 47 63 40 64 41 65
REMARK SMILES IDX 45 66 48 67 42 68 43 69 46 70 44 71 70 72 71 73 79 74 72 75
REMARK SMILES IDX 73 76 77 77 80 78 74 79 75 80 78 81 76 82 55 83 56 84 64 85
REMARK SMILES IDX 57 86 58 87 62 88 65 89 59 90 60 91 63 92 61 93
REMARK H PARENT 85 46 53 57
REMARK Flexibility Score: inf
ROOT
ATOM      1  C   UNL A   1      38.900  22.027  26.138  1.00  0.00     0.261 C 
ENDROOT
BRANCH   1   2
ATOM      2  O   UNL A   1      38.458  21.166  25.070  1.00  0.00    -0.463 OA
BRANCH   2   3
ATOM      3  C   UNL A   1      37.112  21.009  24.974  1.00  0.00     0.305 C 
ATOM      4  O   UNL A   1      36.541  19.924  24.995  1.00  0.00    -0.252 OA
BRANCH   3   5
ATOM      5  C   UNL A   1      36.354  22.310  24.839  1.00  0.00     0.124 C 
BRANCH   5   6
ATOM      6  C   UNL A   1      34.825  22.298  24.806  1.00  0.00     0.029 C 
BRANCH   6   7
ATOM      7  C   UNL A   1      34.092  23.580  24.432  1.00  0.00     0.155 C 
BRANCH   7   8
ATOM      8  S   UNL A   1      32.306  23.486  24.440  1.00  0.00     0.214 S 
ATOM      9  O   UNL A   1      31.917  22.476  25.393  1.00  0.00    -0.212 OA
ATOM     10  O   UNL A   1      31.860  23.386  23.061  1.00  0.00    -0.212 OA
BRANCH   8  11
ATOM     11  N   UNL A   1      31.808  24.992  25.025  1.00  0.00    -0.201 NA
ATOM     12  C   UNL A   1      31.880  25.116  26.504  1.00  0.00     0.124 C 
BRANCH  11  13
ATOM     13  C   UNL A   1      32.172  26.249  24.313  1.00  0.00     0.138 C 
BRANCH  13  14
ATOM     14  C   UNL A   1      31.067  27.245  24.106  1.00  0.00    -0.014 A 
ATOM     15  C   UNL A   1      29.756  26.764  23.953  1.00  0.00     0.008 A 
ATOM     16  C   UNL A   1      31.309  28.617  23.948  1.00  0.00     0.047 A 
ATOM     17  C   UNL A   1      28.766  27.581  23.429  1.00  0.00     0.021 A 
ATOM     18  C   UNL A   1      30.307  29.446  23.466  1.00  0.00     0.041 A 
ATOM     19  Cl  UNL A   1      32.840  29.336  24.285  1.00  0.00    -0.084 Cl
ATOM     20  C   UNL A   1      29.073  28.902  23.133  1.00  0.00     0.042 A 
ATOM     21  Cl  UNL A   1      27.965  29.871  22.270  1.00  0.00    -0.084 Cl
ENDBRANCH  13  14
ENDBRANCH  11  13
ENDBRANCH   8  11
ENDBRANCH   7   8
ENDBRANCH   6   7
ENDBRANCH   5   6
ENDBRANCH   3   5
ENDBRANCH   2   3
ENDBRANCH   1   2
BRANCH   1  22
ATOM     22  C   UNL A   1      40.120  21.458  26.863  1.00  0.00     0.202 C 
BRANCH  22  23
ATOM     23  O   UNL A   1      41.004  20.655  26.085  1.00  0.00    -0.374 OA
BRANCH  23  24
ATOM     24  C   UNL A   1      42.384  20.643  26.437  1.00  0.00     0.202 C 
BRANCH  24  25
ATOM     25  C   UNL A   1      43.328  21.539  25.621  1.00  0.00     0.261 C 
BRANCH  25  26
ATOM     26  O   UNL A   1      42.685  22.645  24.952  1.00  0.00    -0.460 OA
BRANCH  26  27
ATOM     27  C   UNL A   1      43.381  23.810  25.011  1.00  0.00     0.338 C 
ATOM     28  O   UNL A   1      44.445  24.061  24.468  1.00  0.00    -0.246 OA
BRANCH  27  29
ATOM     29  C   UNL A   1      42.643  24.846  25.758  1.00  0.00     0.060 A 
ATOM     30  C   UNL A   1      43.106  26.167  25.684  1.00  0.00     0.016 A 
ATOM     31  C   UNL A   1      41.651  24.496  26.673  1.00  0.00     0.016 A 
ATOM     32  C   UNL A   1      42.622  27.133  26.572  1.00  0.00     0.010 A 
ATOM     33  C   UNL A   1      41.170  25.466  27.563  1.00  0.00     0.010 A 
ATOM     34  C   UNL A   1      41.685  26.777  27.550  1.00  0.00    -0.014 A 
BRANCH  34  35
ATOM     35  C   UNL A   1      41.365  27.701  28.671  1.00  0.00     0.031 A 
ATOM     36  C   UNL A   1      42.156  27.603  29.949  1.00  0.00     0.074 A 
ATOM     37  C   UNL A   1      40.386  28.618  28.578  1.00  0.00     0.049 A 
ATOM     38  N   UNL A   1      41.952  28.188  31.103  1.00  0.00    -0.248 NA
ATOM     39  C   UNL A   1      43.345  26.738  29.915  1.00  0.00     0.031 C 
ATOM     40  C   UNL A   1      39.613  28.914  27.378  1.00  0.00     0.029 A 
ATOM     41  N   UNL A   1      39.860  29.455  29.534  1.00  0.00    -0.354 N 
ATOM     42  C   UNL A   1      42.982  27.761  31.931  1.00  0.00     0.074 A 
ATOM     43  C   UNL A   1      43.789  26.841  31.159  1.00  0.00     0.031 C 
ATOM     44  C   UNL A   1      38.670  29.822  27.684  1.00  0.00     0.029 A 
ATOM     45  C   UNL A   1      38.742  30.128  29.108  1.00  0.00     0.049 A 
ATOM     46  H   UNL A   1      40.246  29.561  30.433  1.00  0.00     0.167 HD
ATOM     47  C   UNL A   1      43.239  28.116  33.213  1.00  0.00     0.037 A 
ATOM     48  C   UNL A   1      37.848  30.862  29.797  1.00  0.00     0.037 A 
ATOM     49  C   UNL A   1      42.440  29.034  33.982  1.00  0.00     0.049 A 
ATOM     50  C   UNL A   1      38.058  31.118  31.259  1.00  0.00     0.074 A 
ATOM     51  C   UNL A   1      42.645  29.485  35.276  1.00  0.00     0.029 A 
ATOM     52  N   UNL A   1      41.274  29.635  33.532  1.00  0.00    -0.354 N 
ATOM     53  N   UNL A   1      39.022  30.703  32.040  1.00  0.00    -0.248 NA
ATOM     54  C   UNL A   1      37.064  31.972  31.925  1.00  0.00     0.031 C 
ATOM     55  C   UNL A   1      41.572  30.312  35.628  1.00  0.00     0.029 A 
ATOM     56  C   UNL A   1      40.731  30.424  34.535  1.00  0.00     0.049 A 
ATOM     57  H   UNL A   1      40.889  29.517  32.634  1.00  0.00     0.167 HD
ATOM     58  C   UNL A   1      38.777  31.277  33.278  1.00  0.00     0.074 A 
ATOM     59  C   UNL A   1      37.561  32.053  33.151  1.00  0.00     0.031 C 
ATOM     60  C   UNL A   1      39.517  31.190  34.409  1.00  0.00     0.037 A 
BRANCH  47  61
ATOM     61  C   UNL A   1      44.424  27.480  33.880  1.00  0.00     0.064 A 
ATOM     62  C   UNL A   1      45.710  28.037  33.791  1.00  0.00     0.173 A 
ATOM     63  C   UNL A   1      44.266  26.310  34.638  1.00  0.00     0.173 A 
ATOM     64  F   UNL A   1      45.916  29.147  33.069  1.00  0.00    -0.203 F 
ATOM     65  C   UNL A   1      46.798  27.425  34.409  1.00  0.00     0.198 A 
ATOM     66  C   UNL A   1      45.351  25.719  35.279  1.00  0.00     0.198 A 
ATOM     67  F   UNL A   1      43.057  25.742  34.760  1.00  0.00    -0.203 F 
ATOM     68  F   UNL A   1      48.026  27.944  34.267  1.00  0.00    -0.200 F 
ATOM     69  C   UNL A   1      46.617  26.271  35.156  1.00  0.00     0.200 A 
ATOM     70  F   UNL A   1      45.172  24.611  36.011  1.00  0.00    -0.200 F 
ATOM     71  F   UNL A   1      47.665  25.685  35.751  1.00  0.00    -0.200 F 
ENDBRANCH  47  61
BRANCH  48  72
ATOM     72  C   UNL A   1      36.622  31.368  29.136  1.00  0.00     0.064 A 
ATOM     73  C   UNL A   1      35.558  30.518  28.822  1.00  0.00     0.173 A 
ATOM     74  C   UNL A   1      36.525  32.715  28.763  1.00  0.00     0.173 A 
ATOM     75  F   UNL A   1      35.640  29.210  29.106  1.00  0.00    -0.203 F 
ATOM     76  C   UNL A   1      34.421  31.004  28.180  1.00  0.00     0.198 A 
ATOM     77  C   UNL A   1      35.388  33.201  28.120  1.00  0.00     0.198 A 
ATOM     78  F   UNL A   1      37.529  33.561  29.040  1.00  0.00    -0.203 F 
ATOM     79  F   UNL A   1      33.418  30.170  27.875  1.00  0.00    -0.200 F 
ATOM     80  C   UNL A   1      34.331  32.348  27.841  1.00  0.00     0.200 A 
ATOM     81  F   UNL A   1      35.302  34.500  27.801  1.00  0.00    -0.200 F 
ATOM     82  F   UNL A   1      33.228  32.818  27.243  1.00  0.00    -0.200 F 
ENDBRANCH  48  72
BRANCH  60  83
ATOM     83  C   UNL A   1      39.070  32.000  35.587  1.00  0.00     0.064 A 
ATOM     84  C   UNL A   1      39.422  33.347  35.738  1.00  0.00     0.173 A 
ATOM     85  C   UNL A   1      38.247  31.420  36.565  1.00  0.00     0.173 A 
ATOM     86  F   UNL A   1      40.227  33.940  34.842  1.00  0.00    -0.203 F 
ATOM     87  C   UNL A   1      38.980  34.082  36.835  1.00  0.00     0.198 A 
ATOM     88  C   UNL A   1      37.785  32.164  37.646  1.00  0.00     0.198 A 
ATOM     89  F   UNL A   1      37.886  30.131  36.467  1.00  0.00    -0.203 F 
ATOM     90  F   UNL A   1      39.364  35.358  36.984  1.00  0.00    -0.200 F 
ATOM     91  C   UNL A   1      38.155  33.492  37.783  1.00  0.00     0.200 A 
ATOM     92  F   UNL A   1      36.982  31.594  38.555  1.00  0.00    -0.200 F 
ATOM     93  F   UNL A   1      37.725  34.204  38.834  1.00  0.00    -0.200 F 
ENDBRANCH  60  83
ENDBRANCH  34  35
ENDBRANCH  27  29
ENDBRANCH  26  27
ENDBRANCH  25  26
ENDBRANCH  24  25
ENDBRANCH  23  24
ENDBRANCH  22  23
ENDBRANCH   1  22
TORSDOF 20
ENDMDL
MODEL 3
REMARK VINA RESULT:     -10.0      3.541      8.728
REMARK SMILES CN(Cc1ccc(Cl)cc1Cl)S(=O)(=O)CCCC(=O)OCCOCCOC(=O)c1ccc(-c2c3nc(c(-c4c(F)c(F)c(F)c(F)c4F)c4ccc([nH]4)c(-c4c(F)c(F)c(F)c(F)c4F)c4nc(c(-c5c(F)c(F)c(F)c(F)c5F)c5ccc2[nH]5)C=C4)C=C3)cc1
REMARK SMILES IDX 21 1 20 2 18 3 19 4 17 5 16 6 15 7 12 8 13 9 14 10 2 11 1 12
REMARK SMILES IDX 3 13 4 14 5 15 10 16 6 17 9 18 11 19 7 20 8 21 22 22 23 23
REMARK SMILES IDX 24 24 25 25 26 26 27 27 28 28 29 29 30 30 91 31 31 32 90 33
REMARK SMILES IDX 32 34 33 35 34 36 84 37 35 38 89 39 83 40 85 41 36 42 88 43
REMARK SMILES IDX 82 44 81 45 37 47 69 48 49 49 68 50 50 51 53 52 67 53 86 54
REMARK SMILES IDX 51 55 52 56 66 58 87 59 54 60 38 61 39 62 47 63 40 64 41 65
REMARK SMILES IDX 45 66 48 67 42 68 43 69 46 70 44 71 70 72 71 73 79 74 72 75
REMARK SMILES IDX 73 76 77 77 80 78 74 79 75 80 78 81 76 82 55 83 56 84 64 85
REMARK SMILES IDX 57 86 58 87 62 88 65 89 59 90 60 91 63 92 61 93
REMARK H PARENT 85 46 53 57
REMARK Flexibility Score: inf
ROOT
ATOM      1  C   UNL A   1      34.291  29.064  27.188  1.00  0.00     0.261 C 
ENDROOT
BRANCH   1   2
ATOM      2  O   UNL A   1      33.920  28.395  25.967  1.00  0.00    -0.463 OA
BRANCH   2   3
ATOM      3  C   UNL A   1      33.314  27.190  26.129  1.00  0.00     0.305 C 
ATOM      4  O   UNL A   1      33.901  26.114  26.107  1.00  0.00    -0.252 OA
BRANCH   3   5
ATOM      5  C   UNL A   1      31.821  27.283  26.348  1.00  0.00     0.124 C 
BRANCH   5   6
ATOM      6  C   UNL A   1      30.862  26.906  25.219  1.00  0.00     0.029 C 
BRANCH   6   7
ATOM      7  C   UNL A   1      30.380  25.464  25.120  1.00  0.00     0.155 C 
BRANCH   7   8
ATOM      8  S   UNL A   1      31.264  24.424  23.965  1.00  0.00     0.214 S 
ATOM      9  O   UNL A   1      32.304  25.217  23.356  1.00  0.00    -0.212 OA
ATOM     10  O   UNL A   1      30.284  23.756  23.127  1.00  0.00    -0.212 OA
BRANCH   8  11
ATOM     11  N   UNL A   1      31.992  23.245  24.933  1.00  0.00    -0.201 NA
ATOM     12  C   UNL A   1      31.037  22.496  25.789  1.00  0.00     0.124 C 
BRANCH  11  13
ATOM     13  C   UNL A   1      33.097  22.395  24.405  1.00  0.00     0.138 C 
BRANCH  13  14
ATOM     14  C   UNL A   1      32.839  20.917  24.352  1.00  0.00    -0.014 A 
ATOM     15  C   UNL A   1      33.175  20.142  25.474  1.00  0.00     0.008 A 
ATOM     16  C   UNL A   1      32.383  20.272  23.194  1.00  0.00     0.047 A 
ATOM     17  C   UNL A   1      33.280  18.763  25.368  1.00  0.00     0.021 A 
ATOM     18  C   UNL A   1      32.446  18.889  23.100  1.00  0.00     0.041 A 
ATOM     19  Cl  UNL A   1      31.779  21.133  21.827  1.00  0.00    -0.084 Cl
ATOM     20  C   UNL A   1      32.972  18.158  24.157  1.00  0.00     0.042 A 
ATOM     21  Cl  UNL A   1      33.316  16.506  23.908  1.00  0.00    -0.084 Cl
ENDBRANCH  13  14
ENDBRANCH  11  13
ENDBRANCH   8  11
ENDBRANCH   7   8
ENDBRANCH   6   7
ENDBRANCH   5   6
ENDBRANCH   3   5
ENDBRANCH   2   3
ENDBRANCH   1   2
BRANCH   1  22
ATOM     22  C   UNL A   1      33.737  30.488  27.251  1.00  0.00     0.202 C 
BRANCH  22  23
ATOM     23  O   UNL A   1      32.392  30.665  26.817  1.00  0.00    -0.374 OA
BRANCH  23  24
ATOM     24  C   UNL A   1      31.834  31.975  26.879  1.00  0.00     0.202 C 
BRANCH  24  25
ATOM     25  C   UNL A   1      32.741  33.105  27.388  1.00  0.00     0.261 C 
BRANCH  25  26
ATOM     26  O   UNL A   1      32.158  33.932  28.416  1.00  0.00    -0.460 OA
BRANCH  26  27
ATOM     27  C   UNL A   1      32.902  35.021  28.742  1.00  0.00     0.338 C 
ATOM     28  O   UNL A   1      32.648  36.189  28.493  1.00  0.00    -0.246 OA
BRANCH  27  29
ATOM     29  C   UNL A   1      34.073  34.654  29.560  1.00  0.00     0.060 A 
ATOM     30  C   UNL A   1      35.307  34.496  28.913  1.00  0.00     0.016 A 
ATOM     31  C   UNL A   1      33.922  34.268  30.892  1.00  0.00     0.016 A 
ATOM     32  C   UNL A   1      36.378  33.893  29.577  1.00  0.00     0.010 A 
ATOM     33  C   UNL A   1      34.997  33.661  31.554  1.00  0.00     0.010 A 
ATOM     34  C   UNL A   1      36.216  33.427  30.887  1.00  0.00    -0.014 A 
BRANCH  34  35
ATOM     35  C   UNL A   1      37.235  32.543  31.514  1.00  0.00     0.031 A 
ATOM     36  C   UNL A   1      37.785  32.903  32.869  1.00  0.00     0.074 A 
ATOM     37  C   UNL A   1      37.684  31.433  30.902  1.00  0.00     0.049 A 
ATOM     38  N   UNL A   1      38.784  32.377  33.531  1.00  0.00    -0.248 NA
ATOM     39  C   UNL A   1      37.104  33.998  33.577  1.00  0.00     0.031 C 
ATOM     40  C   UNL A   1      37.173  30.889  29.649  1.00  0.00     0.029 A 
ATOM     41  N   UNL A   1      38.702  30.576  31.252  1.00  0.00    -0.354 N 
ATOM     42  C   UNL A   1      38.854  33.075  34.729  1.00  0.00     0.074 A 
ATOM     43  C   UNL A   1      37.820  34.087  34.689  1.00  0.00     0.031 C 
ATOM     44  C   UNL A   1      37.918  29.825  29.304  1.00  0.00     0.029 A 
ATOM     45  C   UNL A   1      38.986  29.650  30.279  1.00  0.00     0.049 A 
ATOM     46  H   UNL A   1      39.178  30.623  32.112  1.00  0.00     0.167 HD
ATOM     47  C   UNL A   1      39.696  32.881  35.773  1.00  0.00     0.037 A 
ATOM     48  C   UNL A   1      40.020  28.795  30.164  1.00  0.00     0.037 A 
ATOM     49  C   UNL A   1      40.723  31.872  35.818  1.00  0.00     0.049 A 
ATOM     50  C   UNL A   1      41.040  28.700  31.258  1.00  0.00     0.074 A 
ATOM     51  C   UNL A   1      41.598  31.574  36.850  1.00  0.00     0.029 A 
ATOM     52  N   UNL A   1      41.023  31.004  34.780  1.00  0.00    -0.354 N 
ATOM     53  N   UNL A   1      41.111  29.369  32.380  1.00  0.00    -0.248 NA
ATOM     54  C   UNL A   1      42.107  27.705  31.077  1.00  0.00     0.031 C 
ATOM     55  C   UNL A   1      42.464  30.565  36.414  1.00  0.00     0.029 A 
ATOM     56  C   UNL A   1      42.091  30.194  35.134  1.00  0.00     0.049 A 
ATOM     57  H   UNL A   1      40.547  30.969  33.918  1.00  0.00     0.167 HD
ATOM     58  C   UNL A   1      42.204  28.851  33.059  1.00  0.00     0.074 A 
ATOM     59  C   UNL A   1      42.778  27.825  32.213  1.00  0.00     0.031 C 
ATOM     60  C   UNL A   1      42.666  29.179  34.289  1.00  0.00     0.037 A 
BRANCH  47  61
ATOM     61  C   UNL A   1      39.560  33.804  36.950  1.00  0.00     0.064 A 
ATOM     62  C   UNL A   1      40.193  35.056  36.984  1.00  0.00     0.173 A 
ATOM     63  C   UNL A   1      38.766  33.439  38.047  1.00  0.00     0.173 A 
ATOM     64  F   UNL A   1      40.973  35.447  35.966  1.00  0.00    -0.203 F 
ATOM     65  C   UNL A   1      40.062  35.893  38.090  1.00  0.00     0.198 A 
ATOM     66  C   UNL A   1      38.612  34.291  39.137  1.00  0.00     0.198 A 
ATOM     67  F   UNL A   1      38.133  32.256  38.059  1.00  0.00    -0.203 F 
ATOM     68  F   UNL A   1      40.718  37.061  38.125  1.00  0.00    -0.200 F 
ATOM     69  C   UNL A   1      39.268  35.513  39.162  1.00  0.00     0.200 A 
ATOM     70  F   UNL A   1      37.835  33.928  40.165  1.00  0.00    -0.200 F 
ATOM     71  F   UNL A   1      39.143  36.320  40.224  1.00  0.00    -0.200 F 
ENDBRANCH  47  61
BRANCH  48  72
ATOM     72  C   UNL A   1      40.195  27.990  28.932  1.00  0.00     0.064 A 
ATOM     73  C   UNL A   1      40.908  28.480  27.834  1.00  0.00     0.173 A 
ATOM     74  C   UNL A   1      39.598  26.726  28.822  1.00  0.00     0.173 A 
ATOM     75  F   UNL A   1      41.441  29.709  27.877  1.00  0.00    -0.203 F 
ATOM     76  C   UNL A   1      41.045  27.720  26.674  1.00  0.00     0.198 A 
ATOM     77  C   UNL A   1      39.734  25.968  27.662  1.00  0.00     0.198 A 
ATOM     78  F   UNL A   1      38.898  26.225  29.851  1.00  0.00    -0.203 F 
ATOM     79  F   UNL A   1      41.721  28.214  25.628  1.00  0.00    -0.200 F 
ATOM     80  C   UNL A   1      40.469  26.459  26.593  1.00  0.00     0.200 A 
ATOM     81  F   UNL A   1      39.183  24.748  27.590  1.00  0.00    -0.200 F 
ATOM     82  F   UNL A   1      40.619  25.721  25.485  1.00  0.00    -0.200 F 
ENDBRANCH  48  72
BRANCH  60  83
ATOM     83  C   UNL A   1      43.815  28.381  34.826  1.00  0.00     0.064 A 
ATOM     84  C   UNL A   1      43.623  27.186  35.531  1.00  0.00     0.173 A 
ATOM     85  C   UNL A   1      45.132  28.812  34.603  1.00  0.00     0.173 A 
ATOM     86  F   UNL A   1      42.382  26.746  35.791  1.00  0.00    -0.203 F 
ATOM     87  C   UNL A   1      44.710  26.457  36.007  1.00  0.00     0.198 A 
ATOM     88  C   UNL A   1      46.216  28.067  35.055  1.00  0.00     0.198 A 
ATOM     89  F   UNL A   1      45.366  29.953  33.937  1.00  0.00    -0.203 F 
ATOM     90  F   UNL A   1      44.505  25.338  36.716  1.00  0.00    -0.200 F 
ATOM     91  C   UNL A   1      46.004  26.893  35.761  1.00  0.00     0.200 A 
ATOM     92  F   UNL A   1      47.465  28.487  34.810  1.00  0.00    -0.200 F 
ATOM     93  F   UNL A   1      47.049  26.185  36.214  1.00  0.00    -0.200 F 
ENDBRANCH  60  83
ENDBRANCH  34  35
ENDBRANCH  27  29
ENDBRANCH  26  27
ENDBRANCH  25  26
ENDBRANCH  24  25
ENDBRANCH  23  24
ENDBRANCH  22  23
ENDBRANCH   1  22
TORSDOF 20
ENDMDL
