MODEL 1
REMARK VINA RESULT:     -12.9      0.000      0.000
REMARK SMILES O=C(OCCOCCOC(=O)[C@@H]1[C@H](C(=O)Nc2ccc(Cn3cncn3)cc2)[C@@H]2C=C[C@H]1CC2)c1ccc(-c2c3nc(c(-c4c(F)c(F)c(F)c(F)c4F)c4ccc([nH]4)c(-c4c(F)c(F)c(F)c(F)c4F)c4nc(c(-c5c(F)c(F)c(F)c(F)c5F)c5ccc2[nH]5)C=C4)C=C3)cc1
REMARK SMILES IDX 7 1 6 2 5 3 4 4 3 5 2 6 1 7 35 8 36 9 97 10 37 11 96 12
REMARK SMILES IDX 38 13 39 14 40 15 90 16 41 17 95 18 89 19 91 20 42 21 94 22
REMARK SMILES IDX 88 23 87 24 43 26 75 27 55 28 74 29 56 30 59 31 73 32 92 33
REMARK SMILES IDX 57 34 58 35 72 37 93 38 60 39 44 40 45 41 53 42 46 43 47 44
REMARK SMILES IDX 51 45 54 46 48 47 49 48 52 49 50 50 76 51 77 52 85 53 78 54
REMARK SMILES IDX 79 55 83 56 86 57 80 58 81 59 84 60 82 61 61 62 62 63 70 64
REMARK SMILES IDX 63 65 64 66 68 67 71 68 65 69 66 70 69 71 67 72 8 73 9 74
REMARK SMILES IDX 10 75 11 76 12 77 13 78 32 79 29 80 31 81 33 82 30 83 34 84
REMARK SMILES IDX 14 85 15 86 16 87 17 89 18 90 28 91 19 92 27 93 20 94 21 95
REMARK SMILES IDX 22 96 23 97 26 98 24 99 25 100
REMARK H PARENT 91 25 59 36 16 88
REMARK Flexibility Score: inf
ROOT
ATOM      1  C   UNL A   1      31.711  27.834  27.645  1.00  0.00     0.202 C 
ENDROOT
BRANCH   1   2
ATOM      2  O   UNL A   1      31.635  29.252  27.401  1.00  0.00    -0.374 OA
BRANCH   2   3
ATOM      3  C   UNL A   1      32.255  29.693  26.196  1.00  0.00     0.202 C 
BRANCH   3   4
ATOM      4  C   UNL A   1      33.684  30.202  26.348  1.00  0.00     0.261 C 
BRANCH   4   5
ATOM      5  O   UNL A   1      33.957  30.672  27.682  1.00  0.00    -0.460 OA
BRANCH   5   6
ATOM      6  C   UNL A   1      34.965  31.565  27.879  1.00  0.00     0.338 C 
ATOM      7  O   UNL A   1      34.813  32.756  27.972  1.00  0.00    -0.246 OA
BRANCH   6   8
ATOM      8  C   UNL A   1      36.199  30.949  28.369  1.00  0.00     0.060 A 
ATOM      9  C   UNL A   1      37.277  31.697  28.826  1.00  0.00     0.016 A 
ATOM     10  C   UNL A   1      36.245  29.551  28.307  1.00  0.00     0.016 A 
ATOM     11  C   UNL A   1      38.480  31.072  29.015  1.00  0.00     0.010 A 
ATOM     12  C   UNL A   1      37.432  28.909  28.578  1.00  0.00     0.010 A 
ATOM     13  C   UNL A   1      38.554  29.687  28.854  1.00  0.00    -0.014 A 
BRANCH  13  14
ATOM     14  C   UNL A   1      39.849  29.100  29.108  1.00  0.00     0.031 A 
ATOM     15  C   UNL A   1      40.210  29.019  30.546  1.00  0.00     0.074 A 
ATOM     16  C   UNL A   1      40.624  28.633  28.118  1.00  0.00     0.049 A 
ATOM     17  N   UNL A   1      41.248  29.508  31.139  1.00  0.00    -0.248 NA
ATOM     18  C   UNL A   1      39.219  28.417  31.455  1.00  0.00     0.031 C 
ATOM     19  C   UNL A   1      40.267  28.422  26.714  1.00  0.00     0.029 A 
ATOM     20  N   UNL A   1      41.881  28.129  28.205  1.00  0.00    -0.354 N 
ATOM     21  C   UNL A   1      41.129  29.132  32.473  1.00  0.00     0.074 A 
ATOM     22  C   UNL A   1      39.809  28.585  32.637  1.00  0.00     0.031 C 
ATOM     23  C   UNL A   1      41.191  27.617  26.148  1.00  0.00     0.029 A 
ATOM     24  C   UNL A   1      42.248  27.366  27.114  1.00  0.00     0.049 A 
ATOM     25  H   UNL A   1      42.475  28.293  28.974  1.00  0.00     0.167 HD
ATOM     26  C   UNL A   1      42.215  29.079  33.287  1.00  0.00     0.037 A 
ATOM     27  C   UNL A   1      43.291  26.506  27.063  1.00  0.00     0.037 A 
ATOM     28  C   UNL A   1      43.256  29.967  32.836  1.00  0.00     0.049 A 
ATOM     29  C   UNL A   1      44.227  26.859  28.162  1.00  0.00     0.074 A 
ATOM     30  C   UNL A   1      43.327  31.328  32.601  1.00  0.00     0.029 A 
ATOM     31  N   UNL A   1      44.370  29.437  32.234  1.00  0.00    -0.354 N 
ATOM     32  N   UNL A   1      44.958  27.940  28.186  1.00  0.00    -0.248 NA
ATOM     33  C   UNL A   1      44.049  26.202  29.450  1.00  0.00     0.031 C 
ATOM     34  C   UNL A   1      44.189  31.469  31.474  1.00  0.00     0.029 A 
ATOM     35  C   UNL A   1      44.616  30.191  31.115  1.00  0.00     0.049 A 
ATOM     36  H   UNL A   1      44.892  28.663  32.545  1.00  0.00     0.167 HD
ATOM     37  C   UNL A   1      44.973  28.327  29.520  1.00  0.00     0.074 A 
ATOM     38  C   UNL A   1      44.498  27.163  30.260  1.00  0.00     0.031 C 
ATOM     39  C   UNL A   1      45.100  29.639  29.873  1.00  0.00     0.037 A 
BRANCH  26  40
ATOM     40  C   UNL A   1      42.463  27.929  34.236  1.00  0.00     0.064 A 
ATOM     41  C   UNL A   1      43.029  26.742  33.735  1.00  0.00     0.173 A 
ATOM     42  C   UNL A   1      41.878  27.828  35.520  1.00  0.00     0.173 A 
ATOM     43  F   UNL A   1      43.604  26.716  32.523  1.00  0.00    -0.203 F 
ATOM     44  C   UNL A   1      42.922  25.528  34.419  1.00  0.00     0.198 A 
ATOM     45  C   UNL A   1      41.821  26.627  36.222  1.00  0.00     0.198 A 
ATOM     46  F   UNL A   1      41.241  28.849  36.103  1.00  0.00    -0.203 F 
ATOM     47  F   UNL A   1      43.349  24.398  33.838  1.00  0.00    -0.200 F 
ATOM     48  C   UNL A   1      42.307  25.470  35.656  1.00  0.00     0.200 A 
ATOM     49  F   UNL A   1      41.209  26.592  37.414  1.00  0.00    -0.200 F 
ATOM     50  F   UNL A   1      42.136  24.297  36.279  1.00  0.00    -0.200 F 
ENDBRANCH  26  40
BRANCH  27  51
ATOM     51  C   UNL A   1      43.367  25.233  26.316  1.00  0.00     0.064 A 
ATOM     52  C   UNL A   1      44.385  25.012  25.378  1.00  0.00     0.173 A 
ATOM     53  C   UNL A   1      42.590  24.112  26.674  1.00  0.00     0.173 A 
ATOM     54  F   UNL A   1      45.202  26.014  25.021  1.00  0.00    -0.203 F 
ATOM     55  C   UNL A   1      44.621  23.743  24.839  1.00  0.00     0.198 A 
ATOM     56  C   UNL A   1      42.813  22.852  26.123  1.00  0.00     0.198 A 
ATOM     57  F   UNL A   1      41.658  24.193  27.634  1.00  0.00    -0.203 F 
ATOM     58  F   UNL A   1      45.642  23.558  23.992  1.00  0.00    -0.200 F 
ATOM     59  C   UNL A   1      43.837  22.665  25.215  1.00  0.00     0.200 A 
ATOM     60  F   UNL A   1      42.068  21.811  26.522  1.00  0.00    -0.200 F 
ATOM     61  F   UNL A   1      44.094  21.440  24.737  1.00  0.00    -0.200 F 
ENDBRANCH  27  51
BRANCH  39  62
ATOM     62  C   UNL A   1      45.516  30.613  28.811  1.00  0.00     0.064 A 
ATOM     63  C   UNL A   1      44.625  31.197  27.893  1.00  0.00     0.173 A 
ATOM     64  C   UNL A   1      46.843  31.064  28.800  1.00  0.00     0.173 A 
ATOM     65  F   UNL A   1      43.318  30.905  27.918  1.00  0.00    -0.203 F 
ATOM     66  C   UNL A   1      45.061  32.142  26.968  1.00  0.00     0.198 A 
ATOM     67  C   UNL A   1      47.266  32.037  27.899  1.00  0.00     0.198 A 
ATOM     68  F   UNL A   1      47.723  30.589  29.695  1.00  0.00    -0.203 F 
ATOM     69  F   UNL A   1      44.197  32.669  26.088  1.00  0.00    -0.200 F 
ATOM     70  C   UNL A   1      46.379  32.564  26.974  1.00  0.00     0.200 A 
ATOM     71  F   UNL A   1      48.530  32.482  27.944  1.00  0.00    -0.200 F 
ATOM     72  F   UNL A   1      46.792  33.500  26.106  1.00  0.00    -0.200 F 
ENDBRANCH  39  62
ENDBRANCH  13  14
ENDBRANCH   6   8
ENDBRANCH   5   6
ENDBRANCH   4   5
ENDBRANCH   3   4
ENDBRANCH   2   3
ENDBRANCH   1   2
BRANCH   1  73
ATOM     73  C   UNL A   1      32.101  26.941  26.460  1.00  0.00     0.261 C 
BRANCH  73  74
ATOM     74  O   UNL A   1      31.214  25.802  26.349  1.00  0.00    -0.463 OA
BRANCH  74  75
ATOM     75  C   UNL A   1      31.723  24.582  26.617  1.00  0.00     0.310 C 
ATOM     76  O   UNL A   1      31.189  23.771  27.368  1.00  0.00    -0.252 OA
BRANCH  75  77
ATOM     77  C   UNL A   1      32.982  24.235  25.842  1.00  0.00     0.119 C 
ATOM     78  C   UNL A   1      32.910  24.155  24.315  1.00  0.00     0.100 C 
ATOM     79  C   UNL A   1      34.013  23.180  26.392  1.00  0.00     0.026 C 
ATOM     80  C   UNL A   1      34.200  23.453  23.800  1.00  0.00     0.025 C 
ATOM     81  C   UNL A   1      34.088  21.887  25.592  1.00  0.00    -0.027 C 
ATOM     82  C   UNL A   1      35.409  23.767  26.066  1.00  0.00     0.009 C 
ATOM     83  C   UNL A   1      34.187  22.027  24.259  1.00  0.00    -0.027 C 
ATOM     84  C   UNL A   1      35.450  24.077  24.530  1.00  0.00     0.009 C 
BRANCH  78  85
ATOM     85  C   UNL A   1      31.570  23.845  23.614  1.00  0.00     0.228 C 
ATOM     86  O   UNL A   1      31.356  22.652  23.332  1.00  0.00    -0.274 OA
ATOM     87  N   UNL A   1      30.530  24.677  23.341  1.00  0.00    -0.326 N 
ATOM     88  H   UNL A   1      29.704  24.175  23.157  1.00  0.00     0.169 HD
BRANCH  87  89
ATOM     89  C   UNL A   1      30.323  26.061  23.252  1.00  0.00     0.041 A 
ATOM     90  C   UNL A   1      29.073  26.566  23.629  1.00  0.00     0.026 A 
ATOM     91  C   UNL A   1      31.251  26.961  22.771  1.00  0.00     0.026 A 
ATOM     92  C   UNL A   1      28.839  27.953  23.694  1.00  0.00     0.008 A 
ATOM     93  C   UNL A   1      31.038  28.340  22.866  1.00  0.00     0.008 A 
ATOM     94  C   UNL A   1      29.846  28.859  23.353  1.00  0.00    -0.026 A 
BRANCH  94  95
ATOM     95  C   UNL A   1      29.711  30.351  23.503  1.00  0.00     0.181 C 
BRANCH  95  96
ATOM     96  N   UNL A   1      28.875  30.951  22.481  1.00  0.00    -0.249 N 
ATOM     97  C   UNL A   1      28.349  32.207  22.481  1.00  0.00     0.220 A 
ATOM     98  N   UNL A   1      28.686  30.354  21.284  1.00  0.00    -0.160 NA
ATOM     99  N   UNL A   1      27.777  32.447  21.324  1.00  0.00    -0.224 NA
ATOM    100  C   UNL A   1      27.998  31.293  20.629  1.00  0.00     0.246 A 
ENDBRANCH  95  96
ENDBRANCH  94  95
ENDBRANCH  87  89
ENDBRANCH  78  85
ENDBRANCH  75  77
ENDBRANCH  74  75
ENDBRANCH  73  74
ENDBRANCH   1  73
TORSDOF 18
ENDMDL
MODEL 2
REMARK VINA RESULT:     -12.8      3.250      8.754
REMARK SMILES O=C(OCCOCCOC(=O)[C@@H]1[C@H](C(=O)Nc2ccc(Cn3cncn3)cc2)[C@@H]2C=C[C@H]1CC2)c1ccc(-c2c3nc(c(-c4c(F)c(F)c(F)c(F)c4F)c4ccc([nH]4)c(-c4c(F)c(F)c(F)c(F)c4F)c4nc(c(-c5c(F)c(F)c(F)c(F)c5F)c5ccc2[nH]5)C=C4)C=C3)cc1
REMARK SMILES IDX 7 1 6 2 5 3 4 4 3 5 2 6 1 7 35 8 36 9 97 10 37 11 96 12
REMARK SMILES IDX 38 13 39 14 40 15 90 16 41 17 95 18 89 19 91 20 42 21 94 22
REMARK SMILES IDX 88 23 87 24 43 26 75 27 55 28 74 29 56 30 59 31 73 32 92 33
REMARK SMILES IDX 57 34 58 35 72 37 93 38 60 39 44 40 45 41 53 42 46 43 47 44
REMARK SMILES IDX 51 45 54 46 48 47 49 48 52 49 50 50 76 51 77 52 85 53 78 54
REMARK SMILES IDX 79 55 83 56 86 57 80 58 81 59 84 60 82 61 61 62 62 63 70 64
REMARK SMILES IDX 63 65 64 66 68 67 71 68 65 69 66 70 69 71 67 72 8 73 9 74
REMARK SMILES IDX 10 75 11 76 12 77 13 78 32 79 29 80 31 81 33 82 30 83 34 84
REMARK SMILES IDX 14 85 15 86 16 87 17 89 18 90 28 91 19 92 27 93 20 94 21 95
REMARK SMILES IDX 22 96 23 97 26 98 24 99 25 100
REMARK H PARENT 91 25 59 36 16 88
REMARK Flexibility Score: inf
ROOT
ATOM      1  C   UNL A   1      36.626  23.261  24.859  1.00  0.00     0.202 C 
ENDROOT
BRANCH   1   2
ATOM      2  O   UNL A   1      36.615  21.975  25.509  1.00  0.00    -0.374 OA
BRANCH   2   3
ATOM      3  C   UNL A   1      37.245  20.923  24.782  1.00  0.00     0.202 C 
BRANCH   3   4
ATOM      4  C   UNL A   1      38.588  20.463  25.337  1.00  0.00     0.261 C 
BRANCH   4   5
ATOM      5  O   UNL A   1      39.029  21.273  26.444  1.00  0.00    -0.460 OA
BRANCH   5   6
ATOM      6  C   UNL A   1      40.292  21.780  26.435  1.00  0.00     0.338 C 
ATOM      7  O   UNL A   1      41.164  21.425  25.684  1.00  0.00    -0.246 OA
BRANCH   6   8
ATOM      8  C   UNL A   1      40.408  23.063  27.130  1.00  0.00     0.060 A 
ATOM      9  C   UNL A   1      39.512  24.105  26.928  1.00  0.00     0.016 A 
ATOM     10  C   UNL A   1      41.510  23.193  27.983  1.00  0.00     0.016 A 
ATOM     11  C   UNL A   1      39.831  25.350  27.401  1.00  0.00     0.010 A 
ATOM     12  C   UNL A   1      41.789  24.425  28.531  1.00  0.00     0.010 A 
ATOM     13  C   UNL A   1      40.987  25.504  28.169  1.00  0.00    -0.014 A 
BRANCH  13  14
ATOM     14  C   UNL A   1      41.231  26.840  28.662  1.00  0.00     0.031 A 
ATOM     15  C   UNL A   1      42.458  27.476  28.118  1.00  0.00     0.074 A 
ATOM     16  C   UNL A   1      40.385  27.453  29.503  1.00  0.00     0.049 A 
ATOM     17  N   UNL A   1      43.465  27.956  28.769  1.00  0.00    -0.248 NA
ATOM     18  C   UNL A   1      42.632  27.460  26.656  1.00  0.00     0.031 C 
ATOM     19  C   UNL A   1      39.036  27.035  29.890  1.00  0.00     0.029 A 
ATOM     20  N   UNL A   1      40.525  28.664  30.096  1.00  0.00    -0.354 N 
ATOM     21  C   UNL A   1      44.330  28.458  27.802  1.00  0.00     0.074 A 
ATOM     22  C   UNL A   1      43.838  28.011  26.527  1.00  0.00     0.031 C 
ATOM     23  C   UNL A   1      38.401  28.085  30.451  1.00  0.00     0.029 A 
ATOM     24  C   UNL A   1      39.337  29.193  30.563  1.00  0.00     0.049 A 
ATOM     25  H   UNL A   1      41.392  29.122  30.187  1.00  0.00     0.167 HD
ATOM     26  C   UNL A   1      45.252  29.408  28.110  1.00  0.00     0.037 A 
ATOM     27  C   UNL A   1      39.125  30.483  30.909  1.00  0.00     0.037 A 
ATOM     28  C   UNL A   1      45.613  29.361  29.504  1.00  0.00     0.049 A 
ATOM     29  C   UNL A   1      40.450  31.112  31.156  1.00  0.00     0.074 A 
ATOM     30  C   UNL A   1      46.139  28.386  30.331  1.00  0.00     0.029 A 
ATOM     31  N   UNL A   1      45.139  30.334  30.348  1.00  0.00    -0.354 N 
ATOM     32  N   UNL A   1      41.216  30.835  32.174  1.00  0.00    -0.248 NA
ATOM     33  C   UNL A   1      41.116  31.765  30.037  1.00  0.00     0.031 C 
ATOM     34  C   UNL A   1      45.516  28.592  31.597  1.00  0.00     0.029 A 
ATOM     35  C   UNL A   1      44.677  29.698  31.472  1.00  0.00     0.049 A 
ATOM     36  H   UNL A   1      45.131  31.304  30.179  1.00  0.00     0.167 HD
ATOM     37  C   UNL A   1      42.508  30.884  31.668  1.00  0.00     0.074 A 
ATOM     38  C   UNL A   1      42.390  31.570  30.386  1.00  0.00     0.031 C 
ATOM     39  C   UNL A   1      43.506  30.118  32.201  1.00  0.00     0.037 A 
BRANCH  26  40
ATOM     40  C   UNL A   1      45.499  30.613  27.232  1.00  0.00     0.064 A 
ATOM     41  C   UNL A   1      46.824  31.033  27.007  1.00  0.00     0.173 A 
ATOM     42  C   UNL A   1      44.497  31.546  26.876  1.00  0.00     0.173 A 
ATOM     43  F   UNL A   1      47.857  30.234  27.315  1.00  0.00    -0.203 F 
ATOM     44  C   UNL A   1      47.122  32.324  26.564  1.00  0.00     0.198 A 
ATOM     45  C   UNL A   1      44.799  32.814  26.384  1.00  0.00     0.198 A 
ATOM     46  F   UNL A   1      43.197  31.323  27.091  1.00  0.00    -0.203 F 
ATOM     47  F   UNL A   1      48.399  32.726  26.503  1.00  0.00    -0.200 F 
ATOM     48  C   UNL A   1      46.110  33.217  26.265  1.00  0.00     0.200 A 
ATOM     49  F   UNL A   1      43.801  33.666  26.112  1.00  0.00    -0.200 F 
ATOM     50  F   UNL A   1      46.393  34.478  25.913  1.00  0.00    -0.200 F 
ENDBRANCH  26  40
BRANCH  27  51
ATOM     51  C   UNL A   1      37.880  31.263  30.745  1.00  0.00     0.064 A 
ATOM     52  C   UNL A   1      37.363  31.529  29.469  1.00  0.00     0.173 A 
ATOM     53  C   UNL A   1      37.039  31.559  31.838  1.00  0.00     0.173 A 
ATOM     54  F   UNL A   1      38.079  31.228  28.376  1.00  0.00    -0.203 F 
ATOM     55  C   UNL A   1      36.077  32.049  29.295  1.00  0.00     0.198 A 
ATOM     56  C   UNL A   1      35.764  32.095  31.664  1.00  0.00     0.198 A 
ATOM     57  F   UNL A   1      37.397  31.251  33.092  1.00  0.00    -0.203 F 
ATOM     58  F   UNL A   1      35.594  32.232  28.059  1.00  0.00    -0.200 F 
ATOM     59  C   UNL A   1      35.278  32.328  30.392  1.00  0.00     0.200 A 
ATOM     60  F   UNL A   1      34.990  32.328  32.734  1.00  0.00    -0.200 F 
ATOM     61  F   UNL A   1      34.028  32.779  30.224  1.00  0.00    -0.200 F 
ENDBRANCH  27  51
BRANCH  39  62
ATOM     62  C   UNL A   1      43.247  29.452  33.520  1.00  0.00     0.064 A 
ATOM     63  C   UNL A   1      43.480  30.065  34.764  1.00  0.00     0.173 A 
ATOM     64  C   UNL A   1      42.626  28.196  33.524  1.00  0.00     0.173 A 
ATOM     65  F   UNL A   1      43.962  31.313  34.839  1.00  0.00    -0.203 F 
ATOM     66  C   UNL A   1      43.162  29.419  35.956  1.00  0.00     0.198 A 
ATOM     67  C   UNL A   1      42.275  27.570  34.717  1.00  0.00     0.198 A 
ATOM     68  F   UNL A   1      42.322  27.592  32.366  1.00  0.00    -0.203 F 
ATOM     69  F   UNL A   1      43.413  30.015  37.131  1.00  0.00    -0.200 F 
ATOM     70  C   UNL A   1      42.557  28.175  35.932  1.00  0.00     0.200 A 
ATOM     71  F   UNL A   1      41.641  26.390  34.688  1.00  0.00    -0.200 F 
ATOM     72  F   UNL A   1      42.218  27.567  37.078  1.00  0.00    -0.200 F 
ENDBRANCH  39  62
ENDBRANCH  13  14
ENDBRANCH   6   8
ENDBRANCH   5   6
ENDBRANCH   4   5
ENDBRANCH   3   4
ENDBRANCH   2   3
ENDBRANCH   1   2
BRANCH   1  73
ATOM     73  C   UNL A   1      35.328  23.707  24.172  1.00  0.00     0.261 C 
BRANCH  73  74
ATOM     74  O   UNL A   1      34.656  24.734  24.940  1.00  0.00    -0.463 OA
BRANCH  74  75
ATOM     75  C   UNL A   1      34.014  25.705  24.261  1.00  0.00     0.310 C 
ATOM     76  O   UNL A   1      33.993  25.781  23.036  1.00  0.00    -0.252 OA
BRANCH  75  77
ATOM     77  C   UNL A   1      33.227  26.673  25.128  1.00  0.00     0.119 C 
ATOM     78  C   UNL A   1      31.701  26.557  25.163  1.00  0.00     0.100 C 
ATOM     79  C   UNL A   1      33.660  28.179  25.269  1.00  0.00     0.026 C 
ATOM     80  C   UNL A   1      31.127  27.847  25.819  1.00  0.00     0.025 C 
ATOM     81  C   UNL A   1      32.706  29.179  24.631  1.00  0.00    -0.027 C 
ATOM     82  C   UNL A   1      33.439  28.528  26.762  1.00  0.00     0.009 C 
ATOM     83  C   UNL A   1      31.403  29.010  24.915  1.00  0.00    -0.027 C 
ATOM     84  C   UNL A   1      31.955  28.172  27.121  1.00  0.00     0.009 C 
BRANCH  78  85
ATOM     85  C   UNL A   1      30.940  25.932  23.975  1.00  0.00     0.228 C 
ATOM     86  O   UNL A   1      30.247  26.708  23.291  1.00  0.00    -0.274 OA
ATOM     87  N   UNL A   1      30.989  24.661  23.495  1.00  0.00    -0.326 N 
ATOM     88  H   UNL A   1      30.639  24.607  22.577  1.00  0.00     0.169 HD
BRANCH  87  89
ATOM     89  C   UNL A   1      31.406  23.406  23.963  1.00  0.00     0.041 A 
ATOM     90  C   UNL A   1      32.059  22.552  23.067  1.00  0.00     0.026 A 
ATOM     91  C   UNL A   1      31.176  22.931  25.238  1.00  0.00     0.026 A 
ATOM     92  C   UNL A   1      32.623  21.338  23.500  1.00  0.00     0.008 A 
ATOM     93  C   UNL A   1      31.763  21.744  25.684  1.00  0.00     0.008 A 
ATOM     94  C   UNL A   1      32.517  20.943  24.836  1.00  0.00    -0.026 A 
BRANCH  94  95
ATOM     95  C   UNL A   1      33.188  19.719  25.400  1.00  0.00     0.181 C 
BRANCH  95  96
ATOM     96  N   UNL A   1      33.261  18.624  24.451  1.00  0.00    -0.249 N 
ATOM     97  C   UNL A   1      32.321  18.267  23.534  1.00  0.00     0.220 A 
ATOM     98  N   UNL A   1      34.408  17.938  24.251  1.00  0.00    -0.160 NA
ATOM     99  N   UNL A   1      32.800  17.328  22.751  1.00  0.00    -0.224 NA
ATOM    100  C   UNL A   1      34.068  17.153  23.226  1.00  0.00     0.246 A 
ENDBRANCH  95  96
ENDBRANCH  94  95
ENDBRANCH  87  89
ENDBRANCH  78  85
ENDBRANCH  75  77
ENDBRANCH  74  75
ENDBRANCH  73  74
ENDBRANCH   1  73
TORSDOF 18
ENDMDL
MODEL 3
REMARK VINA RESULT:     -12.6      3.292      8.173
REMARK SMILES O=C(OCCOCCOC(=O)[C@@H]1[C@H](C(=O)Nc2ccc(Cn3cncn3)cc2)[C@@H]2C=C[C@H]1CC2)c1ccc(-c2c3nc(c(-c4c(F)c(F)c(F)c(F)c4F)c4ccc([nH]4)c(-c4c(F)c(F)c(F)c(F)c4F)c4nc(c(-c5c(F)c(F)c(F)c(F)c5F)c5ccc2[nH]5)C=C4)C=C3)cc1
REMARK SMILES IDX 7 1 6 2 5 3 4 4 3 5 2 6 1 7 35 8 36 9 97 10 37 11 96 12
REMARK SMILES IDX 38 13 39 14 40 15 90 16 41 17 95 18 89 19 91 20 42 21 94 22
REMARK SMILES IDX 88 23 87 24 43 26 75 27 55 28 74 29 56 30 59 31 73 32 92 33
REMARK SMILES IDX 57 34 58 35 72 37 93 38 60 39 44 40 45 41 53 42 46 43 47 44
REMARK SMILES IDX 51 45 54 46 48 47 49 48 52 49 50 50 76 51 77 52 85 53 78 54
REMARK SMILES IDX 79 55 83 56 86 57 80 58 81 59 84 60 82 61 61 62 62 63 70 64
REMARK SMILES IDX 63 65 64 66 68 67 71 68 65 69 66 70 69 71 67 72 8 73 9 74
REMARK SMILES IDX 10 75 11 76 12 77 13 78 32 79 29 80 31 81 33 82 30 83 34 84
REMARK SMILES IDX 14 85 15 86 16 87 17 89 18 90 28 91 19 92 27 93 20 94 21 95
REMARK SMILES IDX 22 96 23 97 26 98 24 99 25 100
REMARK H PARENT 91 25 59 36 16 88
REMARK Flexibility Score: inf
ROOT
ATOM      1  C   UNL A   1      37.909  22.194  25.652  1.00  0.00     0.202 C 
ENDROOT
BRANCH   1   2
ATOM      2  O   UNL A   1      39.330  21.961  25.584  1.00  0.00    -0.374 OA
BRANCH   2   3
ATOM      3  C   UNL A   1      39.806  20.882  26.385  1.00  0.00     0.202 C 
BRANCH   3   4
ATOM      4  C   UNL A   1      41.174  20.336  25.992  1.00  0.00     0.261 C 
BRANCH   4   5
ATOM      5  O   UNL A   1      42.253  21.125  26.529  1.00  0.00    -0.460 OA
BRANCH   5   6
ATOM      6  C   UNL A   1      42.640  22.255  25.877  1.00  0.00     0.338 C 
ATOM      7  O   UNL A   1      42.903  22.308  24.703  1.00  0.00    -0.246 OA
BRANCH   6   8
ATOM      8  C   UNL A   1      42.330  23.484  26.609  1.00  0.00     0.060 A 
ATOM      9  C   UNL A   1      41.575  24.512  26.058  1.00  0.00     0.016 A 
ATOM     10  C   UNL A   1      42.881  23.580  27.892  1.00  0.00     0.016 A 
ATOM     11  C   UNL A   1      41.551  25.725  26.692  1.00  0.00     0.010 A 
ATOM     12  C   UNL A   1      42.788  24.774  28.572  1.00  0.00     0.010 A 
ATOM     13  C   UNL A   1      42.190  25.854  27.928  1.00  0.00    -0.014 A 
BRANCH  13  14
ATOM     14  C   UNL A   1      42.086  27.154  28.548  1.00  0.00     0.031 A 
ATOM     15  C   UNL A   1      43.226  28.060  28.260  1.00  0.00     0.074 A 
ATOM     16  C   UNL A   1      41.019  27.508  29.280  1.00  0.00     0.049 A 
ATOM     17  N   UNL A   1      44.009  28.651  29.100  1.00  0.00    -0.248 NA
ATOM     18  C   UNL A   1      43.613  28.227  26.849  1.00  0.00     0.031 C 
ATOM     19  C   UNL A   1      39.740  26.808  29.410  1.00  0.00     0.029 A 
ATOM     20  N   UNL A   1      40.824  28.658  29.973  1.00  0.00    -0.354 N 
ATOM     21  C   UNL A   1      44.889  29.402  28.327  1.00  0.00     0.074 A 
ATOM     22  C   UNL A   1      44.689  29.003  26.960  1.00  0.00     0.031 C 
ATOM     23  C   UNL A   1      38.831  27.659  29.932  1.00  0.00     0.029 A 
ATOM     24  C   UNL A   1      39.499  28.904  30.275  1.00  0.00     0.049 A 
ATOM     25  H   UNL A   1      41.558  29.258  30.238  1.00  0.00     0.167 HD
ATOM     26  C   UNL A   1      45.545  30.472  28.849  1.00  0.00     0.037 A 
ATOM     27  C   UNL A   1      38.983  30.090  30.672  1.00  0.00     0.037 A 
ATOM     28  C   UNL A   1      45.699  30.351  30.277  1.00  0.00     0.049 A 
ATOM     29  C   UNL A   1      40.103  30.927  31.178  1.00  0.00     0.074 A 
ATOM     30  C   UNL A   1      46.282  29.412  31.107  1.00  0.00     0.029 A 
ATOM     31  N   UNL A   1      44.920  31.127  31.098  1.00  0.00    -0.354 N 
ATOM     32  N   UNL A   1      40.751  30.696  32.286  1.00  0.00    -0.248 NA
ATOM     33  C   UNL A   1      40.783  31.804  30.234  1.00  0.00     0.031 C 
ATOM     34  C   UNL A   1      45.451  29.368  32.265  1.00  0.00     0.029 A 
ATOM     35  C   UNL A   1      44.435  30.304  32.083  1.00  0.00     0.049 A 
ATOM     36  H   UNL A   1      44.743  32.090  31.000  1.00  0.00     0.167 HD
ATOM     37  C   UNL A   1      42.067  31.037  32.004  1.00  0.00     0.074 A 
ATOM     38  C   UNL A   1      42.004  31.816  30.772  1.00  0.00     0.031 C 
ATOM     39  C   UNL A   1      43.109  30.421  32.637  1.00  0.00     0.037 A 
BRANCH  26  40
ATOM     40  C   UNL A   1      45.672  31.785  28.111  1.00  0.00     0.064 A 
ATOM     41  C   UNL A   1      44.510  32.397  27.604  1.00  0.00     0.173 A 
ATOM     42  C   UNL A   1      46.894  32.290  27.610  1.00  0.00     0.173 A 
ATOM     43  F   UNL A   1      43.294  31.993  28.001  1.00  0.00    -0.203 F 
ATOM     44  C   UNL A   1      44.567  33.362  26.595  1.00  0.00     0.198 A 
ATOM     45  C   UNL A   1      46.946  33.291  26.643  1.00  0.00     0.198 A 
ATOM     46  F   UNL A   1      48.079  31.770  27.943  1.00  0.00    -0.203 F 
ATOM     47  F   UNL A   1      43.432  33.811  26.041  1.00  0.00    -0.200 F 
ATOM     48  C   UNL A   1      45.785  33.799  26.107  1.00  0.00     0.200 A 
ATOM     49  F   UNL A   1      48.138  33.690  26.176  1.00  0.00    -0.200 F 
ATOM     50  F   UNL A   1      45.840  34.667  25.089  1.00  0.00    -0.200 F 
ENDBRANCH  26  40
BRANCH  27  51
ATOM     51  C   UNL A   1      37.645  30.635  30.362  1.00  0.00     0.064 A 
ATOM     52  C   UNL A   1      36.782  31.045  31.388  1.00  0.00     0.173 A 
ATOM     53  C   UNL A   1      37.273  30.991  29.049  1.00  0.00     0.173 A 
ATOM     54  F   UNL A   1      37.089  30.791  32.668  1.00  0.00    -0.203 F 
ATOM     55  C   UNL A   1      35.622  31.778  31.119  1.00  0.00     0.198 A 
ATOM     56  C   UNL A   1      36.107  31.705  28.780  1.00  0.00     0.198 A 
ATOM     57  F   UNL A   1      38.076  30.735  28.007  1.00  0.00    -0.203 F 
ATOM     58  F   UNL A   1      34.854  32.205  32.130  1.00  0.00    -0.200 F 
ATOM     59  C   UNL A   1      35.288  32.110  29.816  1.00  0.00     0.200 A 
ATOM     60  F   UNL A   1      35.814  32.048  27.517  1.00  0.00    -0.200 F 
ATOM     61  F   UNL A   1      34.203  32.854  29.562  1.00  0.00    -0.200 F 
ENDBRANCH  27  51
BRANCH  39  62
ATOM     62  C   UNL A   1      42.798  29.588  33.845  1.00  0.00     0.064 A 
ATOM     63  C   UNL A   1      42.282  28.282  33.782  1.00  0.00     0.173 A 
ATOM     64  C   UNL A   1      43.151  30.083  35.108  1.00  0.00     0.173 A 
ATOM     65  F   UNL A   1      42.029  27.695  32.604  1.00  0.00    -0.203 F 
ATOM     66  C   UNL A   1      42.071  27.533  34.937  1.00  0.00     0.198 A 
ATOM     67  C   UNL A   1      42.975  29.317  36.257  1.00  0.00     0.198 A 
ATOM     68  F   UNL A   1      43.708  31.298  35.223  1.00  0.00    -0.203 F 
ATOM     69  F   UNL A   1      41.557  26.297  34.853  1.00  0.00    -0.200 F 
ATOM     70  C   UNL A   1      42.422  28.049  36.173  1.00  0.00     0.200 A 
ATOM     71  F   UNL A   1      43.366  29.800  37.445  1.00  0.00    -0.200 F 
ATOM     72  F   UNL A   1      42.252  27.316  37.283  1.00  0.00    -0.200 F 
ENDBRANCH  39  62
ENDBRANCH  13  14
ENDBRANCH   6   8
ENDBRANCH   5   6
ENDBRANCH   4   5
ENDBRANCH   3   4
ENDBRANCH   2   3
ENDBRANCH   1   2
BRANCH   1  73
ATOM     73  C   UNL A   1      37.060  21.677  24.482  1.00  0.00     0.261 C 
BRANCH  73  74
ATOM     74  O   UNL A   1      36.633  22.763  23.626  1.00  0.00    -0.463 OA
BRANCH  74  75
ATOM     75  C   UNL A   1      35.308  22.979  23.500  1.00  0.00     0.310 C 
ATOM     76  O   UNL A   1      34.769  23.317  22.450  1.00  0.00    -0.252 OA
BRANCH  75  77
ATOM     77  C   UNL A   1      34.495  22.684  24.748  1.00  0.00     0.119 C 
ATOM     78  C   UNL A   1      33.153  21.963  24.601  1.00  0.00     0.100 C 
ATOM     79  C   UNL A   1      34.432  23.709  25.941  1.00  0.00     0.026 C 
ATOM     80  C   UNL A   1      32.375  22.098  25.942  1.00  0.00     0.025 C 
ATOM     81  C   UNL A   1      33.075  24.367  26.144  1.00  0.00    -0.027 C 
ATOM     82  C   UNL A   1      34.495  22.844  27.225  1.00  0.00     0.009 C 
ATOM     83  C   UNL A   1      32.016  23.539  26.147  1.00  0.00    -0.027 C 
ATOM     84  C   UNL A   1      33.352  21.775  27.136  1.00  0.00     0.009 C 
BRANCH  78  85
ATOM     85  C   UNL A   1      32.364  22.051  23.278  1.00  0.00     0.228 C 
ATOM     86  O   UNL A   1      32.343  21.023  22.576  1.00  0.00    -0.274 OA
ATOM     87  N   UNL A   1      31.595  23.065  22.800  1.00  0.00    -0.326 N 
ATOM     88  H   UNL A   1      30.987  22.756  22.091  1.00  0.00     0.169 HD
BRANCH  87  89
ATOM     89  C   UNL A   1      31.440  24.437  23.051  1.00  0.00     0.041 A 
ATOM     90  C   UNL A   1      30.191  24.888  23.494  1.00  0.00     0.026 A 
ATOM     91  C   UNL A   1      32.420  25.385  22.845  1.00  0.00     0.026 A 
ATOM     92  C   UNL A   1      30.002  26.225  23.893  1.00  0.00     0.008 A 
ATOM     93  C   UNL A   1      32.250  26.705  23.272  1.00  0.00     0.008 A 
ATOM     94  C   UNL A   1      31.054  27.141  23.827  1.00  0.00    -0.026 A 
BRANCH  94  95
ATOM     95  C   UNL A   1      30.964  28.554  24.340  1.00  0.00     0.181 C 
BRANCH  95  96
ATOM     96  N   UNL A   1      31.911  28.833  25.403  1.00  0.00    -0.249 N 
ATOM     97  C   UNL A   1      32.840  29.827  25.438  1.00  0.00     0.220 A 
ATOM     98  N   UNL A   1      31.826  28.217  26.603  1.00  0.00    -0.160 NA
ATOM     99  N   UNL A   1      33.408  29.863  26.621  1.00  0.00    -0.224 NA
ATOM    100  C   UNL A   1      32.768  28.862  27.296  1.00  0.00     0.246 A 
ENDBRANCH  95  96
ENDBRANCH  94  95
ENDBRANCH  87  89
ENDBRANCH  78  85
ENDBRANCH  75  77
ENDBRANCH  74  75
ENDBRANCH  73  74
ENDBRANCH   1  73
TORSDOF 18
ENDMDL
