MODEL 1
REMARK VINA RESULT:     -12.0      0.000      0.000
REMARK SMILES O=C(OCCOCCOC(=O)[C@@H]1[C@@H](C(=O)Nc2cccc([N+](=O)[O-])c2)[C@@H]2C=C[C@H]1O2)c1ccc(-c2c3nc(c(-c4c(F)c(F)c(F)c(F)c4F)c4ccc([nH]4)c(-c4c(F)c(F)c(F)c(F)c4F)c4nc(c(-c5c(F)c(F)c(F)c(F)c5F)c5ccc2[nH]5)C=C4)C=C3)cc1
REMARK SMILES IDX 7 1 6 2 5 3 4 4 3 5 2 6 1 7 31 8 32 9 93 10 33 11 92 12
REMARK SMILES IDX 34 13 35 14 36 15 86 16 37 17 91 18 85 19 87 20 38 21 90 22
REMARK SMILES IDX 84 23 83 24 39 26 71 27 51 28 70 29 52 30 55 31 69 32 88 33
REMARK SMILES IDX 53 34 54 35 68 37 89 38 56 39 40 40 41 41 49 42 42 43 43 44
REMARK SMILES IDX 47 45 50 46 44 47 45 48 48 49 46 50 72 51 73 52 81 53 74 54
REMARK SMILES IDX 75 55 79 56 82 57 76 58 77 59 80 60 78 61 57 62 58 63 66 64
REMARK SMILES IDX 59 65 60 66 64 67 67 68 61 69 62 70 65 71 63 72 8 73 9 74
REMARK SMILES IDX 10 75 11 76 12 77 13 78 29 79 26 80 28 81 30 82 27 83 14 84
REMARK SMILES IDX 15 85 16 86 17 88 18 89 25 90 19 91 21 92 20 93 22 94 23 95
REMARK SMILES IDX 24 96
REMARK H PARENT 87 25 55 36 16 87
REMARK Flexibility Score: inf
ROOT
ATOM      1  C   UNL A   1      31.612  32.143  26.879  1.00  0.00     0.202 C 
ENDROOT
BRANCH   1   2
ATOM      2  O   UNL A   1      31.924  33.484  27.274  1.00  0.00    -0.374 OA
BRANCH   2   3
ATOM      3  C   UNL A   1      33.116  33.651  28.045  1.00  0.00     0.202 C 
BRANCH   3   4
ATOM      4  C   UNL A   1      33.426  34.975  28.789  1.00  0.00     0.261 C 
BRANCH   4   5
ATOM      5  O   UNL A   1      32.464  35.311  29.820  1.00  0.00    -0.460 OA
BRANCH   5   6
ATOM      6  C   UNL A   1      32.832  35.692  31.084  1.00  0.00     0.338 C 
ATOM      7  O   UNL A   1      32.347  36.685  31.605  1.00  0.00    -0.246 OA
BRANCH   6   8
ATOM      8  C   UNL A   1      33.890  34.906  31.780  1.00  0.00     0.060 A 
ATOM      9  C   UNL A   1      35.097  35.506  32.076  1.00  0.00     0.016 A 
ATOM     10  C   UNL A   1      33.734  33.572  32.154  1.00  0.00     0.016 A 
ATOM     11  C   UNL A   1      36.207  34.826  32.475  1.00  0.00     0.010 A 
ATOM     12  C   UNL A   1      34.818  32.881  32.729  1.00  0.00     0.010 A 
ATOM     13  C   UNL A   1      36.072  33.506  32.849  1.00  0.00    -0.014 A 
BRANCH  13  14
ATOM     14  C   UNL A   1      37.332  32.845  33.215  1.00  0.00     0.031 A 
ATOM     15  C   UNL A   1      37.827  33.021  34.614  1.00  0.00     0.074 A 
ATOM     16  C   UNL A   1      37.845  31.906  32.393  1.00  0.00     0.049 A 
ATOM     17  N   UNL A   1      38.922  32.579  35.165  1.00  0.00    -0.248 NA
ATOM     18  C   UNL A   1      36.957  33.786  35.526  1.00  0.00     0.031 C 
ATOM     19  C   UNL A   1      37.273  31.507  31.099  1.00  0.00     0.029 A 
ATOM     20  N   UNL A   1      38.912  31.065  32.547  1.00  0.00    -0.354 N 
ATOM     21  C   UNL A   1      38.909  33.073  36.460  1.00  0.00     0.074 A 
ATOM     22  C   UNL A   1      37.688  33.826  36.627  1.00  0.00     0.031 C 
ATOM     23  C   UNL A   1      37.963  30.468  30.608  1.00  0.00     0.029 A 
ATOM     24  C   UNL A   1      39.094  30.213  31.485  1.00  0.00     0.049 A 
ATOM     25  H   UNL A   1      39.492  31.070  33.342  1.00  0.00     0.167 HD
ATOM     26  C   UNL A   1      39.862  32.922  37.407  1.00  0.00     0.037 A 
ATOM     27  C   UNL A   1      40.107  29.365  31.232  1.00  0.00     0.037 A 
ATOM     28  C   UNL A   1      41.048  32.139  37.192  1.00  0.00     0.049 A 
ATOM     29  C   UNL A   1      41.216  29.313  32.245  1.00  0.00     0.074 A 
ATOM     30  C   UNL A   1      42.141  31.969  38.016  1.00  0.00     0.029 A 
ATOM     31  N   UNL A   1      41.280  31.382  36.047  1.00  0.00    -0.354 N 
ATOM     32  N   UNL A   1      41.290  29.896  33.419  1.00  0.00    -0.248 NA
ATOM     33  C   UNL A   1      42.395  28.518  31.890  1.00  0.00     0.031 C 
ATOM     34  C   UNL A   1      43.058  31.149  37.348  1.00  0.00     0.029 A 
ATOM     35  C   UNL A   1      42.511  30.758  36.133  1.00  0.00     0.049 A 
ATOM     36  H   UNL A   1      40.659  31.302  35.287  1.00  0.00     0.167 HD
ATOM     37  C   UNL A   1      42.512  29.527  33.955  1.00  0.00     0.074 A 
ATOM     38  C   UNL A   1      43.137  28.650  32.981  1.00  0.00     0.031 C 
ATOM     39  C   UNL A   1      43.076  29.880  35.138  1.00  0.00     0.037 A 
BRANCH  26  40
ATOM     40  C   UNL A   1      39.695  33.716  38.667  1.00  0.00     0.064 A 
ATOM     41  C   UNL A   1      38.893  33.283  39.734  1.00  0.00     0.173 A 
ATOM     42  C   UNL A   1      40.290  34.983  38.770  1.00  0.00     0.173 A 
ATOM     43  F   UNL A   1      38.266  32.098  39.671  1.00  0.00    -0.203 F 
ATOM     44  C   UNL A   1      38.660  34.105  40.836  1.00  0.00     0.198 A 
ATOM     45  C   UNL A   1      40.080  35.789  39.885  1.00  0.00     0.198 A 
ATOM     46  F   UNL A   1      41.054  35.453  37.773  1.00  0.00    -0.203 F 
ATOM     47  F   UNL A   1      37.826  33.704  41.805  1.00  0.00    -0.200 F 
ATOM     48  C   UNL A   1      39.255  35.356  40.912  1.00  0.00     0.200 A 
ATOM     49  F   UNL A   1      40.656  36.998  39.954  1.00  0.00    -0.200 F 
ATOM     50  F   UNL A   1      39.015  36.152  41.961  1.00  0.00    -0.200 F 
ENDBRANCH  26  40
BRANCH  27  51
ATOM     51  C   UNL A   1      40.158  28.591  29.961  1.00  0.00     0.064 A 
ATOM     52  C   UNL A   1      40.790  29.103  28.821  1.00  0.00     0.173 A 
ATOM     53  C   UNL A   1      39.556  27.325  29.852  1.00  0.00     0.173 A 
ATOM     54  F   UNL A   1      41.362  30.316  28.860  1.00  0.00    -0.203 F 
ATOM     55  C   UNL A   1      40.805  28.391  27.621  1.00  0.00     0.198 A 
ATOM     56  C   UNL A   1      39.601  26.599  28.662  1.00  0.00     0.198 A 
ATOM     57  F   UNL A   1      38.929  26.783  30.906  1.00  0.00    -0.203 F 
ATOM     58  F   UNL A   1      41.373  28.929  26.532  1.00  0.00    -0.200 F 
ATOM     59  C   UNL A   1      40.216  27.138  27.544  1.00  0.00     0.200 A 
ATOM     60  F   UNL A   1      39.043  25.383  28.601  1.00  0.00    -0.200 F 
ATOM     61  F   UNL A   1      40.231  26.455  26.391  1.00  0.00    -0.200 F 
ENDBRANCH  27  51
BRANCH  39  62
ATOM     62  C   UNL A   1      44.406  29.268  35.450  1.00  0.00     0.064 A 
ATOM     63  C   UNL A   1      45.608  29.897  35.094  1.00  0.00     0.173 A 
ATOM     64  C   UNL A   1      44.470  28.054  36.148  1.00  0.00     0.173 A 
ATOM     65  F   UNL A   1      45.591  31.049  34.408  1.00  0.00    -0.203 F 
ATOM     66  C   UNL A   1      46.831  29.315  35.407  1.00  0.00     0.198 A 
ATOM     67  C   UNL A   1      45.696  27.494  36.490  1.00  0.00     0.198 A 
ATOM     68  F   UNL A   1      43.344  27.423  36.513  1.00  0.00    -0.203 F 
ATOM     69  F   UNL A   1      47.969  29.902  35.014  1.00  0.00    -0.200 F 
ATOM     70  C   UNL A   1      46.874  28.120  36.112  1.00  0.00     0.200 A 
ATOM     71  F   UNL A   1      45.736  26.349  37.184  1.00  0.00    -0.200 F 
ATOM     72  F   UNL A   1      48.055  27.566  36.421  1.00  0.00    -0.200 F 
ENDBRANCH  39  62
ENDBRANCH  13  14
ENDBRANCH   6   8
ENDBRANCH   5   6
ENDBRANCH   4   5
ENDBRANCH   3   4
ENDBRANCH   2   3
ENDBRANCH   1   2
BRANCH   1  73
ATOM     73  C   UNL A   1      32.798  31.202  27.051  1.00  0.00     0.261 C 
BRANCH  73  74
ATOM     74  O   UNL A   1      32.720  30.175  26.048  1.00  0.00    -0.463 OA
BRANCH  74  75
ATOM     75  C   UNL A   1      33.672  29.205  26.121  1.00  0.00     0.312 C 
ATOM     76  O   UNL A   1      34.601  29.185  26.912  1.00  0.00    -0.252 OA
BRANCH  75  77
ATOM     77  C   UNL A   1      33.432  28.173  25.058  1.00  0.00     0.147 C 
ATOM     78  C   UNL A   1      32.062  28.265  24.315  1.00  0.00     0.129 C 
ATOM     79  C   UNL A   1      33.366  26.761  25.661  1.00  0.00     0.157 C 
ATOM     80  C   UNL A   1      31.553  26.806  24.459  1.00  0.00     0.155 C 
ATOM     81  C   UNL A   1      32.217  26.546  26.611  1.00  0.00     0.004 C 
ATOM     82  O   UNL A   1      32.806  26.067  24.513  1.00  0.00    -0.365 OA
ATOM     83  C   UNL A   1      31.103  26.550  25.867  1.00  0.00     0.004 C 
BRANCH  78  84
ATOM     84  C   UNL A   1      32.187  28.580  22.841  1.00  0.00     0.231 C 
ATOM     85  O   UNL A   1      33.237  28.387  22.225  1.00  0.00    -0.274 OA
ATOM     86  N   UNL A   1      31.070  28.904  22.117  1.00  0.00    -0.325 N 
ATOM     87  H   UNL A   1      31.107  28.580  21.188  1.00  0.00     0.169 HD
BRANCH  86  88
ATOM     88  C   UNL A   1      29.880  29.597  22.413  1.00  0.00     0.048 A 
ATOM     89  C   UNL A   1      28.768  28.812  22.753  1.00  0.00     0.026 A 
ATOM     90  C   UNL A   1      29.697  30.969  22.221  1.00  0.00     0.111 A 
ATOM     91  C   UNL A   1      27.507  29.380  22.959  1.00  0.00     0.009 A 
ATOM     92  C   UNL A   1      28.408  31.530  22.375  1.00  0.00     0.271 A 
ATOM     93  C   UNL A   1      27.321  30.746  22.772  1.00  0.00     0.086 A 
BRANCH  92  94
ATOM     94  N   UNL A   1      28.160  32.935  22.014  1.00  0.00     0.062 N 
ATOM     95  O   UNL A   1      28.421  33.810  22.846  1.00  0.00    -0.258 OA
ATOM     96  O   UNL A   1      27.667  33.160  20.898  1.00  0.00    -0.258 OA
ENDBRANCH  92  94
ENDBRANCH  86  88
ENDBRANCH  78  84
ENDBRANCH  75  77
ENDBRANCH  74  75
ENDBRANCH  73  74
ENDBRANCH   1  73
TORSDOF 17
ENDMDL
MODEL 2
REMARK VINA RESULT:     -11.9      3.251      9.210
REMARK SMILES O=C(OCCOCCOC(=O)[C@@H]1[C@@H](C(=O)Nc2cccc([N+](=O)[O-])c2)[C@@H]2C=C[C@H]1O2)c1ccc(-c2c3nc(c(-c4c(F)c(F)c(F)c(F)c4F)c4ccc([nH]4)c(-c4c(F)c(F)c(F)c(F)c4F)c4nc(c(-c5c(F)c(F)c(F)c(F)c5F)c5ccc2[nH]5)C=C4)C=C3)cc1
REMARK SMILES IDX 7 1 6 2 5 3 4 4 3 5 2 6 1 7 31 8 32 9 93 10 33 11 92 12
REMARK SMILES IDX 34 13 35 14 36 15 86 16 37 17 91 18 85 19 87 20 38 21 90 22
REMARK SMILES IDX 84 23 83 24 39 26 71 27 51 28 70 29 52 30 55 31 69 32 88 33
REMARK SMILES IDX 53 34 54 35 68 37 89 38 56 39 40 40 41 41 49 42 42 43 43 44
REMARK SMILES IDX 47 45 50 46 44 47 45 48 48 49 46 50 72 51 73 52 81 53 74 54
REMARK SMILES IDX 75 55 79 56 82 57 76 58 77 59 80 60 78 61 57 62 58 63 66 64
REMARK SMILES IDX 59 65 60 66 64 67 67 68 61 69 62 70 65 71 63 72 8 73 9 74
REMARK SMILES IDX 10 75 11 76 12 77 13 78 29 79 26 80 28 81 30 82 27 83 14 84
REMARK SMILES IDX 15 85 16 86 17 88 18 89 25 90 19 91 21 92 20 93 22 94 23 95
REMARK SMILES IDX 24 96
REMARK H PARENT 87 25 55 36 16 87
REMARK Flexibility Score: inf
ROOT
ATOM      1  C   UNL A   1      33.322  29.058  23.293  1.00  0.00     0.202 C 
ENDROOT
BRANCH   1   2
ATOM      2  O   UNL A   1      31.894  29.078  23.391  1.00  0.00    -0.374 OA
BRANCH   2   3
ATOM      3  C   UNL A   1      31.356  29.182  24.712  1.00  0.00     0.202 C 
BRANCH   3   4
ATOM      4  C   UNL A   1      31.660  30.401  25.621  1.00  0.00     0.261 C 
BRANCH   4   5
ATOM      5  O   UNL A   1      32.742  30.180  26.560  1.00  0.00    -0.460 OA
BRANCH   5   6
ATOM      6  C   UNL A   1      33.390  31.203  27.202  1.00  0.00     0.338 C 
ATOM      7  O   UNL A   1      32.895  32.320  27.258  1.00  0.00    -0.246 OA
BRANCH   6   8
ATOM      8  C   UNL A   1      34.744  30.940  27.767  1.00  0.00     0.060 A 
ATOM      9  C   UNL A   1      35.104  29.648  28.089  1.00  0.00     0.016 A 
ATOM     10  C   UNL A   1      35.685  31.941  27.999  1.00  0.00     0.016 A 
ATOM     11  C   UNL A   1      36.199  29.328  28.833  1.00  0.00     0.010 A 
ATOM     12  C   UNL A   1      36.908  31.614  28.617  1.00  0.00     0.010 A 
ATOM     13  C   UNL A   1      37.142  30.304  29.072  1.00  0.00    -0.014 A 
BRANCH  13  14
ATOM     14  C   UNL A   1      38.260  29.875  29.924  1.00  0.00     0.031 A 
ATOM     15  C   UNL A   1      39.350  29.075  29.288  1.00  0.00     0.074 A 
ATOM     16  C   UNL A   1      38.407  30.430  31.145  1.00  0.00     0.049 A 
ATOM     17  N   UNL A   1      40.412  28.548  29.829  1.00  0.00    -0.248 NA
ATOM     18  C   UNL A   1      39.237  28.853  27.835  1.00  0.00     0.031 C 
ATOM     19  C   UNL A   1      37.494  31.415  31.745  1.00  0.00     0.029 A 
ATOM     20  N   UNL A   1      39.405  30.310  32.071  1.00  0.00    -0.354 N 
ATOM     21  C   UNL A   1      41.052  27.872  28.801  1.00  0.00     0.074 A 
ATOM     22  C   UNL A   1      40.280  28.074  27.598  1.00  0.00     0.031 C 
ATOM     23  C   UNL A   1      38.004  31.844  32.908  1.00  0.00     0.029 A 
ATOM     24  C   UNL A   1      39.205  31.076  33.194  1.00  0.00     0.049 A 
ATOM     25  H   UNL A   1      40.191  29.731  31.945  1.00  0.00     0.167 HD
ATOM     26  C   UNL A   1      42.177  27.127  28.884  1.00  0.00     0.037 A 
ATOM     27  C   UNL A   1      39.894  31.099  34.349  1.00  0.00     0.037 A 
ATOM     28  C   UNL A   1      42.919  26.981  30.106  1.00  0.00     0.049 A 
ATOM     29  C   UNL A   1      41.067  30.164  34.456  1.00  0.00     0.074 A 
ATOM     30  C   UNL A   1      44.019  26.190  30.369  1.00  0.00     0.029 A 
ATOM     31  N   UNL A   1      42.623  27.667  31.281  1.00  0.00    -0.354 N 
ATOM     32  N   UNL A   1      41.600  29.399  33.532  1.00  0.00    -0.248 NA
ATOM     33  C   UNL A   1      41.712  30.067  35.768  1.00  0.00     0.031 C 
ATOM     34  C   UNL A   1      44.357  26.360  31.718  1.00  0.00     0.029 A 
ATOM     35  C   UNL A   1      43.506  27.302  32.280  1.00  0.00     0.049 A 
ATOM     36  H   UNL A   1      41.891  28.318  31.385  1.00  0.00     0.167 HD
ATOM     37  C   UNL A   1      42.656  28.741  34.141  1.00  0.00     0.074 A 
ATOM     38  C   UNL A   1      42.697  29.218  35.512  1.00  0.00     0.031 C 
ATOM     39  C   UNL A   1      43.511  27.823  33.625  1.00  0.00     0.037 A 
BRANCH  26  40
ATOM     40  C   UNL A   1      42.560  26.342  27.666  1.00  0.00     0.064 A 
ATOM     41  C   UNL A   1      42.049  25.064  27.397  1.00  0.00     0.173 A 
ATOM     42  C   UNL A   1      43.531  26.855  26.790  1.00  0.00     0.173 A 
ATOM     43  F   UNL A   1      41.151  24.508  28.225  1.00  0.00    -0.203 F 
ATOM     44  C   UNL A   1      42.525  24.312  26.324  1.00  0.00     0.198 A 
ATOM     45  C   UNL A   1      43.981  26.115  25.701  1.00  0.00     0.198 A 
ATOM     46  F   UNL A   1      44.064  28.066  27.008  1.00  0.00    -0.203 F 
ATOM     47  F   UNL A   1      42.081  23.062  26.134  1.00  0.00    -0.200 F 
ATOM     48  C   UNL A   1      43.488  24.839  25.475  1.00  0.00     0.200 A 
ATOM     49  F   UNL A   1      44.913  26.627  24.885  1.00  0.00    -0.200 F 
ATOM     50  F   UNL A   1      43.958  24.109  24.456  1.00  0.00    -0.200 F 
ENDBRANCH  26  40
BRANCH  27  51
ATOM     51  C   UNL A   1      39.449  31.946  35.489  1.00  0.00     0.064 A 
ATOM     52  C   UNL A   1      38.513  31.480  36.422  1.00  0.00     0.173 A 
ATOM     53  C   UNL A   1      39.936  33.253  35.662  1.00  0.00     0.173 A 
ATOM     54  F   UNL A   1      37.997  30.249  36.294  1.00  0.00    -0.203 F 
ATOM     55  C   UNL A   1      38.071  32.289  37.468  1.00  0.00     0.198 A 
ATOM     56  C   UNL A   1      39.519  34.049  36.728  1.00  0.00     0.198 A 
ATOM     57  F   UNL A   1      40.828  33.760  34.799  1.00  0.00    -0.203 F 
ATOM     58  F   UNL A   1      37.137  31.834  38.316  1.00  0.00    -0.200 F 
ATOM     59  C   UNL A   1      38.578  33.570  37.624  1.00  0.00     0.200 A 
ATOM     60  F   UNL A   1      40.026  35.280  36.879  1.00  0.00    -0.200 F 
ATOM     61  F   UNL A   1      38.153  34.346  38.630  1.00  0.00    -0.200 F 
ENDBRANCH  27  51
BRANCH  39  62
ATOM     62  C   UNL A   1      44.587  27.327  34.540  1.00  0.00     0.064 A 
ATOM     63  C   UNL A   1      44.420  26.172  35.316  1.00  0.00     0.173 A 
ATOM     64  C   UNL A   1      45.814  28.003  34.606  1.00  0.00     0.173 A 
ATOM     65  F   UNL A   1      43.255  25.508  35.298  1.00  0.00    -0.203 F 
ATOM     66  C   UNL A   1      45.439  25.725  36.149  1.00  0.00     0.198 A 
ATOM     67  C   UNL A   1      46.843  27.531  35.412  1.00  0.00     0.198 A 
ATOM     68  F   UNL A   1      46.018  29.109  33.874  1.00  0.00    -0.203 F 
ATOM     69  F   UNL A   1      45.244  24.650  36.924  1.00  0.00    -0.200 F 
ATOM     70  C   UNL A   1      46.652  26.398  36.189  1.00  0.00     0.200 A 
ATOM     71  F   UNL A   1      48.019  28.174  35.438  1.00  0.00    -0.200 F 
ATOM     72  F   UNL A   1      47.637  25.959  36.985  1.00  0.00    -0.200 F 
ENDBRANCH  39  62
ENDBRANCH  13  14
ENDBRANCH   6   8
ENDBRANCH   5   6
ENDBRANCH   4   5
ENDBRANCH   3   4
ENDBRANCH   2   3
ENDBRANCH   1   2
BRANCH   1  73
ATOM     73  C   UNL A   1      33.812  28.102  22.212  1.00  0.00     0.261 C 
BRANCH  73  74
ATOM     74  O   UNL A   1      32.778  27.139  21.947  1.00  0.00    -0.463 OA
BRANCH  74  75
ATOM     75  C   UNL A   1      33.042  25.866  22.348  1.00  0.00     0.312 C 
ATOM     76  O   UNL A   1      33.549  24.997  21.657  1.00  0.00    -0.252 OA
BRANCH  75  77
ATOM     77  C   UNL A   1      32.584  25.673  23.765  1.00  0.00     0.147 C 
ATOM     78  C   UNL A   1      33.004  24.329  24.440  1.00  0.00     0.129 C 
ATOM     79  C   UNL A   1      31.051  25.597  23.848  1.00  0.00     0.157 C 
ATOM     80  C   UNL A   1      31.636  23.827  24.971  1.00  0.00     0.155 C 
ATOM     81  C   UNL A   1      30.450  24.417  23.130  1.00  0.00     0.004 C 
ATOM     82  O   UNL A   1      30.938  25.083  25.203  1.00  0.00    -0.365 OA
ATOM     83  C   UNL A   1      30.789  23.330  23.836  1.00  0.00     0.004 C 
BRANCH  78  84
ATOM     84  C   UNL A   1      33.935  24.503  25.619  1.00  0.00     0.231 C 
ATOM     85  O   UNL A   1      34.140  25.609  26.123  1.00  0.00    -0.274 OA
ATOM     86  N   UNL A   1      34.416  23.401  26.276  1.00  0.00    -0.325 N 
ATOM     87  H   UNL A   1      34.530  23.549  27.242  1.00  0.00     0.169 HD
BRANCH  86  88
ATOM     88  C   UNL A   1      34.781  22.102  25.869  1.00  0.00     0.048 A 
ATOM     89  C   UNL A   1      36.128  21.911  25.527  1.00  0.00     0.026 A 
ATOM     90  C   UNL A   1      33.874  21.069  25.623  1.00  0.00     0.111 A 
ATOM     91  C   UNL A   1      36.584  20.696  25.004  1.00  0.00     0.009 A 
ATOM     92  C   UNL A   1      34.331  19.862  25.042  1.00  0.00     0.271 A 
ATOM     93  C   UNL A   1      35.685  19.663  24.760  1.00  0.00     0.086 A 
BRANCH  92  94
ATOM     94  N   UNL A   1      33.370  18.831  24.619  1.00  0.00     0.062 N 
ATOM     95  O   UNL A   1      33.807  17.808  24.080  1.00  0.00    -0.258 OA
ATOM     96  O   UNL A   1      32.165  19.064  24.798  1.00  0.00    -0.258 OA
ENDBRANCH  92  94
ENDBRANCH  86  88
ENDBRANCH  78  84
ENDBRANCH  75  77
ENDBRANCH  74  75
ENDBRANCH  73  74
ENDBRANCH   1  73
TORSDOF 17
ENDMDL
MODEL 3
REMARK VINA RESULT:     -11.9      0.682      7.232
REMARK SMILES O=C(OCCOCCOC(=O)[C@@H]1[C@@H](C(=O)Nc2cccc([N+](=O)[O-])c2)[C@@H]2C=C[C@H]1O2)c1ccc(-c2c3nc(c(-c4c(F)c(F)c(F)c(F)c4F)c4ccc([nH]4)c(-c4c(F)c(F)c(F)c(F)c4F)c4nc(c(-c5c(F)c(F)c(F)c(F)c5F)c5ccc2[nH]5)C=C4)C=C3)cc1
REMARK SMILES IDX 7 1 6 2 5 3 4 4 3 5 2 6 1 7 31 8 32 9 93 10 33 11 92 12
REMARK SMILES IDX 34 13 35 14 36 15 86 16 37 17 91 18 85 19 87 20 38 21 90 22
REMARK SMILES IDX 84 23 83 24 39 26 71 27 51 28 70 29 52 30 55 31 69 32 88 33
REMARK SMILES IDX 53 34 54 35 68 37 89 38 56 39 40 40 41 41 49 42 42 43 43 44
REMARK SMILES IDX 47 45 50 46 44 47 45 48 48 49 46 50 72 51 73 52 81 53 74 54
REMARK SMILES IDX 75 55 79 56 82 57 76 58 77 59 80 60 78 61 57 62 58 63 66 64
REMARK SMILES IDX 59 65 60 66 64 67 67 68 61 69 62 70 65 71 63 72 8 73 9 74
REMARK SMILES IDX 10 75 11 76 12 77 13 78 29 79 26 80 28 81 30 82 27 83 14 84
REMARK SMILES IDX 15 85 16 86 17 88 18 89 25 90 19 91 21 92 20 93 22 94 23 95
REMARK SMILES IDX 24 96
REMARK H PARENT 87 25 55 36 16 87
REMARK Flexibility Score: inf
ROOT
ATOM      1  C   UNL A   1      31.639  32.149  26.809  1.00  0.00     0.202 C 
ENDROOT
BRANCH   1   2
ATOM      2  O   UNL A   1      31.949  33.460  27.296  1.00  0.00    -0.374 OA
BRANCH   2   3
ATOM      3  C   UNL A   1      33.190  33.594  27.992  1.00  0.00     0.202 C 
BRANCH   3   4
ATOM      4  C   UNL A   1      33.514  34.847  28.845  1.00  0.00     0.261 C 
BRANCH   4   5
ATOM      5  O   UNL A   1      32.731  34.951  30.061  1.00  0.00    -0.460 OA
BRANCH   5   6
ATOM      6  C   UNL A   1      33.228  35.485  31.221  1.00  0.00     0.338 C 
ATOM      7  O   UNL A   1      32.883  36.596  31.597  1.00  0.00    -0.246 OA
BRANCH   6   8
ATOM      8  C   UNL A   1      34.252  34.709  31.976  1.00  0.00     0.060 A 
ATOM      9  C   UNL A   1      35.460  35.300  32.282  1.00  0.00     0.016 A 
ATOM     10  C   UNL A   1      34.062  33.394  32.396  1.00  0.00     0.016 A 
ATOM     11  C   UNL A   1      36.547  34.617  32.738  1.00  0.00     0.010 A 
ATOM     12  C   UNL A   1      35.117  32.707  33.028  1.00  0.00     0.010 A 
ATOM     13  C   UNL A   1      36.378  33.316  33.159  1.00  0.00    -0.014 A 
BRANCH  13  14
ATOM     14  C   UNL A   1      37.615  32.648  33.585  1.00  0.00     0.031 A 
ATOM     15  C   UNL A   1      38.301  31.761  32.597  1.00  0.00     0.074 A 
ATOM     16  C   UNL A   1      38.225  33.054  34.718  1.00  0.00     0.049 A 
ATOM     17  N   UNL A   1      39.372  31.033  32.744  1.00  0.00    -0.248 NA
ATOM     18  C   UNL A   1      37.707  31.699  31.250  1.00  0.00     0.031 C 
ATOM     19  C   UNL A   1      37.726  34.100  35.623  1.00  0.00     0.029 A 
ATOM     20  N   UNL A   1      39.426  32.700  35.267  1.00  0.00    -0.354 N 
ATOM     21  C   UNL A   1      39.538  30.373  31.536  1.00  0.00     0.074 A 
ATOM     22  C   UNL A   1      38.477  30.801  30.656  1.00  0.00     0.031 C 
ATOM     23  C   UNL A   1      38.636  34.335  36.578  1.00  0.00     0.029 A 
ATOM     24  C   UNL A   1      39.718  33.375  36.428  1.00  0.00     0.049 A 
ATOM     25  H   UNL A   1      40.023  32.026  34.869  1.00  0.00     0.167 HD
ATOM     26  C   UNL A   1      40.488  29.466  31.220  1.00  0.00     0.037 A 
ATOM     27  C   UNL A   1      40.724  33.184  37.299  1.00  0.00     0.037 A 
ATOM     28  C   UNL A   1      41.537  29.095  32.130  1.00  0.00     0.049 A 
ATOM     29  C   UNL A   1      41.695  32.082  36.982  1.00  0.00     0.074 A 
ATOM     30  C   UNL A   1      42.512  28.129  31.989  1.00  0.00     0.029 A 
ATOM     31  N   UNL A   1      41.741  29.701  33.366  1.00  0.00    -0.354 N 
ATOM     32  N   UNL A   1      41.777  31.338  35.902  1.00  0.00    -0.248 NA
ATOM     33  C   UNL A   1      42.689  31.764  38.011  1.00  0.00     0.031 C 
ATOM     34  C   UNL A   1      43.275  28.116  33.164  1.00  0.00     0.029 A 
ATOM     35  C   UNL A   1      42.814  29.115  34.011  1.00  0.00     0.049 A 
ATOM     36  H   UNL A   1      41.199  30.439  33.729  1.00  0.00     0.167 HD
ATOM     37  C   UNL A   1      42.841  30.477  36.109  1.00  0.00     0.074 A 
ATOM     38  C   UNL A   1      43.386  30.808  37.414  1.00  0.00     0.031 C 
ATOM     39  C   UNL A   1      43.325  29.497  35.305  1.00  0.00     0.037 A 
BRANCH  26  40
ATOM     40  C   UNL A   1      40.336  28.755  29.909  1.00  0.00     0.064 A 
ATOM     41  C   UNL A   1      39.611  27.561  29.775  1.00  0.00     0.173 A 
ATOM     42  C   UNL A   1      41.007  29.242  28.775  1.00  0.00     0.173 A 
ATOM     43  F   UNL A   1      38.985  27.028  30.836  1.00  0.00    -0.203 F 
ATOM     44  C   UNL A   1      39.597  26.861  28.570  1.00  0.00     0.198 A 
ATOM     45  C   UNL A   1      40.966  28.557  27.565  1.00  0.00     0.198 A 
ATOM     46  F   UNL A   1      41.727  30.370  28.850  1.00  0.00    -0.203 F 
ATOM     47  F   UNL A   1      38.964  25.682  28.488  1.00  0.00    -0.200 F 
ATOM     48  C   UNL A   1      40.272  27.361  27.465  1.00  0.00     0.200 A 
ATOM     49  F   UNL A   1      41.621  29.041  26.501  1.00  0.00    -0.200 F 
ATOM     50  F   UNL A   1      40.275  26.677  26.313  1.00  0.00    -0.200 F 
ENDBRANCH  26  40
BRANCH  27  51
ATOM     51  C   UNL A   1      40.806  33.973  38.559  1.00  0.00     0.064 A 
ATOM     52  C   UNL A   1      40.078  33.606  39.698  1.00  0.00     0.173 A 
ATOM     53  C   UNL A   1      41.600  35.130  38.646  1.00  0.00     0.173 A 
ATOM     54  F   UNL A   1      39.286  32.524  39.666  1.00  0.00    -0.203 F 
ATOM     55  C   UNL A   1      40.128  34.368  40.865  1.00  0.00     0.198 A 
ATOM     56  C   UNL A   1      41.677  35.872  39.824  1.00  0.00     0.198 A 
ATOM     57  F   UNL A   1      42.315  35.539  37.588  1.00  0.00    -0.203 F 
ATOM     58  F   UNL A   1      39.382  34.019  41.923  1.00  0.00    -0.200 F 
ATOM     59  C   UNL A   1      40.932  35.496  40.930  1.00  0.00     0.200 A 
ATOM     60  F   UNL A   1      42.467  36.952  39.882  1.00  0.00    -0.200 F 
ATOM     61  F   UNL A   1      40.979  36.227  42.051  1.00  0.00    -0.200 F 
ENDBRANCH  27  51
BRANCH  39  62
ATOM     62  C   UNL A   1      44.531  28.763  35.802  1.00  0.00     0.064 A 
ATOM     63  C   UNL A   1      45.831  29.200  35.512  1.00  0.00     0.173 A 
ATOM     64  C   UNL A   1      44.374  27.629  36.611  1.00  0.00     0.173 A 
ATOM     65  F   UNL A   1      46.025  30.269  34.725  1.00  0.00    -0.203 F 
ATOM     66  C   UNL A   1      46.936  28.508  35.996  1.00  0.00     0.198 A 
ATOM     67  C   UNL A   1      45.481  26.961  37.123  1.00  0.00     0.198 A 
ATOM     68  F   UNL A   1      43.147  27.180  36.918  1.00  0.00    -0.203 F 
ATOM     69  F   UNL A   1      48.170  28.909  35.666  1.00  0.00    -0.200 F 
ATOM     70  C   UNL A   1      46.760  27.396  36.808  1.00  0.00     0.200 A 
ATOM     71  F   UNL A   1      45.310  25.897  37.919  1.00  0.00    -0.200 F 
ATOM     72  F   UNL A   1      47.826  26.737  37.282  1.00  0.00    -0.200 F 
ENDBRANCH  39  62
ENDBRANCH  13  14
ENDBRANCH   6   8
ENDBRANCH   5   6
ENDBRANCH   4   5
ENDBRANCH   3   4
ENDBRANCH   2   3
ENDBRANCH   1   2
BRANCH   1  73
ATOM     73  C   UNL A   1      32.750  31.148  27.103  1.00  0.00     0.261 C 
BRANCH  73  74
ATOM     74  O   UNL A   1      32.599  30.021  26.222  1.00  0.00    -0.463 OA
BRANCH  74  75
ATOM     75  C   UNL A   1      33.657  29.167  26.172  1.00  0.00     0.312 C 
ATOM     76  O   UNL A   1      34.657  29.238  26.867  1.00  0.00    -0.252 OA
BRANCH  75  77
ATOM     77  C   UNL A   1      33.430  28.136  25.104  1.00  0.00     0.147 C 
ATOM     78  C   UNL A   1      32.066  28.225  24.349  1.00  0.00     0.129 C 
ATOM     79  C   UNL A   1      33.362  26.722  25.704  1.00  0.00     0.157 C 
ATOM     80  C   UNL A   1      31.559  26.765  24.486  1.00  0.00     0.155 C 
ATOM     81  C   UNL A   1      32.205  26.503  26.644  1.00  0.00     0.004 C 
ATOM     82  O   UNL A   1      32.813  26.029  24.550  1.00  0.00    -0.365 OA
ATOM     83  C   UNL A   1      31.097  26.505  25.890  1.00  0.00     0.004 C 
BRANCH  78  84
ATOM     84  C   UNL A   1      32.203  28.544  22.877  1.00  0.00     0.231 C 
ATOM     85  O   UNL A   1      33.255  28.344  22.268  1.00  0.00    -0.274 OA
ATOM     86  N   UNL A   1      31.094  28.878  22.146  1.00  0.00    -0.325 N 
ATOM     87  H   UNL A   1      31.134  28.556  21.217  1.00  0.00     0.169 HD
BRANCH  86  88
ATOM     88  C   UNL A   1      29.907  29.580  22.436  1.00  0.00     0.048 A 
ATOM     89  C   UNL A   1      28.772  28.801  22.710  1.00  0.00     0.026 A 
ATOM     90  C   UNL A   1      29.753  30.962  22.298  1.00  0.00     0.111 A 
ATOM     91  C   UNL A   1      27.515  29.384  22.903  1.00  0.00     0.009 A 
ATOM     92  C   UNL A   1      28.469  31.539  22.438  1.00  0.00     0.271 A 
ATOM     93  C   UNL A   1      27.358  30.759  22.769  1.00  0.00     0.086 A 
BRANCH  92  94
ATOM     94  N   UNL A   1      28.257  32.962  22.129  1.00  0.00     0.062 N 
ATOM     95  O   UNL A   1      28.698  33.806  22.918  1.00  0.00    -0.258 OA
ATOM     96  O   UNL A   1      27.612  33.236  21.105  1.00  0.00    -0.258 OA
ENDBRANCH  92  94
ENDBRANCH  86  88
ENDBRANCH  78  84
ENDBRANCH  75  77
ENDBRANCH  74  75
ENDBRANCH  73  74
ENDBRANCH   1  73
TORSDOF 17
ENDMDL
