MODEL 1
REMARK VINA RESULT:     -13.0      0.000      0.000
REMARK SMILES O=C(Nc1ccc(-c2nc3ccccc3o2)cc1)C1=C(C(=O)OCCOCCOC(=O)c2ccc(-c3c4nc(c(-c5c(F)c(F)c(F)c(F)c5F)c5ccc([nH]5)c(-c5c(F)c(F)c(F)c(F)c5F)c5nc(c(-c6c(F)c(F)c(F)c(F)c6F)c6ccc3[nH]6)C=C5)C=C4)cc2)CCCC1
REMARK SMILES IDX 25 1 24 2 23 3 21 4 22 5 20 6 19 7 98 8 95 9 97 10 96 11
REMARK SMILES IDX 2 12 1 13 3 14 4 16 5 17 18 18 6 19 17 20 7 21 8 22 9 23
REMARK SMILES IDX 16 24 10 25 15 26 11 27 14 28 12 29 13 30 26 31 27 32 28 33
REMARK SMILES IDX 29 34 30 35 31 36 32 37 33 38 94 39 34 40 93 41 35 42 36 43
REMARK SMILES IDX 37 44 87 45 38 46 92 47 86 48 88 49 39 50 91 51 85 52 84 53
REMARK SMILES IDX 40 55 72 56 52 57 71 58 53 59 56 60 70 61 89 62 54 63 55 64
REMARK SMILES IDX 69 66 90 67 57 68 41 69 42 70 50 71 43 72 44 73 48 74 51 75
REMARK SMILES IDX 45 76 46 77 49 78 47 79 73 80 74 81 82 82 75 83 76 84 80 85
REMARK SMILES IDX 83 86 77 87 78 88 81 89 79 90 58 91 59 92 67 93 60 94 61 95
REMARK SMILES IDX 65 96 68 97 62 98 63 99 66 100 64 101
REMARK H PARENT 3 15 88 54 56 65
REMARK Flexibility Score: inf
ROOT
ATOM      1  C   UNL A   1      32.884  29.999  25.738  1.00  0.00     0.202 C 
ENDROOT
BRANCH   1   2
ATOM      2  C   UNL A   1      33.963  28.951  26.017  1.00  0.00     0.261 C 
BRANCH   2   3
ATOM      3  O   UNL A   1      33.468  27.783  26.691  1.00  0.00    -0.460 OA
BRANCH   3   4
ATOM      4  C   UNL A   1      33.470  26.654  25.939  1.00  0.00     0.334 C 
ATOM      5  O   UNL A   1      34.359  25.813  25.921  1.00  0.00    -0.247 OA
BRANCH   4   6
ATOM      6  C   UNL A   1      32.191  26.458  25.199  1.00  0.00     0.046 C 
ATOM      7  C   UNL A   1      32.077  26.155  23.885  1.00  0.00     0.028 C 
ATOM      8  C   UNL A   1      30.734  25.963  23.214  1.00  0.00     0.042 C 
ATOM      9  C   UNL A   1      30.985  26.537  26.109  1.00  0.00     0.044 C 
ATOM     10  C   UNL A   1      29.530  26.329  24.086  1.00  0.00     0.005 C 
ATOM     11  C   UNL A   1      29.738  25.882  25.524  1.00  0.00     0.005 C 
BRANCH   7  12
ATOM     12  C   UNL A   1      33.233  26.005  22.946  1.00  0.00     0.252 C 
ATOM     13  O   UNL A   1      33.609  26.982  22.297  1.00  0.00    -0.269 OA
ATOM     14  N   UNL A   1      33.901  24.816  22.827  1.00  0.00    -0.322 N 
ATOM     15  H   UNL A   1      34.724  24.850  22.289  1.00  0.00     0.170 HD
BRANCH  14  16
ATOM     16  C   UNL A   1      33.586  23.556  23.356  1.00  0.00     0.041 A 
ATOM     17  C   UNL A   1      32.519  22.860  22.781  1.00  0.00     0.027 A 
ATOM     18  C   UNL A   1      34.348  22.951  24.354  1.00  0.00     0.027 A 
ATOM     19  C   UNL A   1      32.326  21.506  23.077  1.00  0.00     0.016 A 
ATOM     20  C   UNL A   1      34.127  21.615  24.680  1.00  0.00     0.016 A 
ATOM     21  C   UNL A   1      33.151  20.867  24.010  1.00  0.00     0.037 A 
BRANCH  21  22
ATOM     22  C   UNL A   1      33.059  19.444  24.290  1.00  0.00     0.227 A 
ATOM     23  N   UNL A   1      32.112  18.803  24.949  1.00  0.00    -0.209 NA
ATOM     24  O   UNL A   1      34.158  18.685  23.972  1.00  0.00    -0.436 OA
ATOM     25  C   UNL A   1      32.621  17.544  25.102  1.00  0.00     0.110 A 
ATOM     26  C   UNL A   1      33.879  17.467  24.527  1.00  0.00     0.155 A 
ATOM     27  C   UNL A   1      32.091  16.416  25.738  1.00  0.00     0.032 A 
ATOM     28  C   UNL A   1      34.689  16.338  24.552  1.00  0.00     0.049 A 
ATOM     29  C   UNL A   1      32.875  15.255  25.785  1.00  0.00     0.003 A 
ATOM     30  C   UNL A   1      34.152  15.221  25.208  1.00  0.00     0.004 A 
ENDBRANCH  21  22
ENDBRANCH  14  16
ENDBRANCH   7  12
ENDBRANCH   4   6
ENDBRANCH   3   4
ENDBRANCH   2   3
ENDBRANCH   1   2
BRANCH   1  31
ATOM     31  O   UNL A   1      32.415  30.771  26.836  1.00  0.00    -0.374 OA
BRANCH  31  32
ATOM     32  C   UNL A   1      31.516  31.845  26.574  1.00  0.00     0.202 C 
BRANCH  32  33
ATOM     33  C   UNL A   1      32.005  33.272  26.852  1.00  0.00     0.261 C 
BRANCH  33  34
ATOM     34  O   UNL A   1      32.621  33.435  28.144  1.00  0.00    -0.460 OA
BRANCH  34  35
ATOM     35  C   UNL A   1      33.806  34.089  28.122  1.00  0.00     0.338 C 
ATOM     36  O   UNL A   1      33.986  35.297  28.047  1.00  0.00    -0.246 OA
BRANCH  35  37
ATOM     37  C   UNL A   1      34.935  33.166  28.327  1.00  0.00     0.060 A 
ATOM     38  C   UNL A   1      34.673  31.937  28.945  1.00  0.00     0.016 A 
ATOM     39  C   UNL A   1      36.248  33.588  28.111  1.00  0.00     0.016 A 
ATOM     40  C   UNL A   1      35.728  31.152  29.409  1.00  0.00     0.010 A 
ATOM     41  C   UNL A   1      37.304  32.805  28.588  1.00  0.00     0.010 A 
ATOM     42  C   UNL A   1      37.047  31.607  29.279  1.00  0.00    -0.014 A 
BRANCH  42  43
ATOM     43  C   UNL A   1      38.138  30.915  30.010  1.00  0.00     0.031 A 
ATOM     44  C   UNL A   1      38.373  31.248  31.459  1.00  0.00     0.074 A 
ATOM     45  C   UNL A   1      38.893  29.985  29.402  1.00  0.00     0.049 A 
ATOM     46  N   UNL A   1      39.292  30.797  32.277  1.00  0.00    -0.248 NA
ATOM     47  C   UNL A   1      37.449  32.218  32.068  1.00  0.00     0.031 C 
ATOM     48  C   UNL A   1      38.737  29.546  28.018  1.00  0.00     0.029 A 
ATOM     49  N   UNL A   1      39.949  29.248  29.876  1.00  0.00    -0.354 N 
ATOM     50  C   UNL A   1      39.058  31.430  33.492  1.00  0.00     0.074 A 
ATOM     51  C   UNL A   1      37.926  32.312  33.301  1.00  0.00     0.031 C 
ATOM     52  C   UNL A   1      39.676  28.624  27.747  1.00  0.00     0.029 A 
ATOM     53  C   UNL A   1      40.515  28.430  28.931  1.00  0.00     0.049 A 
ATOM     54  H   UNL A   1      40.270  29.301  30.805  1.00  0.00     0.167 HD
ATOM     55  C   UNL A   1      39.723  31.283  34.663  1.00  0.00     0.037 A 
ATOM     56  C   UNL A   1      41.599  27.636  29.006  1.00  0.00     0.037 A 
ATOM     57  C   UNL A   1      40.849  30.408  34.856  1.00  0.00     0.049 A 
ATOM     58  C   UNL A   1      42.362  27.541  30.302  1.00  0.00     0.074 A 
ATOM     59  C   UNL A   1      41.582  30.185  36.009  1.00  0.00     0.029 A 
ATOM     60  N   UNL A   1      41.408  29.615  33.866  1.00  0.00    -0.354 N 
ATOM     61  N   UNL A   1      42.125  28.127  31.449  1.00  0.00    -0.248 NA
ATOM     62  C   UNL A   1      43.549  26.671  30.310  1.00  0.00     0.031 C 
ATOM     63  C   UNL A   1      42.608  29.283  35.707  1.00  0.00     0.029 A 
ATOM     64  C   UNL A   1      42.489  28.914  34.377  1.00  0.00     0.049 A 
ATOM     65  H   UNL A   1      41.085  29.557  32.939  1.00  0.00     0.167 HD
ATOM     66  C   UNL A   1      43.109  27.680  32.320  1.00  0.00     0.074 A 
ATOM     67  C   UNL A   1      43.944  26.764  31.571  1.00  0.00     0.031 C 
ATOM     68  C   UNL A   1      43.303  27.997  33.623  1.00  0.00     0.037 A 
BRANCH  55  69
ATOM     69  C   UNL A   1      39.262  32.104  35.829  1.00  0.00     0.064 A 
ATOM     70  C   UNL A   1      38.354  31.597  36.768  1.00  0.00     0.173 A 
ATOM     71  C   UNL A   1      39.767  33.397  36.032  1.00  0.00     0.173 A 
ATOM     72  F   UNL A   1      37.834  30.370  36.611  1.00  0.00    -0.203 F 
ATOM     73  C   UNL A   1      37.955  32.360  37.863  1.00  0.00     0.198 A 
ATOM     74  C   UNL A   1      39.383  34.149  37.139  1.00  0.00     0.198 A 
ATOM     75  F   UNL A   1      40.641  33.926  35.163  1.00  0.00    -0.203 F 
ATOM     76  F   UNL A   1      37.061  31.868  38.732  1.00  0.00    -0.200 F 
ATOM     77  C   UNL A   1      38.474  33.633  38.050  1.00  0.00     0.200 A 
ATOM     78  F   UNL A   1      39.893  35.375  37.324  1.00  0.00    -0.200 F 
ATOM     79  F   UNL A   1      38.096  34.363  39.108  1.00  0.00    -0.200 F 
ENDBRANCH  55  69
BRANCH  56  80
ATOM     80  C   UNL A   1      42.042  26.870  27.813  1.00  0.00     0.064 A 
ATOM     81  C   UNL A   1      41.537  25.590  27.547  1.00  0.00     0.173 A 
ATOM     82  C   UNL A   1      42.994  27.396  26.929  1.00  0.00     0.173 A 
ATOM     83  F   UNL A   1      40.645  25.036  28.380  1.00  0.00    -0.203 F 
ATOM     84  C   UNL A   1      41.982  24.858  26.449  1.00  0.00     0.198 A 
ATOM     85  C   UNL A   1      43.420  26.673  25.818  1.00  0.00     0.198 A 
ATOM     86  F   UNL A   1      43.510  28.615  27.143  1.00  0.00    -0.203 F 
ATOM     87  F   UNL A   1      41.516  23.619  26.241  1.00  0.00    -0.200 F 
ATOM     88  C   UNL A   1      42.918  25.401  25.582  1.00  0.00     0.200 A 
ATOM     89  F   UNL A   1      44.318  27.204  24.978  1.00  0.00    -0.200 F 
ATOM     90  F   UNL A   1      43.345  24.696  24.526  1.00  0.00    -0.200 F 
ENDBRANCH  56  80
BRANCH  68  91
ATOM     91  C   UNL A   1      44.439  27.325  34.335  1.00  0.00     0.064 A 
ATOM     92  C   UNL A   1      44.284  26.075  34.950  1.00  0.00     0.173 A 
ATOM     93  C   UNL A   1      45.709  27.923  34.366  1.00  0.00     0.173 A 
ATOM     94  F   UNL A   1      43.086  25.472  34.960  1.00  0.00    -0.203 F 
ATOM     95  C   UNL A   1      45.356  25.455  35.588  1.00  0.00     0.198 A 
ATOM     96  C   UNL A   1      46.784  27.289  34.983  1.00  0.00     0.198 A 
ATOM     97  F   UNL A   1      45.909  29.117  33.787  1.00  0.00    -0.203 F 
ATOM     98  F   UNL A   1      45.177  24.278  36.203  1.00  0.00    -0.200 F 
ATOM     99  C   UNL A   1      46.605  26.059  35.598  1.00  0.00     0.200 A 
ATOM    100  F   UNL A   1      47.992  27.869  34.984  1.00  0.00    -0.200 F 
ATOM    101  F   UNL A   1      47.637  25.458  36.207  1.00  0.00    -0.200 F 
ENDBRANCH  68  91
ENDBRANCH  42  43
ENDBRANCH  35  37
ENDBRANCH  34  35
ENDBRANCH  33  34
ENDBRANCH  32  33
ENDBRANCH  31  32
ENDBRANCH   1  31
TORSDOF 17
ENDMDL
MODEL 2
REMARK VINA RESULT:     -12.9      1.641      7.363
REMARK SMILES O=C(Nc1ccc(-c2nc3ccccc3o2)cc1)C1=C(C(=O)OCCOCCOC(=O)c2ccc(-c3c4nc(c(-c5c(F)c(F)c(F)c(F)c5F)c5ccc([nH]5)c(-c5c(F)c(F)c(F)c(F)c5F)c5nc(c(-c6c(F)c(F)c(F)c(F)c6F)c6ccc3[nH]6)C=C5)C=C4)cc2)CCCC1
REMARK SMILES IDX 25 1 24 2 23 3 21 4 22 5 20 6 19 7 98 8 95 9 97 10 96 11
REMARK SMILES IDX 2 12 1 13 3 14 4 16 5 17 18 18 6 19 17 20 7 21 8 22 9 23
REMARK SMILES IDX 16 24 10 25 15 26 11 27 14 28 12 29 13 30 26 31 27 32 28 33
REMARK SMILES IDX 29 34 30 35 31 36 32 37 33 38 94 39 34 40 93 41 35 42 36 43
REMARK SMILES IDX 37 44 87 45 38 46 92 47 86 48 88 49 39 50 91 51 85 52 84 53
REMARK SMILES IDX 40 55 72 56 52 57 71 58 53 59 56 60 70 61 89 62 54 63 55 64
REMARK SMILES IDX 69 66 90 67 57 68 41 69 42 70 50 71 43 72 44 73 48 74 51 75
REMARK SMILES IDX 45 76 46 77 49 78 47 79 73 80 74 81 82 82 75 83 76 84 80 85
REMARK SMILES IDX 83 86 77 87 78 88 81 89 79 90 58 91 59 92 67 93 60 94 61 95
REMARK SMILES IDX 65 96 68 97 62 98 63 99 66 100 64 101
REMARK H PARENT 3 15 88 54 56 65
REMARK Flexibility Score: inf
ROOT
ATOM      1  C   UNL A   1      32.921  29.661  27.239  1.00  0.00     0.202 C 
ENDROOT
BRANCH   1   2
ATOM      2  C   UNL A   1      31.777  28.703  27.573  1.00  0.00     0.261 C 
BRANCH   2   3
ATOM      3  O   UNL A   1      31.232  28.038  26.423  1.00  0.00    -0.460 OA
BRANCH   3   4
ATOM      4  C   UNL A   1      31.910  26.928  26.038  1.00  0.00     0.334 C 
ATOM      5  O   UNL A   1      32.091  25.931  26.725  1.00  0.00    -0.247 OA
BRANCH   4   6
ATOM      6  C   UNL A   1      32.327  26.980  24.607  1.00  0.00     0.046 C 
ATOM      7  C   UNL A   1      31.558  26.638  23.548  1.00  0.00     0.028 C 
ATOM      8  C   UNL A   1      32.059  26.732  22.123  1.00  0.00     0.042 C 
ATOM      9  C   UNL A   1      33.711  27.566  24.435  1.00  0.00     0.044 C 
ATOM     10  C   UNL A   1      33.550  27.053  21.993  1.00  0.00     0.005 C 
ATOM     11  C   UNL A   1      33.982  28.082  23.025  1.00  0.00     0.005 C 
BRANCH   7  12
ATOM     12  C   UNL A   1      30.161  26.109  23.650  1.00  0.00     0.252 C 
ATOM     13  O   UNL A   1      29.215  26.891  23.552  1.00  0.00    -0.269 OA
ATOM     14  N   UNL A   1      29.920  24.771  23.809  1.00  0.00    -0.322 N 
ATOM     15  H   UNL A   1      28.976  24.504  23.732  1.00  0.00     0.170 HD
BRANCH  14  16
ATOM     16  C   UNL A   1      30.816  23.724  24.068  1.00  0.00     0.041 A 
ATOM     17  C   UNL A   1      30.917  23.268  25.385  1.00  0.00     0.027 A 
ATOM     18  C   UNL A   1      31.525  23.078  23.056  1.00  0.00     0.027 A 
ATOM     19  C   UNL A   1      31.581  22.066  25.660  1.00  0.00     0.016 A 
ATOM     20  C   UNL A   1      32.223  21.906  23.339  1.00  0.00     0.016 A 
ATOM     21  C   UNL A   1      32.214  21.362  24.630  1.00  0.00     0.037 A 
BRANCH  21  22
ATOM     22  C   UNL A   1      32.839  20.067  24.837  1.00  0.00     0.227 A 
ATOM     23  N   UNL A   1      34.060  19.689  24.507  1.00  0.00    -0.209 NA
ATOM     24  O   UNL A   1      32.023  19.059  25.289  1.00  0.00    -0.436 OA
ATOM     25  C   UNL A   1      34.050  18.340  24.729  1.00  0.00     0.110 A 
ATOM     26  C   UNL A   1      32.805  17.943  25.187  1.00  0.00     0.155 A 
ATOM     27  C   UNL A   1      35.050  17.378  24.543  1.00  0.00     0.032 A 
ATOM     28  C   UNL A   1      32.449  16.627  25.461  1.00  0.00     0.049 A 
ATOM     29  C   UNL A   1      34.732  16.039  24.809  1.00  0.00     0.003 A 
ATOM     30  C   UNL A   1      33.455  15.672  25.253  1.00  0.00     0.004 A 
ENDBRANCH  21  22
ENDBRANCH  14  16
ENDBRANCH   7  12
ENDBRANCH   4   6
ENDBRANCH   3   4
ENDBRANCH   2   3
ENDBRANCH   1   2
BRANCH   1  31
ATOM     31  O   UNL A   1      32.663  30.692  26.295  1.00  0.00    -0.374 OA
BRANCH  31  32
ATOM     32  C   UNL A   1      31.536  31.538  26.507  1.00  0.00     0.202 C 
BRANCH  32  33
ATOM     33  C   UNL A   1      31.792  32.953  27.042  1.00  0.00     0.261 C 
BRANCH  33  34
ATOM     34  O   UNL A   1      33.119  33.144  27.569  1.00  0.00    -0.460 OA
BRANCH  34  35
ATOM     35  C   UNL A   1      33.247  34.207  28.397  1.00  0.00     0.338 C 
ATOM     36  O   UNL A   1      32.499  35.171  28.489  1.00  0.00    -0.246 OA
BRANCH  35  37
ATOM     37  C   UNL A   1      34.380  34.038  29.321  1.00  0.00     0.060 A 
ATOM     38  C   UNL A   1      35.668  34.296  28.834  1.00  0.00     0.016 A 
ATOM     39  C   UNL A   1      34.199  33.434  30.566  1.00  0.00     0.016 A 
ATOM     40  C   UNL A   1      36.784  33.892  29.565  1.00  0.00     0.010 A 
ATOM     41  C   UNL A   1      35.321  33.019  31.293  1.00  0.00     0.010 A 
ATOM     42  C   UNL A   1      36.615  33.204  30.774  1.00  0.00    -0.014 A 
BRANCH  42  43
ATOM     43  C   UNL A   1      37.779  32.537  31.408  1.00  0.00     0.031 A 
ATOM     44  C   UNL A   1      38.466  31.415  30.677  1.00  0.00     0.074 A 
ATOM     45  C   UNL A   1      38.236  32.939  32.606  1.00  0.00     0.049 A 
ATOM     46  N   UNL A   1      39.472  30.667  31.058  1.00  0.00    -0.248 NA
ATOM     47  C   UNL A   1      37.952  31.094  29.336  1.00  0.00     0.031 C 
ATOM     48  C   UNL A   1      37.683  34.038  33.393  1.00  0.00     0.029 A 
ATOM     49  N   UNL A   1      39.268  32.458  33.371  1.00  0.00    -0.354 N 
ATOM     50  C   UNL A   1      39.707  29.787  30.009  1.00  0.00     0.074 A 
ATOM     51  C   UNL A   1      38.727  30.078  28.984  1.00  0.00     0.031 C 
ATOM     52  C   UNL A   1      38.374  34.139  34.541  1.00  0.00     0.029 A 
ATOM     53  C   UNL A   1      39.398  33.094  34.580  1.00  0.00     0.049 A 
ATOM     54  H   UNL A   1      39.860  31.726  33.081  1.00  0.00     0.167 HD
ATOM     55  C   UNL A   1      40.658  28.829  29.907  1.00  0.00     0.037 A 
ATOM     56  C   UNL A   1      40.231  32.846  35.607  1.00  0.00     0.037 A 
ATOM     57  C   UNL A   1      41.633  28.537  30.923  1.00  0.00     0.049 A 
ATOM     58  C   UNL A   1      41.236  31.729  35.496  1.00  0.00     0.074 A 
ATOM     59  C   UNL A   1      42.644  27.591  30.907  1.00  0.00     0.029 A 
ATOM     60  N   UNL A   1      41.715  29.187  32.145  1.00  0.00    -0.354 N 
ATOM     61  N   UNL A   1      41.464  30.915  34.495  1.00  0.00    -0.248 NA
ATOM     62  C   UNL A   1      42.102  31.497  36.663  1.00  0.00     0.031 C 
ATOM     63  C   UNL A   1      43.314  27.643  32.133  1.00  0.00     0.029 A 
ATOM     64  C   UNL A   1      42.748  28.650  32.898  1.00  0.00     0.049 A 
ATOM     65  H   UNL A   1      41.128  29.922  32.435  1.00  0.00     0.167 HD
ATOM     66  C   UNL A   1      42.511  30.097  34.897  1.00  0.00     0.074 A 
ATOM     67  C   UNL A   1      42.883  30.517  36.231  1.00  0.00     0.031 C 
ATOM     68  C   UNL A   1      43.113  29.088  34.220  1.00  0.00     0.037 A 
BRANCH  55  69
ATOM     69  C   UNL A   1      40.681  28.007  28.653  1.00  0.00     0.064 A 
ATOM     70  C   UNL A   1      41.462  28.376  27.549  1.00  0.00     0.173 A 
ATOM     71  C   UNL A   1      39.948  26.814  28.572  1.00  0.00     0.173 A 
ATOM     72  F   UNL A   1      42.172  29.515  27.575  1.00  0.00    -0.203 F 
ATOM     73  C   UNL A   1      41.496  27.588  26.401  1.00  0.00     0.198 A 
ATOM     74  C   UNL A   1      40.001  26.017  27.431  1.00  0.00     0.198 A 
ATOM     75  F   UNL A   1      39.189  26.415  29.604  1.00  0.00    -0.203 F 
ATOM     76  F   UNL A   1      42.224  27.976  25.345  1.00  0.00    -0.200 F 
ATOM     77  C   UNL A   1      40.770  26.408  26.346  1.00  0.00     0.200 A 
ATOM     78  F   UNL A   1      39.308  24.871  27.383  1.00  0.00    -0.200 F 
ATOM     79  F   UNL A   1      40.811  25.646  25.244  1.00  0.00    -0.200 F 
ENDBRANCH  55  69
BRANCH  56  80
ATOM     80  C   UNL A   1      40.146  33.662  36.846  1.00  0.00     0.064 A 
ATOM     81  C   UNL A   1      40.966  34.783  37.030  1.00  0.00     0.173 A 
ATOM     82  C   UNL A   1      39.258  33.323  37.876  1.00  0.00     0.173 A 
ATOM     83  F   UNL A   1      41.850  35.129  36.083  1.00  0.00    -0.203 F 
ATOM     84  C   UNL A   1      40.912  35.525  38.208  1.00  0.00     0.198 A 
ATOM     85  C   UNL A   1      39.187  34.080  39.042  1.00  0.00     0.198 A 
ATOM     86  F   UNL A   1      38.456  32.256  37.748  1.00  0.00    -0.203 F 
ATOM     87  F   UNL A   1      41.738  36.567  38.378  1.00  0.00    -0.200 F 
ATOM     88  C   UNL A   1      40.020  35.177  39.211  1.00  0.00     0.200 A 
ATOM     89  F   UNL A   1      38.318  33.745  40.005  1.00  0.00    -0.200 F 
ATOM     90  F   UNL A   1      39.968  35.891  40.343  1.00  0.00    -0.200 F 
ENDBRANCH  56  80
BRANCH  68  91
ATOM     91  C   UNL A   1      44.258  28.392  34.893  1.00  0.00     0.064 A 
ATOM     92  C   UNL A   1      45.573  28.861  34.778  1.00  0.00     0.173 A 
ATOM     93  C   UNL A   1      44.027  27.264  35.697  1.00  0.00     0.173 A 
ATOM     94  F   UNL A   1      45.845  29.926  34.009  1.00  0.00    -0.203 F 
ATOM     95  C   UNL A   1      46.621  28.215  35.429  1.00  0.00     0.198 A 
ATOM     96  C   UNL A   1      45.074  26.635  36.366  1.00  0.00     0.198 A 
ATOM     97  F   UNL A   1      42.784  26.780  35.843  1.00  0.00    -0.203 F 
ATOM     98  F   UNL A   1      47.877  28.657  35.275  1.00  0.00    -0.200 F 
ATOM     99  C   UNL A   1      46.371  27.108  36.227  1.00  0.00     0.200 A 
ATOM    100  F   UNL A   1      44.828  25.572  37.144  1.00  0.00    -0.200 F 
ATOM    101  F   UNL A   1      47.380  26.491  36.857  1.00  0.00    -0.200 F 
ENDBRANCH  68  91
ENDBRANCH  42  43
ENDBRANCH  35  37
ENDBRANCH  34  35
ENDBRANCH  33  34
ENDBRANCH  32  33
ENDBRANCH  31  32
ENDBRANCH   1  31
TORSDOF 17
ENDMDL
MODEL 3
REMARK VINA RESULT:     -12.9      1.079      7.219
REMARK SMILES O=C(Nc1ccc(-c2nc3ccccc3o2)cc1)C1=C(C(=O)OCCOCCOC(=O)c2ccc(-c3c4nc(c(-c5c(F)c(F)c(F)c(F)c5F)c5ccc([nH]5)c(-c5c(F)c(F)c(F)c(F)c5F)c5nc(c(-c6c(F)c(F)c(F)c(F)c6F)c6ccc3[nH]6)C=C5)C=C4)cc2)CCCC1
REMARK SMILES IDX 25 1 24 2 23 3 21 4 22 5 20 6 19 7 98 8 95 9 97 10 96 11
REMARK SMILES IDX 2 12 1 13 3 14 4 16 5 17 18 18 6 19 17 20 7 21 8 22 9 23
REMARK SMILES IDX 16 24 10 25 15 26 11 27 14 28 12 29 13 30 26 31 27 32 28 33
REMARK SMILES IDX 29 34 30 35 31 36 32 37 33 38 94 39 34 40 93 41 35 42 36 43
REMARK SMILES IDX 37 44 87 45 38 46 92 47 86 48 88 49 39 50 91 51 85 52 84 53
REMARK SMILES IDX 40 55 72 56 52 57 71 58 53 59 56 60 70 61 89 62 54 63 55 64
REMARK SMILES IDX 69 66 90 67 57 68 41 69 42 70 50 71 43 72 44 73 48 74 51 75
REMARK SMILES IDX 45 76 46 77 49 78 47 79 73 80 74 81 82 82 75 83 76 84 80 85
REMARK SMILES IDX 83 86 77 87 78 88 81 89 79 90 58 91 59 92 67 93 60 94 61 95
REMARK SMILES IDX 65 96 68 97 62 98 63 99 66 100 64 101
REMARK H PARENT 3 15 88 54 56 65
REMARK Flexibility Score: inf
ROOT
ATOM      1  C   UNL A   1      29.790  29.743  23.178  1.00  0.00     0.202 C 
ENDROOT
BRANCH   1   2
ATOM      2  C   UNL A   1      30.993  28.988  22.608  1.00  0.00     0.261 C 
BRANCH   2   3
ATOM      3  O   UNL A   1      30.648  27.729  22.010  1.00  0.00    -0.460 OA
BRANCH   3   4
ATOM      4  C   UNL A   1      31.450  26.694  22.371  1.00  0.00     0.334 C 
ATOM      5  O   UNL A   1      32.386  26.258  21.715  1.00  0.00    -0.247 OA
BRANCH   4   6
ATOM      6  C   UNL A   1      31.156  26.197  23.745  1.00  0.00     0.046 C 
ATOM      7  C   UNL A   1      32.016  26.208  24.789  1.00  0.00     0.028 C 
ATOM      8  C   UNL A   1      31.632  25.690  26.158  1.00  0.00     0.042 C 
ATOM      9  C   UNL A   1      29.718  25.751  23.898  1.00  0.00     0.044 C 
ATOM     10  C   UNL A   1      30.274  24.984  26.212  1.00  0.00     0.005 C 
ATOM     11  C   UNL A   1      29.249  25.700  25.349  1.00  0.00     0.005 C 
BRANCH   7  12
ATOM     12  C   UNL A   1      33.432  26.691  24.717  1.00  0.00     0.252 C 
ATOM     13  O   UNL A   1      33.650  27.902  24.677  1.00  0.00    -0.269 OA
ATOM     14  N   UNL A   1      34.482  25.814  24.735  1.00  0.00    -0.322 N 
ATOM     15  H   UNL A   1      35.371  26.227  24.818  1.00  0.00     0.170 HD
BRANCH  14  16
ATOM     16  C   UNL A   1      34.482  24.414  24.650  1.00  0.00     0.041 A 
ATOM     17  C   UNL A   1      34.798  23.695  25.806  1.00  0.00     0.027 A 
ATOM     18  C   UNL A   1      34.095  23.734  23.497  1.00  0.00     0.027 A 
ATOM     19  C   UNL A   1      34.557  22.318  25.861  1.00  0.00     0.016 A 
ATOM     20  C   UNL A   1      33.898  22.355  23.540  1.00  0.00     0.016 A 
ATOM     21  C   UNL A   1      34.077  21.644  24.733  1.00  0.00     0.037 A 
BRANCH  21  22
ATOM     22  C   UNL A   1      33.722  20.235  24.756  1.00  0.00     0.227 A 
ATOM     23  N   UNL A   1      32.605  19.683  25.193  1.00  0.00    -0.209 NA
ATOM     24  O   UNL A   1      34.719  19.347  24.433  1.00  0.00    -0.436 OA
ATOM     25  C   UNL A   1      32.882  18.345  25.184  1.00  0.00     0.110 A 
ATOM     26  C   UNL A   1      34.177  18.130  24.741  1.00  0.00     0.155 A 
ATOM     27  C   UNL A   1      32.098  17.248  25.560  1.00  0.00     0.032 A 
ATOM     28  C   UNL A   1      34.786  16.884  24.661  1.00  0.00     0.049 A 
ATOM     29  C   UNL A   1      32.674  15.972  25.493  1.00  0.00     0.003 A 
ATOM     30  C   UNL A   1      33.995  15.796  25.058  1.00  0.00     0.004 A 
ENDBRANCH  21  22
ENDBRANCH  14  16
ENDBRANCH   7  12
ENDBRANCH   4   6
ENDBRANCH   3   4
ENDBRANCH   2   3
ENDBRANCH   1   2
BRANCH   1  31
ATOM     31  O   UNL A   1      30.027  30.647  24.249  1.00  0.00    -0.374 OA
BRANCH  31  32
ATOM     32  C   UNL A   1      31.109  30.378  25.136  1.00  0.00     0.202 C 
BRANCH  32  33
ATOM     33  C   UNL A   1      31.420  31.415  26.222  1.00  0.00     0.261 C 
BRANCH  33  34
ATOM     34  O   UNL A   1      32.519  31.048  27.079  1.00  0.00    -0.460 OA
BRANCH  34  35
ATOM     35  C   UNL A   1      33.318  32.079  27.441  1.00  0.00     0.338 C 
ATOM     36  O   UNL A   1      32.998  33.251  27.587  1.00  0.00    -0.246 OA
BRANCH  35  37
ATOM     37  C   UNL A   1      34.674  31.617  27.778  1.00  0.00     0.060 A 
ATOM     38  C   UNL A   1      34.847  30.263  28.093  1.00  0.00     0.016 A 
ATOM     39  C   UNL A   1      35.707  32.533  27.987  1.00  0.00     0.016 A 
ATOM     40  C   UNL A   1      36.035  29.830  28.680  1.00  0.00     0.010 A 
ATOM     41  C   UNL A   1      36.894  32.098  28.587  1.00  0.00     0.010 A 
ATOM     42  C   UNL A   1      37.045  30.755  28.978  1.00  0.00    -0.014 A 
BRANCH  42  43
ATOM     43  C   UNL A   1      38.180  30.350  29.843  1.00  0.00     0.031 A 
ATOM     44  C   UNL A   1      39.198  29.379  29.307  1.00  0.00     0.074 A 
ATOM     45  C   UNL A   1      38.319  30.856  31.080  1.00  0.00     0.049 A 
ATOM     46  N   UNL A   1      40.243  28.858  29.900  1.00  0.00    -0.248 NA
ATOM     47  C   UNL A   1      39.014  28.938  27.916  1.00  0.00     0.031 C 
ATOM     48  C   UNL A   1      37.425  31.832  31.696  1.00  0.00     0.029 A 
ATOM     49  N   UNL A   1      39.266  30.608  32.041  1.00  0.00    -0.354 N 
ATOM     50  C   UNL A   1      40.837  28.028  28.958  1.00  0.00     0.074 A 
ATOM     51  C   UNL A   1      40.026  28.095  27.761  1.00  0.00     0.031 C 
ATOM     52  C   UNL A   1      37.858  32.092  32.942  1.00  0.00     0.029 A 
ATOM     53  C   UNL A   1      39.042  31.277  33.218  1.00  0.00     0.049 A 
ATOM     54  H   UNL A   1      40.034  30.008  31.900  1.00  0.00     0.167 HD
ATOM     55  C   UNL A   1      41.961  27.281  29.078  1.00  0.00     0.037 A 
ATOM     56  C   UNL A   1      39.704  31.221  34.389  1.00  0.00     0.037 A 
ATOM     57  C   UNL A   1      42.769  27.211  30.266  1.00  0.00     0.049 A 
ATOM     58  C   UNL A   1      40.912  30.330  34.518  1.00  0.00     0.074 A 
ATOM     59  C   UNL A   1      43.931  26.490  30.480  1.00  0.00     0.029 A 
ATOM     60  N   UNL A   1      42.494  27.884  31.447  1.00  0.00    -0.354 N 
ATOM     61  N   UNL A   1      41.477  29.564  33.618  1.00  0.00    -0.248 NA
ATOM     62  C   UNL A   1      41.576  30.299  35.831  1.00  0.00     0.031 C 
ATOM     63  C   UNL A   1      44.339  26.698  31.801  1.00  0.00     0.029 A 
ATOM     64  C   UNL A   1      43.455  27.581  32.398  1.00  0.00     0.049 A 
ATOM     65  H   UNL A   1      41.730  28.489  31.587  1.00  0.00     0.167 HD
ATOM     66  C   UNL A   1      42.572  28.982  34.243  1.00  0.00     0.074 A 
ATOM     67  C   UNL A   1      42.601  29.492  35.598  1.00  0.00     0.031 C 
ATOM     68  C   UNL A   1      43.475  28.106  33.739  1.00  0.00     0.037 A 
BRANCH  55  69
ATOM     69  C   UNL A   1      42.376  26.460  27.895  1.00  0.00     0.064 A 
ATOM     70  C   UNL A   1      41.840  25.186  27.663  1.00  0.00     0.173 A 
ATOM     71  C   UNL A   1      43.287  26.972  26.959  1.00  0.00     0.173 A 
ATOM     72  F   UNL A   1      40.974  24.649  28.536  1.00  0.00    -0.203 F 
ATOM     73  C   UNL A   1      42.214  24.445  26.544  1.00  0.00     0.198 A 
ATOM     74  C   UNL A   1      43.642  26.238  25.830  1.00  0.00     0.198 A 
ATOM     75  F   UNL A   1      43.824  28.189  27.134  1.00  0.00    -0.203 F 
ATOM     76  F   UNL A   1      41.714  23.216  26.359  1.00  0.00    -0.200 F 
ATOM     77  C   UNL A   1      43.109  24.975  25.627  1.00  0.00     0.200 A 
ATOM     78  F   UNL A   1      44.499  26.755  24.939  1.00  0.00    -0.200 F 
ATOM     79  F   UNL A   1      43.461  24.264  24.546  1.00  0.00    -0.200 F 
ENDBRANCH  55  69
BRANCH  56  80
ATOM     80  C   UNL A   1      39.232  32.023  35.547  1.00  0.00     0.064 A 
ATOM     81  C   UNL A   1      39.644  33.351  35.722  1.00  0.00     0.173 A 
ATOM     82  C   UNL A   1      38.377  31.469  36.510  1.00  0.00     0.173 A 
ATOM     83  F   UNL A   1      40.483  33.913  34.840  1.00  0.00    -0.203 F 
ATOM     84  C   UNL A   1      39.232  34.090  36.828  1.00  0.00     0.198 A 
ATOM     85  C   UNL A   1      37.945  32.217  37.602  1.00  0.00     0.198 A 
ATOM     86  F   UNL A   1      37.959  30.201  36.388  1.00  0.00    -0.203 F 
ATOM     87  F   UNL A   1      39.674  35.343  36.996  1.00  0.00    -0.200 F 
ATOM     88  C   UNL A   1      38.378  33.525  37.765  1.00  0.00     0.200 A 
ATOM     89  F   UNL A   1      37.115  31.670  38.501  1.00  0.00    -0.200 F 
ATOM     90  F   UNL A   1      37.982  34.236  38.828  1.00  0.00    -0.200 F 
ENDBRANCH  56  80
BRANCH  68  91
ATOM     91  C   UNL A   1      44.590  27.669  34.641  1.00  0.00     0.064 A 
ATOM     92  C   UNL A   1      45.800  28.374  34.710  1.00  0.00     0.173 A 
ATOM     93  C   UNL A   1      44.428  26.553  35.478  1.00  0.00     0.173 A 
ATOM     94  F   UNL A   1      46.007  29.438  33.920  1.00  0.00    -0.203 F 
ATOM     95  C   UNL A   1      46.816  27.967  35.571  1.00  0.00     0.198 A 
ATOM     96  C   UNL A   1      45.438  26.163  36.354  1.00  0.00     0.198 A 
ATOM     97  F   UNL A   1      43.287  25.848  35.452  1.00  0.00    -0.203 F 
ATOM     98  F   UNL A   1      47.979  28.632  35.593  1.00  0.00    -0.200 F 
ATOM     99  C   UNL A   1      46.632  26.867  36.396  1.00  0.00     0.200 A 
ATOM    100  F   UNL A   1      45.254  25.106  37.158  1.00  0.00    -0.200 F 
ATOM    101  F   UNL A   1      47.609  26.480  37.228  1.00  0.00    -0.200 F 
ENDBRANCH  68  91
ENDBRANCH  42  43
ENDBRANCH  35  37
ENDBRANCH  34  35
ENDBRANCH  33  34
ENDBRANCH  32  33
ENDBRANCH  31  32
ENDBRANCH   1  31
TORSDOF 17
ENDMDL
