MODEL 1
REMARK VINA RESULT:     -11.5      0.000      0.000
REMARK SMILES Cc1ccc(C)c([C@@H](C)[C@](C)(O)C(=O)OCCOCCOC(=O)c2ccc(-c3c4nc(c(-c5c(F)c(F)c(F)c(F)c5F)c5ccc([nH]5)c(-c5c(F)c(F)c(F)c(F)c5F)c5nc(c(-c6c(F)c(F)c(F)c(F)c6F)c6ccc3[nH]6)C=C5)C=C4)cc2)c1
REMARK SMILES IDX 18 1 17 2 16 3 15 4 13 5 14 6 10 7 11 8 8 9 9 10 7 11 1 12
REMARK SMILES IDX 2 13 3 14 87 15 4 16 5 17 6 18 12 19 19 21 20 22 21 23 22 24
REMARK SMILES IDX 23 25 24 26 25 27 86 28 26 29 85 30 27 31 28 32 29 33 79 34
REMARK SMILES IDX 30 35 84 36 78 37 80 38 31 39 83 40 77 41 76 42 32 44 64 45
REMARK SMILES IDX 44 46 63 47 45 48 48 49 62 50 81 51 46 52 47 53 61 55 82 56
REMARK SMILES IDX 49 57 33 58 34 59 42 60 35 61 36 62 40 63 43 64 37 65 38 66
REMARK SMILES IDX 41 67 39 68 65 69 66 70 74 71 67 72 68 73 72 74 75 75 69 76
REMARK SMILES IDX 70 77 73 78 71 79 50 80 51 81 59 82 52 83 53 84 57 85 60 86
REMARK SMILES IDX 54 87 55 88 58 89 56 90
REMARK H PARENT 12 20 80 43 48 54
REMARK Flexibility Score: inf
ROOT
ATOM      1  O   UNL A   1      33.711  30.809  26.743  1.00  0.00    -0.374 OA
ENDROOT
BRANCH   1   2
ATOM      2  C   UNL A   1      32.540  31.504  27.132  1.00  0.00     0.202 C 
BRANCH   2   3
ATOM      3  C   UNL A   1      31.442  31.104  26.154  1.00  0.00     0.261 C 
BRANCH   3   4
ATOM      4  O   UNL A   1      31.769  29.947  25.342  1.00  0.00    -0.461 OA
BRANCH   4   5
ATOM      5  C   UNL A   1      30.964  29.678  24.279  1.00  0.00     0.338 C 
ATOM      6  O   UNL A   1      29.886  30.211  24.059  1.00  0.00    -0.249 OA
BRANCH   5   7
ATOM      7  C   UNL A   1      31.491  28.559  23.355  1.00  0.00     0.165 C 
ATOM      8  C   UNL A   1      30.411  27.413  23.407  1.00  0.00     0.055 C 
BRANCH   7   9
ATOM      9  C   UNL A   1      33.002  28.180  23.697  1.00  0.00     0.059 C 
ATOM     10  C   UNL A   1      34.037  28.695  22.674  1.00  0.00     0.016 C 
BRANCH   9  11
ATOM     11  C   UNL A   1      33.310  26.721  24.065  1.00  0.00    -0.039 A 
ATOM     12  C   UNL A   1      33.803  23.294  22.324  1.00  0.00     0.044 C 
ATOM     13  C   UNL A   1      33.699  24.375  23.353  1.00  0.00    -0.051 A 
ATOM     14  C   UNL A   1      33.955  24.024  24.660  1.00  0.00     0.004 A 
ATOM     15  C   UNL A   1      33.357  25.713  23.064  1.00  0.00     0.007 A 
ATOM     16  C   UNL A   1      33.927  25.010  25.627  1.00  0.00     0.004 A 
ATOM     17  C   UNL A   1      33.604  26.357  25.378  1.00  0.00    -0.048 A 
ATOM     18  C   UNL A   1      33.644  27.378  26.477  1.00  0.00     0.044 C 
ENDBRANCH   9  11
ENDBRANCH   7   9
BRANCH   7  19
ATOM     19  O   UNL A   1      31.501  29.033  21.993  1.00  0.00    -0.378 OA
ATOM     20  H   UNL A   1      30.997  28.421  21.434  1.00  0.00     0.212 HD
ENDBRANCH   7  19
ENDBRANCH   5   7
ENDBRANCH   4   5
ENDBRANCH   3   4
ENDBRANCH   2   3
ENDBRANCH   1   2
BRANCH   1  21
ATOM     21  C   UNL A   1      34.731  30.650  27.721  1.00  0.00     0.202 C 
BRANCH  21  22
ATOM     22  C   UNL A   1      35.182  32.025  28.185  1.00  0.00     0.261 C 
BRANCH  22  23
ATOM     23  O   UNL A   1      36.118  31.894  29.284  1.00  0.00    -0.460 OA
BRANCH  23  24
ATOM     24  C   UNL A   1      37.376  32.349  29.017  1.00  0.00     0.338 C 
ATOM     25  O   UNL A   1      37.627  33.478  28.606  1.00  0.00    -0.246 OA
BRANCH  24  26
ATOM     26  C   UNL A   1      38.386  31.243  29.158  1.00  0.00     0.060 A 
ATOM     27  C   UNL A   1      39.570  31.449  29.875  1.00  0.00     0.016 A 
ATOM     28  C   UNL A   1      38.248  30.055  28.436  1.00  0.00     0.016 A 
ATOM     29  C   UNL A   1      40.595  30.474  29.859  1.00  0.00     0.010 A 
ATOM     30  C   UNL A   1      39.311  29.147  28.336  1.00  0.00     0.010 A 
ATOM     31  C   UNL A   1      40.523  29.332  29.029  1.00  0.00    -0.014 A 
BRANCH  31  32
ATOM     32  C   UNL A   1      41.391  28.082  29.140  1.00  0.00     0.031 A 
ATOM     33  C   UNL A   1      42.010  28.243  30.453  1.00  0.00     0.074 A 
ATOM     34  C   UNL A   1      42.047  27.098  28.410  1.00  0.00     0.049 A 
ATOM     35  N   UNL A   1      43.205  28.728  30.562  1.00  0.00    -0.248 NA
ATOM     36  C   UNL A   1      41.240  28.231  31.701  1.00  0.00     0.031 C 
ATOM     37  C   UNL A   1      42.324  26.956  26.983  1.00  0.00     0.029 A 
ATOM     38  N   UNL A   1      42.116  25.729  28.778  1.00  0.00    -0.354 N 
ATOM     39  C   UNL A   1      43.468  28.574  31.893  1.00  0.00     0.074 A 
ATOM     40  C   UNL A   1      42.189  28.614  32.561  1.00  0.00     0.031 C 
ATOM     41  C   UNL A   1      42.081  25.713  26.529  1.00  0.00     0.029 A 
ATOM     42  C   UNL A   1      41.926  24.827  27.678  1.00  0.00     0.049 A 
ATOM     43  H   UNL A   1      42.279  25.428  29.702  1.00  0.00     0.167 HD
ATOM     44  C   UNL A   1      44.562  27.820  32.171  1.00  0.00     0.037 A 
ATOM     45  C   UNL A   1      42.381  23.554  27.472  1.00  0.00     0.037 A 
ATOM     46  C   UNL A   1      45.507  27.789  31.069  1.00  0.00     0.049 A 
ATOM     47  C   UNL A   1      43.807  23.525  27.859  1.00  0.00     0.074 A 
ATOM     48  C   UNL A   1      46.228  28.745  30.379  1.00  0.00     0.029 A 
ATOM     49  N   UNL A   1      45.465  26.678  30.263  1.00  0.00    -0.354 N 
ATOM     50  N   UNL A   1      44.770  24.085  27.182  1.00  0.00    -0.248 NA
ATOM     51  C   UNL A   1      44.111  23.200  29.246  1.00  0.00     0.031 C 
ATOM     52  C   UNL A   1      46.597  28.174  29.129  1.00  0.00     0.029 A 
ATOM     53  C   UNL A   1      46.148  26.859  29.082  1.00  0.00     0.049 A 
ATOM     54  H   UNL A   1      44.999  25.845  30.504  1.00  0.00     0.167 HD
ATOM     55  C   UNL A   1      45.556  24.643  28.171  1.00  0.00     0.074 A 
ATOM     56  C   UNL A   1      45.211  23.935  29.396  1.00  0.00     0.031 C 
ATOM     57  C   UNL A   1      46.102  25.880  28.007  1.00  0.00     0.037 A 
BRANCH  44  58
ATOM     58  C   UNL A   1      44.498  26.739  33.202  1.00  0.00     0.064 A 
ATOM     59  C   UNL A   1      45.188  26.919  34.402  1.00  0.00     0.173 A 
ATOM     60  C   UNL A   1      43.981  25.443  32.965  1.00  0.00     0.173 A 
ATOM     61  F   UNL A   1      45.788  28.088  34.665  1.00  0.00    -0.203 F 
ATOM     62  C   UNL A   1      45.335  25.874  35.312  1.00  0.00     0.198 A 
ATOM     63  C   UNL A   1      44.058  24.428  33.907  1.00  0.00     0.198 A 
ATOM     64  F   UNL A   1      43.505  25.068  31.773  1.00  0.00    -0.203 F 
ATOM     65  F   UNL A   1      46.091  26.051  36.404  1.00  0.00    -0.200 F 
ATOM     66  C   UNL A   1      44.754  24.637  35.075  1.00  0.00     0.200 A 
ATOM     67  F   UNL A   1      43.525  23.230  33.631  1.00  0.00    -0.200 F 
ATOM     68  F   UNL A   1      44.919  23.629  35.939  1.00  0.00    -0.200 F 
ENDBRANCH  44  58
BRANCH  45  69
ATOM     69  C   UNL A   1      41.711  22.438  26.741  1.00  0.00     0.064 A 
ATOM     70  C   UNL A   1      42.395  21.240  26.446  1.00  0.00     0.173 A 
ATOM     71  C   UNL A   1      40.322  22.423  26.522  1.00  0.00     0.173 A 
ATOM     72  F   UNL A   1      43.726  21.162  26.589  1.00  0.00    -0.203 F 
ATOM     73  C   UNL A   1      41.718  20.074  26.067  1.00  0.00     0.198 A 
ATOM     74  C   UNL A   1      39.646  21.255  26.143  1.00  0.00     0.198 A 
ATOM     75  F   UNL A   1      39.587  23.527  26.723  1.00  0.00    -0.203 F 
ATOM     76  F   UNL A   1      42.401  18.936  25.877  1.00  0.00    -0.200 F 
ATOM     77  C   UNL A   1      40.340  20.074  25.949  1.00  0.00     0.200 A 
ATOM     78  F   UNL A   1      38.310  21.266  26.025  1.00  0.00    -0.200 F 
ATOM     79  F   UNL A   1      39.683  18.937  25.679  1.00  0.00    -0.200 F 
ENDBRANCH  45  69
BRANCH  57  80
ATOM     80  C   UNL A   1      46.621  26.264  26.648  1.00  0.00     0.064 A 
ATOM     81  C   UNL A   1      46.005  27.122  25.726  1.00  0.00     0.173 A 
ATOM     82  C   UNL A   1      47.887  25.765  26.292  1.00  0.00     0.173 A 
ATOM     83  F   UNL A   1      44.795  27.635  25.949  1.00  0.00    -0.203 F 
ATOM     84  C   UNL A   1      46.639  27.497  24.539  1.00  0.00     0.198 A 
ATOM     85  C   UNL A   1      48.523  26.147  25.114  1.00  0.00     0.198 A 
ATOM     86  F   UNL A   1      48.528  24.917  27.113  1.00  0.00    -0.203 F 
ATOM     87  F   UNL A   1      46.029  28.340  23.692  1.00  0.00    -0.200 F 
ATOM     88  C   UNL A   1      47.902  27.020  24.240  1.00  0.00     0.200 A 
ATOM     89  F   UNL A   1      49.749  25.681  24.839  1.00  0.00    -0.200 F 
ATOM     90  F   UNL A   1      48.523  27.405  23.116  1.00  0.00    -0.200 F 
ENDBRANCH  57  80
ENDBRANCH  31  32
ENDBRANCH  24  26
ENDBRANCH  23  24
ENDBRANCH  22  23
ENDBRANCH  21  22
ENDBRANCH   1  21
TORSDOF 17
ENDMDL
MODEL 2
REMARK VINA RESULT:     -11.4      1.615      2.146
REMARK SMILES Cc1ccc(C)c([C@@H](C)[C@](C)(O)C(=O)OCCOCCOC(=O)c2ccc(-c3c4nc(c(-c5c(F)c(F)c(F)c(F)c5F)c5ccc([nH]5)c(-c5c(F)c(F)c(F)c(F)c5F)c5nc(c(-c6c(F)c(F)c(F)c(F)c6F)c6ccc3[nH]6)C=C5)C=C4)cc2)c1
REMARK SMILES IDX 18 1 17 2 16 3 15 4 13 5 14 6 10 7 11 8 8 9 9 10 7 11 1 12
REMARK SMILES IDX 2 13 3 14 87 15 4 16 5 17 6 18 12 19 19 21 20 22 21 23 22 24
REMARK SMILES IDX 23 25 24 26 25 27 86 28 26 29 85 30 27 31 28 32 29 33 79 34
REMARK SMILES IDX 30 35 84 36 78 37 80 38 31 39 83 40 77 41 76 42 32 44 64 45
REMARK SMILES IDX 44 46 63 47 45 48 48 49 62 50 81 51 46 52 47 53 61 55 82 56
REMARK SMILES IDX 49 57 33 58 34 59 42 60 35 61 36 62 40 63 43 64 37 65 38 66
REMARK SMILES IDX 41 67 39 68 65 69 66 70 74 71 67 72 68 73 72 74 75 75 69 76
REMARK SMILES IDX 70 77 73 78 71 79 50 80 51 81 59 82 52 83 53 84 57 85 60 86
REMARK SMILES IDX 54 87 55 88 58 89 56 90
REMARK H PARENT 12 20 80 43 48 54
REMARK Flexibility Score: inf
ROOT
ATOM      1  O   UNL A   1      32.403  29.456  27.285  1.00  0.00    -0.374 OA
ENDROOT
BRANCH   1   2
ATOM      2  C   UNL A   1      31.745  28.854  26.185  1.00  0.00     0.202 C 
BRANCH   2   3
ATOM      3  C   UNL A   1      31.003  27.637  26.724  1.00  0.00     0.261 C 
BRANCH   3   4
ATOM      4  O   UNL A   1      30.545  26.723  25.695  1.00  0.00    -0.461 OA
BRANCH   4   5
ATOM      5  C   UNL A   1      30.698  25.392  25.924  1.00  0.00     0.338 C 
ATOM      6  O   UNL A   1      30.076  24.744  26.755  1.00  0.00    -0.249 OA
BRANCH   5   7
ATOM      7  C   UNL A   1      31.801  24.725  25.075  1.00  0.00     0.165 C 
ATOM      8  C   UNL A   1      31.206  23.346  24.600  1.00  0.00     0.055 C 
BRANCH   7   9
ATOM      9  C   UNL A   1      33.201  24.713  25.841  1.00  0.00     0.059 C 
ATOM     10  C   UNL A   1      33.971  26.049  25.784  1.00  0.00     0.016 C 
BRANCH   9  11
ATOM     11  C   UNL A   1      34.159  23.544  25.566  1.00  0.00    -0.039 A 
ATOM     12  C   UNL A   1      36.923  22.542  23.041  1.00  0.00     0.044 C 
ATOM     13  C   UNL A   1      35.964  22.539  24.189  1.00  0.00    -0.051 A 
ATOM     14  C   UNL A   1      36.011  21.460  25.045  1.00  0.00     0.004 A 
ATOM     15  C   UNL A   1      35.026  23.563  24.439  1.00  0.00     0.007 A 
ATOM     16  C   UNL A   1      35.181  21.454  26.147  1.00  0.00     0.004 A 
ATOM     17  C   UNL A   1      34.242  22.461  26.440  1.00  0.00    -0.048 A 
ATOM     18  C   UNL A   1      33.410  22.405  27.688  1.00  0.00     0.044 C 
ENDBRANCH   9  11
ENDBRANCH   7   9
BRANCH   7  19
ATOM     19  O   UNL A   1      32.013  25.499  23.877  1.00  0.00    -0.378 OA
ATOM     20  H   UNL A   1      32.602  26.245  24.074  1.00  0.00     0.212 HD
ENDBRANCH   7  19
ENDBRANCH   5   7
ENDBRANCH   4   5
ENDBRANCH   3   4
ENDBRANCH   2   3
ENDBRANCH   1   2
BRANCH   1  21
ATOM     21  C   UNL A   1      33.818  29.336  27.347  1.00  0.00     0.202 C 
BRANCH  21  22
ATOM     22  C   UNL A   1      34.416  30.718  27.558  1.00  0.00     0.261 C 
BRANCH  22  23
ATOM     23  O   UNL A   1      35.847  30.677  27.330  1.00  0.00    -0.460 OA
BRANCH  23  24
ATOM     24  C   UNL A   1      36.601  31.139  28.368  1.00  0.00     0.338 C 
ATOM     25  O   UNL A   1      36.378  32.186  28.969  1.00  0.00    -0.246 OA
BRANCH  24  26
ATOM     26  C   UNL A   1      37.811  30.270  28.580  1.00  0.00     0.060 A 
ATOM     27  C   UNL A   1      39.028  30.829  28.982  1.00  0.00     0.016 A 
ATOM     28  C   UNL A   1      37.791  28.921  28.213  1.00  0.00     0.016 A 
ATOM     29  C   UNL A   1      40.203  30.042  29.010  1.00  0.00     0.010 A 
ATOM     30  C   UNL A   1      38.978  28.180  28.137  1.00  0.00     0.010 A 
ATOM     31  C   UNL A   1      40.224  28.717  28.517  1.00  0.00    -0.014 A 
BRANCH  31  32
ATOM     32  C   UNL A   1      41.316  27.681  28.763  1.00  0.00     0.031 A 
ATOM     33  C   UNL A   1      41.861  28.096  30.053  1.00  0.00     0.074 A 
ATOM     34  C   UNL A   1      42.170  26.776  28.143  1.00  0.00     0.049 A 
ATOM     35  N   UNL A   1      42.934  28.817  30.114  1.00  0.00    -0.248 NA
ATOM     36  C   UNL A   1      41.077  28.062  31.292  1.00  0.00     0.031 C 
ATOM     37  C   UNL A   1      42.504  26.545  26.741  1.00  0.00     0.029 A 
ATOM     38  N   UNL A   1      42.497  25.494  28.656  1.00  0.00    -0.354 N 
ATOM     39  C   UNL A   1      43.190  28.856  31.454  1.00  0.00     0.074 A 
ATOM     40  C   UNL A   1      41.913  28.712  32.110  1.00  0.00     0.031 C 
ATOM     41  C   UNL A   1      42.520  25.237  26.420  1.00  0.00     0.029 A 
ATOM     42  C   UNL A   1      42.513  24.463  27.657  1.00  0.00     0.049 A 
ATOM     43  H   UNL A   1      42.694  25.328  29.606  1.00  0.00     0.167 HD
ATOM     44  C   UNL A   1      44.403  28.365  31.814  1.00  0.00     0.037 A 
ATOM     45  C   UNL A   1      43.214  23.290  27.588  1.00  0.00     0.037 A 
ATOM     46  C   UNL A   1      45.362  28.408  30.725  1.00  0.00     0.049 A 
ATOM     47  C   UNL A   1      44.608  23.583  27.981  1.00  0.00     0.074 A 
ATOM     48  C   UNL A   1      45.899  29.410  29.939  1.00  0.00     0.029 A 
ATOM     49  N   UNL A   1      45.559  27.233  30.041  1.00  0.00    -0.354 N 
ATOM     50  N   UNL A   1      45.459  24.249  27.251  1.00  0.00    -0.248 NA
ATOM     51  C   UNL A   1      44.936  23.470  29.396  1.00  0.00     0.031 C 
ATOM     52  C   UNL A   1      46.403  28.797  28.759  1.00  0.00     0.029 A 
ATOM     53  C   UNL A   1      46.221  27.421  28.850  1.00  0.00     0.049 A 
ATOM     54  H   UNL A   1      45.259  26.354  30.368  1.00  0.00     0.167 HD
ATOM     55  C   UNL A   1      46.097  25.051  28.178  1.00  0.00     0.074 A 
ATOM     56  C   UNL A   1      45.868  24.420  29.471  1.00  0.00     0.031 C 
ATOM     57  C   UNL A   1      46.393  26.347  27.885  1.00  0.00     0.037 A 
BRANCH  44  58
ATOM     58  C   UNL A   1      44.528  27.406  32.954  1.00  0.00     0.064 A 
ATOM     59  C   UNL A   1      45.223  27.811  34.095  1.00  0.00     0.173 A 
ATOM     60  C   UNL A   1      44.194  26.033  32.879  1.00  0.00     0.173 A 
ATOM     61  F   UNL A   1      45.659  29.073  34.206  1.00  0.00    -0.203 F 
ATOM     62  C   UNL A   1      45.547  26.903  35.101  1.00  0.00     0.198 A 
ATOM     63  C   UNL A   1      44.445  25.149  33.916  1.00  0.00     0.198 A 
ATOM     64  F   UNL A   1      43.738  25.467  31.756  1.00  0.00    -0.203 F 
ATOM     65  F   UNL A   1      46.305  27.301  36.131  1.00  0.00    -0.200 F 
ATOM     66  C   UNL A   1      45.141  25.579  35.022  1.00  0.00     0.200 A 
ATOM     67  F   UNL A   1      44.080  23.865  33.792  1.00  0.00    -0.200 F 
ATOM     68  F   UNL A   1      45.476  24.704  35.977  1.00  0.00    -0.200 F 
ENDBRANCH  44  58
BRANCH  45  69
ATOM     69  C   UNL A   1      42.793  21.994  26.979  1.00  0.00     0.064 A 
ATOM     70  C   UNL A   1      43.527  21.407  25.927  1.00  0.00     0.173 A 
ATOM     71  C   UNL A   1      41.802  21.185  27.564  1.00  0.00     0.173 A 
ATOM     72  F   UNL A   1      44.471  22.105  25.281  1.00  0.00    -0.203 F 
ATOM     73  C   UNL A   1      43.357  20.065  25.564  1.00  0.00     0.198 A 
ATOM     74  C   UNL A   1      41.634  19.842  27.200  1.00  0.00     0.198 A 
ATOM     75  F   UNL A   1      41.015  21.667  28.537  1.00  0.00    -0.203 F 
ATOM     76  F   UNL A   1      44.135  19.525  24.614  1.00  0.00    -0.200 F 
ATOM     77  C   UNL A   1      42.434  19.275  26.224  1.00  0.00     0.200 A 
ATOM     78  F   UNL A   1      40.733  19.086  27.842  1.00  0.00    -0.200 F 
ATOM     79  F   UNL A   1      42.337  17.967  25.944  1.00  0.00    -0.200 F 
ENDBRANCH  45  69
BRANCH  57  80
ATOM     80  C   UNL A   1      46.860  26.682  26.495  1.00  0.00     0.064 A 
ATOM     81  C   UNL A   1      46.201  27.495  25.561  1.00  0.00     0.173 A 
ATOM     82  C   UNL A   1      48.120  26.187  26.115  1.00  0.00     0.173 A 
ATOM     83  F   UNL A   1      44.991  28.001  25.806  1.00  0.00    -0.203 F 
ATOM     84  C   UNL A   1      46.788  27.830  24.339  1.00  0.00     0.198 A 
ATOM     85  C   UNL A   1      48.710  26.529  24.901  1.00  0.00     0.198 A 
ATOM     86  F   UNL A   1      48.801  25.381  26.946  1.00  0.00    -0.203 F 
ATOM     87  F   UNL A   1      46.136  28.630  23.481  1.00  0.00    -0.200 F 
ATOM     88  C   UNL A   1      48.047  27.358  24.016  1.00  0.00     0.200 A 
ATOM     89  F   UNL A   1      49.933  26.068  24.603  1.00  0.00    -0.200 F 
ATOM     90  F   UNL A   1      48.623  27.706  22.856  1.00  0.00    -0.200 F 
ENDBRANCH  57  80
ENDBRANCH  31  32
ENDBRANCH  24  26
ENDBRANCH  23  24
ENDBRANCH  22  23
ENDBRANCH  21  22
ENDBRANCH   1  21
TORSDOF 17
ENDMDL
MODEL 3
REMARK VINA RESULT:     -11.3      4.200      9.059
REMARK SMILES Cc1ccc(C)c([C@@H](C)[C@](C)(O)C(=O)OCCOCCOC(=O)c2ccc(-c3c4nc(c(-c5c(F)c(F)c(F)c(F)c5F)c5ccc([nH]5)c(-c5c(F)c(F)c(F)c(F)c5F)c5nc(c(-c6c(F)c(F)c(F)c(F)c6F)c6ccc3[nH]6)C=C5)C=C4)cc2)c1
REMARK SMILES IDX 18 1 17 2 16 3 15 4 13 5 14 6 10 7 11 8 8 9 9 10 7 11 1 12
REMARK SMILES IDX 2 13 3 14 87 15 4 16 5 17 6 18 12 19 19 21 20 22 21 23 22 24
REMARK SMILES IDX 23 25 24 26 25 27 86 28 26 29 85 30 27 31 28 32 29 33 79 34
REMARK SMILES IDX 30 35 84 36 78 37 80 38 31 39 83 40 77 41 76 42 32 44 64 45
REMARK SMILES IDX 44 46 63 47 45 48 48 49 62 50 81 51 46 52 47 53 61 55 82 56
REMARK SMILES IDX 49 57 33 58 34 59 42 60 35 61 36 62 40 63 43 64 37 65 38 66
REMARK SMILES IDX 41 67 39 68 65 69 66 70 74 71 67 72 68 73 72 74 75 75 69 76
REMARK SMILES IDX 70 77 73 78 71 79 50 80 51 81 59 82 52 83 53 84 57 85 60 86
REMARK SMILES IDX 54 87 55 88 58 89 56 90
REMARK H PARENT 12 20 80 43 48 54
REMARK Flexibility Score: inf
ROOT
ATOM      1  O   UNL A   1      36.312  21.114  25.484  1.00  0.00    -0.374 OA
ENDROOT
BRANCH   1   2
ATOM      2  C   UNL A   1      35.148  21.611  24.849  1.00  0.00     0.202 C 
BRANCH   2   3
ATOM      3  C   UNL A   1      33.997  21.436  25.832  1.00  0.00     0.261 C 
BRANCH   3   4
ATOM      4  O   UNL A   1      32.885  22.339  25.604  1.00  0.00    -0.461 OA
BRANCH   4   5
ATOM      5  C   UNL A   1      32.984  23.596  26.111  1.00  0.00     0.338 C 
ATOM      6  O   UNL A   1      33.787  23.953  26.962  1.00  0.00    -0.249 OA
BRANCH   5   7
ATOM      7  C   UNL A   1      31.927  24.582  25.567  1.00  0.00     0.165 C 
ATOM      8  C   UNL A   1      30.842  23.697  24.845  1.00  0.00     0.055 C 
BRANCH   7   9
ATOM      9  C   UNL A   1      32.604  25.763  24.735  1.00  0.00     0.059 C 
ATOM     10  C   UNL A   1      33.972  25.406  24.117  1.00  0.00     0.016 C 
BRANCH   9  11
ATOM     11  C   UNL A   1      32.670  27.153  25.387  1.00  0.00    -0.039 A 
ATOM     12  C   UNL A   1      35.078  29.263  27.571  1.00  0.00     0.044 C 
ATOM     13  C   UNL A   1      33.907  28.815  26.754  1.00  0.00    -0.051 A 
ATOM     14  C   UNL A   1      32.897  29.730  26.550  1.00  0.00     0.004 A 
ATOM     15  C   UNL A   1      33.780  27.527  26.192  1.00  0.00     0.007 A 
ATOM     16  C   UNL A   1      31.830  29.369  25.751  1.00  0.00     0.004 A 
ATOM     17  C   UNL A   1      31.672  28.101  25.162  1.00  0.00    -0.048 A 
ATOM     18  C   UNL A   1      30.506  27.804  24.265  1.00  0.00     0.044 C 
ENDBRANCH   9  11
ENDBRANCH   7   9
BRANCH   7  19
ATOM     19  O   UNL A   1      31.252  25.214  26.673  1.00  0.00    -0.378 OA
ATOM     20  H   UNL A   1      30.503  24.664  26.952  1.00  0.00     0.212 HD
ENDBRANCH   7  19
ENDBRANCH   5   7
ENDBRANCH   4   5
ENDBRANCH   3   4
ENDBRANCH   2   3
ENDBRANCH   1   2
BRANCH   1  21
ATOM     21  C   UNL A   1      37.032  20.085  24.817  1.00  0.00     0.202 C 
BRANCH  21  22
ATOM     22  C   UNL A   1      38.471  20.099  25.307  1.00  0.00     0.261 C 
BRANCH  22  23
ATOM     23  O   UNL A   1      38.845  21.443  25.699  1.00  0.00    -0.460 OA
BRANCH  23  24
ATOM     24  C   UNL A   1      39.820  21.506  26.653  1.00  0.00     0.338 C 
ATOM     25  O   UNL A   1      40.367  20.523  27.143  1.00  0.00    -0.246 OA
BRANCH  24  26
ATOM     26  C   UNL A   1      40.027  22.923  27.114  1.00  0.00     0.060 A 
ATOM     27  C   UNL A   1      39.138  23.933  26.731  1.00  0.00     0.016 A 
ATOM     28  C   UNL A   1      41.198  23.290  27.783  1.00  0.00     0.016 A 
ATOM     29  C   UNL A   1      39.429  25.288  27.016  1.00  0.00     0.010 A 
ATOM     30  C   UNL A   1      41.531  24.639  27.962  1.00  0.00     0.010 A 
ATOM     31  C   UNL A   1      40.668  25.682  27.572  1.00  0.00    -0.014 A 
BRANCH  31  32
ATOM     32  C   UNL A   1      40.984  27.038  28.197  1.00  0.00     0.031 A 
ATOM     33  C   UNL A   1      42.275  27.369  27.598  1.00  0.00     0.074 A 
ATOM     34  C   UNL A   1      40.727  27.864  29.284  1.00  0.00     0.049 A 
ATOM     35  N   UNL A   1      43.376  27.143  28.239  1.00  0.00    -0.248 NA
ATOM     36  C   UNL A   1      42.443  27.611  26.161  1.00  0.00     0.031 C 
ATOM     37  C   UNL A   1      40.039  27.632  30.551  1.00  0.00     0.029 A 
ATOM     38  N   UNL A   1      40.568  29.272  29.209  1.00  0.00    -0.354 N 
ATOM     39  C   UNL A   1      44.314  27.716  27.430  1.00  0.00     0.074 A 
ATOM     40  C   UNL A   1      43.778  27.657  26.091  1.00  0.00     0.031 C 
ATOM     41  C   UNL A   1      39.198  28.633  30.875  1.00  0.00     0.029 A 
ATOM     42  C   UNL A   1      39.490  29.773  30.013  1.00  0.00     0.049 A 
ATOM     43  H   UNL A   1      41.144  29.850  28.658  1.00  0.00     0.167 HD
ATOM     44  C   UNL A   1      45.052  28.690  28.020  1.00  0.00     0.037 A 
ATOM     45  C   UNL A   1      39.305  30.990  30.610  1.00  0.00     0.037 A 
ATOM     46  C   UNL A   1      45.087  28.559  29.465  1.00  0.00     0.049 A 
ATOM     47  C   UNL A   1      40.581  31.368  31.252  1.00  0.00     0.074 A 
ATOM     48  C   UNL A   1      45.509  27.579  30.344  1.00  0.00     0.029 A 
ATOM     49  N   UNL A   1      44.227  29.367  30.170  1.00  0.00    -0.354 N 
ATOM     50  N   UNL A   1      41.067  30.806  32.324  1.00  0.00    -0.248 NA
ATOM     51  C   UNL A   1      41.530  32.125  30.447  1.00  0.00     0.031 C 
ATOM     52  C   UNL A   1      44.860  27.818  31.586  1.00  0.00     0.029 A 
ATOM     53  C   UNL A   1      44.086  28.969  31.480  1.00  0.00     0.049 A 
ATOM     54  H   UNL A   1      43.765  30.143  29.781  1.00  0.00     0.167 HD
ATOM     55  C   UNL A   1      42.412  30.696  32.031  1.00  0.00     0.074 A 
ATOM     56  C   UNL A   1      42.664  31.659  30.967  1.00  0.00     0.031 C 
ATOM     57  C   UNL A   1      43.106  29.574  32.367  1.00  0.00     0.037 A 
BRANCH  44  58
ATOM     58  C   UNL A   1      45.280  29.996  27.328  1.00  0.00     0.064 A 
ATOM     59  C   UNL A   1      46.593  30.411  27.101  1.00  0.00     0.173 A 
ATOM     60  C   UNL A   1      44.269  30.958  27.090  1.00  0.00     0.173 A 
ATOM     61  F   UNL A   1      47.617  29.596  27.389  1.00  0.00    -0.203 F 
ATOM     62  C   UNL A   1      46.873  31.700  26.649  1.00  0.00     0.198 A 
ATOM     63  C   UNL A   1      44.543  32.210  26.563  1.00  0.00     0.198 A 
ATOM     64  F   UNL A   1      43.002  30.776  27.480  1.00  0.00    -0.203 F 
ATOM     65  F   UNL A   1      48.147  32.100  26.542  1.00  0.00    -0.200 F 
ATOM     66  C   UNL A   1      45.849  32.590  26.361  1.00  0.00     0.200 A 
ATOM     67  F   UNL A   1      43.537  33.066  26.337  1.00  0.00    -0.200 F 
ATOM     68  F   UNL A   1      46.122  33.835  25.952  1.00  0.00    -0.200 F 
ENDBRANCH  44  58
BRANCH  45  69
ATOM     69  C   UNL A   1      38.025  31.719  30.849  1.00  0.00     0.064 A 
ATOM     70  C   UNL A   1      37.150  32.031  29.788  1.00  0.00     0.173 A 
ATOM     71  C   UNL A   1      37.516  31.921  32.145  1.00  0.00     0.173 A 
ATOM     72  F   UNL A   1      37.550  31.905  28.514  1.00  0.00    -0.203 F 
ATOM     73  C   UNL A   1      35.820  32.409  30.010  1.00  0.00     0.198 A 
ATOM     74  C   UNL A   1      36.184  32.298  32.366  1.00  0.00     0.198 A 
ATOM     75  F   UNL A   1      38.285  31.704  33.221  1.00  0.00    -0.203 F 
ATOM     76  F   UNL A   1      35.000  32.615  28.969  1.00  0.00    -0.200 F 
ATOM     77  C   UNL A   1      35.329  32.509  31.299  1.00  0.00     0.200 A 
ATOM     78  F   UNL A   1      35.719  32.400  33.619  1.00  0.00    -0.200 F 
ATOM     79  F   UNL A   1      34.032  32.778  31.512  1.00  0.00    -0.200 F 
ENDBRANCH  45  69
BRANCH  57  80
ATOM     80  C   UNL A   1      42.801  28.907  33.681  1.00  0.00     0.064 A 
ATOM     81  C   UNL A   1      42.001  27.773  33.881  1.00  0.00     0.173 A 
ATOM     82  C   UNL A   1      43.440  29.432  34.819  1.00  0.00     0.173 A 
ATOM     83  F   UNL A   1      41.331  27.205  32.879  1.00  0.00    -0.203 F 
ATOM     84  C   UNL A   1      41.885  27.173  35.137  1.00  0.00     0.198 A 
ATOM     85  C   UNL A   1      43.332  28.827  36.068  1.00  0.00     0.198 A 
ATOM     86  F   UNL A   1      44.203  30.532  34.711  1.00  0.00    -0.203 F 
ATOM     87  F   UNL A   1      41.128  26.074  35.285  1.00  0.00    -0.200 F 
ATOM     88  C   UNL A   1      42.560  27.691  36.226  1.00  0.00     0.200 A 
ATOM     89  F   UNL A   1      43.996  29.339  37.114  1.00  0.00    -0.200 F 
ATOM     90  F   UNL A   1      42.472  27.096  37.424  1.00  0.00    -0.200 F 
ENDBRANCH  57  80
ENDBRANCH  31  32
ENDBRANCH  24  26
ENDBRANCH  23  24
ENDBRANCH  22  23
ENDBRANCH  21  22
ENDBRANCH   1  21
TORSDOF 17
ENDMDL
