MODEL 1
REMARK VINA RESULT:     -12.3      0.000      0.000
REMARK SMILES COc1cc(OC)cc(-c2cc3nc(C)c(CCC(=O)OCCOCCOC(=O)c4ccc(-c5c6nc(c(-c7c(F)c(F)c(F)c(F)c7F)c7ccc([nH]7)c(-c7c(F)c(F)c(F)c(F)c7F)c7nc(c(-c8c(F)c(F)c(F)c(F)c8F)c8ccc5[nH]8)C=C7)C=C6)cc4)c(C)n3n2)c1
REMARK SMILES IDX 23 1 22 2 21 3 19 4 20 5 18 6 17 7 16 8 10 9 11 10 96 11
REMARK SMILES IDX 12 12 95 13 13 14 93 15 14 16 94 17 15 18 9 19 3 20 4 21
REMARK SMILES IDX 97 22 5 23 8 24 2 25 1 26 6 27 7 28 24 29 25 30 26 31 27 32
REMARK SMILES IDX 28 33 29 34 30 35 31 36 92 37 32 38 91 39 33 40 34 41 35 42
REMARK SMILES IDX 85 43 36 44 90 45 84 46 86 47 37 48 89 49 83 50 82 51 38 53
REMARK SMILES IDX 70 54 50 55 69 56 51 57 54 58 68 59 87 60 52 61 53 62 67 64
REMARK SMILES IDX 88 65 55 66 39 67 40 68 48 69 41 70 42 71 46 72 49 73 43 74
REMARK SMILES IDX 44 75 47 76 45 77 71 78 72 79 80 80 73 81 74 82 78 83 81 84
REMARK SMILES IDX 75 85 76 86 79 87 77 88 56 89 57 90 65 91 58 92 59 93 63 94
REMARK SMILES IDX 66 95 60 96 61 97 64 98 62 99
REMARK H PARENT 86 52 54 63
REMARK Flexibility Score: inf
ROOT
ATOM      1  C   UNL A   1      34.577  33.098  28.190  1.00  0.00     0.202 C 
ENDROOT
BRANCH   1   2
ATOM      2  C   UNL A   1      33.117  32.622  27.982  1.00  0.00     0.261 C 
BRANCH   2   3
ATOM      3  O   UNL A   1      32.978  31.347  27.296  1.00  0.00    -0.463 OA
BRANCH   3   4
ATOM      4  C   UNL A   1      31.887  31.085  26.545  1.00  0.00     0.306 C 
ATOM      5  O   UNL A   1      31.064  31.924  26.210  1.00  0.00    -0.252 OA
BRANCH   4   6
ATOM      6  C   UNL A   1      31.784  29.607  26.161  1.00  0.00     0.127 C 
BRANCH   6   7
ATOM      7  C   UNL A   1      31.772  29.222  24.658  1.00  0.00     0.051 C 
BRANCH   7   8
ATOM      8  C   UNL A   1      31.443  27.771  24.314  1.00  0.00    -0.005 A 
ATOM      9  C   UNL A   1      32.102  23.326  24.143  1.00  0.00     0.095 A 
ATOM     10  C   UNL A   1      30.825  23.695  23.643  1.00  0.00     0.080 A 
ATOM     11  N   UNL A   1      32.777  24.402  24.528  1.00  0.00    -0.166 NA
ATOM     12  C   UNL A   1      30.750  25.072  23.776  1.00  0.00     0.156 A 
ATOM     13  N   UNL A   1      31.984  25.446  24.249  1.00  0.00    -0.219 N 
ATOM     14  N   UNL A   1      29.812  26.021  23.479  1.00  0.00    -0.234 NA
ATOM     15  C   UNL A   1      32.343  26.772  24.416  1.00  0.00     0.046 A 
ATOM     16  C   UNL A   1      30.120  27.276  23.716  1.00  0.00     0.045 A 
ATOM     17  C   UNL A   1      33.790  26.908  24.675  1.00  0.00     0.067 C 
ATOM     18  C   UNL A   1      29.074  28.276  23.257  1.00  0.00     0.067 C 
BRANCH   9  19
ATOM     19  C   UNL A   1      32.823  22.064  24.209  1.00  0.00     0.009 A 
ATOM     20  C   UNL A   1      32.787  19.676  24.703  1.00  0.00     0.123 A 
ATOM     21  C   UNL A   1      34.152  19.714  24.958  1.00  0.00     0.092 A 
ATOM     22  C   UNL A   1      32.113  20.854  24.370  1.00  0.00     0.057 A 
ATOM     23  C   UNL A   1      34.828  20.929  24.873  1.00  0.00     0.123 A 
ATOM     24  C   UNL A   1      34.197  22.090  24.436  1.00  0.00     0.057 A 
BRANCH  20  25
ATOM     25  O   UNL A   1      32.172  18.480  24.954  1.00  0.00    -0.497 OA
ATOM     26  C   UNL A   1      33.028  17.351  24.820  1.00  0.00     0.278 C 
ENDBRANCH  20  25
BRANCH  23  27
ATOM     27  O   UNL A   1      36.098  21.006  25.381  1.00  0.00    -0.497 OA
ATOM     28  C   UNL A   1      36.938  21.622  24.391  1.00  0.00     0.278 C 
ENDBRANCH  23  27
ENDBRANCH   9  19
ENDBRANCH   7   8
ENDBRANCH   6   7
ENDBRANCH   4   6
ENDBRANCH   3   4
ENDBRANCH   2   3
ENDBRANCH   1   2
BRANCH   1  29
ATOM     29  O   UNL A   1      34.726  34.290  28.959  1.00  0.00    -0.374 OA
BRANCH  29  30
ATOM     30  C   UNL A   1      33.780  35.330  28.741  1.00  0.00     0.202 C 
BRANCH  30  31
ATOM     31  C   UNL A   1      33.163  35.923  30.004  1.00  0.00     0.261 C 
BRANCH  31  32
ATOM     32  O   UNL A   1      33.000  34.947  31.037  1.00  0.00    -0.460 OA
BRANCH  32  33
ATOM     33  C   UNL A   1      33.492  35.252  32.265  1.00  0.00     0.338 C 
ATOM     34  O   UNL A   1      33.157  36.164  32.981  1.00  0.00    -0.246 OA
BRANCH  33  35
ATOM     35  C   UNL A   1      34.640  34.345  32.521  1.00  0.00     0.060 A 
ATOM     36  C   UNL A   1      35.870  34.918  32.852  1.00  0.00     0.016 A 
ATOM     37  C   UNL A   1      34.531  32.961  32.299  1.00  0.00     0.016 A 
ATOM     38  C   UNL A   1      37.012  34.138  32.769  1.00  0.00     0.010 A 
ATOM     39  C   UNL A   1      35.663  32.179  32.244  1.00  0.00     0.010 A 
ATOM     40  C   UNL A   1      36.898  32.798  32.377  1.00  0.00    -0.014 A 
BRANCH  40  41
ATOM     41  C   UNL A   1      38.101  32.038  32.097  1.00  0.00     0.031 A 
ATOM     42  C   UNL A   1      38.904  31.687  33.286  1.00  0.00     0.074 A 
ATOM     43  C   UNL A   1      38.416  31.597  30.863  1.00  0.00     0.049 A 
ATOM     44  N   UNL A   1      40.059  32.166  33.607  1.00  0.00    -0.248 NA
ATOM     45  C   UNL A   1      38.312  30.800  34.295  1.00  0.00     0.031 C 
ATOM     46  C   UNL A   1      37.619  31.621  29.636  1.00  0.00     0.029 A 
ATOM     47  N   UNL A   1      39.546  30.949  30.471  1.00  0.00    -0.354 N 
ATOM     48  C   UNL A   1      40.434  31.504  34.768  1.00  0.00     0.074 A 
ATOM     49  C   UNL A   1      39.265  30.800  35.230  1.00  0.00     0.031 C 
ATOM     50  C   UNL A   1      38.196  30.818  28.709  1.00  0.00     0.029 A 
ATOM     51  C   UNL A   1      39.468  30.342  29.224  1.00  0.00     0.049 A 
ATOM     52  H   UNL A   1      40.357  30.912  31.028  1.00  0.00     0.167 HD
ATOM     53  C   UNL A   1      41.743  31.408  35.130  1.00  0.00     0.037 A 
ATOM     54  C   UNL A   1      40.374  29.473  28.705  1.00  0.00     0.037 A 
ATOM     55  C   UNL A   1      42.555  32.378  34.439  1.00  0.00     0.049 A 
ATOM     56  C   UNL A   1      41.661  29.713  29.414  1.00  0.00     0.074 A 
ATOM     57  C   UNL A   1      42.538  33.759  34.343  1.00  0.00     0.029 A 
ATOM     58  N   UNL A   1      43.315  31.955  33.376  1.00  0.00    -0.354 N 
ATOM     59  N   UNL A   1      42.358  30.808  29.283  1.00  0.00    -0.248 NA
ATOM     60  C   UNL A   1      41.903  28.953  30.634  1.00  0.00     0.031 C 
ATOM     61  C   UNL A   1      42.804  34.032  32.966  1.00  0.00     0.029 A 
ATOM     62  C   UNL A   1      43.052  32.814  32.337  1.00  0.00     0.049 A 
ATOM     63  H   UNL A   1      43.928  31.185  33.362  1.00  0.00     0.167 HD
ATOM     64  C   UNL A   1      42.777  31.107  30.569  1.00  0.00     0.074 A 
ATOM     65  C   UNL A   1      42.512  29.899  31.352  1.00  0.00     0.031 C 
ATOM     66  C   UNL A   1      43.022  32.391  30.959  1.00  0.00     0.037 A 
BRANCH  53  67
ATOM     67  C   UNL A   1      42.319  30.202  35.824  1.00  0.00     0.064 A 
ATOM     68  C   UNL A   1      43.252  30.378  36.864  1.00  0.00     0.173 A 
ATOM     69  C   UNL A   1      42.208  28.886  35.323  1.00  0.00     0.173 A 
ATOM     70  F   UNL A   1      43.479  31.596  37.379  1.00  0.00    -0.203 F 
ATOM     71  C   UNL A   1      44.043  29.323  37.330  1.00  0.00     0.198 A 
ATOM     72  C   UNL A   1      42.951  27.825  35.833  1.00  0.00     0.198 A 
ATOM     73  F   UNL A   1      41.477  28.593  34.242  1.00  0.00    -0.203 F 
ATOM     74  F   UNL A   1      45.005  29.562  38.231  1.00  0.00    -0.200 F 
ATOM     75  C   UNL A   1      43.888  28.048  36.817  1.00  0.00     0.200 A 
ATOM     76  F   UNL A   1      42.807  26.604  35.298  1.00  0.00    -0.200 F 
ATOM     77  F   UNL A   1      44.680  27.048  37.225  1.00  0.00    -0.200 F 
ENDBRANCH  53  67
BRANCH  54  78
ATOM     78  C   UNL A   1      40.114  28.208  27.964  1.00  0.00     0.064 A 
ATOM     79  C   UNL A   1      40.782  27.935  26.755  1.00  0.00     0.173 A 
ATOM     80  C   UNL A   1      39.456  27.118  28.566  1.00  0.00     0.173 A 
ATOM     81  F   UNL A   1      41.469  28.903  26.130  1.00  0.00    -0.203 F 
ATOM     82  C   UNL A   1      40.829  26.646  26.212  1.00  0.00     0.198 A 
ATOM     83  C   UNL A   1      39.499  25.834  28.019  1.00  0.00     0.198 A 
ATOM     84  F   UNL A   1      38.839  27.250  29.748  1.00  0.00    -0.203 F 
ATOM     85  F   UNL A   1      41.539  26.414  25.099  1.00  0.00    -0.200 F 
ATOM     86  C   UNL A   1      40.200  25.593  26.853  1.00  0.00     0.200 A 
ATOM     87  F   UNL A   1      38.913  24.817  28.668  1.00  0.00    -0.200 F 
ATOM     88  F   UNL A   1      40.303  24.346  26.373  1.00  0.00    -0.200 F 
ENDBRANCH  54  78
BRANCH  66  89
ATOM     89  C   UNL A   1      43.054  33.463  29.906  1.00  0.00     0.064 A 
ATOM     90  C   UNL A   1      44.161  33.742  29.086  1.00  0.00     0.173 A 
ATOM     91  C   UNL A   1      41.862  34.147  29.631  1.00  0.00     0.173 A 
ATOM     92  F   UNL A   1      45.308  33.063  29.215  1.00  0.00    -0.203 F 
ATOM     93  C   UNL A   1      44.085  34.696  28.069  1.00  0.00     0.198 A 
ATOM     94  C   UNL A   1      41.778  35.071  28.593  1.00  0.00     0.198 A 
ATOM     95  F   UNL A   1      40.758  33.886  30.348  1.00  0.00    -0.203 F 
ATOM     96  F   UNL A   1      45.160  34.955  27.308  1.00  0.00    -0.200 F 
ATOM     97  C   UNL A   1      42.893  35.354  27.820  1.00  0.00     0.200 A 
ATOM     98  F   UNL A   1      40.609  35.669  28.328  1.00  0.00    -0.200 F 
ATOM     99  F   UNL A   1      42.807  36.243  26.821  1.00  0.00    -0.200 F 
ENDBRANCH  66  89
ENDBRANCH  40  41
ENDBRANCH  33  35
ENDBRANCH  32  33
ENDBRANCH  31  32
ENDBRANCH  30  31
ENDBRANCH  29  30
ENDBRANCH   1  29
TORSDOF 19
ENDMDL
MODEL 2
REMARK VINA RESULT:     -11.5      2.830      9.298
REMARK SMILES COc1cc(OC)cc(-c2cc3nc(C)c(CCC(=O)OCCOCCOC(=O)c4ccc(-c5c6nc(c(-c7c(F)c(F)c(F)c(F)c7F)c7ccc([nH]7)c(-c7c(F)c(F)c(F)c(F)c7F)c7nc(c(-c8c(F)c(F)c(F)c(F)c8F)c8ccc5[nH]8)C=C7)C=C6)cc4)c(C)n3n2)c1
REMARK SMILES IDX 23 1 22 2 21 3 19 4 20 5 18 6 17 7 16 8 10 9 11 10 96 11
REMARK SMILES IDX 12 12 95 13 13 14 93 15 14 16 94 17 15 18 9 19 3 20 4 21
REMARK SMILES IDX 97 22 5 23 8 24 2 25 1 26 6 27 7 28 24 29 25 30 26 31 27 32
REMARK SMILES IDX 28 33 29 34 30 35 31 36 92 37 32 38 91 39 33 40 34 41 35 42
REMARK SMILES IDX 85 43 36 44 90 45 84 46 86 47 37 48 89 49 83 50 82 51 38 53
REMARK SMILES IDX 70 54 50 55 69 56 51 57 54 58 68 59 87 60 52 61 53 62 67 64
REMARK SMILES IDX 88 65 55 66 39 67 40 68 48 69 41 70 42 71 46 72 49 73 43 74
REMARK SMILES IDX 44 75 47 76 45 77 71 78 72 79 80 80 73 81 74 82 78 83 81 84
REMARK SMILES IDX 75 85 76 86 79 87 77 88 56 89 57 90 65 91 58 92 59 93 63 94
REMARK SMILES IDX 66 95 60 96 61 97 64 98 62 99
REMARK H PARENT 86 52 54 63
REMARK Flexibility Score: inf
ROOT
ATOM      1  C   UNL A   1      40.869  20.250  26.727  1.00  0.00     0.202 C 
ENDROOT
BRANCH   1   2
ATOM      2  C   UNL A   1      39.948  21.377  26.194  1.00  0.00     0.261 C 
BRANCH   2   3
ATOM      3  O   UNL A   1      38.675  20.927  25.656  1.00  0.00    -0.463 OA
BRANCH   3   4
ATOM      4  C   UNL A   1      37.629  21.775  25.561  1.00  0.00     0.306 C 
ATOM      5  O   UNL A   1      37.726  22.994  25.593  1.00  0.00    -0.252 OA
BRANCH   4   6
ATOM      6  C   UNL A   1      36.293  21.043  25.416  1.00  0.00     0.127 C 
BRANCH   6   7
ATOM      7  C   UNL A   1      35.382  21.376  24.205  1.00  0.00     0.051 C 
BRANCH   7   8
ATOM      8  C   UNL A   1      34.071  22.101  24.499  1.00  0.00    -0.005 A 
ATOM      9  C   UNL A   1      31.161  25.529  24.465  1.00  0.00     0.095 A 
ATOM     10  C   UNL A   1      30.592  24.353  25.024  1.00  0.00     0.080 A 
ATOM     11  N   UNL A   1      32.418  25.308  24.103  1.00  0.00    -0.166 NA
ATOM     12  C   UNL A   1      31.580  23.384  24.949  1.00  0.00     0.156 A 
ATOM     13  N   UNL A   1      32.679  24.041  24.451  1.00  0.00    -0.219 N 
ATOM     14  N   UNL A   1      31.673  22.071  25.317  1.00  0.00    -0.234 NA
ATOM     15  C   UNL A   1      33.913  23.429  24.326  1.00  0.00     0.046 A 
ATOM     16  C   UNL A   1      32.822  21.464  25.122  1.00  0.00     0.045 A 
ATOM     17  C   UNL A   1      34.972  24.413  24.024  1.00  0.00     0.067 C 
ATOM     18  C   UNL A   1      32.881  20.045  25.655  1.00  0.00     0.067 C 
BRANCH   9  19
ATOM     19  C   UNL A   1      30.688  26.897  24.324  1.00  0.00     0.009 A 
ATOM     20  C   UNL A   1      29.838  28.660  22.867  1.00  0.00     0.123 A 
ATOM     21  C   UNL A   1      30.324  29.615  23.750  1.00  0.00     0.092 A 
ATOM     22  C   UNL A   1      30.053  27.304  23.129  1.00  0.00     0.057 A 
ATOM     23  C   UNL A   1      31.018  29.204  24.885  1.00  0.00     0.123 A 
ATOM     24  C   UNL A   1      31.146  27.860  25.219  1.00  0.00     0.057 A 
BRANCH  20  25
ATOM     25  O   UNL A   1      29.304  29.145  21.705  1.00  0.00    -0.497 OA
ATOM     26  C   UNL A   1      29.214  30.565  21.660  1.00  0.00     0.278 C 
ENDBRANCH  20  25
BRANCH  23  27
ATOM     27  O   UNL A   1      31.717  30.143  25.598  1.00  0.00    -0.497 OA
ATOM     28  C   UNL A   1      33.106  29.774  25.581  1.00  0.00     0.278 C 
ENDBRANCH  23  27
ENDBRANCH   9  19
ENDBRANCH   7   8
ENDBRANCH   6   7
ENDBRANCH   4   6
ENDBRANCH   3   4
ENDBRANCH   2   3
ENDBRANCH   1   2
BRANCH   1  29
ATOM     29  O   UNL A   1      42.231  20.622  26.934  1.00  0.00    -0.374 OA
BRANCH  29  30
ATOM     30  C   UNL A   1      43.129  20.443  25.847  1.00  0.00     0.202 C 
BRANCH  30  31
ATOM     31  C   UNL A   1      43.812  21.715  25.351  1.00  0.00     0.261 C 
BRANCH  31  32
ATOM     32  O   UNL A   1      42.962  22.860  25.451  1.00  0.00    -0.460 OA
BRANCH  32  33
ATOM     33  C   UNL A   1      43.537  24.079  25.292  1.00  0.00     0.338 C 
ATOM     34  O   UNL A   1      44.498  24.352  24.614  1.00  0.00    -0.246 OA
BRANCH  33  35
ATOM     35  C   UNL A   1      42.865  25.014  26.230  1.00  0.00     0.060 A 
ATOM     36  C   UNL A   1      41.813  25.792  25.743  1.00  0.00     0.016 A 
ATOM     37  C   UNL A   1      43.364  25.215  27.530  1.00  0.00     0.016 A 
ATOM     38  C   UNL A   1      41.397  26.888  26.483  1.00  0.00     0.010 A 
ATOM     39  C   UNL A   1      42.931  26.287  28.277  1.00  0.00     0.010 A 
ATOM     40  C   UNL A   1      42.029  27.171  27.701  1.00  0.00    -0.014 A 
BRANCH  40  41
ATOM     41  C   UNL A   1      41.736  28.420  28.377  1.00  0.00     0.031 A 
ATOM     42  C   UNL A   1      42.702  29.507  28.116  1.00  0.00     0.074 A 
ATOM     43  C   UNL A   1      40.620  28.612  29.108  1.00  0.00     0.049 A 
ATOM     44  N   UNL A   1      43.552  30.003  28.951  1.00  0.00    -0.248 NA
ATOM     45  C   UNL A   1      42.826  30.020  26.745  1.00  0.00     0.031 C 
ATOM     46  C   UNL A   1      39.447  27.751  29.254  1.00  0.00     0.029 A 
ATOM     47  N   UNL A   1      40.282  29.704  29.844  1.00  0.00    -0.354 N 
ATOM     48  C   UNL A   1      44.199  31.026  28.270  1.00  0.00     0.074 A 
ATOM     49  C   UNL A   1      43.830  30.889  26.885  1.00  0.00     0.031 C 
ATOM     50  C   UNL A   1      38.445  28.453  29.839  1.00  0.00     0.029 A 
ATOM     51  C   UNL A   1      38.951  29.755  30.235  1.00  0.00     0.049 A 
ATOM     52  H   UNL A   1      40.931  30.405  30.082  1.00  0.00     0.167 HD
ATOM     53  C   UNL A   1      44.807  32.041  28.943  1.00  0.00     0.037 A 
ATOM     54  C   UNL A   1      38.325  30.826  30.791  1.00  0.00     0.037 A 
ATOM     55  C   UNL A   1      45.041  31.696  30.323  1.00  0.00     0.049 A 
ATOM     56  C   UNL A   1      39.384  31.680  31.395  1.00  0.00     0.074 A 
ATOM     57  C   UNL A   1      45.727  30.677  30.961  1.00  0.00     0.029 A 
ATOM     58  N   UNL A   1      44.197  32.211  31.277  1.00  0.00    -0.354 N 
ATOM     59  N   UNL A   1      40.091  31.320  32.431  1.00  0.00    -0.248 NA
ATOM     60  C   UNL A   1      39.984  32.701  30.547  1.00  0.00     0.031 C 
ATOM     61  C   UNL A   1      44.882  30.291  32.046  1.00  0.00     0.029 A 
ATOM     62  C   UNL A   1      43.787  31.153  32.051  1.00  0.00     0.049 A 
ATOM     63  H   UNL A   1      43.936  33.154  31.384  1.00  0.00     0.167 HD
ATOM     64  C   UNL A   1      41.381  31.720  32.125  1.00  0.00     0.074 A 
ATOM     65  C   UNL A   1      41.246  32.615  30.975  1.00  0.00     0.031 C 
ATOM     66  C   UNL A   1      42.469  31.069  32.630  1.00  0.00     0.037 A 
BRANCH  53  67
ATOM     67  C   UNL A   1      44.846  33.459  28.435  1.00  0.00     0.064 A 
ATOM     68  C   UNL A   1      46.088  34.080  28.202  1.00  0.00     0.173 A 
ATOM     69  C   UNL A   1      43.726  34.320  28.437  1.00  0.00     0.173 A 
ATOM     70  F   UNL A   1      47.224  33.368  28.231  1.00  0.00    -0.203 F 
ATOM     71  C   UNL A   1      46.198  35.464  28.032  1.00  0.00     0.198 A 
ATOM     72  C   UNL A   1      43.832  35.688  28.204  1.00  0.00     0.198 A 
ATOM     73  F   UNL A   1      42.505  33.901  28.788  1.00  0.00    -0.203 F 
ATOM     74  F   UNL A   1      47.410  36.026  27.940  1.00  0.00    -0.200 F 
ATOM     75  C   UNL A   1      45.070  36.264  28.029  1.00  0.00     0.200 A 
ATOM     76  F   UNL A   1      42.729  36.448  28.238  1.00  0.00    -0.200 F 
ATOM     77  F   UNL A   1      45.178  37.595  27.919  1.00  0.00    -0.200 F 
ENDBRANCH  53  67
BRANCH  54  78
ATOM     78  C   UNL A   1      36.970  31.361  30.484  1.00  0.00     0.064 A 
ATOM     79  C   UNL A   1      36.077  31.688  31.521  1.00  0.00     0.173 A 
ATOM     80  C   UNL A   1      36.639  31.849  29.205  1.00  0.00     0.173 A 
ATOM     81  F   UNL A   1      36.331  31.298  32.779  1.00  0.00    -0.203 F 
ATOM     82  C   UNL A   1      34.952  32.493  31.301  1.00  0.00     0.198 A 
ATOM     83  C   UNL A   1      35.514  32.647  28.987  1.00  0.00     0.198 A 
ATOM     84  F   UNL A   1      37.449  31.649  28.156  1.00  0.00    -0.203 F 
ATOM     85  F   UNL A   1      34.168  32.843  32.330  1.00  0.00    -0.200 F 
ATOM     86  C   UNL A   1      34.681  32.984  30.036  1.00  0.00     0.200 A 
ATOM     87  F   UNL A   1      35.281  33.144  27.763  1.00  0.00    -0.200 F 
ATOM     88  F   UNL A   1      33.645  33.812  29.837  1.00  0.00    -0.200 F 
ENDBRANCH  54  78
BRANCH  66  89
ATOM     89  C   UNL A   1      42.252  30.048  33.710  1.00  0.00     0.064 A 
ATOM     90  C   UNL A   1      41.917  28.702  33.479  1.00  0.00     0.173 A 
ATOM     91  C   UNL A   1      42.527  30.423  35.032  1.00  0.00     0.173 A 
ATOM     92  F   UNL A   1      41.737  28.236  32.236  1.00  0.00    -0.203 F 
ATOM     93  C   UNL A   1      41.818  27.790  34.532  1.00  0.00     0.198 A 
ATOM     94  C   UNL A   1      42.463  29.504  36.076  1.00  0.00     0.198 A 
ATOM     95  F   UNL A   1      42.901  31.682  35.308  1.00  0.00    -0.203 F 
ATOM     96  F   UNL A   1      41.483  26.514  34.288  1.00  0.00    -0.200 F 
ATOM     97  C   UNL A   1      42.097  28.191  35.827  1.00  0.00     0.200 A 
ATOM     98  F   UNL A   1      42.780  29.888  37.319  1.00  0.00    -0.200 F 
ATOM     99  F   UNL A   1      42.039  27.309  36.835  1.00  0.00    -0.200 F 
ENDBRANCH  66  89
ENDBRANCH  40  41
ENDBRANCH  33  35
ENDBRANCH  32  33
ENDBRANCH  31  32
ENDBRANCH  30  31
ENDBRANCH  29  30
ENDBRANCH   1  29
TORSDOF 19
ENDMDL
MODEL 3
REMARK VINA RESULT:     -11.5      2.450      3.611
REMARK SMILES COc1cc(OC)cc(-c2cc3nc(C)c(CCC(=O)OCCOCCOC(=O)c4ccc(-c5c6nc(c(-c7c(F)c(F)c(F)c(F)c7F)c7ccc([nH]7)c(-c7c(F)c(F)c(F)c(F)c7F)c7nc(c(-c8c(F)c(F)c(F)c(F)c8F)c8ccc5[nH]8)C=C7)C=C6)cc4)c(C)n3n2)c1
REMARK SMILES IDX 23 1 22 2 21 3 19 4 20 5 18 6 17 7 16 8 10 9 11 10 96 11
REMARK SMILES IDX 12 12 95 13 13 14 93 15 14 16 94 17 15 18 9 19 3 20 4 21
REMARK SMILES IDX 97 22 5 23 8 24 2 25 1 26 6 27 7 28 24 29 25 30 26 31 27 32
REMARK SMILES IDX 28 33 29 34 30 35 31 36 92 37 32 38 91 39 33 40 34 41 35 42
REMARK SMILES IDX 85 43 36 44 90 45 84 46 86 47 37 48 89 49 83 50 82 51 38 53
REMARK SMILES IDX 70 54 50 55 69 56 51 57 54 58 68 59 87 60 52 61 53 62 67 64
REMARK SMILES IDX 88 65 55 66 39 67 40 68 48 69 41 70 42 71 46 72 49 73 43 74
REMARK SMILES IDX 44 75 47 76 45 77 71 78 72 79 80 80 73 81 74 82 78 83 81 84
REMARK SMILES IDX 75 85 76 86 79 87 77 88 56 89 57 90 65 91 58 92 59 93 63 94
REMARK SMILES IDX 66 95 60 96 61 97 64 98 62 99
REMARK H PARENT 86 52 54 63
REMARK Flexibility Score: inf
ROOT
ATOM      1  C   UNL A   1      34.806  31.647  27.616  1.00  0.00     0.202 C 
ENDROOT
BRANCH   1   2
ATOM      2  C   UNL A   1      33.322  31.238  27.433  1.00  0.00     0.261 C 
BRANCH   2   3
ATOM      3  O   UNL A   1      33.056  29.815  27.569  1.00  0.00    -0.463 OA
BRANCH   3   4
ATOM      4  C   UNL A   1      32.243  29.180  26.697  1.00  0.00     0.306 C 
ATOM      5  O   UNL A   1      31.372  28.385  27.023  1.00  0.00    -0.252 OA
BRANCH   4   6
ATOM      6  C   UNL A   1      32.535  29.558  25.244  1.00  0.00     0.127 C 
BRANCH   6   7
ATOM      7  C   UNL A   1      31.523  29.142  24.143  1.00  0.00     0.051 C 
BRANCH   7   8
ATOM      8  C   UNL A   1      31.244  27.649  23.983  1.00  0.00    -0.005 A 
ATOM      9  C   UNL A   1      32.186  23.252  24.045  1.00  0.00     0.095 A 
ATOM     10  C   UNL A   1      30.816  23.500  23.765  1.00  0.00     0.080 A 
ATOM     11  N   UNL A   1      32.839  24.396  24.209  1.00  0.00    -0.166 NA
ATOM     12  C   UNL A   1      30.665  24.876  23.800  1.00  0.00     0.156 A 
ATOM     13  N   UNL A   1      31.934  25.363  24.002  1.00  0.00    -0.219 N 
ATOM     14  N   UNL A   1      29.622  25.739  23.610  1.00  0.00    -0.234 NA
ATOM     15  C   UNL A   1      32.218  26.717  23.994  1.00  0.00     0.046 A 
ATOM     16  C   UNL A   1      29.874  27.026  23.685  1.00  0.00     0.045 A 
ATOM     17  C   UNL A   1      33.675  26.960  23.966  1.00  0.00     0.067 C 
ATOM     18  C   UNL A   1      28.692  27.918  23.353  1.00  0.00     0.067 C 
BRANCH   9  19
ATOM     19  C   UNL A   1      32.998  22.045  24.074  1.00  0.00     0.009 A 
ATOM     20  C   UNL A   1      33.096  19.612  24.210  1.00  0.00     0.123 A 
ATOM     21  C   UNL A   1      34.380  19.699  24.733  1.00  0.00     0.092 A 
ATOM     22  C   UNL A   1      32.388  20.781  23.919  1.00  0.00     0.057 A 
ATOM     23  C   UNL A   1      34.942  20.954  24.955  1.00  0.00     0.123 A 
ATOM     24  C   UNL A   1      34.297  22.125  24.569  1.00  0.00     0.057 A 
BRANCH  20  25
ATOM     25  O   UNL A   1      32.560  18.354  24.164  1.00  0.00    -0.497 OA
ATOM     26  C   UNL A   1      32.567  17.677  25.415  1.00  0.00     0.278 C 
ENDBRANCH  20  25
BRANCH  23  27
ATOM     27  O   UNL A   1      36.083  21.033  25.710  1.00  0.00    -0.497 OA
ATOM     28  C   UNL A   1      37.100  21.667  24.916  1.00  0.00     0.278 C 
ENDBRANCH  23  27
ENDBRANCH   9  19
ENDBRANCH   7   8
ENDBRANCH   6   7
ENDBRANCH   4   6
ENDBRANCH   3   4
ENDBRANCH   2   3
ENDBRANCH   1   2
BRANCH   1  29
ATOM     29  O   UNL A   1      35.044  33.050  27.715  1.00  0.00    -0.374 OA
BRANCH  29  30
ATOM     30  C   UNL A   1      34.057  33.835  28.370  1.00  0.00     0.202 C 
BRANCH  30  31
ATOM     31  C   UNL A   1      34.295  34.071  29.859  1.00  0.00     0.261 C 
BRANCH  31  32
ATOM     32  O   UNL A   1      35.581  33.610  30.281  1.00  0.00    -0.460 OA
BRANCH  32  33
ATOM     33  C   UNL A   1      35.620  32.508  31.072  1.00  0.00     0.338 C 
ATOM     34  O   UNL A   1      35.023  32.328  32.106  1.00  0.00    -0.246 OA
BRANCH  33  35
ATOM     35  C   UNL A   1      36.659  31.601  30.521  1.00  0.00     0.060 A 
ATOM     36  C   UNL A   1      36.427  30.225  30.574  1.00  0.00     0.016 A 
ATOM     37  C   UNL A   1      37.900  32.103  30.089  1.00  0.00     0.016 A 
ATOM     38  C   UNL A   1      37.494  29.362  30.382  1.00  0.00     0.010 A 
ATOM     39  C   UNL A   1      38.953  31.244  29.869  1.00  0.00     0.010 A 
ATOM     40  C   UNL A   1      38.765  29.892  30.120  1.00  0.00    -0.014 A 
BRANCH  40  41
ATOM     41  C   UNL A   1      39.914  29.007  30.116  1.00  0.00     0.031 A 
ATOM     42  C   UNL A   1      40.468  28.705  31.451  1.00  0.00     0.074 A 
ATOM     43  C   UNL A   1      40.383  28.424  28.996  1.00  0.00     0.049 A 
ATOM     44  N   UNL A   1      41.597  29.111  31.930  1.00  0.00    -0.248 NA
ATOM     45  C   UNL A   1      39.630  27.974  32.410  1.00  0.00     0.031 C 
ATOM     46  C   UNL A   1      39.807  28.399  27.651  1.00  0.00     0.029 A 
ATOM     47  N   UNL A   1      41.491  27.647  28.860  1.00  0.00    -0.354 N 
ATOM     48  C   UNL A   1      41.704  28.534  33.188  1.00  0.00     0.074 A 
ATOM     49  C   UNL A   1      40.409  27.981  33.493  1.00  0.00     0.031 C 
ATOM     50  C   UNL A   1      40.446  27.463  26.906  1.00  0.00     0.029 A 
ATOM     51  C   UNL A   1      41.560  26.932  27.671  1.00  0.00     0.049 A 
ATOM     52  H   UNL A   1      42.190  27.594  29.551  1.00  0.00     0.167 HD
ATOM     53  C   UNL A   1      42.918  28.360  33.779  1.00  0.00     0.037 A 
ATOM     54  C   UNL A   1      42.446  25.941  27.390  1.00  0.00     0.037 A 
ATOM     55  C   UNL A   1      43.928  29.186  33.165  1.00  0.00     0.049 A 
ATOM     56  C   UNL A   1      43.615  26.136  28.291  1.00  0.00     0.074 A 
ATOM     57  C   UNL A   1      44.068  30.547  32.957  1.00  0.00     0.029 A 
ATOM     58  N   UNL A   1      44.807  28.598  32.289  1.00  0.00    -0.354 N 
ATOM     59  N   UNL A   1      44.432  27.149  28.196  1.00  0.00    -0.248 NA
ATOM     60  C   UNL A   1      43.572  25.480  29.591  1.00  0.00     0.031 C 
ATOM     61  C   UNL A   1      44.585  30.663  31.630  1.00  0.00     0.029 A 
ATOM     62  C   UNL A   1      44.809  29.372  31.154  1.00  0.00     0.049 A 
ATOM     63  H   UNL A   1      45.333  27.780  32.443  1.00  0.00     0.167 HD
ATOM     64  C   UNL A   1      44.659  27.533  29.507  1.00  0.00     0.074 A 
ATOM     65  C   UNL A   1      44.147  26.434  30.327  1.00  0.00     0.031 C 
ATOM     66  C   UNL A   1      44.966  28.823  29.830  1.00  0.00     0.037 A 
BRANCH  53  67
ATOM     67  C   UNL A   1      43.246  27.182  34.657  1.00  0.00     0.064 A 
ATOM     68  C   UNL A   1      43.210  27.327  36.058  1.00  0.00     0.173 A 
ATOM     69  C   UNL A   1      43.865  26.003  34.183  1.00  0.00     0.173 A 
ATOM     70  F   UNL A   1      42.694  28.431  36.617  1.00  0.00    -0.203 F 
ATOM     71  C   UNL A   1      43.791  26.383  36.910  1.00  0.00     0.198 A 
ATOM     72  C   UNL A   1      44.386  25.035  35.037  1.00  0.00     0.198 A 
ATOM     73  F   UNL A   1      44.105  25.797  32.884  1.00  0.00    -0.203 F 
ATOM     74  F   UNL A   1      43.845  26.623  38.227  1.00  0.00    -0.200 F 
ATOM     75  C   UNL A   1      44.375  25.238  36.399  1.00  0.00     0.200 A 
ATOM     76  F   UNL A   1      44.975  23.949  34.517  1.00  0.00    -0.200 F 
ATOM     77  F   UNL A   1      44.978  24.359  37.210  1.00  0.00    -0.200 F 
ENDBRANCH  53  67
BRANCH  54  78
ATOM     78  C   UNL A   1      42.186  24.638  26.719  1.00  0.00     0.064 A 
ATOM     79  C   UNL A   1      43.035  24.176  25.696  1.00  0.00     0.173 A 
ATOM     80  C   UNL A   1      41.302  23.687  27.264  1.00  0.00     0.173 A 
ATOM     81  F   UNL A   1      43.938  25.001  25.144  1.00  0.00    -0.203 F 
ATOM     82  C   UNL A   1      43.034  22.839  25.281  1.00  0.00     0.198 A 
ATOM     83  C   UNL A   1      41.297  22.355  26.845  1.00  0.00     0.198 A 
ATOM     84  F   UNL A   1      40.490  24.002  28.283  1.00  0.00    -0.203 F 
ATOM     85  F   UNL A   1      43.911  22.423  24.357  1.00  0.00    -0.200 F 
ATOM     86  C   UNL A   1      42.175  21.926  25.867  1.00  0.00     0.200 A 
ATOM     87  F   UNL A   1      40.483  21.474  27.444  1.00  0.00    -0.200 F 
ATOM     88  F   UNL A   1      42.220  20.632  25.522  1.00  0.00    -0.200 F 
ENDBRANCH  54  78
BRANCH  66  89
ATOM     89  C   UNL A   1      45.280  29.782  28.717  1.00  0.00     0.064 A 
ATOM     90  C   UNL A   1      44.316  30.500  27.987  1.00  0.00     0.173 A 
ATOM     91  C   UNL A   1      46.626  30.083  28.471  1.00  0.00     0.173 A 
ATOM     92  F   UNL A   1      43.008  30.348  28.230  1.00  0.00    -0.203 F 
ATOM     93  C   UNL A   1      44.690  31.440  27.025  1.00  0.00     0.198 A 
ATOM     94  C   UNL A   1      46.996  31.047  27.538  1.00  0.00     0.198 A 
ATOM     95  F   UNL A   1      47.591  29.467  29.172  1.00  0.00    -0.203 F 
ATOM     96  F   UNL A   1      43.751  32.103  26.332  1.00  0.00    -0.200 F 
ATOM     97  C   UNL A   1      46.028  31.717  26.807  1.00  0.00     0.200 A 
ATOM     98  F   UNL A   1      48.291  31.343  27.365  1.00  0.00    -0.200 F 
ATOM     99  F   UNL A   1      46.389  32.646  25.910  1.00  0.00    -0.200 F 
ENDBRANCH  66  89
ENDBRANCH  40  41
ENDBRANCH  33  35
ENDBRANCH  32  33
ENDBRANCH  31  32
ENDBRANCH  30  31
ENDBRANCH  29  30
ENDBRANCH   1  29
TORSDOF 19
ENDMDL
