MODEL 1
REMARK VINA RESULT:     -10.4      0.000      0.000
REMARK SMILES CCCCCCNC(=O)Oc1cccc(-c2ccc([C@H](C)C(=O)OCCOCCOC(=O)c3ccc(-c4c5nc(c(-c6c(F)c(F)c(F)c(F)c6F)c6ccc([nH]6)c(-c6c(F)c(F)c(F)c(F)c6F)c6nc(c(-c7c(F)c(F)c(F)c(F)c7F)c7ccc4[nH]7)C=C6)C=C5)cc3)cc2F)c1
REMARK SMILES IDX 22 1 23 2 20 3 21 4 19 5 16 6 17 7 97 8 18 9 96 10 98 11
REMARK SMILES IDX 15 12 11 13 12 14 99 15 13 16 14 17 10 18 8 19 7 20 9 22
REMARK SMILES IDX 6 23 5 24 4 25 3 26 2 27 1 28 24 29 25 30 26 31 27 32 28 33
REMARK SMILES IDX 29 34 30 35 31 36 32 37 33 38 34 39 95 40 35 41 94 42 36 43
REMARK SMILES IDX 37 44 38 45 88 46 39 47 93 48 87 49 89 50 40 51 92 52 86 53
REMARK SMILES IDX 85 54 41 56 73 57 53 58 72 59 54 60 57 61 71 62 90 63 55 64
REMARK SMILES IDX 56 65 70 67 91 68 58 69 42 70 43 71 51 72 44 73 45 74 49 75
REMARK SMILES IDX 52 76 46 77 47 78 50 79 48 80 74 81 75 82 83 83 76 84 77 85
REMARK SMILES IDX 81 86 84 87 78 88 79 89 82 90 80 91 59 92 60 93 68 94 61 95
REMARK SMILES IDX 62 96 66 97 69 98 63 99 64 100 67 101 65 102
REMARK H PARENT 7 21 89 55 57 66
REMARK Flexibility Score: inf
ROOT
ATOM      1  C   UNL A   1      42.513  21.455  26.013  1.00  0.00     0.313 C 
ATOM      2  O   UNL A   1      42.781  22.458  26.664  1.00  0.00    -0.252 OA
ENDROOT
BRANCH   1   3
ATOM      3  C   UNL A   1      41.365  20.517  26.365  1.00  0.00     0.126 C 
ATOM      4  C   UNL A   1      41.458  19.882  27.753  1.00  0.00     0.025 C 
BRANCH   3   5
ATOM      5  C   UNL A   1      40.023  21.186  26.161  1.00  0.00    -0.031 A 
ATOM      6  C   UNL A   1      37.544  22.432  25.664  1.00  0.00     0.018 A 
ATOM      7  C   UNL A   1      38.550  23.105  26.365  1.00  0.00     0.012 A 
ATOM      8  C   UNL A   1      37.785  21.114  25.256  1.00  0.00     0.131 A 
ATOM      9  C   UNL A   1      39.770  22.485  26.625  1.00  0.00     0.005 A 
ATOM     10  C   UNL A   1      39.005  20.494  25.495  1.00  0.00     0.044 A 
ATOM     11  F   UNL A   1      36.838  20.417  24.609  1.00  0.00    -0.206 F 
BRANCH   6  12
ATOM     12  C   UNL A   1      36.272  23.100  25.399  1.00  0.00    -0.012 A 
ATOM     13  C   UNL A   1      34.656  23.974  23.832  1.00  0.00     0.133 A 
ATOM     14  C   UNL A   1      33.802  24.333  24.872  1.00  0.00     0.047 A 
ATOM     15  C   UNL A   1      35.890  23.383  24.085  1.00  0.00     0.056 A 
ATOM     16  C   UNL A   1      34.177  24.065  26.186  1.00  0.00     0.004 A 
ATOM     17  C   UNL A   1      35.402  23.447  26.447  1.00  0.00     0.009 A 
BRANCH  13  18
ATOM     18  O   UNL A   1      34.288  24.348  22.534  1.00  0.00    -0.410 OA
BRANCH  18  19
ATOM     19  C   UNL A   1      33.091  23.870  22.027  1.00  0.00     0.412 C 
ATOM     20  N   UNL A   1      32.248  24.865  21.631  1.00  0.00    -0.321 N 
ATOM     21  H   UNL A   1      31.360  24.594  21.302  1.00  0.00     0.167 HD
ATOM     22  O   UNL A   1      32.768  22.687  21.918  1.00  0.00    -0.224 OA
BRANCH  20  23
ATOM     23  C   UNL A   1      32.537  26.284  21.651  1.00  0.00     0.119 C 
BRANCH  23  24
ATOM     24  C   UNL A   1      31.587  27.045  22.575  1.00  0.00     0.021 C 
BRANCH  24  25
ATOM     25  C   UNL A   1      31.233  26.312  23.873  1.00  0.00     0.002 C 
BRANCH  25  26
ATOM     26  C   UNL A   1      30.865  27.214  25.055  1.00  0.00    -0.000 C 
BRANCH  26  27
ATOM     27  C   UNL A   1      31.675  26.983  26.331  1.00  0.00    -0.003 C 
ATOM     28  C   UNL A   1      31.547  28.117  27.337  1.00  0.00     0.004 C 
ENDBRANCH  26  27
ENDBRANCH  25  26
ENDBRANCH  24  25
ENDBRANCH  23  24
ENDBRANCH  20  23
ENDBRANCH  18  19
ENDBRANCH  13  18
ENDBRANCH   6  12
ENDBRANCH   3   5
ENDBRANCH   1   3
BRANCH   1  29
ATOM     29  O   UNL A   1      43.229  21.007  24.941  1.00  0.00    -0.463 OA
BRANCH  29  30
ATOM     30  C   UNL A   1      44.191  19.983  25.226  1.00  0.00     0.261 C 
BRANCH  30  31
ATOM     31  C   UNL A   1      45.475  20.144  24.413  1.00  0.00     0.202 C 
BRANCH  31  32
ATOM     32  O   UNL A   1      46.462  21.049  24.896  1.00  0.00    -0.374 OA
BRANCH  32  33
ATOM     33  C   UNL A   1      46.382  22.419  24.516  1.00  0.00     0.202 C 
BRANCH  33  34
ATOM     34  C   UNL A   1      46.405  23.482  25.623  1.00  0.00     0.261 C 
BRANCH  34  35
ATOM     35  O   UNL A   1      46.108  24.810  25.151  1.00  0.00    -0.460 OA
BRANCH  35  36
ATOM     36  C   UNL A   1      44.812  25.176  25.305  1.00  0.00     0.338 C 
ATOM     37  O   UNL A   1      43.866  24.873  24.597  1.00  0.00    -0.246 OA
BRANCH  36  38
ATOM     38  C   UNL A   1      44.619  25.892  26.578  1.00  0.00     0.060 A 
ATOM     39  C   UNL A   1      43.927  25.226  27.598  1.00  0.00     0.016 A 
ATOM     40  C   UNL A   1      44.960  27.239  26.710  1.00  0.00     0.016 A 
ATOM     41  C   UNL A   1      43.518  25.920  28.732  1.00  0.00     0.010 A 
ATOM     42  C   UNL A   1      44.542  27.938  27.849  1.00  0.00     0.010 A 
ATOM     43  C   UNL A   1      43.779  27.292  28.841  1.00  0.00    -0.014 A 
BRANCH  43  44
ATOM     44  C   UNL A   1      43.104  28.080  29.901  1.00  0.00     0.031 A 
ATOM     45  C   UNL A   1      43.766  28.206  31.247  1.00  0.00     0.074 A 
ATOM     46  C   UNL A   1      41.939  28.704  29.660  1.00  0.00     0.049 A 
ATOM     47  N   UNL A   1      43.337  28.795  32.335  1.00  0.00    -0.248 NA
ATOM     48  C   UNL A   1      45.092  27.583  31.384  1.00  0.00     0.031 C 
ATOM     49  C   UNL A   1      41.230  28.701  28.383  1.00  0.00     0.029 A 
ATOM     50  N   UNL A   1      41.144  29.457  30.487  1.00  0.00    -0.354 N 
ATOM     51  C   UNL A   1      44.332  28.601  33.285  1.00  0.00     0.074 A 
ATOM     52  C   UNL A   1      45.373  27.819  32.657  1.00  0.00     0.031 C 
ATOM     53  C   UNL A   1      40.094  29.407  28.515  1.00  0.00     0.029 A 
ATOM     54  C   UNL A   1      39.981  29.878  29.894  1.00  0.00     0.049 A 
ATOM     55  H   UNL A   1      41.385  29.673  31.417  1.00  0.00     0.167 HD
ATOM     56  C   UNL A   1      44.373  29.045  34.564  1.00  0.00     0.037 A 
ATOM     57  C   UNL A   1      38.932  30.544  30.415  1.00  0.00     0.037 A 
ATOM     58  C   UNL A   1      43.336  29.828  35.183  1.00  0.00     0.049 A 
ATOM     59  C   UNL A   1      38.968  30.961  31.864  1.00  0.00     0.074 A 
ATOM     60  C   UNL A   1      43.290  30.338  36.468  1.00  0.00     0.029 A 
ATOM     61  N   UNL A   1      42.158  30.211  34.558  1.00  0.00    -0.354 N 
ATOM     62  N   UNL A   1      39.916  30.788  32.753  1.00  0.00    -0.248 NA
ATOM     63  C   UNL A   1      37.788  31.668  32.380  1.00  0.00     0.031 C 
ATOM     64  C   UNL A   1      42.060  30.981  36.640  1.00  0.00     0.029 A 
ATOM     65  C   UNL A   1      41.367  30.928  35.442  1.00  0.00     0.049 A 
ATOM     66  H   UNL A   1      41.920  30.003  33.626  1.00  0.00     0.167 HD
ATOM     67  C   UNL A   1      39.464  31.393  33.919  1.00  0.00     0.074 A 
ATOM     68  C   UNL A   1      38.160  31.946  33.621  1.00  0.00     0.031 C 
ATOM     69  C   UNL A   1      40.077  31.487  35.126  1.00  0.00     0.037 A 
BRANCH  56  70
ATOM     70  C   UNL A   1      45.567  28.664  35.393  1.00  0.00     0.064 A 
ATOM     71  C   UNL A   1      46.711  29.472  35.459  1.00  0.00     0.173 A 
ATOM     72  C   UNL A   1      45.549  27.490  36.162  1.00  0.00     0.173 A 
ATOM     73  F   UNL A   1      46.786  30.599  34.734  1.00  0.00    -0.203 F 
ATOM     74  C   UNL A   1      47.803  29.105  36.243  1.00  0.00     0.198 A 
ATOM     75  C   UNL A   1      46.630  27.142  36.967  1.00  0.00     0.198 A 
ATOM     76  F   UNL A   1      44.477  26.683  36.139  1.00  0.00    -0.203 F 
ATOM     77  F   UNL A   1      48.906  29.869  36.252  1.00  0.00    -0.200 F 
ATOM     78  C   UNL A   1      47.758  27.946  37.002  1.00  0.00     0.200 A 
ATOM     79  F   UNL A   1      46.578  26.028  37.711  1.00  0.00    -0.200 F 
ATOM     80  F   UNL A   1      48.807  27.599  37.761  1.00  0.00    -0.200 F 
ENDBRANCH  56  70
BRANCH  57  81
ATOM     81  C   UNL A   1      37.750  30.847  29.568  1.00  0.00     0.064 A 
ATOM     82  C   UNL A   1      37.547  32.129  29.036  1.00  0.00     0.173 A 
ATOM     83  C   UNL A   1      36.787  29.866  29.287  1.00  0.00     0.173 A 
ATOM     84  F   UNL A   1      38.426  33.107  29.297  1.00  0.00    -0.203 F 
ATOM     85  C   UNL A   1      36.418  32.421  28.273  1.00  0.00     0.198 A 
ATOM     86  C   UNL A   1      35.673  30.153  28.499  1.00  0.00     0.198 A 
ATOM     87  F   UNL A   1      36.931  28.625  29.774  1.00  0.00    -0.203 F 
ATOM     88  F   UNL A   1      36.225  33.668  27.820  1.00  0.00    -0.200 F 
ATOM     89  C   UNL A   1      35.485  31.432  28.001  1.00  0.00     0.200 A 
ATOM     90  F   UNL A   1      34.782  29.190  28.229  1.00  0.00    -0.200 F 
ATOM     91  F   UNL A   1      34.402  31.715  27.265  1.00  0.00    -0.200 F 
ENDBRANCH  57  81
BRANCH  69  92
ATOM     92  C   UNL A   1      39.370  32.259  36.203  1.00  0.00     0.064 A 
ATOM     93  C   UNL A   1      38.380  31.676  37.006  1.00  0.00     0.173 A 
ATOM     94  C   UNL A   1      39.729  33.591  36.467  1.00  0.00     0.173 A 
ATOM     95  F   UNL A   1      37.992  30.411  36.787  1.00  0.00    -0.203 F 
ATOM     96  C   UNL A   1      37.757  32.405  38.017  1.00  0.00     0.198 A 
ATOM     97  C   UNL A   1      39.128  34.305  37.499  1.00  0.00     0.198 A 
ATOM     98  F   UNL A   1      40.677  34.194  35.734  1.00  0.00    -0.203 F 
ATOM     99  F   UNL A   1      36.780  31.842  38.741  1.00  0.00    -0.200 F 
ATOM    100  C   UNL A   1      38.137  33.715  38.267  1.00  0.00     0.200 A 
ATOM    101  F   UNL A   1      39.509  35.566  37.750  1.00  0.00    -0.200 F 
ATOM    102  F   UNL A   1      37.544  34.410  39.248  1.00  0.00    -0.200 F 
ENDBRANCH  69  92
ENDBRANCH  43  44
ENDBRANCH  36  38
ENDBRANCH  35  36
ENDBRANCH  34  35
ENDBRANCH  33  34
ENDBRANCH  32  33
ENDBRANCH  31  32
ENDBRANCH  30  31
ENDBRANCH  29  30
ENDBRANCH   1  29
TORSDOF 23
ENDMDL
MODEL 2
REMARK VINA RESULT:      -9.9      0.721      7.131
REMARK SMILES CCCCCCNC(=O)Oc1cccc(-c2ccc([C@H](C)C(=O)OCCOCCOC(=O)c3ccc(-c4c5nc(c(-c6c(F)c(F)c(F)c(F)c6F)c6ccc([nH]6)c(-c6c(F)c(F)c(F)c(F)c6F)c6nc(c(-c7c(F)c(F)c(F)c(F)c7F)c7ccc4[nH]7)C=C6)C=C5)cc3)cc2F)c1
REMARK SMILES IDX 22 1 23 2 20 3 21 4 19 5 16 6 17 7 97 8 18 9 96 10 98 11
REMARK SMILES IDX 15 12 11 13 12 14 99 15 13 16 14 17 10 18 8 19 7 20 9 22
REMARK SMILES IDX 6 23 5 24 4 25 3 26 2 27 1 28 24 29 25 30 26 31 27 32 28 33
REMARK SMILES IDX 29 34 30 35 31 36 32 37 33 38 34 39 95 40 35 41 94 42 36 43
REMARK SMILES IDX 37 44 38 45 88 46 39 47 93 48 87 49 89 50 40 51 92 52 86 53
REMARK SMILES IDX 85 54 41 56 73 57 53 58 72 59 54 60 57 61 71 62 90 63 55 64
REMARK SMILES IDX 56 65 70 67 91 68 58 69 42 70 43 71 51 72 44 73 45 74 49 75
REMARK SMILES IDX 52 76 46 77 47 78 50 79 48 80 74 81 75 82 83 83 76 84 77 85
REMARK SMILES IDX 81 86 84 87 78 88 79 89 82 90 80 91 59 92 60 93 68 94 61 95
REMARK SMILES IDX 62 96 66 97 69 98 63 99 64 100 67 101 65 102
REMARK H PARENT 7 21 89 55 57 66
REMARK Flexibility Score: inf
ROOT
ATOM      1  C   UNL A   1      42.389  21.939  25.934  1.00  0.00     0.313 C 
ATOM      2  O   UNL A   1      42.581  23.054  26.404  1.00  0.00    -0.252 OA
ENDROOT
BRANCH   1   3
ATOM      3  C   UNL A   1      41.269  21.019  26.405  1.00  0.00     0.126 C 
ATOM      4  C   UNL A   1      41.415  20.514  27.841  1.00  0.00     0.025 C 
BRANCH   3   5
ATOM      5  C   UNL A   1      39.910  21.647  26.185  1.00  0.00    -0.031 A 
ATOM      6  C   UNL A   1      37.395  22.807  25.658  1.00  0.00     0.018 A 
ATOM      7  C   UNL A   1      38.410  23.554  26.266  1.00  0.00     0.012 A 
ATOM      8  C   UNL A   1      37.647  21.462  25.360  1.00  0.00     0.131 A 
ATOM      9  C   UNL A   1      39.648  22.979  26.541  1.00  0.00     0.005 A 
ATOM     10  C   UNL A   1      38.885  20.885  25.614  1.00  0.00     0.044 A 
ATOM     11  F   UNL A   1      36.694  20.697  24.806  1.00  0.00    -0.206 F 
BRANCH   6  12
ATOM     12  C   UNL A   1      36.104  23.429  25.376  1.00  0.00    -0.012 A 
ATOM     13  C   UNL A   1      34.503  24.295  23.789  1.00  0.00     0.133 A 
ATOM     14  C   UNL A   1      33.600  24.576  24.811  1.00  0.00     0.047 A 
ATOM     15  C   UNL A   1      35.753  23.748  24.061  1.00  0.00     0.056 A 
ATOM     16  C   UNL A   1      33.944  24.271  26.126  1.00  0.00     0.004 A 
ATOM     17  C   UNL A   1      35.186  23.698  26.406  1.00  0.00     0.009 A 
BRANCH  13  18
ATOM     18  O   UNL A   1      34.161  24.704  22.494  1.00  0.00    -0.410 OA
BRANCH  18  19
ATOM     19  C   UNL A   1      33.046  24.139  21.899  1.00  0.00     0.412 C 
ATOM     20  N   UNL A   1      32.078  25.054  21.610  1.00  0.00    -0.321 N 
ATOM     21  H   UNL A   1      31.238  24.711  21.226  1.00  0.00     0.167 HD
ATOM     22  O   UNL A   1      32.888  22.947  21.633  1.00  0.00    -0.224 OA
BRANCH  20  23
ATOM     23  C   UNL A   1      32.170  26.485  21.817  1.00  0.00     0.119 C 
BRANCH  23  24
ATOM     24  C   UNL A   1      31.096  26.990  22.780  1.00  0.00     0.021 C 
BRANCH  24  25
ATOM     25  C   UNL A   1      30.289  25.888  23.474  1.00  0.00     0.002 C 
BRANCH  25  26
ATOM     26  C   UNL A   1      29.505  26.333  24.712  1.00  0.00    -0.000 C 
BRANCH  26  27
ATOM     27  C   UNL A   1      29.799  25.544  25.990  1.00  0.00    -0.003 C 
ATOM     28  C   UNL A   1      30.473  24.206  25.726  1.00  0.00     0.004 C 
ENDBRANCH  26  27
ENDBRANCH  25  26
ENDBRANCH  24  25
ENDBRANCH  23  24
ENDBRANCH  20  23
ENDBRANCH  18  19
ENDBRANCH  13  18
ENDBRANCH   6  12
ENDBRANCH   3   5
ENDBRANCH   1   3
BRANCH   1  29
ATOM     29  O   UNL A   1      43.173  21.346  24.988  1.00  0.00    -0.463 OA
BRANCH  29  30
ATOM     30  C   UNL A   1      44.259  20.558  25.492  1.00  0.00     0.261 C 
BRANCH  30  31
ATOM     31  C   UNL A   1      45.538  20.731  24.673  1.00  0.00     0.202 C 
BRANCH  31  32
ATOM     32  O   UNL A   1      46.419  21.792  25.028  1.00  0.00    -0.374 OA
BRANCH  32  33
ATOM     33  C   UNL A   1      46.124  23.109  24.575  1.00  0.00     0.202 C 
BRANCH  33  34
ATOM     34  C   UNL A   1      45.958  24.218  25.623  1.00  0.00     0.261 C 
BRANCH  34  35
ATOM     35  O   UNL A   1      45.567  25.485  25.063  1.00  0.00    -0.460 OA
BRANCH  35  36
ATOM     36  C   UNL A   1      44.281  25.831  25.318  1.00  0.00     0.338 C 
ATOM     37  O   UNL A   1      43.303  25.617  24.621  1.00  0.00    -0.246 OA
BRANCH  36  38
ATOM     38  C   UNL A   1      44.148  26.388  26.675  1.00  0.00     0.060 A 
ATOM     39  C   UNL A   1      43.457  25.623  27.624  1.00  0.00     0.016 A 
ATOM     40  C   UNL A   1      44.544  27.694  26.964  1.00  0.00     0.016 A 
ATOM     41  C   UNL A   1      43.103  26.183  28.848  1.00  0.00     0.010 A 
ATOM     42  C   UNL A   1      44.181  28.259  28.193  1.00  0.00     0.010 A 
ATOM     43  C   UNL A   1      43.420  27.521  29.119  1.00  0.00    -0.014 A 
BRANCH  43  44
ATOM     44  C   UNL A   1      42.803  28.192  30.288  1.00  0.00     0.031 A 
ATOM     45  C   UNL A   1      41.467  28.863  30.122  1.00  0.00     0.074 A 
ATOM     46  C   UNL A   1      43.405  28.176  31.490  1.00  0.00     0.049 A 
ATOM     47  N   UNL A   1      40.767  29.555  30.985  1.00  0.00    -0.248 NA
ATOM     48  C   UNL A   1      40.831  28.735  28.800  1.00  0.00     0.031 C 
ATOM     49  C   UNL A   1      44.673  27.513  31.788  1.00  0.00     0.029 A 
ATOM     50  N   UNL A   1      43.029  28.740  32.682  1.00  0.00    -0.354 N 
ATOM     51  C   UNL A   1      39.621  29.955  30.309  1.00  0.00     0.074 A 
ATOM     52  C   UNL A   1      39.729  29.453  28.958  1.00  0.00     0.031 C 
ATOM     53  C   UNL A   1      44.979  27.721  33.080  1.00  0.00     0.029 A 
ATOM     54  C   UNL A   1      43.948  28.561  33.686  1.00  0.00     0.049 A 
ATOM     55  H   UNL A   1      42.183  29.226  32.806  1.00  0.00     0.167 HD
ATOM     56  C   UNL A   1      38.571  30.670  30.779  1.00  0.00     0.037 A 
ATOM     57  C   UNL A   1      43.966  29.047  34.943  1.00  0.00     0.037 A 
ATOM     58  C   UNL A   1      38.467  31.163  32.128  1.00  0.00     0.049 A 
ATOM     59  C   UNL A   1      42.821  29.905  35.419  1.00  0.00     0.074 A 
ATOM     60  C   UNL A   1      37.438  31.885  32.706  1.00  0.00     0.029 A 
ATOM     61  N   UNL A   1      39.432  30.987  33.108  1.00  0.00    -0.354 N 
ATOM     62  N   UNL A   1      41.735  30.267  34.781  1.00  0.00    -0.248 NA
ATOM     63  C   UNL A   1      42.906  30.420  36.793  1.00  0.00     0.031 C 
ATOM     64  C   UNL A   1      37.805  32.194  34.019  1.00  0.00     0.029 A 
ATOM     65  C   UNL A   1      39.033  31.611  34.280  1.00  0.00     0.049 A 
ATOM     66  H   UNL A   1      40.275  30.493  32.990  1.00  0.00     0.167 HD
ATOM     67  C   UNL A   1      40.992  31.020  35.683  1.00  0.00     0.074 A 
ATOM     68  C   UNL A   1      41.749  31.054  36.917  1.00  0.00     0.031 C 
ATOM     69  C   UNL A   1      39.790  31.623  35.506  1.00  0.00     0.037 A 
BRANCH  56  70
ATOM     70  C   UNL A   1      37.464  30.991  29.817  1.00  0.00     0.064 A 
ATOM     71  C   UNL A   1      36.498  30.042  29.455  1.00  0.00     0.173 A 
ATOM     72  C   UNL A   1      37.347  32.283  29.278  1.00  0.00     0.173 A 
ATOM     73  F   UNL A   1      36.569  28.790  29.932  1.00  0.00    -0.203 F 
ATOM     74  C   UNL A   1      35.472  30.365  28.569  1.00  0.00     0.198 A 
ATOM     75  C   UNL A   1      36.304  32.610  28.416  1.00  0.00     0.198 A 
ATOM     76  F   UNL A   1      38.242  33.231  29.594  1.00  0.00    -0.203 F 
ATOM     77  F   UNL A   1      34.588  29.426  28.199  1.00  0.00    -0.200 F 
ATOM     78  C   UNL A   1      35.372  31.650  28.057  1.00  0.00     0.200 A 
ATOM     79  F   UNL A   1      36.201  33.856  27.934  1.00  0.00    -0.200 F 
ATOM     80  F   UNL A   1      34.380  31.960  27.211  1.00  0.00    -0.200 F 
ENDBRANCH  56  70
BRANCH  57  81
ATOM     81  C   UNL A   1      45.113  28.746  35.838  1.00  0.00     0.064 A 
ATOM     82  C   UNL A   1      45.073  27.666  36.732  1.00  0.00     0.173 A 
ATOM     83  C   UNL A   1      46.266  29.545  35.834  1.00  0.00     0.173 A 
ATOM     84  F   UNL A   1      43.983  26.888  36.791  1.00  0.00    -0.203 F 
ATOM     85  C   UNL A   1      46.134  27.408  37.597  1.00  0.00     0.198 A 
ATOM     86  C   UNL A   1      47.339  29.268  36.680  1.00  0.00     0.198 A 
ATOM     87  F   UNL A   1      46.354  30.593  35.001  1.00  0.00    -0.203 F 
ATOM     88  F   UNL A   1      46.048  26.399  38.475  1.00  0.00    -0.200 F 
ATOM     89  C   UNL A   1      47.268  28.206  37.566  1.00  0.00     0.200 A 
ATOM     90  F   UNL A   1      48.437  30.034  36.637  1.00  0.00    -0.200 F 
ATOM     91  F   UNL A   1      48.289  27.955  38.398  1.00  0.00    -0.200 F 
ENDBRANCH  57  81
BRANCH  69  92
ATOM     92  C   UNL A   1      39.189  32.328  36.689  1.00  0.00     0.064 A 
ATOM     93  C   UNL A   1      39.572  33.627  37.051  1.00  0.00     0.173 A 
ATOM     94  C   UNL A   1      38.175  31.709  37.438  1.00  0.00     0.173 A 
ATOM     95  F   UNL A   1      40.544  34.258  36.375  1.00  0.00    -0.203 F 
ATOM     96  C   UNL A   1      38.981  34.271  38.135  1.00  0.00     0.198 A 
ATOM     97  C   UNL A   1      37.565  32.369  38.501  1.00  0.00     0.198 A 
ATOM     98  F   UNL A   1      37.765  30.470  37.129  1.00  0.00    -0.203 F 
ATOM     99  F   UNL A   1      39.396  35.495  38.493  1.00  0.00    -0.200 F 
ATOM    100  C   UNL A   1      37.974  33.646  38.854  1.00  0.00     0.200 A 
ATOM    101  F   UNL A   1      36.579  31.769  39.183  1.00  0.00    -0.200 F 
ATOM    102  F   UNL A   1      37.399  34.272  39.890  1.00  0.00    -0.200 F 
ENDBRANCH  69  92
ENDBRANCH  43  44
ENDBRANCH  36  38
ENDBRANCH  35  36
ENDBRANCH  34  35
ENDBRANCH  33  34
ENDBRANCH  32  33
ENDBRANCH  31  32
ENDBRANCH  30  31
ENDBRANCH  29  30
ENDBRANCH   1  29
TORSDOF 23
ENDMDL
MODEL 3
REMARK VINA RESULT:      -9.4      2.109      7.478
REMARK SMILES CCCCCCNC(=O)Oc1cccc(-c2ccc([C@H](C)C(=O)OCCOCCOC(=O)c3ccc(-c4c5nc(c(-c6c(F)c(F)c(F)c(F)c6F)c6ccc([nH]6)c(-c6c(F)c(F)c(F)c(F)c6F)c6nc(c(-c7c(F)c(F)c(F)c(F)c7F)c7ccc4[nH]7)C=C6)C=C5)cc3)cc2F)c1
REMARK SMILES IDX 22 1 23 2 20 3 21 4 19 5 16 6 17 7 97 8 18 9 96 10 98 11
REMARK SMILES IDX 15 12 11 13 12 14 99 15 13 16 14 17 10 18 8 19 7 20 9 22
REMARK SMILES IDX 6 23 5 24 4 25 3 26 2 27 1 28 24 29 25 30 26 31 27 32 28 33
REMARK SMILES IDX 29 34 30 35 31 36 32 37 33 38 34 39 95 40 35 41 94 42 36 43
REMARK SMILES IDX 37 44 38 45 88 46 39 47 93 48 87 49 89 50 40 51 92 52 86 53
REMARK SMILES IDX 85 54 41 56 73 57 53 58 72 59 54 60 57 61 71 62 90 63 55 64
REMARK SMILES IDX 56 65 70 67 91 68 58 69 42 70 43 71 51 72 44 73 45 74 49 75
REMARK SMILES IDX 52 76 46 77 47 78 50 79 48 80 74 81 75 82 83 83 76 84 77 85
REMARK SMILES IDX 81 86 84 87 78 88 79 89 82 90 80 91 59 92 60 93 68 94 61 95
REMARK SMILES IDX 62 96 66 97 69 98 63 99 64 100 67 101 65 102
REMARK H PARENT 7 21 89 55 57 66
REMARK Flexibility Score: inf
ROOT
ATOM      1  C   UNL A   1      43.259  23.531  26.751  1.00  0.00     0.313 C 
ATOM      2  O   UNL A   1      43.687  24.609  27.144  1.00  0.00    -0.252 OA
ENDROOT
BRANCH   1   3
ATOM      3  C   UNL A   1      42.343  22.644  27.587  1.00  0.00     0.126 C 
ATOM      4  C   UNL A   1      42.449  22.858  29.097  1.00  0.00     0.025 C 
BRANCH   3   5
ATOM      5  C   UNL A   1      40.907  22.741  27.122  1.00  0.00    -0.031 A 
ATOM      6  C   UNL A   1      38.268  22.916  26.144  1.00  0.00     0.018 A 
ATOM      7  C   UNL A   1      38.845  23.989  26.833  1.00  0.00     0.012 A 
ATOM      8  C   UNL A   1      39.019  21.743  25.993  1.00  0.00     0.131 A 
ATOM      9  C   UNL A   1      40.143  23.899  27.329  1.00  0.00     0.005 A 
ATOM     10  C   UNL A   1      40.321  21.651  26.470  1.00  0.00     0.044 A 
ATOM     11  F   UNL A   1      38.497  20.676  25.369  1.00  0.00    -0.206 F 
BRANCH   6  12
ATOM     12  C   UNL A   1      36.907  23.030  25.628  1.00  0.00    -0.012 A 
ATOM     13  C   UNL A   1      34.908  21.994  24.755  1.00  0.00     0.133 A 
ATOM     14  C   UNL A   1      34.267  23.228  24.685  1.00  0.00     0.047 A 
ATOM     15  C   UNL A   1      36.223  21.890  25.200  1.00  0.00     0.056 A 
ATOM     16  C   UNL A   1      34.943  24.373  25.099  1.00  0.00     0.004 A 
ATOM     17  C   UNL A   1      36.253  24.274  25.572  1.00  0.00     0.009 A 
BRANCH  13  18
ATOM     18  O   UNL A   1      34.231  20.883  24.239  1.00  0.00    -0.410 OA
BRANCH  18  19
ATOM     19  C   UNL A   1      33.236  20.303  25.008  1.00  0.00     0.412 C 
ATOM     20  N   UNL A   1      32.246  19.741  24.259  1.00  0.00    -0.321 N 
ATOM     21  H   UNL A   1      31.484  19.350  24.746  1.00  0.00     0.167 HD
ATOM     22  O   UNL A   1      33.196  20.268  26.238  1.00  0.00    -0.224 OA
BRANCH  20  23
ATOM     23  C   UNL A   1      32.211  19.665  22.813  1.00  0.00     0.119 C 
BRANCH  23  24
ATOM     24  C   UNL A   1      32.256  18.220  22.318  1.00  0.00     0.021 C 
BRANCH  24  25
ATOM     25  C   UNL A   1      32.790  17.210  23.340  1.00  0.00     0.002 C 
BRANCH  25  26
ATOM     26  C   UNL A   1      34.297  16.943  23.269  1.00  0.00    -0.000 C 
BRANCH  26  27
ATOM     27  C   UNL A   1      35.061  17.160  24.576  1.00  0.00    -0.003 C 
ATOM     28  C   UNL A   1      35.350  15.868  25.323  1.00  0.00     0.004 C 
ENDBRANCH  26  27
ENDBRANCH  25  26
ENDBRANCH  24  25
ENDBRANCH  23  24
ENDBRANCH  20  23
ENDBRANCH  18  19
ENDBRANCH  13  18
ENDBRANCH   6  12
ENDBRANCH   3   5
ENDBRANCH   1   3
BRANCH   1  29
ATOM     29  O   UNL A   1      43.587  22.948  25.561  1.00  0.00    -0.463 OA
BRANCH  29  30
ATOM     30  C   UNL A   1      44.597  21.933  25.628  1.00  0.00     0.261 C 
BRANCH  30  31
ATOM     31  C   UNL A   1      45.731  22.169  24.630  1.00  0.00     0.202 C 
BRANCH  31  32
ATOM     32  O   UNL A   1      46.807  23.010  25.030  1.00  0.00    -0.374 OA
BRANCH  32  33
ATOM     33  C   UNL A   1      46.722  24.407  24.764  1.00  0.00     0.202 C 
BRANCH  33  34
ATOM     34  C   UNL A   1      46.400  25.350  25.931  1.00  0.00     0.261 C 
BRANCH  34  35
ATOM     35  O   UNL A   1      46.756  26.722  25.676  1.00  0.00    -0.460 OA
BRANCH  35  36
ATOM     36  C   UNL A   1      45.700  27.572  25.649  1.00  0.00     0.338 C 
ATOM     37  O   UNL A   1      44.976  27.826  24.701  1.00  0.00    -0.246 OA
BRANCH  36  38
ATOM     38  C   UNL A   1      45.398  28.074  27.000  1.00  0.00     0.060 A 
ATOM     39  C   UNL A   1      44.985  27.142  27.961  1.00  0.00     0.016 A 
ATOM     40  C   UNL A   1      45.360  29.442  27.273  1.00  0.00     0.016 A 
ATOM     41  C   UNL A   1      44.473  27.575  29.180  1.00  0.00     0.010 A 
ATOM     42  C   UNL A   1      44.838  29.877  28.497  1.00  0.00     0.010 A 
ATOM     43  C   UNL A   1      44.350  28.948  29.434  1.00  0.00    -0.014 A 
BRANCH  43  44
ATOM     44  C   UNL A   1      43.553  29.403  30.599  1.00  0.00     0.031 A 
ATOM     45  C   UNL A   1      42.114  29.789  30.390  1.00  0.00     0.074 A 
ATOM     46  C   UNL A   1      44.090  29.439  31.831  1.00  0.00     0.049 A 
ATOM     47  N   UNL A   1      41.245  30.266  31.246  1.00  0.00    -0.248 NA
ATOM     48  C   UNL A   1      41.580  29.612  29.030  1.00  0.00     0.031 C 
ATOM     49  C   UNL A   1      45.454  29.038  32.167  1.00  0.00     0.029 A 
ATOM     50  N   UNL A   1      43.549  29.838  33.026  1.00  0.00    -0.354 N 
ATOM     51  C   UNL A   1      40.073  30.459  30.527  1.00  0.00     0.074 A 
ATOM     52  C   UNL A   1      40.345  30.074  29.160  1.00  0.00     0.031 C 
ATOM     53  C   UNL A   1      45.650  29.226  33.484  1.00  0.00     0.029 A 
ATOM     54  C   UNL A   1      44.438  29.794  34.071  1.00  0.00     0.049 A 
ATOM     55  H   UNL A   1      42.614  30.129  33.126  1.00  0.00     0.167 HD
ATOM     56  C   UNL A   1      38.875  30.909  30.971  1.00  0.00     0.037 A 
ATOM     57  C   UNL A   1      44.296  30.195  35.350  1.00  0.00     0.037 A 
ATOM     58  C   UNL A   1      38.608  31.286  32.334  1.00  0.00     0.049 A 
ATOM     59  C   UNL A   1      42.975  30.765  35.802  1.00  0.00     0.074 A 
ATOM     60  C   UNL A   1      37.424  31.741  32.888  1.00  0.00     0.029 A 
ATOM     61  N   UNL A   1      39.543  31.256  33.359  1.00  0.00    -0.354 N 
ATOM     62  N   UNL A   1      41.867  30.931  35.122  1.00  0.00    -0.248 NA
ATOM     63  C   UNL A   1      42.887  31.201  37.203  1.00  0.00     0.031 C 
ATOM     64  C   UNL A   1      37.657  32.039  34.234  1.00  0.00     0.029 A 
ATOM     65  C   UNL A   1      38.969  31.710  34.535  1.00  0.00     0.049 A 
ATOM     66  H   UNL A   1      40.476  30.956  33.263  1.00  0.00     0.167 HD
ATOM     67  C   UNL A   1      40.942  31.455  36.017  1.00  0.00     0.074 A 
ATOM     68  C   UNL A   1      41.618  31.571  37.292  1.00  0.00     0.031 C 
ATOM     69  C   UNL A   1      39.649  31.804  35.802  1.00  0.00     0.037 A 
BRANCH  56  70
ATOM     70  C   UNL A   1      37.769  31.051  29.965  1.00  0.00     0.064 A 
ATOM     71  C   UNL A   1      37.520  32.262  29.303  1.00  0.00     0.173 A 
ATOM     72  C   UNL A   1      36.970  29.945  29.630  1.00  0.00     0.173 A 
ATOM     73  F   UNL A   1      38.245  33.352  29.594  1.00  0.00    -0.203 F 
ATOM     74  C   UNL A   1      36.495  32.368  28.365  1.00  0.00     0.198 A 
ATOM     75  C   UNL A   1      35.967  30.048  28.671  1.00  0.00     0.198 A 
ATOM     76  F   UNL A   1      37.169  28.762  30.230  1.00  0.00    -0.203 F 
ATOM     77  F   UNL A   1      36.244  33.550  27.781  1.00  0.00    -0.200 F 
ATOM     78  C   UNL A   1      35.726  31.260  28.044  1.00  0.00     0.200 A 
ATOM     79  F   UNL A   1      35.235  28.972  28.351  1.00  0.00    -0.200 F 
ATOM     80  F   UNL A   1      34.746  31.364  27.136  1.00  0.00    -0.200 F 
ENDBRANCH  56  70
BRANCH  57  81
ATOM     81  C   UNL A   1      45.439  30.086  36.293  1.00  0.00     0.064 A 
ATOM     82  C   UNL A   1      46.388  31.113  36.405  1.00  0.00     0.173 A 
ATOM     83  C   UNL A   1      45.618  28.944  37.088  1.00  0.00     0.173 A 
ATOM     84  F   UNL A   1      46.274  32.213  35.647  1.00  0.00    -0.203 F 
ATOM     85  C   UNL A   1      47.481  30.993  37.262  1.00  0.00     0.198 A 
ATOM     86  C   UNL A   1      46.695  28.839  37.967  1.00  0.00     0.198 A 
ATOM     87  F   UNL A   1      44.741  27.932  37.017  1.00  0.00    -0.203 F 
ATOM     88  F   UNL A   1      48.398  31.969  37.311  1.00  0.00    -0.200 F 
ATOM     89  C   UNL A   1      47.630  29.859  38.046  1.00  0.00     0.200 A 
ATOM     90  F   UNL A   1      46.828  27.747  38.731  1.00  0.00    -0.200 F 
ATOM     91  F   UNL A   1      48.680  29.747  38.871  1.00  0.00    -0.200 F 
ENDBRANCH  57  81
BRANCH  69  92
ATOM     92  C   UNL A   1      38.859  32.295  36.982  1.00  0.00     0.064 A 
ATOM     93  C   UNL A   1      37.929  31.480  37.642  1.00  0.00     0.173 A 
ATOM     94  C   UNL A   1      39.077  33.587  37.489  1.00  0.00     0.173 A 
ATOM     95  F   UNL A   1      37.674  30.243  37.190  1.00  0.00    -0.203 F 
ATOM     96  C   UNL A   1      37.227  31.949  38.750  1.00  0.00     0.198 A 
ATOM     97  C   UNL A   1      38.398  34.039  38.615  1.00  0.00     0.198 A 
ATOM     98  F   UNL A   1      39.962  34.404  36.900  1.00  0.00    -0.203 F 
ATOM     99  F   UNL A   1      36.307  31.170  39.337  1.00  0.00    -0.200 F 
ATOM    100  C   UNL A   1      37.467  33.223  39.240  1.00  0.00     0.200 A 
ATOM    101  F   UNL A   1      38.645  35.266  39.098  1.00  0.00    -0.200 F 
ATOM    102  F   UNL A   1      36.799  33.668  40.314  1.00  0.00    -0.200 F 
ENDBRANCH  69  92
ENDBRANCH  43  44
ENDBRANCH  36  38
ENDBRANCH  35  36
ENDBRANCH  34  35
ENDBRANCH  33  34
ENDBRANCH  32  33
ENDBRANCH  31  32
ENDBRANCH  30  31
ENDBRANCH  29  30
ENDBRANCH   1  29
TORSDOF 23
ENDMDL
