MODEL 1
REMARK VINA RESULT:     -11.8      0.000      0.000
REMARK SMILES O=C(CCc1nc(-c2ccccc2)c(-c2ccccc2)o1)OCCOCCOC(=O)c1ccc(-c2c3nc(c(-c4c(F)c(F)c(F)c(F)c4F)c4ccc([nH]4)c(-c4c(F)c(F)c(F)c(F)c4F)c4nc(c(-c5c(F)c(F)c(F)c(F)c5F)c5ccc2[nH]5)C=C4)C=C3)cc1
REMARK SMILES IDX 24 1 23 2 22 3 2 4 1 5 3 6 4 7 5 8 6 9 21 10 7 11 14 12 8 13
REMARK SMILES IDX 9 14 13 15 10 16 12 17 11 18 15 19 16 20 20 21 17 22 19 23
REMARK SMILES IDX 18 24 25 25 26 26 27 27 28 28 29 29 30 30 31 31 32 32 93 33
REMARK SMILES IDX 33 34 92 35 34 36 35 37 36 38 86 39 37 40 91 41 85 42 87 43
REMARK SMILES IDX 38 44 90 45 84 46 83 47 39 49 71 50 51 51 70 52 52 53 55 54
REMARK SMILES IDX 69 55 88 56 53 57 54 58 68 60 89 61 56 62 40 63 41 64 49 65
REMARK SMILES IDX 42 66 43 67 47 68 50 69 44 70 45 71 48 72 46 73 72 74 73 75
REMARK SMILES IDX 81 76 74 77 75 78 79 79 82 80 76 81 77 82 80 83 78 84 57 85
REMARK SMILES IDX 58 86 66 87 59 88 60 89 64 90 67 91 61 92 62 93 65 94 63 95
REMARK H PARENT 87 48 55 59
REMARK Flexibility Score: inf
ROOT
ATOM      1  C   UNL A   1      34.493  21.593  25.996  1.00  0.00     0.202 C 
ENDROOT
BRANCH   1   2
ATOM      2  C   UNL A   1      33.470  22.353  25.155  1.00  0.00     0.261 C 
BRANCH   2   3
ATOM      3  O   UNL A   1      33.451  22.026  23.768  1.00  0.00    -0.463 OA
BRANCH   3   4
ATOM      4  C   UNL A   1      33.740  22.962  22.837  1.00  0.00     0.306 C 
ATOM      5  O   UNL A   1      34.882  23.410  22.754  1.00  0.00    -0.252 OA
BRANCH   4   6
ATOM      6  C   UNL A   1      32.617  23.544  22.011  1.00  0.00     0.132 C 
BRANCH   6   7
ATOM      7  C   UNL A   1      32.927  24.880  21.351  1.00  0.00     0.109 C 
BRANCH   7   8
ATOM      8  C   UNL A   1      32.562  26.067  22.179  1.00  0.00     0.196 A 
ATOM      9  N   UNL A   1      33.129  26.547  23.275  1.00  0.00    -0.213 NA
ATOM     10  O   UNL A   1      31.402  26.700  21.824  1.00  0.00    -0.440 OA
ATOM     11  C   UNL A   1      32.243  27.511  23.716  1.00  0.00     0.117 A 
ATOM     12  C   UNL A   1      31.223  27.646  22.792  1.00  0.00     0.162 A 
BRANCH  11  13
ATOM     13  C   UNL A   1      32.307  28.204  25.000  1.00  0.00     0.004 A 
ATOM     14  C   UNL A   1      33.136  29.331  25.159  1.00  0.00     0.010 A 
ATOM     15  C   UNL A   1      31.578  27.757  26.104  1.00  0.00     0.010 A 
ATOM     16  C   UNL A   1      33.327  29.920  26.409  1.00  0.00     0.001 A 
ATOM     17  C   UNL A   1      31.741  28.371  27.354  1.00  0.00     0.001 A 
ATOM     18  C   UNL A   1      32.633  29.433  27.511  1.00  0.00     0.000 A 
ENDBRANCH  11  13
BRANCH  12  19
ATOM     19  C   UNL A   1      30.054  28.494  22.683  1.00  0.00     0.020 A 
ATOM     20  C   UNL A   1      30.108  29.702  21.978  1.00  0.00     0.012 A 
ATOM     21  C   UNL A   1      28.821  28.037  23.170  1.00  0.00     0.012 A 
ATOM     22  C   UNL A   1      28.938  30.427  21.745  1.00  0.00     0.001 A 
ATOM     23  C   UNL A   1      27.655  28.761  22.935  1.00  0.00     0.001 A 
ATOM     24  C   UNL A   1      27.713  29.953  22.217  1.00  0.00     0.000 A 
ENDBRANCH  12  19
ENDBRANCH   7   8
ENDBRANCH   6   7
ENDBRANCH   4   6
ENDBRANCH   3   4
ENDBRANCH   2   3
ENDBRANCH   1   2
BRANCH   1  25
ATOM     25  O   UNL A   1      35.834  21.523  25.533  1.00  0.00    -0.374 OA
BRANCH  25  26
ATOM     26  C   UNL A   1      36.244  20.259  25.010  1.00  0.00     0.202 C 
BRANCH  26  27
ATOM     27  C   UNL A   1      37.764  20.051  24.956  1.00  0.00     0.261 C 
BRANCH  27  28
ATOM     28  O   UNL A   1      38.485  21.214  25.408  1.00  0.00    -0.460 OA
BRANCH  28  29
ATOM     29  C   UNL A   1      39.535  20.957  26.228  1.00  0.00     0.338 C 
ATOM     30  O   UNL A   1      40.101  19.887  26.391  1.00  0.00    -0.246 OA
BRANCH  29  31
ATOM     31  C   UNL A   1      40.076  22.232  26.759  1.00  0.00     0.060 A 
ATOM     32  C   UNL A   1      39.598  23.417  26.188  1.00  0.00     0.016 A 
ATOM     33  C   UNL A   1      41.017  22.281  27.791  1.00  0.00     0.016 A 
ATOM     34  C   UNL A   1      40.102  24.646  26.607  1.00  0.00     0.010 A 
ATOM     35  C   UNL A   1      41.528  23.521  28.203  1.00  0.00     0.010 A 
ATOM     36  C   UNL A   1      41.093  24.709  27.589  1.00  0.00    -0.014 A 
BRANCH  36  37
ATOM     37  C   UNL A   1      41.826  25.987  27.772  1.00  0.00     0.031 A 
ATOM     38  C   UNL A   1      41.152  27.075  28.563  1.00  0.00     0.074 A 
ATOM     39  C   UNL A   1      43.089  26.161  27.342  1.00  0.00     0.049 A 
ATOM     40  N   UNL A   1      41.545  28.297  28.809  1.00  0.00    -0.248 NA
ATOM     41  C   UNL A   1      39.859  26.723  29.173  1.00  0.00     0.031 C 
ATOM     42  C   UNL A   1      43.904  25.150  26.672  1.00  0.00     0.029 A 
ATOM     43  N   UNL A   1      43.909  27.263  27.409  1.00  0.00    -0.354 N 
ATOM     44  C   UNL A   1      40.542  28.864  29.583  1.00  0.00     0.074 A 
ATOM     45  C   UNL A   1      39.518  27.858  29.760  1.00  0.00     0.031 C 
ATOM     46  C   UNL A   1      45.102  25.685  26.374  1.00  0.00     0.029 A 
ATOM     47  C   UNL A   1      45.120  27.088  26.787  1.00  0.00     0.049 A 
ATOM     48  H   UNL A   1      43.652  28.098  27.863  1.00  0.00     0.167 HD
ATOM     49  C   UNL A   1      40.478  30.114  30.100  1.00  0.00     0.037 A 
ATOM     50  C   UNL A   1      46.108  27.974  26.544  1.00  0.00     0.037 A 
ATOM     51  C   UNL A   1      41.496  31.116  29.923  1.00  0.00     0.049 A 
ATOM     52  C   UNL A   1      45.959  29.400  27.023  1.00  0.00     0.074 A 
ATOM     53  C   UNL A   1      41.511  32.419  30.385  1.00  0.00     0.029 A 
ATOM     54  N   UNL A   1      42.675  30.925  29.219  1.00  0.00    -0.354 N 
ATOM     55  N   UNL A   1      44.995  29.945  27.724  1.00  0.00    -0.248 NA
ATOM     56  C   UNL A   1      47.038  30.336  26.670  1.00  0.00     0.031 C 
ATOM     57  C   UNL A   1      42.672  33.036  29.909  1.00  0.00     0.029 A 
ATOM     58  C   UNL A   1      43.413  32.097  29.211  1.00  0.00     0.049 A 
ATOM     59  H   UNL A   1      42.948  30.081  28.791  1.00  0.00     0.167 HD
ATOM     60  C   UNL A   1      45.364  31.271  27.924  1.00  0.00     0.074 A 
ATOM     61  C   UNL A   1      46.648  31.446  27.280  1.00  0.00     0.031 C 
ATOM     62  C   UNL A   1      44.700  32.255  28.579  1.00  0.00     0.037 A 
BRANCH  49  63
ATOM     63  C   UNL A   1      39.234  30.484  30.851  1.00  0.00     0.064 A 
ATOM     64  C   UNL A   1      38.108  31.022  30.211  1.00  0.00     0.173 A 
ATOM     65  C   UNL A   1      39.167  30.286  32.240  1.00  0.00     0.173 A 
ATOM     66  F   UNL A   1      38.129  31.252  28.889  1.00  0.00    -0.203 F 
ATOM     67  C   UNL A   1      36.972  31.372  30.935  1.00  0.00     0.198 A 
ATOM     68  C   UNL A   1      38.019  30.606  32.956  1.00  0.00     0.198 A 
ATOM     69  F   UNL A   1      40.218  29.776  32.900  1.00  0.00    -0.203 F 
ATOM     70  F   UNL A   1      35.928  31.936  30.311  1.00  0.00    -0.200 F 
ATOM     71  C   UNL A   1      36.925  31.158  32.305  1.00  0.00     0.200 A 
ATOM     72  F   UNL A   1      37.973  30.387  34.276  1.00  0.00    -0.200 F 
ATOM     73  F   UNL A   1      35.830  31.491  33.001  1.00  0.00    -0.200 F 
ENDBRANCH  49  63
BRANCH  50  74
ATOM     74  C   UNL A   1      47.310  27.567  25.763  1.00  0.00     0.064 A 
ATOM     75  C   UNL A   1      48.469  27.096  26.399  1.00  0.00     0.173 A 
ATOM     76  C   UNL A   1      47.344  27.694  24.366  1.00  0.00     0.173 A 
ATOM     77  F   UNL A   1      48.502  26.986  27.735  1.00  0.00    -0.203 F 
ATOM     78  C   UNL A   1      49.618  26.791  25.670  1.00  0.00     0.198 A 
ATOM     79  C   UNL A   1      48.482  27.357  23.636  1.00  0.00     0.198 A 
ATOM     80  F   UNL A   1      46.268  28.150  23.707  1.00  0.00    -0.203 F 
ATOM     81  F   UNL A   1      50.729  26.400  26.309  1.00  0.00    -0.200 F 
ATOM     82  C   UNL A   1      49.621  26.916  24.289  1.00  0.00     0.200 A 
ATOM     83  F   UNL A   1      48.476  27.469  22.301  1.00  0.00    -0.200 F 
ATOM     84  F   UNL A   1      50.726  26.622  23.590  1.00  0.00    -0.200 F 
ENDBRANCH  50  74
BRANCH  62  85
ATOM     85  C   UNL A   1      45.367  33.599  28.687  1.00  0.00     0.064 A 
ATOM     86  C   UNL A   1      45.133  34.621  27.754  1.00  0.00     0.173 A 
ATOM     87  C   UNL A   1      46.214  33.883  29.770  1.00  0.00     0.173 A 
ATOM     88  F   UNL A   1      44.341  34.400  26.694  1.00  0.00    -0.203 F 
ATOM     89  C   UNL A   1      45.745  35.865  27.887  1.00  0.00     0.198 A 
ATOM     90  C   UNL A   1      46.795  35.139  29.919  1.00  0.00     0.198 A 
ATOM     91  F   UNL A   1      46.464  32.946  30.697  1.00  0.00    -0.203 F 
ATOM     92  F   UNL A   1      45.548  36.809  26.955  1.00  0.00    -0.200 F 
ATOM     93  C   UNL A   1      46.568  36.126  28.972  1.00  0.00     0.200 A 
ATOM     94  F   UNL A   1      47.574  35.394  30.979  1.00  0.00    -0.200 F 
ATOM     95  F   UNL A   1      47.147  37.328  29.104  1.00  0.00    -0.200 F 
ENDBRANCH  62  85
ENDBRANCH  36  37
ENDBRANCH  29  31
ENDBRANCH  28  29
ENDBRANCH  27  28
ENDBRANCH  26  27
ENDBRANCH  25  26
ENDBRANCH   1  25
TORSDOF 18
ENDMDL
MODEL 2
REMARK VINA RESULT:     -11.8      4.455     10.274
REMARK SMILES O=C(CCc1nc(-c2ccccc2)c(-c2ccccc2)o1)OCCOCCOC(=O)c1ccc(-c2c3nc(c(-c4c(F)c(F)c(F)c(F)c4F)c4ccc([nH]4)c(-c4c(F)c(F)c(F)c(F)c4F)c4nc(c(-c5c(F)c(F)c(F)c(F)c5F)c5ccc2[nH]5)C=C4)C=C3)cc1
REMARK SMILES IDX 24 1 23 2 22 3 2 4 1 5 3 6 4 7 5 8 6 9 21 10 7 11 14 12 8 13
REMARK SMILES IDX 9 14 13 15 10 16 12 17 11 18 15 19 16 20 20 21 17 22 19 23
REMARK SMILES IDX 18 24 25 25 26 26 27 27 28 28 29 29 30 30 31 31 32 32 93 33
REMARK SMILES IDX 33 34 92 35 34 36 35 37 36 38 86 39 37 40 91 41 85 42 87 43
REMARK SMILES IDX 38 44 90 45 84 46 83 47 39 49 71 50 51 51 70 52 52 53 55 54
REMARK SMILES IDX 69 55 88 56 53 57 54 58 68 60 89 61 56 62 40 63 41 64 49 65
REMARK SMILES IDX 42 66 43 67 47 68 50 69 44 70 45 71 48 72 46 73 72 74 73 75
REMARK SMILES IDX 81 76 74 77 75 78 79 79 82 80 76 81 77 82 80 83 78 84 57 85
REMARK SMILES IDX 58 86 66 87 59 88 60 89 64 90 67 91 61 92 62 93 65 94 63 95
REMARK H PARENT 87 48 55 59
REMARK Flexibility Score: inf
ROOT
ATOM      1  C   UNL A   1      33.352  27.830  24.554  1.00  0.00     0.202 C 
ENDROOT
BRANCH   1   2
ATOM      2  C   UNL A   1      32.100  27.000  24.284  1.00  0.00     0.261 C 
BRANCH   2   3
ATOM      3  O   UNL A   1      31.534  26.353  25.421  1.00  0.00    -0.463 OA
BRANCH   3   4
ATOM      4  C   UNL A   1      30.757  25.257  25.272  1.00  0.00     0.306 C 
ATOM      5  O   UNL A   1      30.335  24.953  24.158  1.00  0.00    -0.252 OA
BRANCH   4   6
ATOM      6  C   UNL A   1      30.304  24.508  26.503  1.00  0.00     0.132 C 
BRANCH   6   7
ATOM      7  C   UNL A   1      30.122  23.009  26.315  1.00  0.00     0.109 C 
BRANCH   7   8
ATOM      8  C   UNL A   1      31.381  22.280  25.984  1.00  0.00     0.196 A 
ATOM      9  N   UNL A   1      32.625  22.725  25.897  1.00  0.00    -0.213 NA
ATOM     10  O   UNL A   1      31.224  20.974  25.605  1.00  0.00    -0.440 OA
ATOM     11  C   UNL A   1      33.323  21.665  25.350  1.00  0.00     0.117 A 
ATOM     12  C   UNL A   1      32.477  20.577  25.234  1.00  0.00     0.162 A 
BRANCH  11  13
ATOM     13  C   UNL A   1      34.701  21.710  24.869  1.00  0.00     0.004 A 
ATOM     14  C   UNL A   1      35.644  20.767  25.321  1.00  0.00     0.010 A 
ATOM     15  C   UNL A   1      35.127  22.697  23.978  1.00  0.00     0.010 A 
ATOM     16  C   UNL A   1      36.995  20.877  24.993  1.00  0.00     0.001 A 
ATOM     17  C   UNL A   1      36.480  22.786  23.617  1.00  0.00     0.001 A 
ATOM     18  C   UNL A   1      37.414  21.894  24.143  1.00  0.00     0.000 A 
ENDBRANCH  11  13
BRANCH  12  19
ATOM     19  C   UNL A   1      32.632  19.211  24.777  1.00  0.00     0.020 A 
ATOM     20  C   UNL A   1      32.652  18.912  23.410  1.00  0.00     0.012 A 
ATOM     21  C   UNL A   1      32.902  18.197  25.707  1.00  0.00     0.012 A 
ATOM     22  C   UNL A   1      32.963  17.620  22.984  1.00  0.00     0.001 A 
ATOM     23  C   UNL A   1      33.213  16.910  25.280  1.00  0.00     0.001 A 
ATOM     24  C   UNL A   1      33.250  16.622  23.918  1.00  0.00     0.000 A 
ENDBRANCH  12  19
ENDBRANCH   7   8
ENDBRANCH   6   7
ENDBRANCH   4   6
ENDBRANCH   3   4
ENDBRANCH   2   3
ENDBRANCH   1   2
BRANCH   1  25
ATOM     25  O   UNL A   1      33.207  29.227  24.767  1.00  0.00    -0.374 OA
BRANCH  25  26
ATOM     26  C   UNL A   1      31.863  29.710  24.811  1.00  0.00     0.202 C 
BRANCH  26  27
ATOM     27  C   UNL A   1      31.559  30.651  25.985  1.00  0.00     0.261 C 
BRANCH  27  28
ATOM     28  O   UNL A   1      32.544  30.544  27.032  1.00  0.00    -0.460 OA
BRANCH  28  29
ATOM     29  C   UNL A   1      33.227  31.686  27.299  1.00  0.00     0.338 C 
ATOM     30  O   UNL A   1      32.792  32.828  27.283  1.00  0.00    -0.246 OA
BRANCH  29  31
ATOM     31  C   UNL A   1      34.562  31.351  27.848  1.00  0.00     0.060 A 
ATOM     32  C   UNL A   1      34.786  30.020  28.219  1.00  0.00     0.016 A 
ATOM     33  C   UNL A   1      35.578  32.299  27.994  1.00  0.00     0.016 A 
ATOM     34  C   UNL A   1      36.002  29.649  28.788  1.00  0.00     0.010 A 
ATOM     35  C   UNL A   1      36.798  31.922  28.577  1.00  0.00     0.010 A 
ATOM     36  C   UNL A   1      37.003  30.599  29.004  1.00  0.00    -0.014 A 
BRANCH  36  37
ATOM     37  C   UNL A   1      38.136  30.241  29.895  1.00  0.00     0.031 A 
ATOM     38  C   UNL A   1      39.180  29.300  29.358  1.00  0.00     0.074 A 
ATOM     39  C   UNL A   1      38.302  30.798  31.108  1.00  0.00     0.049 A 
ATOM     40  N   UNL A   1      40.223  28.781  29.951  1.00  0.00    -0.248 NA
ATOM     41  C   UNL A   1      39.028  28.903  27.949  1.00  0.00     0.031 C 
ATOM     42  C   UNL A   1      37.436  31.815  31.700  1.00  0.00     0.029 A 
ATOM     43  N   UNL A   1      39.268  30.583  32.062  1.00  0.00    -0.354 N 
ATOM     44  C   UNL A   1      40.839  27.985  28.995  1.00  0.00     0.074 A 
ATOM     45  C   UNL A   1      40.050  28.079  27.787  1.00  0.00     0.031 C 
ATOM     46  C   UNL A   1      37.900  32.122  32.926  1.00  0.00     0.029 A 
ATOM     47  C   UNL A   1      39.066  31.288  33.223  1.00  0.00     0.049 A 
ATOM     48  H   UNL A   1      40.035  29.980  31.925  1.00  0.00     0.167 HD
ATOM     49  C   UNL A   1      41.962  27.238  29.113  1.00  0.00     0.037 A 
ATOM     50  C   UNL A   1      39.722  31.233  34.400  1.00  0.00     0.037 A 
ATOM     51  C   UNL A   1      42.746  27.142  30.316  1.00  0.00     0.049 A 
ATOM     52  C   UNL A   1      40.900  30.298  34.548  1.00  0.00     0.074 A 
ATOM     53  C   UNL A   1      43.886  26.392  30.543  1.00  0.00     0.029 A 
ATOM     54  N   UNL A   1      42.465  27.813  31.496  1.00  0.00    -0.354 N 
ATOM     55  N   UNL A   1      41.460  29.518  33.655  1.00  0.00    -0.248 NA
ATOM     56  C   UNL A   1      41.534  30.231  35.874  1.00  0.00     0.031 C 
ATOM     57  C   UNL A   1      44.259  26.561  31.881  1.00  0.00     0.029 A 
ATOM     58  C   UNL A   1      43.394  27.472  32.465  1.00  0.00     0.049 A 
ATOM     59  H   UNL A   1      41.717  28.440  31.626  1.00  0.00     0.167 HD
ATOM     60  C   UNL A   1      42.526  28.898  34.298  1.00  0.00     0.074 A 
ATOM     61  C   UNL A   1      42.543  29.401  35.654  1.00  0.00     0.031 C 
ATOM     62  C   UNL A   1      43.410  27.992  33.809  1.00  0.00     0.037 A 
BRANCH  49  63
ATOM     63  C   UNL A   1      42.369  26.415  27.927  1.00  0.00     0.064 A 
ATOM     64  C   UNL A   1      41.852  25.132  27.697  1.00  0.00     0.173 A 
ATOM     65  C   UNL A   1      43.288  26.930  26.999  1.00  0.00     0.173 A 
ATOM     66  F   UNL A   1      40.988  24.586  28.566  1.00  0.00    -0.203 F 
ATOM     67  C   UNL A   1      42.260  24.384  26.596  1.00  0.00     0.198 A 
ATOM     68  C   UNL A   1      43.668  26.193  25.882  1.00  0.00     0.198 A 
ATOM     69  F   UNL A   1      43.813  28.151  27.174  1.00  0.00    -0.203 F 
ATOM     70  F   UNL A   1      41.796  23.138  26.425  1.00  0.00    -0.200 F 
ATOM     71  C   UNL A   1      43.161  24.917  25.686  1.00  0.00     0.200 A 
ATOM     72  F   UNL A   1      44.530  26.715  24.999  1.00  0.00    -0.200 F 
ATOM     73  F   UNL A   1      43.550  24.197  24.624  1.00  0.00    -0.200 F 
ENDBRANCH  49  63
BRANCH  50  74
ATOM     74  C   UNL A   1      39.259  32.045  35.560  1.00  0.00     0.064 A 
ATOM     75  C   UNL A   1      39.774  33.326  35.808  1.00  0.00     0.173 A 
ATOM     76  C   UNL A   1      38.330  31.532  36.478  1.00  0.00     0.173 A 
ATOM     77  F   UNL A   1      40.690  33.851  34.980  1.00  0.00    -0.203 F 
ATOM     78  C   UNL A   1      39.396  34.049  36.938  1.00  0.00     0.198 A 
ATOM     79  C   UNL A   1      37.927  32.270  37.589  1.00  0.00     0.198 A 
ATOM     80  F   UNL A   1      37.813  30.308  36.297  1.00  0.00    -0.203 F 
ATOM     81  F   UNL A   1      39.950  35.246  37.181  1.00  0.00    -0.200 F 
ATOM     82  C   UNL A   1      38.468  33.524  37.824  1.00  0.00     0.200 A 
ATOM     83  F   UNL A   1      37.022  31.761  38.436  1.00  0.00    -0.200 F 
ATOM     84  F   UNL A   1      38.105  34.220  38.910  1.00  0.00    -0.200 F 
ENDBRANCH  50  74
BRANCH  62  85
ATOM     85  C   UNL A   1      44.508  27.522  34.724  1.00  0.00     0.064 A 
ATOM     86  C   UNL A   1      45.724  28.211  34.841  1.00  0.00     0.173 A 
ATOM     87  C   UNL A   1      44.317  26.390  35.533  1.00  0.00     0.173 A 
ATOM     88  F   UNL A   1      45.963  29.292  34.083  1.00  0.00    -0.203 F 
ATOM     89  C   UNL A   1      46.718  27.769  35.711  1.00  0.00     0.198 A 
ATOM     90  C   UNL A   1      45.297  25.972  36.428  1.00  0.00     0.198 A 
ATOM     91  F   UNL A   1      43.169  25.699  35.469  1.00  0.00    -0.203 F 
ATOM     92  F   UNL A   1      47.892  28.413  35.767  1.00  0.00    -0.200 F 
ATOM     93  C   UNL A   1      46.501  26.655  36.510  1.00  0.00     0.200 A 
ATOM     94  F   UNL A   1      45.078  24.908  37.212  1.00  0.00    -0.200 F 
ATOM     95  F   UNL A   1      47.454  26.238  37.355  1.00  0.00    -0.200 F 
ENDBRANCH  62  85
ENDBRANCH  36  37
ENDBRANCH  29  31
ENDBRANCH  28  29
ENDBRANCH  27  28
ENDBRANCH  26  27
ENDBRANCH  25  26
ENDBRANCH   1  25
TORSDOF 18
ENDMDL
MODEL 3
REMARK VINA RESULT:     -11.8      0.597      7.196
REMARK SMILES O=C(CCc1nc(-c2ccccc2)c(-c2ccccc2)o1)OCCOCCOC(=O)c1ccc(-c2c3nc(c(-c4c(F)c(F)c(F)c(F)c4F)c4ccc([nH]4)c(-c4c(F)c(F)c(F)c(F)c4F)c4nc(c(-c5c(F)c(F)c(F)c(F)c5F)c5ccc2[nH]5)C=C4)C=C3)cc1
REMARK SMILES IDX 24 1 23 2 22 3 2 4 1 5 3 6 4 7 5 8 6 9 21 10 7 11 14 12 8 13
REMARK SMILES IDX 9 14 13 15 10 16 12 17 11 18 15 19 16 20 20 21 17 22 19 23
REMARK SMILES IDX 18 24 25 25 26 26 27 27 28 28 29 29 30 30 31 31 32 32 93 33
REMARK SMILES IDX 33 34 92 35 34 36 35 37 36 38 86 39 37 40 91 41 85 42 87 43
REMARK SMILES IDX 38 44 90 45 84 46 83 47 39 49 71 50 51 51 70 52 52 53 55 54
REMARK SMILES IDX 69 55 88 56 53 57 54 58 68 60 89 61 56 62 40 63 41 64 49 65
REMARK SMILES IDX 42 66 43 67 47 68 50 69 44 70 45 71 48 72 46 73 72 74 73 75
REMARK SMILES IDX 81 76 74 77 75 78 79 79 82 80 76 81 77 82 80 83 78 84 57 85
REMARK SMILES IDX 58 86 66 87 59 88 60 89 64 90 67 91 61 92 62 93 65 94 63 95
REMARK H PARENT 87 48 55 59
REMARK Flexibility Score: inf
ROOT
ATOM      1  C   UNL A   1      34.711  21.423  25.816  1.00  0.00     0.202 C 
ENDROOT
BRANCH   1   2
ATOM      2  C   UNL A   1      33.604  22.197  25.103  1.00  0.00     0.261 C 
BRANCH   2   3
ATOM      3  O   UNL A   1      33.523  21.996  23.694  1.00  0.00    -0.463 OA
BRANCH   3   4
ATOM      4  C   UNL A   1      33.765  23.014  22.840  1.00  0.00     0.306 C 
ATOM      5  O   UNL A   1      34.862  23.570  22.845  1.00  0.00    -0.252 OA
BRANCH   4   6
ATOM      6  C   UNL A   1      32.632  23.545  21.992  1.00  0.00     0.132 C 
BRANCH   6   7
ATOM      7  C   UNL A   1      32.897  24.889  21.329  1.00  0.00     0.109 C 
BRANCH   7   8
ATOM      8  C   UNL A   1      32.471  26.064  22.144  1.00  0.00     0.196 A 
ATOM      9  N   UNL A   1      32.995  26.565  23.252  1.00  0.00    -0.213 NA
ATOM     10  O   UNL A   1      31.299  26.655  21.759  1.00  0.00    -0.440 OA
ATOM     11  C   UNL A   1      32.065  27.500  23.669  1.00  0.00     0.117 A 
ATOM     12  C   UNL A   1      31.064  27.597  22.720  1.00  0.00     0.162 A 
BRANCH  11  13
ATOM     13  C   UNL A   1      32.074  28.197  24.951  1.00  0.00     0.004 A 
ATOM     14  C   UNL A   1      31.930  27.478  26.154  1.00  0.00     0.010 A 
ATOM     15  C   UNL A   1      32.196  29.587  25.021  1.00  0.00     0.010 A 
ATOM     16  C   UNL A   1      31.789  28.133  27.378  1.00  0.00     0.001 A 
ATOM     17  C   UNL A   1      32.091  30.244  26.256  1.00  0.00     0.001 A 
ATOM     18  C   UNL A   1      31.863  29.520  27.427  1.00  0.00     0.000 A 
ENDBRANCH  11  13
BRANCH  12  19
ATOM     19  C   UNL A   1      29.869  28.403  22.580  1.00  0.00     0.020 A 
ATOM     20  C   UNL A   1      28.651  27.980  23.125  1.00  0.00     0.012 A 
ATOM     21  C   UNL A   1      29.960  29.683  22.013  1.00  0.00     0.012 A 
ATOM     22  C   UNL A   1      27.550  28.837  23.123  1.00  0.00     0.001 A 
ATOM     23  C   UNL A   1      28.862  30.538  22.014  1.00  0.00     0.001 A 
ATOM     24  C   UNL A   1      27.658  30.117  22.575  1.00  0.00     0.000 A 
ENDBRANCH  12  19
ENDBRANCH   7   8
ENDBRANCH   6   7
ENDBRANCH   4   6
ENDBRANCH   3   4
ENDBRANCH   2   3
ENDBRANCH   1   2
BRANCH   1  25
ATOM     25  O   UNL A   1      35.984  21.332  25.192  1.00  0.00    -0.374 OA
BRANCH  25  26
ATOM     26  C   UNL A   1      36.487  20.009  25.001  1.00  0.00     0.202 C 
BRANCH  26  27
ATOM     27  C   UNL A   1      38.019  19.901  24.998  1.00  0.00     0.261 C 
BRANCH  27  28
ATOM     28  O   UNL A   1      38.647  21.121  25.438  1.00  0.00    -0.460 OA
BRANCH  28  29
ATOM     29  C   UNL A   1      39.720  20.954  26.253  1.00  0.00     0.338 C 
ATOM     30  O   UNL A   1      40.404  19.950  26.376  1.00  0.00    -0.246 OA
BRANCH  29  31
ATOM     31  C   UNL A   1      40.110  22.260  26.836  1.00  0.00     0.060 A 
ATOM     32  C   UNL A   1      39.388  23.386  26.426  1.00  0.00     0.016 A 
ATOM     33  C   UNL A   1      41.146  22.392  27.766  1.00  0.00     0.016 A 
ATOM     34  C   UNL A   1      39.736  24.649  26.898  1.00  0.00     0.010 A 
ATOM     35  C   UNL A   1      41.499  23.668  28.231  1.00  0.00     0.010 A 
ATOM     36  C   UNL A   1      40.813  24.807  27.774  1.00  0.00    -0.014 A 
BRANCH  36  37
ATOM     37  C   UNL A   1      41.351  26.173  27.994  1.00  0.00     0.031 A 
ATOM     38  C   UNL A   1      42.727  26.478  27.470  1.00  0.00     0.074 A 
ATOM     39  C   UNL A   1      40.617  27.154  28.551  1.00  0.00     0.049 A 
ATOM     40  N   UNL A   1      43.447  27.563  27.588  1.00  0.00    -0.248 NA
ATOM     41  C   UNL A   1      43.372  25.408  26.691  1.00  0.00     0.031 C 
ATOM     42  C   UNL A   1      39.229  27.031  28.989  1.00  0.00     0.029 A 
ATOM     43  N   UNL A   1      40.948  28.457  28.841  1.00  0.00    -0.354 N 
ATOM     44  C   UNL A   1      44.633  27.300  26.916  1.00  0.00     0.074 A 
ATOM     45  C   UNL A   1      44.543  25.952  26.401  1.00  0.00     0.031 C 
ATOM     46  C   UNL A   1      38.832  28.207  29.510  1.00  0.00     0.029 A 
ATOM     47  C   UNL A   1      39.952  29.148  29.487  1.00  0.00     0.049 A 
ATOM     48  H   UNL A   1      41.816  28.857  28.606  1.00  0.00     0.167 HD
ATOM     49  C   UNL A   1      45.704  28.110  26.746  1.00  0.00     0.037 A 
ATOM     50  C   UNL A   1      39.963  30.383  30.031  1.00  0.00     0.037 A 
ATOM     51  C   UNL A   1      45.795  29.451  27.260  1.00  0.00     0.049 A 
ATOM     52  C   UNL A   1      41.215  31.223  29.937  1.00  0.00     0.074 A 
ATOM     53  C   UNL A   1      46.849  30.341  27.162  1.00  0.00     0.029 A 
ATOM     54  N   UNL A   1      44.794  30.089  27.976  1.00  0.00    -0.354 N 
ATOM     55  N   UNL A   1      42.349  30.960  29.333  1.00  0.00    -0.248 NA
ATOM     56  C   UNL A   1      41.190  32.532  30.607  1.00  0.00     0.031 C 
ATOM     57  C   UNL A   1      46.510  31.497  27.873  1.00  0.00     0.029 A 
ATOM     58  C   UNL A   1      45.218  31.354  28.352  1.00  0.00     0.049 A 
ATOM     59  H   UNL A   1      43.914  29.702  28.186  1.00  0.00     0.167 HD
ATOM     60  C   UNL A   1      43.155  32.078  29.521  1.00  0.00     0.074 A 
ATOM     61  C   UNL A   1      42.376  33.028  30.284  1.00  0.00     0.031 C 
ATOM     62  C   UNL A   1      44.426  32.298  29.100  1.00  0.00     0.037 A 
BRANCH  49  63
ATOM     63  C   UNL A   1      46.890  27.539  26.026  1.00  0.00     0.064 A 
ATOM     64  C   UNL A   1      47.034  27.632  24.634  1.00  0.00     0.173 A 
ATOM     65  C   UNL A   1      47.906  26.893  26.750  1.00  0.00     0.173 A 
ATOM     66  F   UNL A   1      46.081  28.220  23.895  1.00  0.00    -0.203 F 
ATOM     67  C   UNL A   1      48.138  27.078  23.991  1.00  0.00     0.198 A 
ATOM     68  C   UNL A   1      49.023  26.371  26.107  1.00  0.00     0.198 A 
ATOM     69  F   UNL A   1      47.815  26.776  28.083  1.00  0.00    -0.203 F 
ATOM     70  F   UNL A   1      48.228  27.131  22.654  1.00  0.00    -0.200 F 
ATOM     71  C   UNL A   1      49.134  26.455  24.727  1.00  0.00     0.200 A 
ATOM     72  F   UNL A   1      49.989  25.779  26.823  1.00  0.00    -0.200 F 
ATOM     73  F   UNL A   1      50.198  25.926  24.107  1.00  0.00    -0.200 F 
ENDBRANCH  49  63
BRANCH  50  74
ATOM     74  C   UNL A   1      38.772  30.892  30.766  1.00  0.00     0.064 A 
ATOM     75  C   UNL A   1      38.641  30.724  32.153  1.00  0.00     0.173 A 
ATOM     76  C   UNL A   1      37.711  31.510  30.086  1.00  0.00     0.173 A 
ATOM     77  F   UNL A   1      39.611  30.111  32.847  1.00  0.00    -0.203 F 
ATOM     78  C   UNL A   1      37.489  31.132  32.824  1.00  0.00     0.198 A 
ATOM     79  C   UNL A   1      36.574  31.947  30.763  1.00  0.00     0.198 A 
ATOM     80  F   UNL A   1      37.776  31.686  28.758  1.00  0.00    -0.203 F 
ATOM     81  F   UNL A   1      37.366  30.904  34.139  1.00  0.00    -0.200 F 
ATOM     82  C   UNL A   1      36.459  31.748  32.130  1.00  0.00     0.200 A 
ATOM     83  F   UNL A   1      35.587  32.552  30.089  1.00  0.00    -0.200 F 
ATOM     84  F   UNL A   1      35.353  32.140  32.775  1.00  0.00    -0.200 F 
ENDBRANCH  50  74
BRANCH  62  85
ATOM     85  C   UNL A   1      45.043  33.636  29.404  1.00  0.00     0.064 A 
ATOM     86  C   UNL A   1      45.790  33.861  30.570  1.00  0.00     0.173 A 
ATOM     87  C   UNL A   1      44.925  34.693  28.488  1.00  0.00     0.173 A 
ATOM     88  F   UNL A   1      45.925  32.889  31.485  1.00  0.00    -0.203 F 
ATOM     89  C   UNL A   1      46.371  35.102  30.820  1.00  0.00     0.198 A 
ATOM     90  C   UNL A   1      45.537  35.921  28.723  1.00  0.00     0.198 A 
ATOM     91  F   UNL A   1      44.230  34.530  27.352  1.00  0.00    -0.203 F 
ATOM     92  F   UNL A   1      47.036  35.311  31.965  1.00  0.00    -0.200 F 
ATOM     93  C   UNL A   1      46.252  36.128  29.893  1.00  0.00     0.200 A 
ATOM     94  F   UNL A   1      45.437  36.903  27.817  1.00  0.00    -0.200 F 
ATOM     95  F   UNL A   1      46.821  37.318  30.130  1.00  0.00    -0.200 F 
ENDBRANCH  62  85
ENDBRANCH  36  37
ENDBRANCH  29  31
ENDBRANCH  28  29
ENDBRANCH  27  28
ENDBRANCH  26  27
ENDBRANCH  25  26
ENDBRANCH   1  25
TORSDOF 18
ENDMDL
