MODEL 1
REMARK VINA RESULT:      -8.8      0.000      0.000
REMARK SMILES CSC[C@H](C(=O)OCCOCCOC(=O)c1ccc(-c2c3nc(c(-c4c(F)c(F)c(F)c(F)c4F)c4ccc([nH]4)c(-c4c(F)c(F)c(F)c(F)c4F)c4nc(c(-c5c(F)c(F)c(F)c(F)c5F)c5ccc2[nH]5)C=C4)C=C3)cc1)c1ccccc1
REMARK SMILES IDX 10 1 9 2 8 3 7 4 5 5 6 6 4 7 3 8 2 9 1 10 79 11 80 12 84 13
REMARK SMILES IDX 81 14 83 15 82 16 11 17 12 18 13 19 14 20 15 21 16 22 17 23
REMARK SMILES IDX 78 24 18 25 77 26 19 27 20 28 21 29 71 30 22 31 76 32 70 33
REMARK SMILES IDX 72 34 23 35 75 36 69 37 68 38 24 40 56 41 36 42 55 43 37 44
REMARK SMILES IDX 40 45 54 46 73 47 38 48 39 49 53 51 74 52 41 53 25 54 26 55
REMARK SMILES IDX 34 56 27 57 28 58 32 59 35 60 29 61 30 62 33 63 31 64 57 65
REMARK SMILES IDX 58 66 66 67 59 68 60 69 64 70 67 71 61 72 62 73 65 74 63 75
REMARK SMILES IDX 42 76 43 77 51 78 44 79 45 80 49 81 52 82 46 83 47 84 50 85
REMARK SMILES IDX 48 86
REMARK H PARENT 72 39 40 50
REMARK Flexibility Score: inf
ROOT
ATOM      1  O   UNL A   1      42.266  20.201  26.702  1.00  0.00    -0.374 OA
ENDROOT
BRANCH   1   2
ATOM      2  C   UNL A   1      43.136  19.389  25.919  1.00  0.00     0.202 C 
BRANCH   2   3
ATOM      3  C   UNL A   1      44.078  20.139  24.972  1.00  0.00     0.261 C 
BRANCH   3   4
ATOM      4  O   UNL A   1      44.597  21.353  25.553  1.00  0.00    -0.463 OA
BRANCH   4   5
ATOM      5  C   UNL A   1      43.987  22.514  25.172  1.00  0.00     0.314 C 
ATOM      6  O   UNL A   1      43.171  22.609  24.261  1.00  0.00    -0.252 OA
BRANCH   5   7
ATOM      7  C   UNL A   1      44.519  23.727  25.935  1.00  0.00     0.139 C 
BRANCH   7   8
ATOM      8  C   UNL A   1      44.116  25.024  25.204  1.00  0.00     0.089 C 
BRANCH   8   9
ATOM      9  S   UNL A   1      45.302  26.420  25.369  1.00  0.00    -0.164 SA
ATOM     10  C   UNL A   1      46.871  25.537  25.166  1.00  0.00     0.085 C 
ENDBRANCH   8   9
ENDBRANCH   7   8
BRANCH   7  11
ATOM     11  C   UNL A   1      44.165  23.678  27.428  1.00  0.00    -0.033 A 
ATOM     12  C   UNL A   1      45.146  23.830  28.423  1.00  0.00     0.004 A 
ATOM     13  C   UNL A   1      42.861  23.354  27.852  1.00  0.00     0.004 A 
ATOM     14  C   UNL A   1      44.825  23.719  29.781  1.00  0.00     0.000 A 
ATOM     15  C   UNL A   1      42.540  23.244  29.207  1.00  0.00     0.000 A 
ATOM     16  C   UNL A   1      43.521  23.434  30.172  1.00  0.00     0.000 A 
ENDBRANCH   7  11
ENDBRANCH   5   7
ENDBRANCH   4   5
ENDBRANCH   3   4
ENDBRANCH   2   3
ENDBRANCH   1   2
BRANCH   1  17
ATOM     17  C   UNL A   1      40.898  20.263  26.300  1.00  0.00     0.202 C 
BRANCH  17  18
ATOM     18  C   UNL A   1      40.112  21.465  26.836  1.00  0.00     0.261 C 
BRANCH  18  19
ATOM     19  O   UNL A   1      39.597  22.287  25.768  1.00  0.00    -0.460 OA
BRANCH  19  20
ATOM     20  C   UNL A   1      38.677  23.204  26.143  1.00  0.00     0.338 C 
ATOM     21  O   UNL A   1      37.459  23.110  26.089  1.00  0.00    -0.246 OA
BRANCH  20  22
ATOM     22  C   UNL A   1      39.341  24.338  26.808  1.00  0.00     0.060 A 
ATOM     23  C   UNL A   1      39.029  24.580  28.152  1.00  0.00     0.016 A 
ATOM     24  C   UNL A   1      40.177  25.207  26.105  1.00  0.00     0.016 A 
ATOM     25  C   UNL A   1      39.532  25.711  28.793  1.00  0.00     0.010 A 
ATOM     26  C   UNL A   1      40.671  26.348  26.748  1.00  0.00     0.010 A 
ATOM     27  C   UNL A   1      40.333  26.618  28.086  1.00  0.00    -0.014 A 
BRANCH  27  28
ATOM     28  C   UNL A   1      40.738  27.895  28.723  1.00  0.00     0.031 A 
ATOM     29  C   UNL A   1      42.158  28.077  29.180  1.00  0.00     0.074 A 
ATOM     30  C   UNL A   1      39.847  28.890  28.877  1.00  0.00     0.049 A 
ATOM     31  N   UNL A   1      42.706  29.092  29.799  1.00  0.00    -0.248 NA
ATOM     32  C   UNL A   1      43.084  26.970  28.900  1.00  0.00     0.031 C 
ATOM     33  C   UNL A   1      38.455  28.848  28.438  1.00  0.00     0.029 A 
ATOM     34  N   UNL A   1      39.983  30.128  29.456  1.00  0.00    -0.354 N 
ATOM     35  C   UNL A   1      44.037  28.748  29.984  1.00  0.00     0.074 A 
ATOM     36  C   UNL A   1      44.211  27.420  29.434  1.00  0.00     0.031 C 
ATOM     37  C   UNL A   1      37.857  30.002  28.780  1.00  0.00     0.029 A 
ATOM     38  C   UNL A   1      38.815  30.847  29.491  1.00  0.00     0.049 A 
ATOM     39  H   UNL A   1      40.836  30.466  29.812  1.00  0.00     0.167 HD
ATOM     40  C   UNL A   1      45.026  29.476  30.557  1.00  0.00     0.037 A 
ATOM     41  C   UNL A   1      38.542  32.037  30.059  1.00  0.00     0.037 A 
ATOM     42  C   UNL A   1      44.852  30.797  31.103  1.00  0.00     0.049 A 
ATOM     43  C   UNL A   1      39.638  32.786  30.772  1.00  0.00     0.074 A 
ATOM     44  C   UNL A   1      45.803  31.631  31.662  1.00  0.00     0.029 A 
ATOM     45  N   UNL A   1      43.642  31.470  31.169  1.00  0.00    -0.354 N 
ATOM     46  N   UNL A   1      40.902  32.470  30.912  1.00  0.00    -0.248 NA
ATOM     47  C   UNL A   1      39.266  34.057  31.414  1.00  0.00     0.031 C 
ATOM     48  C   UNL A   1      45.159  32.787  32.118  1.00  0.00     0.029 A 
ATOM     49  C   UNL A   1      43.814  32.692  31.799  1.00  0.00     0.049 A 
ATOM     50  H   UNL A   1      42.786  31.130  30.820  1.00  0.00     0.167 HD
ATOM     51  C   UNL A   1      41.477  33.502  31.641  1.00  0.00     0.074 A 
ATOM     52  C   UNL A   1      40.429  34.467  31.900  1.00  0.00     0.031 C 
ATOM     53  C   UNL A   1      42.760  33.639  32.060  1.00  0.00     0.037 A 
BRANCH  40  54
ATOM     54  C   UNL A   1      46.387  28.853  30.647  1.00  0.00     0.064 A 
ATOM     55  C   UNL A   1      46.758  28.048  31.735  1.00  0.00     0.173 A 
ATOM     56  C   UNL A   1      47.312  29.021  29.607  1.00  0.00     0.173 A 
ATOM     57  F   UNL A   1      45.911  27.866  32.759  1.00  0.00    -0.203 F 
ATOM     58  C   UNL A   1      48.014  27.449  31.785  1.00  0.00     0.198 A 
ATOM     59  C   UNL A   1      48.559  28.401  29.650  1.00  0.00     0.198 A 
ATOM     60  F   UNL A   1      47.004  29.777  28.542  1.00  0.00    -0.203 F 
ATOM     61  F   UNL A   1      48.361  26.712  32.850  1.00  0.00    -0.200 F 
ATOM     62  C   UNL A   1      48.910  27.620  30.740  1.00  0.00     0.200 A 
ATOM     63  F   UNL A   1      49.419  28.557  28.633  1.00  0.00    -0.200 F 
ATOM     64  F   UNL A   1      50.114  27.035  30.786  1.00  0.00    -0.200 F 
ENDBRANCH  40  54
BRANCH  41  65
ATOM     65  C   UNL A   1      37.161  32.581  30.011  1.00  0.00     0.064 A 
ATOM     66  C   UNL A   1      36.222  32.266  31.003  1.00  0.00     0.173 A 
ATOM     67  C   UNL A   1      36.748  33.418  28.963  1.00  0.00     0.173 A 
ATOM     68  F   UNL A   1      36.562  31.447  32.009  1.00  0.00    -0.203 F 
ATOM     69  C   UNL A   1      34.920  32.757  30.941  1.00  0.00     0.198 A 
ATOM     70  C   UNL A   1      35.454  33.931  28.918  1.00  0.00     0.198 A 
ATOM     71  F   UNL A   1      37.607  33.744  27.985  1.00  0.00    -0.203 F 
ATOM     72  F   UNL A   1      34.029  32.405  31.879  1.00  0.00    -0.200 F 
ATOM     73  C   UNL A   1      34.539  33.593  29.903  1.00  0.00     0.200 A 
ATOM     74  F   UNL A   1      35.095  34.748  27.918  1.00  0.00    -0.200 F 
ATOM     75  F   UNL A   1      33.287  34.069  29.847  1.00  0.00    -0.200 F 
ENDBRANCH  41  65
BRANCH  53  76
ATOM     76  C   UNL A   1      43.104  34.873  32.840  1.00  0.00     0.064 A 
ATOM     77  C   UNL A   1      43.472  36.064  32.197  1.00  0.00     0.173 A 
ATOM     78  C   UNL A   1      43.020  34.880  34.240  1.00  0.00     0.173 A 
ATOM     79  F   UNL A   1      43.583  36.102  30.861  1.00  0.00    -0.203 F 
ATOM     80  C   UNL A   1      43.757  37.214  32.929  1.00  0.00     0.198 A 
ATOM     81  C   UNL A   1      43.278  36.039  34.968  1.00  0.00     0.198 A 
ATOM     82  F   UNL A   1      42.667  33.768  34.903  1.00  0.00    -0.203 F 
ATOM     83  F   UNL A   1      44.142  38.330  32.297  1.00  0.00    -0.200 F 
ATOM     84  C   UNL A   1      43.652  37.203  34.312  1.00  0.00     0.200 A 
ATOM     85  F   UNL A   1      43.166  36.030  36.303  1.00  0.00    -0.200 F 
ATOM     86  F   UNL A   1      43.917  38.312  35.014  1.00  0.00    -0.200 F 
ENDBRANCH  53  76
ENDBRANCH  27  28
ENDBRANCH  20  22
ENDBRANCH  19  20
ENDBRANCH  18  19
ENDBRANCH  17  18
ENDBRANCH   1  17
TORSDOF 17
ENDMDL
MODEL 2
REMARK VINA RESULT:      -8.8      0.876      2.385
REMARK SMILES CSC[C@H](C(=O)OCCOCCOC(=O)c1ccc(-c2c3nc(c(-c4c(F)c(F)c(F)c(F)c4F)c4ccc([nH]4)c(-c4c(F)c(F)c(F)c(F)c4F)c4nc(c(-c5c(F)c(F)c(F)c(F)c5F)c5ccc2[nH]5)C=C4)C=C3)cc1)c1ccccc1
REMARK SMILES IDX 10 1 9 2 8 3 7 4 5 5 6 6 4 7 3 8 2 9 1 10 79 11 80 12 84 13
REMARK SMILES IDX 81 14 83 15 82 16 11 17 12 18 13 19 14 20 15 21 16 22 17 23
REMARK SMILES IDX 78 24 18 25 77 26 19 27 20 28 21 29 71 30 22 31 76 32 70 33
REMARK SMILES IDX 72 34 23 35 75 36 69 37 68 38 24 40 56 41 36 42 55 43 37 44
REMARK SMILES IDX 40 45 54 46 73 47 38 48 39 49 53 51 74 52 41 53 25 54 26 55
REMARK SMILES IDX 34 56 27 57 28 58 32 59 35 60 29 61 30 62 33 63 31 64 57 65
REMARK SMILES IDX 58 66 66 67 59 68 60 69 64 70 67 71 61 72 62 73 65 74 63 75
REMARK SMILES IDX 42 76 43 77 51 78 44 79 45 80 49 81 52 82 46 83 47 84 50 85
REMARK SMILES IDX 48 86
REMARK H PARENT 72 39 40 50
REMARK Flexibility Score: inf
ROOT
ATOM      1  O   UNL A   1      42.628  19.681  26.453  1.00  0.00    -0.374 OA
ENDROOT
BRANCH   1   2
ATOM      2  C   UNL A   1      43.541  19.433  25.388  1.00  0.00     0.202 C 
BRANCH   2   3
ATOM      3  C   UNL A   1      44.272  20.659  24.835  1.00  0.00     0.261 C 
BRANCH   3   4
ATOM      4  O   UNL A   1      43.519  21.878  25.007  1.00  0.00    -0.463 OA
BRANCH   4   5
ATOM      5  C   UNL A   1      44.222  23.044  24.896  1.00  0.00     0.314 C 
ATOM      6  O   UNL A   1      45.004  23.305  23.988  1.00  0.00    -0.252 OA
BRANCH   5   7
ATOM      7  C   UNL A   1      44.019  23.961  26.101  1.00  0.00     0.139 C 
BRANCH   7   8
ATOM      8  C   UNL A   1      44.324  23.192  27.403  1.00  0.00     0.089 C 
BRANCH   8   9
ATOM      9  S   UNL A   1      42.912  23.032  28.570  1.00  0.00    -0.164 SA
ATOM     10  C   UNL A   1      43.762  23.307  30.146  1.00  0.00     0.085 C 
ENDBRANCH   8   9
ENDBRANCH   7   8
BRANCH   7  11
ATOM     11  C   UNL A   1      44.752  25.302  25.943  1.00  0.00    -0.033 A 
ATOM     12  C   UNL A   1      46.042  25.501  26.464  1.00  0.00     0.004 A 
ATOM     13  C   UNL A   1      44.104  26.418  25.378  1.00  0.00     0.004 A 
ATOM     14  C   UNL A   1      46.677  26.744  26.373  1.00  0.00     0.000 A 
ATOM     15  C   UNL A   1      44.738  27.659  25.286  1.00  0.00     0.000 A 
ATOM     16  C   UNL A   1      46.028  27.821  25.777  1.00  0.00     0.000 A 
ENDBRANCH   7  11
ENDBRANCH   5   7
ENDBRANCH   4   5
ENDBRANCH   3   4
ENDBRANCH   2   3
ENDBRANCH   1   2
BRANCH   1  17
ATOM     17  C   UNL A   1      41.240  19.718  26.123  1.00  0.00     0.202 C 
BRANCH  17  18
ATOM     18  C   UNL A   1      40.418  20.777  26.868  1.00  0.00     0.261 C 
BRANCH  18  19
ATOM     19  O   UNL A   1      40.532  22.076  26.250  1.00  0.00    -0.460 OA
BRANCH  19  20
ATOM     20  C   UNL A   1      39.375  22.770  26.157  1.00  0.00     0.338 C 
ATOM     21  O   UNL A   1      38.287  22.365  25.773  1.00  0.00    -0.246 OA
BRANCH  20  22
ATOM     22  C   UNL A   1      39.542  24.107  26.751  1.00  0.00     0.060 A 
ATOM     23  C   UNL A   1      40.299  25.046  26.040  1.00  0.00     0.016 A 
ATOM     24  C   UNL A   1      39.052  24.405  28.024  1.00  0.00     0.016 A 
ATOM     25  C   UNL A   1      40.593  26.283  26.612  1.00  0.00     0.010 A 
ATOM     26  C   UNL A   1      39.358  25.643  28.601  1.00  0.00     0.010 A 
ATOM     27  C   UNL A   1      40.149  26.578  27.909  1.00  0.00    -0.014 A 
BRANCH  27  28
ATOM     28  C   UNL A   1      40.593  27.828  28.572  1.00  0.00     0.031 A 
ATOM     29  C   UNL A   1      42.021  27.964  29.019  1.00  0.00     0.074 A 
ATOM     30  C   UNL A   1      39.729  28.842  28.759  1.00  0.00     0.049 A 
ATOM     31  N   UNL A   1      42.601  28.950  29.657  1.00  0.00    -0.248 NA
ATOM     32  C   UNL A   1      42.916  26.841  28.703  1.00  0.00     0.031 C 
ATOM     33  C   UNL A   1      38.331  28.845  28.333  1.00  0.00     0.029 A 
ATOM     34  N   UNL A   1      39.901  30.061  29.366  1.00  0.00    -0.354 N 
ATOM     35  C   UNL A   1      43.924  28.567  29.820  1.00  0.00     0.074 A 
ATOM     36  C   UNL A   1      44.059  27.249  29.236  1.00  0.00     0.031 C 
ATOM     37  C   UNL A   1      37.766  30.005  28.708  1.00  0.00     0.029 A 
ATOM     38  C   UNL A   1      38.752  30.809  29.430  1.00  0.00     0.049 A 
ATOM     39  H   UNL A   1      40.766  30.369  29.722  1.00  0.00     0.167 HD
ATOM     40  C   UNL A   1      44.937  29.257  30.400  1.00  0.00     0.037 A 
ATOM     41  C   UNL A   1      38.516  31.991  30.029  1.00  0.00     0.037 A 
ATOM     42  C   UNL A   1      44.802  30.567  30.979  1.00  0.00     0.049 A 
ATOM     43  C   UNL A   1      39.636  32.695  30.748  1.00  0.00     0.074 A 
ATOM     44  C   UNL A   1      45.779  31.364  31.549  1.00  0.00     0.029 A 
ATOM     45  N   UNL A   1      43.609  31.269  31.073  1.00  0.00    -0.354 N 
ATOM     46  N   UNL A   1      40.894  32.344  30.868  1.00  0.00    -0.248 NA
ATOM     47  C   UNL A   1      39.303  33.958  31.424  1.00  0.00     0.031 C 
ATOM     48  C   UNL A   1      45.169  32.524  32.038  1.00  0.00     0.029 A 
ATOM     49  C   UNL A   1      43.819  32.471  31.731  1.00  0.00     0.049 A 
ATOM     50  H   UNL A   1      42.742  30.960  30.725  1.00  0.00     0.167 HD
ATOM     51  C   UNL A   1      41.502  33.343  31.615  1.00  0.00     0.074 A 
ATOM     52  C   UNL A   1      40.481  34.327  31.908  1.00  0.00     0.031 C 
ATOM     53  C   UNL A   1      42.791  33.437  32.025  1.00  0.00     0.037 A 
BRANCH  40  54
ATOM     54  C   UNL A   1      46.282  28.597  30.461  1.00  0.00     0.064 A 
ATOM     55  C   UNL A   1      47.246  28.795  29.462  1.00  0.00     0.173 A 
ATOM     56  C   UNL A   1      46.629  27.799  31.561  1.00  0.00     0.173 A 
ATOM     57  F   UNL A   1      46.958  29.542  28.386  1.00  0.00    -0.203 F 
ATOM     58  C   UNL A   1      48.503  28.202  29.553  1.00  0.00     0.198 A 
ATOM     59  C   UNL A   1      47.895  27.227  31.661  1.00  0.00     0.198 A 
ATOM     60  F   UNL A   1      45.744  27.583  32.547  1.00  0.00    -0.203 F 
ATOM     61  F   UNL A   1      49.397  28.376  28.570  1.00  0.00    -0.200 F 
ATOM     62  C   UNL A   1      48.829  27.425  30.655  1.00  0.00     0.200 A 
ATOM     63  F   UNL A   1      48.212  26.486  32.732  1.00  0.00    -0.200 F 
ATOM     64  F   UNL A   1      50.041  26.863  30.746  1.00  0.00    -0.200 F 
ENDBRANCH  40  54
BRANCH  41  65
ATOM     65  C   UNL A   1      37.148  32.570  30.008  1.00  0.00     0.064 A 
ATOM     66  C   UNL A   1      36.758  33.475  29.011  1.00  0.00     0.173 A 
ATOM     67  C   UNL A   1      36.206  32.238  30.994  1.00  0.00     0.173 A 
ATOM     68  F   UNL A   1      37.633  33.844  28.064  1.00  0.00    -0.203 F 
ATOM     69  C   UNL A   1      35.483  34.036  29.009  1.00  0.00     0.198 A 
ATOM     70  C   UNL A   1      34.922  32.779  30.975  1.00  0.00     0.198 A 
ATOM     71  F   UNL A   1      36.532  31.382  31.974  1.00  0.00    -0.203 F 
ATOM     72  F   UNL A   1      35.150  34.932  28.070  1.00  0.00    -0.200 F 
ATOM     73  C   UNL A   1      34.565  33.683  29.986  1.00  0.00     0.200 A 
ATOM     74  F   UNL A   1      34.036  32.425  31.915  1.00  0.00    -0.200 F 
ATOM     75  F   UNL A   1      33.337  34.220  29.981  1.00  0.00    -0.200 F 
ENDBRANCH  41  65
BRANCH  53  76
ATOM     76  C   UNL A   1      43.175  34.643  32.831  1.00  0.00     0.064 A 
ATOM     77  C   UNL A   1      43.509  35.857  32.214  1.00  0.00     0.173 A 
ATOM     78  C   UNL A   1      43.160  34.600  34.233  1.00  0.00     0.173 A 
ATOM     79  F   UNL A   1      43.554  35.943  30.876  1.00  0.00    -0.203 F 
ATOM     80  C   UNL A   1      43.831  36.980  32.972  1.00  0.00     0.198 A 
ATOM     81  C   UNL A   1      43.454  35.732  34.988  1.00  0.00     0.198 A 
ATOM     82  F   UNL A   1      42.840  33.463  34.872  1.00  0.00    -0.203 F 
ATOM     83  F   UNL A   1      44.184  38.119  32.361  1.00  0.00    -0.200 F 
ATOM     84  C   UNL A   1      43.795  36.919  34.357  1.00  0.00     0.200 A 
ATOM     85  F   UNL A   1      43.409  35.675  36.326  1.00  0.00    -0.200 F 
ATOM     86  F   UNL A   1      44.095  38.003  35.084  1.00  0.00    -0.200 F 
ENDBRANCH  53  76
ENDBRANCH  27  28
ENDBRANCH  20  22
ENDBRANCH  19  20
ENDBRANCH  18  19
ENDBRANCH  17  18
ENDBRANCH   1  17
TORSDOF 17
ENDMDL
MODEL 3
REMARK VINA RESULT:      -8.7      3.997      9.791
REMARK SMILES CSC[C@H](C(=O)OCCOCCOC(=O)c1ccc(-c2c3nc(c(-c4c(F)c(F)c(F)c(F)c4F)c4ccc([nH]4)c(-c4c(F)c(F)c(F)c(F)c4F)c4nc(c(-c5c(F)c(F)c(F)c(F)c5F)c5ccc2[nH]5)C=C4)C=C3)cc1)c1ccccc1
REMARK SMILES IDX 10 1 9 2 8 3 7 4 5 5 6 6 4 7 3 8 2 9 1 10 79 11 80 12 84 13
REMARK SMILES IDX 81 14 83 15 82 16 11 17 12 18 13 19 14 20 15 21 16 22 17 23
REMARK SMILES IDX 78 24 18 25 77 26 19 27 20 28 21 29 71 30 22 31 76 32 70 33
REMARK SMILES IDX 72 34 23 35 75 36 69 37 68 38 24 40 56 41 36 42 55 43 37 44
REMARK SMILES IDX 40 45 54 46 73 47 38 48 39 49 53 51 74 52 41 53 25 54 26 55
REMARK SMILES IDX 34 56 27 57 28 58 32 59 35 60 29 61 30 62 33 63 31 64 57 65
REMARK SMILES IDX 58 66 66 67 59 68 60 69 64 70 67 71 61 72 62 73 65 74 63 75
REMARK SMILES IDX 42 76 43 77 51 78 44 79 45 80 49 81 52 82 46 83 47 84 50 85
REMARK SMILES IDX 48 86
REMARK H PARENT 72 39 40 50
REMARK Flexibility Score: inf
ROOT
ATOM      1  O   UNL A   1      38.704  21.597  26.031  1.00  0.00    -0.374 OA
ENDROOT
BRANCH   1   2
ATOM      2  C   UNL A   1      37.641  22.498  25.734  1.00  0.00     0.202 C 
BRANCH   2   3
ATOM      3  C   UNL A   1      36.246  21.875  25.631  1.00  0.00     0.261 C 
BRANCH   3   4
ATOM      4  O   UNL A   1      35.728  21.896  24.284  1.00  0.00    -0.463 OA
BRANCH   4   5
ATOM      5  C   UNL A   1      34.377  22.056  24.159  1.00  0.00     0.314 C 
ATOM      6  O   UNL A   1      33.835  22.971  23.549  1.00  0.00    -0.252 OA
BRANCH   5   7
ATOM      7  C   UNL A   1      33.593  21.023  24.968  1.00  0.00     0.139 C 
BRANCH   7   8
ATOM      8  C   UNL A   1      32.220  21.601  25.366  1.00  0.00     0.089 C 
BRANCH   8   9
ATOM      9  S   UNL A   1      32.268  22.951  26.615  1.00  0.00    -0.164 SA
ATOM     10  C   UNL A   1      33.365  22.209  27.851  1.00  0.00     0.085 C 
ENDBRANCH   8   9
ENDBRANCH   7   8
BRANCH   7  11
ATOM     11  C   UNL A   1      33.553  19.651  24.279  1.00  0.00    -0.033 A 
ATOM     12  C   UNL A   1      32.533  19.311  23.374  1.00  0.00     0.004 A 
ATOM     13  C   UNL A   1      34.470  18.640  24.626  1.00  0.00     0.004 A 
ATOM     14  C   UNL A   1      32.467  18.037  22.800  1.00  0.00     0.000 A 
ATOM     15  C   UNL A   1      34.406  17.368  24.052  1.00  0.00     0.000 A 
ATOM     16  C   UNL A   1      33.408  17.068  23.133  1.00  0.00     0.000 A 
ENDBRANCH   7  11
ENDBRANCH   5   7
ENDBRANCH   4   5
ENDBRANCH   3   4
ENDBRANCH   2   3
ENDBRANCH   1   2
BRANCH   1  17
ATOM     17  C   UNL A   1      38.688  20.332  25.371  1.00  0.00     0.202 C 
BRANCH  17  18
ATOM     18  C   UNL A   1      39.564  19.248  26.010  1.00  0.00     0.261 C 
BRANCH  18  19
ATOM     19  O   UNL A   1      40.857  19.162  25.376  1.00  0.00    -0.460 OA
BRANCH  19  20
ATOM     20  C   UNL A   1      41.914  19.285  26.211  1.00  0.00     0.338 C 
ATOM     21  O   UNL A   1      42.696  18.414  26.564  1.00  0.00    -0.246 OA
BRANCH  20  22
ATOM     22  C   UNL A   1      42.124  20.703  26.550  1.00  0.00     0.060 A 
ATOM     23  C   UNL A   1      42.265  21.611  25.494  1.00  0.00     0.016 A 
ATOM     24  C   UNL A   1      42.277  21.121  27.873  1.00  0.00     0.016 A 
ATOM     25  C   UNL A   1      42.588  22.942  25.755  1.00  0.00     0.010 A 
ATOM     26  C   UNL A   1      42.614  22.455  28.133  1.00  0.00     0.010 A 
ATOM     27  C   UNL A   1      42.794  23.365  27.076  1.00  0.00    -0.014 A 
BRANCH  27  28
ATOM     28  C   UNL A   1      43.288  24.739  27.340  1.00  0.00     0.031 A 
ATOM     29  C   UNL A   1      42.354  25.763  27.921  1.00  0.00     0.074 A 
ATOM     30  C   UNL A   1      44.566  25.063  27.079  1.00  0.00     0.049 A 
ATOM     31  N   UNL A   1      42.570  27.027  28.184  1.00  0.00    -0.248 NA
ATOM     32  C   UNL A   1      40.998  25.301  28.251  1.00  0.00     0.031 C 
ATOM     33  C   UNL A   1      45.576  24.147  26.554  1.00  0.00     0.029 A 
ATOM     34  N   UNL A   1      45.229  26.259  27.211  1.00  0.00    -0.354 N 
ATOM     35  C   UNL A   1      41.381  27.512  28.708  1.00  0.00     0.074 A 
ATOM     36  C   UNL A   1      40.438  26.414  28.704  1.00  0.00     0.031 C 
ATOM     37  C   UNL A   1      46.729  24.818  26.391  1.00  0.00     0.029 A 
ATOM     38  C   UNL A   1      46.527  26.217  26.767  1.00  0.00     0.049 A 
ATOM     39  H   UNL A   1      44.812  27.067  27.587  1.00  0.00     0.167 HD
ATOM     40  C   UNL A   1      41.103  28.761  29.157  1.00  0.00     0.037 A 
ATOM     41  C   UNL A   1      47.437  27.202  26.648  1.00  0.00     0.037 A 
ATOM     42  C   UNL A   1      42.042  29.852  29.161  1.00  0.00     0.049 A 
ATOM     43  C   UNL A   1      47.073  28.603  27.068  1.00  0.00     0.074 A 
ATOM     44  C   UNL A   1      41.866  31.139  29.636  1.00  0.00     0.029 A 
ATOM     45  N   UNL A   1      43.330  29.785  28.652  1.00  0.00    -0.354 N 
ATOM     46  N   UNL A   1      45.959  29.046  27.595  1.00  0.00    -0.248 NA
ATOM     47  C   UNL A   1      48.094  29.643  26.867  1.00  0.00     0.031 C 
ATOM     48  C   UNL A   1      43.030  31.868  29.366  1.00  0.00     0.029 A 
ATOM     49  C   UNL A   1      43.947  31.022  28.764  1.00  0.00     0.049 A 
ATOM     50  H   UNL A   1      43.746  28.980  28.269  1.00  0.00     0.167 HD
ATOM     51  C   UNL A   1      46.146  30.406  27.802  1.00  0.00     0.074 A 
ATOM     52  C   UNL A   1      47.490  30.715  27.361  1.00  0.00     0.031 C 
ATOM     53  C   UNL A   1      45.282  31.319  28.311  1.00  0.00     0.037 A 
BRANCH  40  54
ATOM     54  C   UNL A   1      39.716  29.026  29.661  1.00  0.00     0.064 A 
ATOM     55  C   UNL A   1      39.377  28.854  31.011  1.00  0.00     0.173 A 
ATOM     56  C   UNL A   1      38.727  29.509  28.791  1.00  0.00     0.173 A 
ATOM     57  F   UNL A   1      40.285  28.385  31.879  1.00  0.00    -0.203 F 
ATOM     58  C   UNL A   1      38.093  29.139  31.468  1.00  0.00     0.198 A 
ATOM     59  C   UNL A   1      37.451  29.815  29.256  1.00  0.00     0.198 A 
ATOM     60  F   UNL A   1      39.002  29.696  27.491  1.00  0.00    -0.203 F 
ATOM     61  F   UNL A   1      37.781  28.935  32.755  1.00  0.00    -0.200 F 
ATOM     62  C   UNL A   1      37.133  29.626  30.592  1.00  0.00     0.200 A 
ATOM     63  F   UNL A   1      36.529  30.297  28.411  1.00  0.00    -0.200 F 
ATOM     64  F   UNL A   1      35.901  29.908  31.036  1.00  0.00    -0.200 F 
ENDBRANCH  40  54
BRANCH  41  65
ATOM     65  C   UNL A   1      48.774  26.908  26.071  1.00  0.00     0.064 A 
ATOM     66  C   UNL A   1      49.836  26.482  26.881  1.00  0.00     0.173 A 
ATOM     67  C   UNL A   1      49.019  27.059  24.698  1.00  0.00     0.173 A 
ATOM     68  F   UNL A   1      49.658  26.351  28.203  1.00  0.00    -0.203 F 
ATOM     69  C   UNL A   1      51.096  26.232  26.341  1.00  0.00     0.198 A 
ATOM     70  C   UNL A   1      50.271  26.782  24.155  1.00  0.00     0.198 A 
ATOM     71  F   UNL A   1      48.037  27.471  23.881  1.00  0.00    -0.203 F 
ATOM     72  F   UNL A   1      52.105  25.868  27.143  1.00  0.00    -0.200 F 
ATOM     73  C   UNL A   1      51.310  26.375  24.978  1.00  0.00     0.200 A 
ATOM     74  F   UNL A   1      50.470  26.911  22.836  1.00  0.00    -0.200 F 
ATOM     75  F   UNL A   1      52.521  26.130  24.458  1.00  0.00    -0.200 F 
ENDBRANCH  41  65
BRANCH  53  76
ATOM     76  C   UNL A   1      45.759  32.737  28.421  1.00  0.00     0.064 A 
ATOM     77  C   UNL A   1      45.501  33.674  27.411  1.00  0.00     0.173 A 
ATOM     78  C   UNL A   1      46.437  33.175  29.568  1.00  0.00     0.173 A 
ATOM     79  F   UNL A   1      44.871  33.300  26.288  1.00  0.00    -0.203 F 
ATOM     80  C   UNL A   1      45.918  34.997  27.539  1.00  0.00     0.198 A 
ATOM     81  C   UNL A   1      46.829  34.504  29.705  1.00  0.00     0.198 A 
ATOM     82  F   UNL A   1      46.703  32.318  30.566  1.00  0.00    -0.203 F 
ATOM     83  F   UNL A   1      45.694  35.867  26.545  1.00  0.00    -0.200 F 
ATOM     84  C   UNL A   1      46.574  35.412  28.688  1.00  0.00     0.200 A 
ATOM     85  F   UNL A   1      47.452  34.907  30.821  1.00  0.00    -0.200 F 
ATOM     86  F   UNL A   1      46.966  36.687  28.814  1.00  0.00    -0.200 F 
ENDBRANCH  53  76
ENDBRANCH  27  28
ENDBRANCH  20  22
ENDBRANCH  19  20
ENDBRANCH  18  19
ENDBRANCH  17  18
ENDBRANCH   1  17
TORSDOF 17
ENDMDL
