MODEL 1
REMARK VINA RESULT:     -11.3      0.000      0.000
REMARK SMILES Cc1ccc2[nH]c3c(=O)n(CC(=O)OCCOCCOC(=O)c4ccc(-c5c6nc(c(-c7c(F)c(F)c(F)c(F)c7F)c7ccc([nH]7)c(-c7c(F)c(F)c(F)c(F)c7F)c7nc(c(-c8c(F)c(F)c(F)c(F)c8F)c8ccc5[nH]8)C=C7)C=C6)cc4)cnc3c2c1
REMARK SMILES IDX 18 1 17 2 16 3 15 4 14 5 12 6 13 7 11 8 10 9 1 10 2 11 3 12
REMARK SMILES IDX 90 13 4 14 89 15 5 16 88 17 6 18 7 19 87 20 8 22 86 23 9 24
REMARK SMILES IDX 19 25 20 26 21 27 22 28 23 29 24 30 85 31 25 32 84 33 26 34
REMARK SMILES IDX 27 35 28 36 78 37 29 38 83 39 77 40 79 41 30 42 82 43 76 44
REMARK SMILES IDX 75 45 31 47 63 48 43 49 62 50 44 51 47 52 61 53 80 54 45 55
REMARK SMILES IDX 46 56 60 58 81 59 48 60 32 61 33 62 41 63 34 64 35 65 39 66
REMARK SMILES IDX 42 67 36 68 37 69 40 70 38 71 64 72 65 73 73 74 66 75 67 76
REMARK SMILES IDX 71 77 74 78 68 79 69 80 72 81 70 82 49 83 50 84 58 85 51 86
REMARK SMILES IDX 52 87 56 88 59 89 53 90 54 91 57 92 55 93
REMARK H PARENT 6 21 79 46 47 57
REMARK Flexibility Score: inf
ROOT
ATOM      1  C   UNL A   1      35.933  33.547  27.821  1.00  0.00     0.202 C 
ENDROOT
BRANCH   1   2
ATOM      2  O   UNL A   1      34.515  33.469  27.946  1.00  0.00    -0.374 OA
BRANCH   2   3
ATOM      3  C   UNL A   1      33.965  33.849  29.196  1.00  0.00     0.202 C 
BRANCH   3   4
ATOM      4  C   UNL A   1      33.165  35.153  29.327  1.00  0.00     0.261 C 
BRANCH   4   5
ATOM      5  O   UNL A   1      32.380  35.243  30.530  1.00  0.00    -0.462 OA
BRANCH   5   6
ATOM      6  C   UNL A   1      32.818  36.181  31.409  1.00  0.00     0.326 C 
ATOM      7  O   UNL A   1      32.742  37.393  31.220  1.00  0.00    -0.250 OA
BRANCH   6   8
ATOM      8  C   UNL A   1      33.458  35.623  32.676  1.00  0.00     0.249 C 
BRANCH   8   9
ATOM      9  N   UNL A   1      34.617  34.737  32.596  1.00  0.00    -0.286 N 
ATOM     10  C   UNL A   1      41.470  31.007  33.108  1.00  0.00     0.044 C 
ATOM     11  C   UNL A   1      39.980  31.021  32.930  1.00  0.00    -0.050 A 
ATOM     12  C   UNL A   1      39.272  29.818  32.829  1.00  0.00     0.005 A 
ATOM     13  C   UNL A   1      39.293  32.247  32.844  1.00  0.00     0.016 A 
ATOM     14  C   UNL A   1      37.877  29.797  32.747  1.00  0.00     0.027 A 
ATOM     15  C   UNL A   1      37.887  32.255  32.761  1.00  0.00     0.026 A 
ATOM     16  C   UNL A   1      37.210  31.027  32.765  1.00  0.00     0.048 A 
ATOM     17  C   UNL A   1      36.885  33.250  32.667  1.00  0.00     0.103 A 
ATOM     18  N   UNL A   1      35.859  31.303  32.803  1.00  0.00    -0.349 N 
ATOM     19  C   UNL A   1      35.663  32.655  32.781  1.00  0.00     0.132 A 
ATOM     20  N   UNL A   1      37.028  34.630  32.512  1.00  0.00    -0.236 NA
ATOM     21  H   UNL A   1      35.144  30.627  32.839  1.00  0.00     0.167 HD
ATOM     22  C   UNL A   1      34.450  33.386  32.861  1.00  0.00     0.278 A 
ATOM     23  C   UNL A   1      35.894  35.266  32.456  1.00  0.00     0.203 A 
ATOM     24  O   UNL A   1      33.378  32.859  33.167  1.00  0.00    -0.267 OA
ENDBRANCH   8   9
ENDBRANCH   6   8
ENDBRANCH   5   6
ENDBRANCH   4   5
ENDBRANCH   3   4
ENDBRANCH   2   3
ENDBRANCH   1   2
BRANCH   1  25
ATOM     25  C   UNL A   1      36.826  33.412  29.078  1.00  0.00     0.261 C 
BRANCH  25  26
ATOM     26  O   UNL A   1      37.813  32.372  28.964  1.00  0.00    -0.460 OA
BRANCH  26  27
ATOM     27  C   UNL A   1      37.389  31.134  29.353  1.00  0.00     0.338 C 
ATOM     28  O   UNL A   1      36.247  30.793  29.608  1.00  0.00    -0.246 OA
BRANCH  27  29
ATOM     29  C   UNL A   1      38.456  30.199  28.933  1.00  0.00     0.060 A 
ATOM     30  C   UNL A   1      38.206  28.838  28.721  1.00  0.00     0.016 A 
ATOM     31  C   UNL A   1      39.761  30.665  29.152  1.00  0.00     0.016 A 
ATOM     32  C   UNL A   1      39.261  27.931  28.851  1.00  0.00     0.010 A 
ATOM     33  C   UNL A   1      40.788  29.752  29.356  1.00  0.00     0.010 A 
ATOM     34  C   UNL A   1      40.534  28.379  29.259  1.00  0.00    -0.014 A 
BRANCH  34  35
ATOM     35  C   UNL A   1      41.696  27.471  29.230  1.00  0.00     0.031 A 
ATOM     36  C   UNL A   1      42.378  27.516  30.565  1.00  0.00     0.074 A 
ATOM     37  C   UNL A   1      41.994  26.585  28.240  1.00  0.00     0.049 A 
ATOM     38  N   UNL A   1      43.599  27.860  30.812  1.00  0.00    -0.248 NA
ATOM     39  C   UNL A   1      41.550  27.385  31.786  1.00  0.00     0.031 C 
ATOM     40  C   UNL A   1      41.298  26.371  26.968  1.00  0.00     0.029 A 
ATOM     41  N   UNL A   1      42.963  25.602  28.193  1.00  0.00    -0.354 N 
ATOM     42  C   UNL A   1      43.740  27.766  32.195  1.00  0.00     0.074 A 
ATOM     43  C   UNL A   1      42.419  27.692  32.748  1.00  0.00     0.031 C 
ATOM     44  C   UNL A   1      41.686  25.200  26.405  1.00  0.00     0.029 A 
ATOM     45  C   UNL A   1      42.749  24.619  27.199  1.00  0.00     0.049 A 
ATOM     46  H   UNL A   1      43.737  25.586  28.800  1.00  0.00     0.167 HD
ATOM     47  C   UNL A   1      44.937  27.442  32.752  1.00  0.00     0.037 A 
ATOM     48  C   UNL A   1      43.389  23.415  27.069  1.00  0.00     0.037 A 
ATOM     49  C   UNL A   1      46.008  27.692  31.831  1.00  0.00     0.049 A 
ATOM     50  C   UNL A   1      44.653  23.520  27.836  1.00  0.00     0.074 A 
ATOM     51  C   UNL A   1      46.527  28.823  31.235  1.00  0.00     0.029 A 
ATOM     52  N   UNL A   1      46.426  26.627  31.076  1.00  0.00    -0.354 N 
ATOM     53  N   UNL A   1      45.630  24.307  27.484  1.00  0.00    -0.248 NA
ATOM     54  C   UNL A   1      44.579  23.170  29.244  1.00  0.00     0.031 C 
ATOM     55  C   UNL A   1      46.850  28.424  29.906  1.00  0.00     0.029 A 
ATOM     56  C   UNL A   1      46.626  27.053  29.791  1.00  0.00     0.049 A 
ATOM     57  H   UNL A   1      46.559  25.709  31.404  1.00  0.00     0.167 HD
ATOM     58  C   UNL A   1      45.993  24.928  28.666  1.00  0.00     0.074 A 
ATOM     59  C   UNL A   1      45.316  24.174  29.723  1.00  0.00     0.031 C 
ATOM     60  C   UNL A   1      46.545  26.174  28.653  1.00  0.00     0.037 A 
BRANCH  47  61
ATOM     61  C   UNL A   1      45.075  26.503  33.925  1.00  0.00     0.064 A 
ATOM     62  C   UNL A   1      44.557  25.199  33.827  1.00  0.00     0.173 A 
ATOM     63  C   UNL A   1      45.427  26.922  35.229  1.00  0.00     0.173 A 
ATOM     64  F   UNL A   1      44.143  24.718  32.646  1.00  0.00    -0.203 F 
ATOM     65  C   UNL A   1      44.372  24.394  34.955  1.00  0.00     0.198 A 
ATOM     66  C   UNL A   1      45.291  26.099  36.342  1.00  0.00     0.198 A 
ATOM     67  F   UNL A   1      45.801  28.178  35.499  1.00  0.00    -0.203 F 
ATOM     68  F   UNL A   1      43.773  23.202  34.829  1.00  0.00    -0.200 F 
ATOM     69  C   UNL A   1      44.742  24.842  36.210  1.00  0.00     0.200 A 
ATOM     70  F   UNL A   1      45.624  26.568  37.553  1.00  0.00    -0.200 F 
ATOM     71  F   UNL A   1      44.522  24.091  37.297  1.00  0.00    -0.200 F 
ENDBRANCH  47  61
BRANCH  48  72
ATOM     72  C   UNL A   1      42.868  22.066  26.674  1.00  0.00     0.064 A 
ATOM     73  C   UNL A   1      43.490  21.290  25.667  1.00  0.00     0.173 A 
ATOM     74  C   UNL A   1      41.971  21.374  27.505  1.00  0.00     0.173 A 
ATOM     75  F   UNL A   1      44.399  21.844  24.851  1.00  0.00    -0.203 F 
ATOM     76  C   UNL A   1      43.253  19.912  25.533  1.00  0.00     0.198 A 
ATOM     77  C   UNL A   1      41.739  20.000  27.373  1.00  0.00     0.198 A 
ATOM     78  F   UNL A   1      41.378  21.997  28.532  1.00  0.00    -0.203 F 
ATOM     79  F   UNL A   1      43.913  19.200  24.607  1.00  0.00    -0.200 F 
ATOM     80  C   UNL A   1      42.391  19.266  26.400  1.00  0.00     0.200 A 
ATOM     81  F   UNL A   1      40.933  19.378  28.246  1.00  0.00    -0.200 F 
ATOM     82  F   UNL A   1      42.221  17.936  26.328  1.00  0.00    -0.200 F 
ENDBRANCH  48  72
BRANCH  60  83
ATOM     83  C   UNL A   1      46.957  26.751  27.328  1.00  0.00     0.064 A 
ATOM     84  C   UNL A   1      48.228  26.589  26.748  1.00  0.00     0.173 A 
ATOM     85  C   UNL A   1      45.958  27.336  26.541  1.00  0.00     0.173 A 
ATOM     86  F   UNL A   1      49.211  25.959  27.406  1.00  0.00    -0.203 F 
ATOM     87  C   UNL A   1      48.483  27.013  25.443  1.00  0.00     0.198 A 
ATOM     88  C   UNL A   1      46.204  27.723  25.229  1.00  0.00     0.198 A 
ATOM     89  F   UNL A   1      44.714  27.466  27.029  1.00  0.00    -0.203 F 
ATOM     90  F   UNL A   1      49.699  26.839  24.903  1.00  0.00    -0.200 F 
ATOM     91  C   UNL A   1      47.466  27.568  24.681  1.00  0.00     0.200 A 
ATOM     92  F   UNL A   1      45.203  28.206  24.482  1.00  0.00    -0.200 F 
ATOM     93  F   UNL A   1      47.694  27.925  23.409  1.00  0.00    -0.200 F 
ENDBRANCH  60  83
ENDBRANCH  34  35
ENDBRANCH  27  29
ENDBRANCH  26  27
ENDBRANCH  25  26
ENDBRANCH   1  25
TORSDOF 15
ENDMDL
MODEL 2
REMARK VINA RESULT:     -11.2      1.418      2.193
REMARK SMILES Cc1ccc2[nH]c3c(=O)n(CC(=O)OCCOCCOC(=O)c4ccc(-c5c6nc(c(-c7c(F)c(F)c(F)c(F)c7F)c7ccc([nH]7)c(-c7c(F)c(F)c(F)c(F)c7F)c7nc(c(-c8c(F)c(F)c(F)c(F)c8F)c8ccc5[nH]8)C=C7)C=C6)cc4)cnc3c2c1
REMARK SMILES IDX 18 1 17 2 16 3 15 4 14 5 12 6 13 7 11 8 10 9 1 10 2 11 3 12
REMARK SMILES IDX 90 13 4 14 89 15 5 16 88 17 6 18 7 19 87 20 8 22 86 23 9 24
REMARK SMILES IDX 19 25 20 26 21 27 22 28 23 29 24 30 85 31 25 32 84 33 26 34
REMARK SMILES IDX 27 35 28 36 78 37 29 38 83 39 77 40 79 41 30 42 82 43 76 44
REMARK SMILES IDX 75 45 31 47 63 48 43 49 62 50 44 51 47 52 61 53 80 54 45 55
REMARK SMILES IDX 46 56 60 58 81 59 48 60 32 61 33 62 41 63 34 64 35 65 39 66
REMARK SMILES IDX 42 67 36 68 37 69 40 70 38 71 64 72 65 73 73 74 66 75 67 76
REMARK SMILES IDX 71 77 74 78 68 79 69 80 72 81 70 82 49 83 50 84 58 85 51 86
REMARK SMILES IDX 52 87 56 88 59 89 53 90 54 91 57 92 55 93
REMARK H PARENT 6 21 79 46 47 57
REMARK Flexibility Score: inf
ROOT
ATOM      1  C   UNL A   1      35.285  34.112  28.015  1.00  0.00     0.202 C 
ENDROOT
BRANCH   1   2
ATOM      2  O   UNL A   1      33.862  34.186  27.999  1.00  0.00    -0.374 OA
BRANCH   2   3
ATOM      3  C   UNL A   1      33.235  34.638  29.188  1.00  0.00     0.202 C 
BRANCH   3   4
ATOM      4  C   UNL A   1      33.099  36.141  29.470  1.00  0.00     0.261 C 
BRANCH   4   5
ATOM      5  O   UNL A   1      32.158  36.461  30.510  1.00  0.00    -0.462 OA
BRANCH   5   6
ATOM      6  C   UNL A   1      32.733  36.816  31.688  1.00  0.00     0.326 C 
ATOM      7  O   UNL A   1      33.108  37.954  31.958  1.00  0.00    -0.250 OA
BRANCH   6   8
ATOM      8  C   UNL A   1      32.919  35.673  32.682  1.00  0.00     0.249 C 
BRANCH   8   9
ATOM      9  N   UNL A   1      34.181  34.939  32.744  1.00  0.00    -0.286 N 
ATOM     10  C   UNL A   1      41.358  32.122  34.042  1.00  0.00     0.044 C 
ATOM     11  C   UNL A   1      39.903  31.942  33.723  1.00  0.00    -0.050 A 
ATOM     12  C   UNL A   1      39.363  30.658  33.599  1.00  0.00     0.005 A 
ATOM     13  C   UNL A   1      39.082  33.069  33.527  1.00  0.00     0.016 A 
ATOM     14  C   UNL A   1      37.996  30.458  33.385  1.00  0.00     0.027 A 
ATOM     15  C   UNL A   1      37.701  32.897  33.310  1.00  0.00     0.026 A 
ATOM     16  C   UNL A   1      37.184  31.594  33.294  1.00  0.00     0.048 A 
ATOM     17  C   UNL A   1      36.597  33.754  33.084  1.00  0.00     0.103 A 
ATOM     18  N   UNL A   1      35.812  31.697  33.193  1.00  0.00    -0.349 N 
ATOM     19  C   UNL A   1      35.453  33.012  33.104  1.00  0.00     0.132 A 
ATOM     20  N   UNL A   1      36.582  35.137  32.894  1.00  0.00    -0.236 NA
ATOM     21  H   UNL A   1      35.186  30.937  33.186  1.00  0.00     0.167 HD
ATOM     22  C   UNL A   1      34.157  33.585  33.041  1.00  0.00     0.278 A 
ATOM     23  C   UNL A   1      35.390  35.623  32.708  1.00  0.00     0.203 A 
ATOM     24  O   UNL A   1      33.133  32.933  33.263  1.00  0.00    -0.267 OA
ENDBRANCH   8   9
ENDBRANCH   6   8
ENDBRANCH   5   6
ENDBRANCH   4   5
ENDBRANCH   3   4
ENDBRANCH   2   3
ENDBRANCH   1   2
BRANCH   1  25
ATOM     25  C   UNL A   1      36.028  33.845  29.346  1.00  0.00     0.261 C 
BRANCH  25  26
ATOM     26  O   UNL A   1      37.025  32.813  29.243  1.00  0.00    -0.460 OA
BRANCH  26  27
ATOM     27  C   UNL A   1      36.682  31.625  29.821  1.00  0.00     0.338 C 
ATOM     28  O   UNL A   1      35.570  31.268  30.167  1.00  0.00    -0.246 OA
BRANCH  27  29
ATOM     29  C   UNL A   1      37.785  30.693  29.499  1.00  0.00     0.060 A 
ATOM     30  C   UNL A   1      37.584  29.312  29.406  1.00  0.00     0.016 A 
ATOM     31  C   UNL A   1      39.072  31.221  29.689  1.00  0.00     0.016 A 
ATOM     32  C   UNL A   1      38.666  28.456  29.629  1.00  0.00     0.010 A 
ATOM     33  C   UNL A   1      40.125  30.366  29.985  1.00  0.00     0.010 A 
ATOM     34  C   UNL A   1      39.918  28.981  30.009  1.00  0.00    -0.014 A 
BRANCH  34  35
ATOM     35  C   UNL A   1      41.110  28.115  30.074  1.00  0.00     0.031 A 
ATOM     36  C   UNL A   1      41.547  28.001  31.504  1.00  0.00     0.074 A 
ATOM     37  C   UNL A   1      41.617  27.376  29.049  1.00  0.00     0.049 A 
ATOM     38  N   UNL A   1      42.689  28.340  32.006  1.00  0.00    -0.248 NA
ATOM     39  C   UNL A   1      40.527  27.689  32.532  1.00  0.00     0.031 C 
ATOM     40  C   UNL A   1      41.164  27.313  27.657  1.00  0.00     0.029 A 
ATOM     41  N   UNL A   1      42.626  26.431  29.053  1.00  0.00    -0.354 N 
ATOM     42  C   UNL A   1      42.592  28.068  33.369  1.00  0.00     0.074 A 
ATOM     43  C   UNL A   1      41.201  27.888  33.663  1.00  0.00     0.031 C 
ATOM     44  C   UNL A   1      41.699  26.237  27.030  1.00  0.00     0.029 A 
ATOM     45  C   UNL A   1      42.635  25.584  27.921  1.00  0.00     0.049 A 
ATOM     46  H   UNL A   1      43.283  26.355  29.781  1.00  0.00     0.167 HD
ATOM     47  C   UNL A   1      43.688  27.704  34.085  1.00  0.00     0.037 A 
ATOM     48  C   UNL A   1      43.345  24.424  27.757  1.00  0.00     0.037 A 
ATOM     49  C   UNL A   1      44.890  28.100  33.408  1.00  0.00     0.049 A 
ATOM     50  C   UNL A   1      44.451  24.459  28.744  1.00  0.00     0.074 A 
ATOM     51  C   UNL A   1      45.449  29.312  33.060  1.00  0.00     0.029 A 
ATOM     52  N   UNL A   1      45.483  27.155  32.612  1.00  0.00    -0.354 N 
ATOM     53  N   UNL A   1      45.435  25.309  28.673  1.00  0.00    -0.248 NA
ATOM     54  C   UNL A   1      44.150  23.924  30.062  1.00  0.00     0.031 C 
ATOM     55  C   UNL A   1      46.017  29.101  31.771  1.00  0.00     0.029 A 
ATOM     56  C   UNL A   1      45.882  27.752  31.447  1.00  0.00     0.049 A 
ATOM     57  H   UNL A   1      45.601  26.205  32.840  1.00  0.00     0.167 HD
ATOM     58  C   UNL A   1      45.557  25.778  29.970  1.00  0.00     0.074 A 
ATOM     59  C   UNL A   1      44.744  24.875  30.786  1.00  0.00     0.031 C 
ATOM     60  C   UNL A   1      46.042  27.029  30.212  1.00  0.00     0.037 A 
BRANCH  47  61
ATOM     61  C   UNL A   1      43.667  26.622  35.136  1.00  0.00     0.064 A 
ATOM     62  C   UNL A   1      43.998  26.946  36.464  1.00  0.00     0.173 A 
ATOM     63  C   UNL A   1      43.624  25.240  34.839  1.00  0.00     0.173 A 
ATOM     64  F   UNL A   1      44.118  28.227  36.842  1.00  0.00    -0.203 F 
ATOM     65  C   UNL A   1      44.300  25.961  37.410  1.00  0.00     0.198 A 
ATOM     66  C   UNL A   1      43.873  24.261  35.796  1.00  0.00     0.198 A 
ATOM     67  F   UNL A   1      43.461  24.782  33.593  1.00  0.00    -0.203 F 
ATOM     68  F   UNL A   1      44.717  26.318  38.631  1.00  0.00    -0.200 F 
ATOM     69  C   UNL A   1      44.233  24.620  37.077  1.00  0.00     0.200 A 
ATOM     70  F   UNL A   1      43.836  22.968  35.441  1.00  0.00    -0.200 F 
ATOM     71  F   UNL A   1      44.567  23.677  37.967  1.00  0.00    -0.200 F 
ENDBRANCH  47  61
BRANCH  48  72
ATOM     72  C   UNL A   1      42.966  23.126  27.110  1.00  0.00     0.064 A 
ATOM     73  C   UNL A   1      43.775  22.520  26.120  1.00  0.00     0.173 A 
ATOM     74  C   UNL A   1      41.993  22.295  27.690  1.00  0.00     0.173 A 
ATOM     75  F   UNL A   1      44.766  23.213  25.538  1.00  0.00    -0.203 F 
ATOM     76  C   UNL A   1      43.639  21.167  25.769  1.00  0.00     0.198 A 
ATOM     77  C   UNL A   1      41.861  20.945  27.342  1.00  0.00     0.198 A 
ATOM     78  F   UNL A   1      41.217  22.747  28.683  1.00  0.00    -0.203 F 
ATOM     79  F   UNL A   1      44.470  20.614  24.873  1.00  0.00    -0.200 F 
ATOM     80  C   UNL A   1      42.693  20.377  26.396  1.00  0.00     0.200 A 
ATOM     81  F   UNL A   1      40.968  20.180  27.987  1.00  0.00    -0.200 F 
ATOM     82  F   UNL A   1      42.610  19.065  26.122  1.00  0.00    -0.200 F 
ENDBRANCH  48  72
BRANCH  60  83
ATOM     83  C   UNL A   1      46.649  27.786  29.064  1.00  0.00     0.064 A 
ATOM     84  C   UNL A   1      45.921  28.569  28.151  1.00  0.00     0.173 A 
ATOM     85  C   UNL A   1      48.047  27.860  29.009  1.00  0.00     0.173 A 
ATOM     86  F   UNL A   1      44.583  28.620  28.199  1.00  0.00    -0.203 F 
ATOM     87  C   UNL A   1      46.572  29.375  27.215  1.00  0.00     0.198 A 
ATOM     88  C   UNL A   1      48.691  28.691  28.100  1.00  0.00     0.198 A 
ATOM     89  F   UNL A   1      48.788  27.172  29.892  1.00  0.00    -0.203 F 
ATOM     90  F   UNL A   1      45.860  30.124  26.359  1.00  0.00    -0.200 F 
ATOM     91  C   UNL A   1      47.956  29.443  27.199  1.00  0.00     0.200 A 
ATOM     92  F   UNL A   1      50.027  28.795  28.129  1.00  0.00    -0.200 F 
ATOM     93  F   UNL A   1      48.582  30.258  26.338  1.00  0.00    -0.200 F 
ENDBRANCH  60  83
ENDBRANCH  34  35
ENDBRANCH  27  29
ENDBRANCH  26  27
ENDBRANCH  25  26
ENDBRANCH   1  25
TORSDOF 15
ENDMDL
MODEL 3
REMARK VINA RESULT:     -11.0      4.342      6.276
REMARK SMILES Cc1ccc2[nH]c3c(=O)n(CC(=O)OCCOCCOC(=O)c4ccc(-c5c6nc(c(-c7c(F)c(F)c(F)c(F)c7F)c7ccc([nH]7)c(-c7c(F)c(F)c(F)c(F)c7F)c7nc(c(-c8c(F)c(F)c(F)c(F)c8F)c8ccc5[nH]8)C=C7)C=C6)cc4)cnc3c2c1
REMARK SMILES IDX 18 1 17 2 16 3 15 4 14 5 12 6 13 7 11 8 10 9 1 10 2 11 3 12
REMARK SMILES IDX 90 13 4 14 89 15 5 16 88 17 6 18 7 19 87 20 8 22 86 23 9 24
REMARK SMILES IDX 19 25 20 26 21 27 22 28 23 29 24 30 85 31 25 32 84 33 26 34
REMARK SMILES IDX 27 35 28 36 78 37 29 38 83 39 77 40 79 41 30 42 82 43 76 44
REMARK SMILES IDX 75 45 31 47 63 48 43 49 62 50 44 51 47 52 61 53 80 54 45 55
REMARK SMILES IDX 46 56 60 58 81 59 48 60 32 61 33 62 41 63 34 64 35 65 39 66
REMARK SMILES IDX 42 67 36 68 37 69 40 70 38 71 64 72 65 73 73 74 66 75 67 76
REMARK SMILES IDX 71 77 74 78 68 79 69 80 72 81 70 82 49 83 50 84 58 85 51 86
REMARK SMILES IDX 52 87 56 88 59 89 53 90 54 91 57 92 55 93
REMARK H PARENT 6 21 79 46 47 57
REMARK Flexibility Score: inf
ROOT
ATOM      1  C   UNL A   1      34.329  29.398  26.826  1.00  0.00     0.202 C 
ENDROOT
BRANCH   1   2
ATOM      2  O   UNL A   1      33.344  29.794  25.873  1.00  0.00    -0.374 OA
BRANCH   2   3
ATOM      3  C   UNL A   1      33.283  29.042  24.673  1.00  0.00     0.202 C 
BRANCH   3   4
ATOM      4  C   UNL A   1      31.990  29.010  23.844  1.00  0.00     0.261 C 
BRANCH   4   5
ATOM      5  O   UNL A   1      31.141  27.883  24.123  1.00  0.00    -0.462 OA
BRANCH   5   6
ATOM      6  C   UNL A   1      30.346  27.517  23.085  1.00  0.00     0.326 C 
ATOM      7  O   UNL A   1      29.158  27.815  22.987  1.00  0.00    -0.250 OA
BRANCH   6   8
ATOM      8  C   UNL A   1      31.030  26.659  22.025  1.00  0.00     0.249 C 
BRANCH   8   9
ATOM      9  N   UNL A   1      31.959  25.600  22.411  1.00  0.00    -0.286 N 
ATOM     10  C   UNL A   1      37.723  21.065  25.122  1.00  0.00     0.044 C 
ATOM     11  C   UNL A   1      36.292  21.297  24.731  1.00  0.00    -0.050 A 
ATOM     12  C   UNL A   1      35.339  20.291  24.923  1.00  0.00     0.005 A 
ATOM     13  C   UNL A   1      35.912  22.520  24.148  1.00  0.00     0.016 A 
ATOM     14  C   UNL A   1      33.986  20.506  24.646  1.00  0.00     0.027 A 
ATOM     15  C   UNL A   1      34.555  22.764  23.859  1.00  0.00     0.026 A 
ATOM     16  C   UNL A   1      33.618  21.767  24.163  1.00  0.00     0.048 A 
ATOM     17  C   UNL A   1      33.816  23.832  23.298  1.00  0.00     0.103 A 
ATOM     18  N   UNL A   1      32.366  22.288  23.908  1.00  0.00    -0.349 N 
ATOM     19  C   UNL A   1      32.486  23.557  23.418  1.00  0.00     0.132 A 
ATOM     20  N   UNL A   1      34.281  25.018  22.725  1.00  0.00    -0.236 NA
ATOM     21  H   UNL A   1      31.515  21.815  24.056  1.00  0.00     0.167 HD
ATOM     22  C   UNL A   1      31.469  24.485  23.073  1.00  0.00     0.278 A 
ATOM     23  C   UNL A   1      33.330  25.796  22.297  1.00  0.00     0.203 A 
ATOM     24  O   UNL A   1      30.285  24.310  23.373  1.00  0.00    -0.267 OA
ENDBRANCH   8   9
ENDBRANCH   6   8
ENDBRANCH   5   6
ENDBRANCH   4   5
ENDBRANCH   3   4
ENDBRANCH   2   3
ENDBRANCH   1   2
BRANCH   1  25
ATOM     25  C   UNL A   1      35.035  30.466  27.694  1.00  0.00     0.261 C 
BRANCH  25  26
ATOM     26  O   UNL A   1      36.187  29.960  28.392  1.00  0.00    -0.460 OA
BRANCH  26  27
ATOM     27  C   UNL A   1      37.239  30.827  28.465  1.00  0.00     0.338 C 
ATOM     28  O   UNL A   1      37.189  32.042  28.543  1.00  0.00    -0.246 OA
BRANCH  27  29
ATOM     29  C   UNL A   1      38.390  30.017  28.922  1.00  0.00     0.060 A 
ATOM     30  C   UNL A   1      39.656  30.578  29.125  1.00  0.00     0.016 A 
ATOM     31  C   UNL A   1      38.237  28.633  28.748  1.00  0.00     0.016 A 
ATOM     32  C   UNL A   1      40.782  29.755  29.031  1.00  0.00     0.010 A 
ATOM     33  C   UNL A   1      39.362  27.836  28.581  1.00  0.00     0.010 A 
ATOM     34  C   UNL A   1      40.640  28.401  28.669  1.00  0.00    -0.014 A 
BRANCH  34  35
ATOM     35  C   UNL A   1      41.789  27.479  28.738  1.00  0.00     0.031 A 
ATOM     36  C   UNL A   1      42.412  27.583  30.097  1.00  0.00     0.074 A 
ATOM     37  C   UNL A   1      42.116  26.539  27.808  1.00  0.00     0.049 A 
ATOM     38  N   UNL A   1      43.626  27.924  30.381  1.00  0.00    -0.248 NA
ATOM     39  C   UNL A   1      41.530  27.527  31.286  1.00  0.00     0.031 C 
ATOM     40  C   UNL A   1      41.473  26.268  26.519  1.00  0.00     0.029 A 
ATOM     41  N   UNL A   1      43.071  25.542  27.855  1.00  0.00    -0.354 N 
ATOM     42  C   UNL A   1      43.706  27.900  31.772  1.00  0.00     0.074 A 
ATOM     43  C   UNL A   1      42.361  27.872  32.268  1.00  0.00     0.031 C 
ATOM     44  C   UNL A   1      41.868  25.065  26.034  1.00  0.00     0.029 A 
ATOM     45  C   UNL A   1      42.886  24.512  26.903  1.00  0.00     0.049 A 
ATOM     46  H   UNL A   1      43.818  25.548  28.496  1.00  0.00     0.167 HD
ATOM     47  C   UNL A   1      44.872  27.590  32.397  1.00  0.00     0.037 A 
ATOM     48  C   UNL A   1      43.513  23.295  26.863  1.00  0.00     0.037 A 
ATOM     49  C   UNL A   1      45.986  27.778  31.512  1.00  0.00     0.049 A 
ATOM     50  C   UNL A   1      44.744  23.423  27.679  1.00  0.00     0.074 A 
ATOM     51  C   UNL A   1      46.547  28.870  30.883  1.00  0.00     0.029 A 
ATOM     52  N   UNL A   1      46.420  26.671  30.832  1.00  0.00    -0.354 N 
ATOM     53  N   UNL A   1      45.747  24.178  27.331  1.00  0.00    -0.248 NA
ATOM     54  C   UNL A   1      44.603  23.147  29.099  1.00  0.00     0.031 C 
ATOM     55  C   UNL A   1      46.922  28.400  29.592  1.00  0.00     0.029 A 
ATOM     56  C   UNL A   1      46.682  27.027  29.537  1.00  0.00     0.049 A 
ATOM     57  H   UNL A   1      46.525  25.769  31.212  1.00  0.00     0.167 HD
ATOM     58  C   UNL A   1      46.067  24.855  28.495  1.00  0.00     0.074 A 
ATOM     59  C   UNL A   1      45.334  24.166  29.558  1.00  0.00     0.031 C 
ATOM     60  C   UNL A   1      46.638  26.092  28.443  1.00  0.00     0.037 A 
BRANCH  47  61
ATOM     61  C   UNL A   1      44.945  26.711  33.621  1.00  0.00     0.064 A 
ATOM     62  C   UNL A   1      44.463  25.392  33.550  1.00  0.00     0.173 A 
ATOM     63  C   UNL A   1      45.193  27.200  34.924  1.00  0.00     0.173 A 
ATOM     64  F   UNL A   1      44.146  24.846  32.367  1.00  0.00    -0.203 F 
ATOM     65  C   UNL A   1      44.214  24.636  34.700  1.00  0.00     0.198 A 
ATOM     66  C   UNL A   1      44.994  26.427  36.064  1.00  0.00     0.198 A 
ATOM     67  F   UNL A   1      45.520  28.476  35.158  1.00  0.00    -0.203 F 
ATOM     68  F   UNL A   1      43.651  23.426  34.591  1.00  0.00    -0.200 F 
ATOM     69  C   UNL A   1      44.483  25.152  35.955  1.00  0.00     0.200 A 
ATOM     70  F   UNL A   1      45.230  26.961  37.272  1.00  0.00    -0.200 F 
ATOM     71  F   UNL A   1      44.201  24.449  37.059  1.00  0.00    -0.200 F 
ENDBRANCH  47  61
BRANCH  48  72
ATOM     72  C   UNL A   1      42.990  21.934  26.515  1.00  0.00     0.064 A 
ATOM     73  C   UNL A   1      43.648  21.096  25.585  1.00  0.00     0.173 A 
ATOM     74  C   UNL A   1      42.040  21.301  27.335  1.00  0.00     0.173 A 
ATOM     75  F   UNL A   1      44.606  21.591  24.787  1.00  0.00    -0.203 F 
ATOM     76  C   UNL A   1      43.395  19.716  25.513  1.00  0.00     0.198 A 
ATOM     77  C   UNL A   1      41.792  19.925  27.265  1.00  0.00     0.198 A 
ATOM     78  F   UNL A   1      41.407  21.987  28.296  1.00  0.00    -0.203 F 
ATOM     79  F   UNL A   1      44.088  18.945  24.661  1.00  0.00    -0.200 F 
ATOM     80  C   UNL A   1      42.480  19.130  26.368  1.00  0.00     0.200 A 
ATOM     81  F   UNL A   1      40.933  19.364  28.128  1.00  0.00    -0.200 F 
ATOM     82  F   UNL A   1      42.291  17.801  26.359  1.00  0.00    -0.200 F 
ENDBRANCH  48  72
BRANCH  60  83
ATOM     83  C   UNL A   1      47.116  26.595  27.110  1.00  0.00     0.064 A 
ATOM     84  C   UNL A   1      48.363  26.280  26.539  1.00  0.00     0.173 A 
ATOM     85  C   UNL A   1      46.191  27.273  26.307  1.00  0.00     0.173 A 
ATOM     86  F   UNL A   1      49.267  25.556  27.213  1.00  0.00    -0.203 F 
ATOM     87  C   UNL A   1      48.667  26.648  25.227  1.00  0.00     0.198 A 
ATOM     88  C   UNL A   1      46.483  27.605  24.990  1.00  0.00     0.198 A 
ATOM     89  F   UNL A   1      44.968  27.551  26.786  1.00  0.00    -0.203 F 
ATOM     90  F   UNL A   1      49.857  26.330  24.696  1.00  0.00    -0.200 F 
ATOM     91  C   UNL A   1      47.721  27.300  24.451  1.00  0.00     0.200 A 
ATOM     92  F   UNL A   1      45.544  28.184  24.229  1.00  0.00    -0.200 F 
ATOM     93  F   UNL A   1      47.991  27.605  23.174  1.00  0.00    -0.200 F 
ENDBRANCH  60  83
ENDBRANCH  34  35
ENDBRANCH  27  29
ENDBRANCH  26  27
ENDBRANCH  25  26
ENDBRANCH   1  25
TORSDOF 15
ENDMDL
