MODEL 1
REMARK VINA RESULT:     -11.8      0.000      0.000
REMARK SMILES Cc1c(Cl)cc2c(c1C)O[C@H](C(F)(F)F)C(C(=O)OCCOCCOC(=O)c1ccc(-c3c4nc(c(-c5c(F)c(F)c(F)c(F)c5F)c5ccc([nH]5)c(-c5c(F)c(F)c(F)c(F)c5F)c5nc(c(-c6c(F)c(F)c(F)c(F)c6F)c6ccc3[nH]6)C=C5)C=C4)cc1)=C2
REMARK SMILES IDX 23 1 22 2 21 3 20 4 19 5 17 6 18 7 16 8 1 9 2 10 3 11 8 12
REMARK SMILES IDX 4 13 5 14 7 15 9 16 6 17 10 18 91 19 11 20 12 21 13 22 14 23
REMARK SMILES IDX 15 24 24 25 25 26 26 27 27 28 28 29 29 30 90 31 30 32 89 33
REMARK SMILES IDX 31 34 32 35 33 36 83 37 34 38 88 39 82 40 84 41 35 42 87 43
REMARK SMILES IDX 81 44 80 45 36 47 68 48 48 49 67 50 49 51 52 52 66 53 85 54
REMARK SMILES IDX 50 55 51 56 65 58 86 59 53 60 37 61 38 62 46 63 39 64 40 65
REMARK SMILES IDX 44 66 47 67 41 68 42 69 45 70 43 71 69 72 70 73 78 74 71 75
REMARK SMILES IDX 72 76 76 77 79 78 73 79 74 80 77 81 75 82 54 83 55 84 63 85
REMARK SMILES IDX 56 86 57 87 61 88 64 89 58 90 59 91 62 92 60 93
REMARK H PARENT 84 46 52 57
REMARK Flexibility Score: inf
ROOT
ATOM      1  C   UNL A   1      31.410  29.249  24.993  1.00  0.00     0.202 C 
ENDROOT
BRANCH   1   2
ATOM      2  O   UNL A   1      32.035  28.044  25.437  1.00  0.00    -0.374 OA
BRANCH   2   3
ATOM      3  C   UNL A   1      31.236  27.114  26.166  1.00  0.00     0.202 C 
BRANCH   3   4
ATOM      4  C   UNL A   1      30.352  26.184  25.331  1.00  0.00     0.261 C 
BRANCH   4   5
ATOM      5  O   UNL A   1      30.967  24.897  25.159  1.00  0.00    -0.460 OA
BRANCH   5   6
ATOM      6  C   UNL A   1      31.899  24.845  24.181  1.00  0.00     0.338 C 
ATOM      7  O   UNL A   1      31.914  25.497  23.147  1.00  0.00    -0.246 OA
BRANCH   6   8
ATOM      8  C   UNL A   1      33.000  23.952  24.583  1.00  0.00     0.087 C 
ATOM      9  C   UNL A   1      38.878  21.410  25.797  1.00  0.00     0.046 C 
ATOM     10  C   UNL A   1      37.596  22.198  25.680  1.00  0.00    -0.026 A 
ATOM     11  C   UNL A   1      37.604  23.590  25.897  1.00  0.00     0.045 A 
ATOM     12  C   UNL A   1      36.385  21.582  25.268  1.00  0.00    -0.004 A 
ATOM     13  Cl  UNL A   1      39.041  24.450  26.338  1.00  0.00    -0.084 Cl
ATOM     14  C   UNL A   1      36.448  24.353  25.729  1.00  0.00     0.032 A 
ATOM     15  C   UNL A   1      35.215  22.365  25.137  1.00  0.00     0.131 A 
ATOM     16  C   UNL A   1      36.293  20.105  24.970  1.00  0.00     0.049 C 
ATOM     17  C   UNL A   1      35.259  23.745  25.334  1.00  0.00     0.019 A 
ATOM     18  O   UNL A   1      34.057  21.707  24.814  1.00  0.00    -0.475 OA
ATOM     19  C   UNL A   1      34.095  24.563  25.050  1.00  0.00     0.027 C 
ATOM     20  C   UNL A   1      32.875  22.463  24.432  1.00  0.00     0.316 C 
BRANCH  20  21
ATOM     21  C   UNL A   1      32.475  22.037  23.012  1.00  0.00     0.430 C 
ATOM     22  F   UNL A   1      33.285  22.607  22.085  1.00  0.00    -0.167 F 
ATOM     23  F   UNL A   1      32.578  20.699  22.839  1.00  0.00    -0.167 F 
ATOM     24  F   UNL A   1      31.206  22.389  22.712  1.00  0.00    -0.167 F 
ENDBRANCH  20  21
ENDBRANCH   6   8
ENDBRANCH   5   6
ENDBRANCH   4   5
ENDBRANCH   3   4
ENDBRANCH   2   3
ENDBRANCH   1   2
BRANCH   1  25
ATOM     25  C   UNL A   1      31.693  30.512  25.817  1.00  0.00     0.261 C 
BRANCH  25  26
ATOM     26  O   UNL A   1      32.729  30.292  26.793  1.00  0.00    -0.460 OA
BRANCH  26  27
ATOM     27  C   UNL A   1      33.362  31.412  27.213  1.00  0.00     0.338 C 
ATOM     28  O   UNL A   1      32.891  32.538  27.319  1.00  0.00    -0.246 OA
BRANCH  27  29
ATOM     29  C   UNL A   1      34.702  31.076  27.720  1.00  0.00     0.060 A 
ATOM     30  C   UNL A   1      34.970  29.731  28.004  1.00  0.00     0.016 A 
ATOM     31  C   UNL A   1      35.648  32.064  28.001  1.00  0.00     0.016 A 
ATOM     32  C   UNL A   1      36.168  29.372  28.616  1.00  0.00     0.010 A 
ATOM     33  C   UNL A   1      36.845  31.705  28.629  1.00  0.00     0.010 A 
ATOM     34  C   UNL A   1      37.094  30.363  28.970  1.00  0.00    -0.014 A 
BRANCH  34  35
ATOM     35  C   UNL A   1      38.241  30.005  29.838  1.00  0.00     0.031 A 
ATOM     36  C   UNL A   1      39.298  29.079  29.301  1.00  0.00     0.074 A 
ATOM     37  C   UNL A   1      38.367  30.539  31.065  1.00  0.00     0.049 A 
ATOM     38  N   UNL A   1      40.380  28.629  29.883  1.00  0.00    -0.248 NA
ATOM     39  C   UNL A   1      39.112  28.602  27.921  1.00  0.00     0.031 C 
ATOM     40  C   UNL A   1      37.438  31.490  31.670  1.00  0.00     0.029 A 
ATOM     41  N   UNL A   1      39.337  30.358  32.020  1.00  0.00    -0.354 N 
ATOM     42  C   UNL A   1      41.009  27.828  28.939  1.00  0.00     0.074 A 
ATOM     43  C   UNL A   1      40.171  27.822  27.759  1.00  0.00     0.031 C 
ATOM     44  C   UNL A   1      37.885  31.812  32.898  1.00  0.00     0.029 A 
ATOM     45  C   UNL A   1      39.113  31.068  33.172  1.00  0.00     0.049 A 
ATOM     46  H   UNL A   1      40.119  29.774  31.890  1.00  0.00     0.167 HD
ATOM     47  C   UNL A   1      42.186  27.168  29.043  1.00  0.00     0.037 A 
ATOM     48  C   UNL A   1      39.815  31.101  34.322  1.00  0.00     0.037 A 
ATOM     49  C   UNL A   1      43.015  27.170  30.218  1.00  0.00     0.049 A 
ATOM     50  C   UNL A   1      41.070  30.277  34.448  1.00  0.00     0.074 A 
ATOM     51  C   UNL A   1      44.224  26.527  30.421  1.00  0.00     0.029 A 
ATOM     52  N   UNL A   1      42.720  27.849  31.392  1.00  0.00    -0.354 N 
ATOM     53  N   UNL A   1      41.658  29.523  33.551  1.00  0.00    -0.248 NA
ATOM     54  C   UNL A   1      41.757  30.306  35.748  1.00  0.00     0.031 C 
ATOM     55  C   UNL A   1      44.639  26.781  31.732  1.00  0.00     0.029 A 
ATOM     56  C   UNL A   1      43.712  27.620  32.331  1.00  0.00     0.049 A 
ATOM     57  H   UNL A   1      41.924  28.409  31.534  1.00  0.00     0.167 HD
ATOM     58  C   UNL A   1      42.792  29.009  34.167  1.00  0.00     0.074 A 
ATOM     59  C   UNL A   1      42.817  29.545  35.512  1.00  0.00     0.031 C 
ATOM     60  C   UNL A   1      43.726  28.166  33.663  1.00  0.00     0.037 A 
BRANCH  47  61
ATOM     61  C   UNL A   1      42.649  26.379  27.857  1.00  0.00     0.064 A 
ATOM     62  C   UNL A   1      43.485  26.948  26.884  1.00  0.00     0.173 A 
ATOM     63  C   UNL A   1      42.310  25.025  27.724  1.00  0.00     0.173 A 
ATOM     64  F   UNL A   1      43.826  28.243  26.959  1.00  0.00    -0.203 F 
ATOM     65  C   UNL A   1      43.954  26.190  25.814  1.00  0.00     0.198 A 
ATOM     66  C   UNL A   1      42.801  24.264  26.667  1.00  0.00     0.198 A 
ATOM     67  F   UNL A   1      41.517  24.435  28.631  1.00  0.00    -0.203 F 
ATOM     68  F   UNL A   1      44.729  26.760  24.880  1.00  0.00    -0.200 F 
ATOM     69  C   UNL A   1      43.620  24.848  25.712  1.00  0.00     0.200 A 
ATOM     70  F   UNL A   1      42.486  22.965  26.575  1.00  0.00    -0.200 F 
ATOM     71  F   UNL A   1      44.086  24.115  24.691  1.00  0.00    -0.200 F 
ENDBRANCH  47  61
BRANCH  48  72
ATOM     72  C   UNL A   1      39.347  31.946  35.450  1.00  0.00     0.064 A 
ATOM     73  C   UNL A   1      39.771  33.276  35.580  1.00  0.00     0.173 A 
ATOM     74  C   UNL A   1      38.470  31.443  36.423  1.00  0.00     0.173 A 
ATOM     75  F   UNL A   1      40.630  33.793  34.689  1.00  0.00    -0.203 F 
ATOM     76  C   UNL A   1      39.344  34.067  36.644  1.00  0.00     0.198 A 
ATOM     77  C   UNL A   1      38.024  32.243  37.473  1.00  0.00     0.198 A 
ATOM     78  F   UNL A   1      38.040  30.175  36.347  1.00  0.00    -0.203 F 
ATOM     79  F   UNL A   1      39.794  35.323  36.765  1.00  0.00    -0.200 F 
ATOM     80  C   UNL A   1      38.465  33.553  37.586  1.00  0.00     0.200 A 
ATOM     81  F   UNL A   1      37.168  31.744  38.376  1.00  0.00    -0.200 F 
ATOM     82  F   UNL A   1      38.051  34.316  38.605  1.00  0.00    -0.200 F 
ENDBRANCH  48  72
BRANCH  60  83
ATOM     83  C   UNL A   1      44.870  27.780  34.554  1.00  0.00     0.064 A 
ATOM     84  C   UNL A   1      44.795  26.663  35.397  1.00  0.00     0.173 A 
ATOM     85  C   UNL A   1      46.081  28.487  34.503  1.00  0.00     0.173 A 
ATOM     86  F   UNL A   1      43.654  25.962  35.489  1.00  0.00    -0.203 F 
ATOM     87  C   UNL A   1      45.888  26.272  36.166  1.00  0.00     0.198 A 
ATOM     88  C   UNL A   1      47.181  28.078  35.253  1.00  0.00     0.198 A 
ATOM     89  F   UNL A   1      46.207  29.558  33.704  1.00  0.00    -0.203 F 
ATOM     90  F   UNL A   1      45.785  25.218  36.986  1.00  0.00    -0.200 F 
ATOM     91  C   UNL A   1      47.082  26.974  36.086  1.00  0.00     0.200 A 
ATOM     92  F   UNL A   1      48.338  28.748  35.162  1.00  0.00    -0.200 F 
ATOM     93  F   UNL A   1      48.139  26.586  36.813  1.00  0.00    -0.200 F 
ENDBRANCH  60  83
ENDBRANCH  34  35
ENDBRANCH  27  29
ENDBRANCH  26  27
ENDBRANCH  25  26
ENDBRANCH   1  25
TORSDOF 15
ENDMDL
MODEL 2
REMARK VINA RESULT:     -11.8      1.342      7.449
REMARK SMILES Cc1c(Cl)cc2c(c1C)O[C@H](C(F)(F)F)C(C(=O)OCCOCCOC(=O)c1ccc(-c3c4nc(c(-c5c(F)c(F)c(F)c(F)c5F)c5ccc([nH]5)c(-c5c(F)c(F)c(F)c(F)c5F)c5nc(c(-c6c(F)c(F)c(F)c(F)c6F)c6ccc3[nH]6)C=C5)C=C4)cc1)=C2
REMARK SMILES IDX 23 1 22 2 21 3 20 4 19 5 17 6 18 7 16 8 1 9 2 10 3 11 8 12
REMARK SMILES IDX 4 13 5 14 7 15 9 16 6 17 10 18 91 19 11 20 12 21 13 22 14 23
REMARK SMILES IDX 15 24 24 25 25 26 26 27 27 28 28 29 29 30 90 31 30 32 89 33
REMARK SMILES IDX 31 34 32 35 33 36 83 37 34 38 88 39 82 40 84 41 35 42 87 43
REMARK SMILES IDX 81 44 80 45 36 47 68 48 48 49 67 50 49 51 52 52 66 53 85 54
REMARK SMILES IDX 50 55 51 56 65 58 86 59 53 60 37 61 38 62 46 63 39 64 40 65
REMARK SMILES IDX 44 66 47 67 41 68 42 69 45 70 43 71 69 72 70 73 78 74 71 75
REMARK SMILES IDX 72 76 76 77 79 78 73 79 74 80 77 81 75 82 54 83 55 84 63 85
REMARK SMILES IDX 56 86 57 87 61 88 64 89 58 90 59 91 62 92 60 93
REMARK H PARENT 84 46 52 57
REMARK Flexibility Score: inf
ROOT
ATOM      1  C   UNL A   1      31.372  31.753  26.399  1.00  0.00     0.202 C 
ENDROOT
BRANCH   1   2
ATOM      2  O   UNL A   1      32.265  30.644  26.293  1.00  0.00    -0.374 OA
BRANCH   2   3
ATOM      3  C   UNL A   1      32.072  29.552  27.191  1.00  0.00     0.202 C 
BRANCH   3   4
ATOM      4  C   UNL A   1      33.075  28.401  27.078  1.00  0.00     0.261 C 
BRANCH   4   5
ATOM      5  O   UNL A   1      32.502  27.276  26.391  1.00  0.00    -0.460 OA
BRANCH   5   6
ATOM      6  C   UNL A   1      33.246  26.806  25.364  1.00  0.00     0.338 C 
ATOM      7  O   UNL A   1      33.885  27.468  24.558  1.00  0.00    -0.246 OA
BRANCH   6   8
ATOM      8  C   UNL A   1      33.285  25.334  25.404  1.00  0.00     0.087 C 
ATOM      9  C   UNL A   1      35.000  19.090  24.651  1.00  0.00     0.046 C 
ATOM     10  C   UNL A   1      34.844  20.563  24.945  1.00  0.00    -0.026 A 
ATOM     11  C   UNL A   1      35.986  21.376  25.087  1.00  0.00     0.045 A 
ATOM     12  C   UNL A   1      33.564  21.175  24.996  1.00  0.00    -0.004 A 
ATOM     13  Cl  UNL A   1      37.594  20.743  24.977  1.00  0.00    -0.084 Cl
ATOM     14  C   UNL A   1      35.871  22.752  25.291  1.00  0.00     0.032 A 
ATOM     15  C   UNL A   1      33.465  22.564  25.238  1.00  0.00     0.131 A 
ATOM     16  C   UNL A   1      32.288  20.390  24.808  1.00  0.00     0.049 C 
ATOM     17  C   UNL A   1      34.613  23.348  25.350  1.00  0.00     0.019 A 
ATOM     18  O   UNL A   1      32.205  23.088  25.355  1.00  0.00    -0.475 OA
ATOM     19  C   UNL A   1      34.507  24.792  25.445  1.00  0.00     0.027 C 
ATOM     20  C   UNL A   1      32.017  24.530  25.367  1.00  0.00     0.316 C 
BRANCH  20  21
ATOM     21  C   UNL A   1      31.107  24.902  24.186  1.00  0.00     0.430 C 
ATOM     22  F   UNL A   1      30.377  23.835  23.778  1.00  0.00    -0.167 F 
ATOM     23  F   UNL A   1      30.220  25.869  24.519  1.00  0.00    -0.167 F 
ATOM     24  F   UNL A   1      31.810  25.345  23.121  1.00  0.00    -0.167 F 
ENDBRANCH  20  21
ENDBRANCH   6   8
ENDBRANCH   5   6
ENDBRANCH   4   5
ENDBRANCH   3   4
ENDBRANCH   2   3
ENDBRANCH   1   2
BRANCH   1  25
ATOM     25  C   UNL A   1      31.964  33.059  26.945  1.00  0.00     0.261 C 
BRANCH  25  26
ATOM     26  O   UNL A   1      32.950  32.813  27.965  1.00  0.00    -0.460 OA
BRANCH  26  27
ATOM     27  C   UNL A   1      34.019  33.644  27.934  1.00  0.00     0.338 C 
ATOM     28  O   UNL A   1      34.013  34.861  27.795  1.00  0.00    -0.246 OA
BRANCH  27  29
ATOM     29  C   UNL A   1      35.244  32.903  28.277  1.00  0.00     0.060 A 
ATOM     30  C   UNL A   1      35.111  31.553  28.623  1.00  0.00     0.016 A 
ATOM     31  C   UNL A   1      36.486  33.537  28.350  1.00  0.00     0.016 A 
ATOM     32  C   UNL A   1      36.212  30.841  29.092  1.00  0.00     0.010 A 
ATOM     33  C   UNL A   1      37.589  32.825  28.834  1.00  0.00     0.010 A 
ATOM     34  C   UNL A   1      37.448  31.486  29.240  1.00  0.00    -0.014 A 
BRANCH  34  35
ATOM     35  C   UNL A   1      38.540  30.797  29.967  1.00  0.00     0.031 A 
ATOM     36  C   UNL A   1      38.781  31.141  31.411  1.00  0.00     0.074 A 
ATOM     37  C   UNL A   1      39.270  29.841  29.368  1.00  0.00     0.049 A 
ATOM     38  N   UNL A   1      39.679  30.669  32.238  1.00  0.00    -0.248 NA
ATOM     39  C   UNL A   1      37.885  32.147  32.005  1.00  0.00     0.031 C 
ATOM     40  C   UNL A   1      39.091  29.383  27.992  1.00  0.00     0.029 A 
ATOM     41  N   UNL A   1      40.306  29.079  29.847  1.00  0.00    -0.354 N 
ATOM     42  C   UNL A   1      39.450  31.310  33.448  1.00  0.00     0.074 A 
ATOM     43  C   UNL A   1      38.353  32.231  33.242  1.00  0.00     0.031 C 
ATOM     44  C   UNL A   1      39.989  28.415  27.737  1.00  0.00     0.029 A 
ATOM     45  C   UNL A   1      40.822  28.207  28.921  1.00  0.00     0.049 A 
ATOM     46  H   UNL A   1      40.648  29.151  30.767  1.00  0.00     0.167 HD
ATOM     47  C   UNL A   1      40.088  31.136  34.629  1.00  0.00     0.037 A 
ATOM     48  C   UNL A   1      41.857  27.351  29.016  1.00  0.00     0.037 A 
ATOM     49  C   UNL A   1      41.182  30.224  34.833  1.00  0.00     0.049 A 
ATOM     50  C   UNL A   1      42.616  27.248  30.315  1.00  0.00     0.074 A 
ATOM     51  C   UNL A   1      41.897  29.981  35.992  1.00  0.00     0.029 A 
ATOM     52  N   UNL A   1      41.720  29.406  33.850  1.00  0.00    -0.354 N 
ATOM     53  N   UNL A   1      42.393  27.857  31.453  1.00  0.00    -0.248 NA
ATOM     54  C   UNL A   1      43.774  26.342  30.338  1.00  0.00     0.031 C 
ATOM     55  C   UNL A   1      42.897  29.047  35.701  1.00  0.00     0.029 A 
ATOM     56  C   UNL A   1      42.774  28.674  34.372  1.00  0.00     0.049 A 
ATOM     57  H   UNL A   1      41.400  29.353  32.921  1.00  0.00     0.167 HD
ATOM     58  C   UNL A   1      43.363  27.393  32.333  1.00  0.00     0.074 A 
ATOM     59  C   UNL A   1      44.171  26.441  31.599  1.00  0.00     0.031 C 
ATOM     60  C   UNL A   1      43.565  27.727  33.630  1.00  0.00     0.037 A 
BRANCH  47  61
ATOM     61  C   UNL A   1      39.627  31.953  35.797  1.00  0.00     0.064 A 
ATOM     62  C   UNL A   1      40.200  33.200  36.087  1.00  0.00     0.173 A 
ATOM     63  C   UNL A   1      38.560  31.517  36.596  1.00  0.00     0.173 A 
ATOM     64  F   UNL A   1      41.233  33.654  35.360  1.00  0.00    -0.203 F 
ATOM     65  C   UNL A   1      39.727  33.976  37.142  1.00  0.00     0.198 A 
ATOM     66  C   UNL A   1      38.074  32.305  37.635  1.00  0.00     0.198 A 
ATOM     67  F   UNL A   1      37.977  30.333  36.357  1.00  0.00    -0.203 F 
ATOM     68  F   UNL A   1      40.308  35.152  37.419  1.00  0.00    -0.200 F 
ATOM     69  C   UNL A   1      38.660  33.533  37.909  1.00  0.00     0.200 A 
ATOM     70  F   UNL A   1      37.035  31.882  38.367  1.00  0.00    -0.200 F 
ATOM     71  F   UNL A   1      38.195  34.288  38.913  1.00  0.00    -0.200 F 
ENDBRANCH  47  61
BRANCH  48  72
ATOM     72  C   UNL A   1      42.238  26.518  27.848  1.00  0.00     0.064 A 
ATOM     73  C   UNL A   1      41.657  25.259  27.638  1.00  0.00     0.173 A 
ATOM     74  C   UNL A   1      43.193  26.959  26.919  1.00  0.00     0.173 A 
ATOM     75  F   UNL A   1      40.760  24.783  28.514  1.00  0.00    -0.203 F 
ATOM     76  C   UNL A   1      42.023  24.470  26.549  1.00  0.00     0.198 A 
ATOM     77  C   UNL A   1      43.539  26.179  25.817  1.00  0.00     0.198 A 
ATOM     78  F   UNL A   1      43.782  28.153  27.078  1.00  0.00    -0.203 F 
ATOM     79  F   UNL A   1      41.480  23.256  26.393  1.00  0.00    -0.200 F 
ATOM     80  C   UNL A   1      42.958  24.934  25.636  1.00  0.00     0.200 A 
ATOM     81  F   UNL A   1      44.437  26.635  24.932  1.00  0.00    -0.200 F 
ATOM     82  F   UNL A   1      43.304  24.177  24.587  1.00  0.00    -0.200 F 
ENDBRANCH  48  72
BRANCH  60  83
ATOM     83  C   UNL A   1      44.691  27.051  34.357  1.00  0.00     0.064 A 
ATOM     84  C   UNL A   1      44.514  25.811  34.986  1.00  0.00     0.173 A 
ATOM     85  C   UNL A   1      45.977  27.611  34.354  1.00  0.00     0.173 A 
ATOM     86  F   UNL A   1      43.300  25.241  35.026  1.00  0.00    -0.203 F 
ATOM     87  C   UNL A   1      45.584  25.160  35.596  1.00  0.00     0.198 A 
ATOM     88  C   UNL A   1      47.050  26.945  34.942  1.00  0.00     0.198 A 
ATOM     89  F   UNL A   1      46.200  28.792  33.757  1.00  0.00    -0.203 F 
ATOM     90  F   UNL A   1      45.387  23.989  36.216  1.00  0.00    -0.200 F 
ATOM     91  C   UNL A   1      46.851  25.722  35.565  1.00  0.00     0.200 A 
ATOM     92  F   UNL A   1      48.276  27.483  34.896  1.00  0.00    -0.200 F 
ATOM     93  F   UNL A   1      47.883  25.086  36.137  1.00  0.00    -0.200 F 
ENDBRANCH  60  83
ENDBRANCH  34  35
ENDBRANCH  27  29
ENDBRANCH  26  27
ENDBRANCH  25  26
ENDBRANCH   1  25
TORSDOF 15
ENDMDL
MODEL 3
REMARK VINA RESULT:     -11.7      0.373      7.412
REMARK SMILES Cc1c(Cl)cc2c(c1C)O[C@H](C(F)(F)F)C(C(=O)OCCOCCOC(=O)c1ccc(-c3c4nc(c(-c5c(F)c(F)c(F)c(F)c5F)c5ccc([nH]5)c(-c5c(F)c(F)c(F)c(F)c5F)c5nc(c(-c6c(F)c(F)c(F)c(F)c6F)c6ccc3[nH]6)C=C5)C=C4)cc1)=C2
REMARK SMILES IDX 23 1 22 2 21 3 20 4 19 5 17 6 18 7 16 8 1 9 2 10 3 11 8 12
REMARK SMILES IDX 4 13 5 14 7 15 9 16 6 17 10 18 91 19 11 20 12 21 13 22 14 23
REMARK SMILES IDX 15 24 24 25 25 26 26 27 27 28 28 29 29 30 90 31 30 32 89 33
REMARK SMILES IDX 31 34 32 35 33 36 83 37 34 38 88 39 82 40 84 41 35 42 87 43
REMARK SMILES IDX 81 44 80 45 36 47 68 48 48 49 67 50 49 51 52 52 66 53 85 54
REMARK SMILES IDX 50 55 51 56 65 58 86 59 53 60 37 61 38 62 46 63 39 64 40 65
REMARK SMILES IDX 44 66 47 67 41 68 42 69 45 70 43 71 69 72 70 73 78 74 71 75
REMARK SMILES IDX 72 76 76 77 79 78 73 79 74 80 77 81 75 82 54 83 55 84 63 85
REMARK SMILES IDX 56 86 57 87 61 88 64 89 58 90 59 91 62 92 60 93
REMARK H PARENT 84 46 52 57
REMARK Flexibility Score: inf
ROOT
ATOM      1  C   UNL A   1      32.816  29.609  25.042  1.00  0.00     0.202 C 
ENDROOT
BRANCH   1   2
ATOM      2  O   UNL A   1      32.265  28.353  24.644  1.00  0.00    -0.374 OA
BRANCH   2   3
ATOM      3  C   UNL A   1      31.724  27.515  25.664  1.00  0.00     0.202 C 
BRANCH   3   4
ATOM      4  C   UNL A   1      30.596  26.573  25.234  1.00  0.00     0.261 C 
BRANCH   4   5
ATOM      5  O   UNL A   1      31.047  25.210  25.182  1.00  0.00    -0.460 OA
BRANCH   5   6
ATOM      6  C   UNL A   1      31.838  24.918  24.125  1.00  0.00     0.338 C 
ATOM      7  O   UNL A   1      31.758  25.387  22.998  1.00  0.00    -0.246 OA
BRANCH   6   8
ATOM      8  C   UNL A   1      32.925  24.016  24.545  1.00  0.00     0.087 C 
ATOM      9  C   UNL A   1      38.762  21.409  25.817  1.00  0.00     0.046 C 
ATOM     10  C   UNL A   1      37.492  22.213  25.684  1.00  0.00    -0.026 A 
ATOM     11  C   UNL A   1      37.519  23.609  25.879  1.00  0.00     0.045 A 
ATOM     12  C   UNL A   1      36.273  21.609  25.277  1.00  0.00    -0.004 A 
ATOM     13  Cl  UNL A   1      38.967  24.454  26.313  1.00  0.00    -0.084 Cl
ATOM     14  C   UNL A   1      36.375  24.386  25.696  1.00  0.00     0.032 A 
ATOM     15  C   UNL A   1      35.115  22.407  25.130  1.00  0.00     0.131 A 
ATOM     16  C   UNL A   1      36.161  20.129  25.001  1.00  0.00     0.049 C 
ATOM     17  C   UNL A   1      35.178  23.789  25.306  1.00  0.00     0.019 A 
ATOM     18  O   UNL A   1      33.949  21.760  24.813  1.00  0.00    -0.475 OA
ATOM     19  C   UNL A   1      34.027  24.618  25.006  1.00  0.00     0.027 C 
ATOM     20  C   UNL A   1      32.779  22.527  24.416  1.00  0.00     0.316 C 
BRANCH  20  21
ATOM     21  C   UNL A   1      32.378  22.085  23.000  1.00  0.00     0.430 C 
ATOM     22  F   UNL A   1      31.084  22.399  22.740  1.00  0.00    -0.167 F 
ATOM     23  F   UNL A   1      33.120  22.702  22.051  1.00  0.00    -0.167 F 
ATOM     24  F   UNL A   1      32.516  20.754  22.823  1.00  0.00    -0.167 F 
ENDBRANCH  20  21
ENDBRANCH   6   8
ENDBRANCH   5   6
ENDBRANCH   4   5
ENDBRANCH   3   4
ENDBRANCH   2   3
ENDBRANCH   1   2
BRANCH   1  25
ATOM     25  C   UNL A   1      31.986  30.440  26.028  1.00  0.00     0.261 C 
BRANCH  25  26
ATOM     26  O   UNL A   1      32.616  30.522  27.321  1.00  0.00    -0.460 OA
BRANCH  26  27
ATOM     27  C   UNL A   1      33.410  31.604  27.499  1.00  0.00     0.338 C 
ATOM     28  O   UNL A   1      33.073  32.782  27.503  1.00  0.00    -0.246 OA
BRANCH  27  29
ATOM     29  C   UNL A   1      34.767  31.179  27.879  1.00  0.00     0.060 A 
ATOM     30  C   UNL A   1      34.965  29.823  28.167  1.00  0.00     0.016 A 
ATOM     31  C   UNL A   1      35.804  32.100  28.041  1.00  0.00     0.016 A 
ATOM     32  C   UNL A   1      36.190  29.388  28.667  1.00  0.00     0.010 A 
ATOM     33  C   UNL A   1      37.029  31.664  28.557  1.00  0.00     0.010 A 
ATOM     34  C   UNL A   1      37.215  30.314  28.904  1.00  0.00    -0.014 A 
BRANCH  34  35
ATOM     35  C   UNL A   1      38.414  29.887  29.663  1.00  0.00     0.031 A 
ATOM     36  C   UNL A   1      38.629  30.430  31.049  1.00  0.00     0.074 A 
ATOM     37  C   UNL A   1      39.269  28.987  29.147  1.00  0.00     0.049 A 
ATOM     38  N   UNL A   1      39.605  30.198  31.889  1.00  0.00    -0.248 NA
ATOM     39  C   UNL A   1      37.602  31.353  31.558  1.00  0.00     0.031 C 
ATOM     40  C   UNL A   1      39.134  28.349  27.840  1.00  0.00     0.029 A 
ATOM     41  N   UNL A   1      40.420  28.450  29.670  1.00  0.00    -0.354 N 
ATOM     42  C   UNL A   1      39.306  30.935  33.026  1.00  0.00     0.074 A 
ATOM     43  C   UNL A   1      38.077  31.651  32.759  1.00  0.00     0.031 C 
ATOM     44  C   UNL A   1      40.165  27.503  27.662  1.00  0.00     0.029 A 
ATOM     45  C   UNL A   1      41.043  27.563  28.829  1.00  0.00     0.049 A 
ATOM     46  H   UNL A   1      40.765  28.680  30.563  1.00  0.00     0.167 HD
ATOM     47  C   UNL A   1      39.987  30.997  34.194  1.00  0.00     0.037 A 
ATOM     48  C   UNL A   1      42.199  26.888  28.981  1.00  0.00     0.037 A 
ATOM     49  C   UNL A   1      41.211  30.290  34.458  1.00  0.00     0.049 A 
ATOM     50  C   UNL A   1      42.991  27.053  30.253  1.00  0.00     0.074 A 
ATOM     51  C   UNL A   1      41.979  30.294  35.609  1.00  0.00     0.029 A 
ATOM     52  N   UNL A   1      41.848  29.451  33.554  1.00  0.00    -0.354 N 
ATOM     53  N   UNL A   1      42.700  27.750  31.323  1.00  0.00    -0.248 NA
ATOM     54  C   UNL A   1      44.274  26.339  30.334  1.00  0.00     0.031 C 
ATOM     55  C   UNL A   1      43.103  29.492  35.388  1.00  0.00     0.029 A 
ATOM     56  C   UNL A   1      43.012  28.952  34.114  1.00  0.00     0.049 A 
ATOM     57  H   UNL A   1      41.521  29.243  32.649  1.00  0.00     0.167 HD
ATOM     58  C   UNL A   1      43.748  27.543  32.212  1.00  0.00     0.074 A 
ATOM     59  C   UNL A   1      44.677  26.643  31.560  1.00  0.00     0.031 C 
ATOM     60  C   UNL A   1      43.923  28.053  33.455  1.00  0.00     0.037 A 
BRANCH  47  61
ATOM     61  C   UNL A   1      39.431  31.867  35.280  1.00  0.00     0.064 A 
ATOM     62  C   UNL A   1      38.558  31.354  36.251  1.00  0.00     0.173 A 
ATOM     63  C   UNL A   1      39.823  33.209  35.390  1.00  0.00     0.173 A 
ATOM     64  F   UNL A   1      38.143  30.080  36.180  1.00  0.00    -0.203 F 
ATOM     65  C   UNL A   1      38.090  32.158  37.287  1.00  0.00     0.198 A 
ATOM     66  C   UNL A   1      39.372  34.003  36.440  1.00  0.00     0.198 A 
ATOM     67  F   UNL A   1      40.658  33.745  34.488  1.00  0.00    -0.203 F 
ATOM     68  F   UNL A   1      37.235  31.655  38.189  1.00  0.00    -0.200 F 
ATOM     69  C   UNL A   1      38.504  33.478  37.387  1.00  0.00     0.200 A 
ATOM     70  F   UNL A   1      39.782  35.275  36.542  1.00  0.00    -0.200 F 
ATOM     71  F   UNL A   1      38.066  34.245  38.394  1.00  0.00    -0.200 F 
ENDBRANCH  47  61
BRANCH  48  72
ATOM     72  C   UNL A   1      42.679  25.989  27.900  1.00  0.00     0.064 A 
ATOM     73  C   UNL A   1      42.233  24.664  27.812  1.00  0.00     0.173 A 
ATOM     74  C   UNL A   1      43.596  26.435  26.936  1.00  0.00     0.173 A 
ATOM     75  F   UNL A   1      41.377  24.184  28.727  1.00  0.00    -0.203 F 
ATOM     76  C   UNL A   1      42.692  23.815  26.806  1.00  0.00     0.198 A 
ATOM     77  C   UNL A   1      44.035  25.593  25.917  1.00  0.00     0.198 A 
ATOM     78  F   UNL A   1      44.058  27.694  26.981  1.00  0.00    -0.203 F 
ATOM     79  F   UNL A   1      42.278  22.542  26.767  1.00  0.00    -0.200 F 
ATOM     80  C   UNL A   1      43.587  24.283  25.856  1.00  0.00     0.200 A 
ATOM     81  F   UNL A   1      44.893  26.052  24.995  1.00  0.00    -0.200 F 
ATOM     82  F   UNL A   1      44.023  23.468  24.886  1.00  0.00    -0.200 F 
ENDBRANCH  48  72
BRANCH  60  83
ATOM     83  C   UNL A   1      45.154  27.643  34.210  1.00  0.00     0.064 A 
ATOM     84  C   UNL A   1      46.337  28.390  34.138  1.00  0.00     0.173 A 
ATOM     85  C   UNL A   1      45.123  26.539  35.075  1.00  0.00     0.173 A 
ATOM     86  F   UNL A   1      46.420  29.448  33.316  1.00  0.00    -0.203 F 
ATOM     87  C   UNL A   1      47.451  28.041  34.899  1.00  0.00     0.198 A 
ATOM     88  C   UNL A   1      46.229  26.209  35.854  1.00  0.00     0.198 A 
ATOM     89  F   UNL A   1      44.010  25.798  35.187  1.00  0.00    -0.203 F 
ATOM     90  F   UNL A   1      48.581  28.752  34.793  1.00  0.00    -0.200 F 
ATOM     91  C   UNL A   1      47.392  26.957  35.762  1.00  0.00     0.200 A 
ATOM     92  F   UNL A   1      46.165  25.171  36.699  1.00  0.00    -0.200 F 
ATOM     93  F   UNL A   1      48.459  26.633  36.507  1.00  0.00    -0.200 F 
ENDBRANCH  60  83
ENDBRANCH  34  35
ENDBRANCH  27  29
ENDBRANCH  26  27
ENDBRANCH  25  26
ENDBRANCH   1  25
TORSDOF 15
ENDMDL
