MODEL 1
REMARK VINA RESULT:     -12.3      0.000      0.000
REMARK SMILES C[C@H]1[C@@H](C(=O)OCCOCCOC(=O)c2ccc(-c3c4nc(c(-c5c(F)c(F)c(F)c(F)c5F)c5ccc([nH]5)c(-c5c(F)c(F)c(F)c(F)c5F)c5nc(c(-c6c(F)c(F)c(F)c(F)c6F)c6ccc3[nH]6)C=C5)C=C4)cc2)CCN1C(=O)NC1CCCCC1
REMARK SMILES IDX 9 1 8 2 7 3 6 4 4 5 5 6 3 7 1 8 2 9 80 10 78 11 79 12 81 13
REMARK SMILES IDX 82 14 83 15 84 17 85 18 89 19 86 20 88 21 87 22 10 23 11 24
REMARK SMILES IDX 12 25 13 26 14 27 15 28 16 29 77 30 17 31 76 32 18 33 19 34
REMARK SMILES IDX 20 35 70 36 21 37 75 38 69 39 71 40 22 41 74 42 68 43 67 44
REMARK SMILES IDX 23 46 55 47 35 48 54 49 36 50 39 51 53 52 72 53 37 54 38 55
REMARK SMILES IDX 52 57 73 58 40 59 24 60 25 61 33 62 26 63 27 64 31 65 34 66
REMARK SMILES IDX 28 67 29 68 32 69 30 70 56 71 57 72 65 73 58 74 59 75 63 76
REMARK SMILES IDX 66 77 60 78 61 79 64 80 62 81 41 82 42 83 50 84 43 85 44 86
REMARK SMILES IDX 48 87 51 88 45 89 46 90 49 91 47 92
REMARK H PARENT 83 16 71 45 39 56
REMARK Flexibility Score: inf
ROOT
ATOM      1  O   UNL A   1      33.087  29.483  25.284  1.00  0.00    -0.374 OA
ENDROOT
BRANCH   1   2
ATOM      2  C   UNL A   1      33.330  28.898  24.000  1.00  0.00     0.202 C 
BRANCH   2   3
ATOM      3  C   UNL A   1      32.083  28.687  23.128  1.00  0.00     0.261 C 
BRANCH   3   4
ATOM      4  O   UNL A   1      31.556  27.363  23.319  1.00  0.00    -0.463 OA
BRANCH   4   5
ATOM      5  C   UNL A   1      30.244  27.255  23.625  1.00  0.00     0.311 C 
ATOM      6  O   UNL A   1      29.409  28.126  23.417  1.00  0.00    -0.252 OA
BRANCH   5   7
ATOM      7  C   UNL A   1      29.906  25.907  24.230  1.00  0.00     0.123 C 
ATOM      8  C   UNL A   1      31.425  26.362  26.389  1.00  0.00     0.032 C 
ATOM      9  C   UNL A   1      30.310  25.589  25.682  1.00  0.00     0.098 C 
ATOM     10  N   UNL A   1      30.625  24.175  25.720  1.00  0.00    -0.321 N 
ATOM     11  C   UNL A   1      30.417  24.720  23.406  1.00  0.00     0.039 C 
ATOM     12  C   UNL A   1      31.027  23.737  24.397  1.00  0.00     0.122 C 
BRANCH  10  13
ATOM     13  C   UNL A   1      30.753  23.322  26.770  1.00  0.00     0.317 C 
ATOM     14  O   UNL A   1      29.785  23.102  27.509  1.00  0.00    -0.249 OA
ATOM     15  N   UNL A   1      31.872  22.663  27.116  1.00  0.00    -0.335 N 
ATOM     16  H   UNL A   1      31.686  22.182  27.955  1.00  0.00     0.165 HD
BRANCH  15  17
ATOM     17  C   UNL A   1      33.285  22.370  26.733  1.00  0.00     0.083 C 
ATOM     18  C   UNL A   1      33.488  21.426  25.557  1.00  0.00     0.025 C 
ATOM     19  C   UNL A   1      33.998  23.711  26.450  1.00  0.00     0.025 C 
ATOM     20  C   UNL A   1      34.855  21.340  24.916  1.00  0.00     0.002 C 
ATOM     21  C   UNL A   1      35.404  23.550  25.870  1.00  0.00     0.002 C 
ATOM     22  C   UNL A   1      35.394  22.710  24.600  1.00  0.00     0.000 C 
ENDBRANCH  15  17
ENDBRANCH  10  13
ENDBRANCH   5   7
ENDBRANCH   4   5
ENDBRANCH   3   4
ENDBRANCH   2   3
ENDBRANCH   1   2
BRANCH   1  23
ATOM     23  C   UNL A   1      31.804  30.065  25.503  1.00  0.00     0.202 C 
BRANCH  23  24
ATOM     24  C   UNL A   1      31.744  31.250  26.473  1.00  0.00     0.261 C 
BRANCH  24  25
ATOM     25  O   UNL A   1      32.711  31.127  27.529  1.00  0.00    -0.460 OA
BRANCH  25  26
ATOM     26  C   UNL A   1      33.495  32.213  27.677  1.00  0.00     0.338 C 
ATOM     27  O   UNL A   1      33.126  33.380  27.762  1.00  0.00    -0.246 OA
BRANCH  26  28
ATOM     28  C   UNL A   1      34.904  31.825  27.873  1.00  0.00     0.060 A 
ATOM     29  C   UNL A   1      35.162  30.454  27.960  1.00  0.00     0.016 A 
ATOM     30  C   UNL A   1      35.932  32.753  28.071  1.00  0.00     0.016 A 
ATOM     31  C   UNL A   1      36.413  30.005  28.362  1.00  0.00     0.010 A 
ATOM     32  C   UNL A   1      37.198  32.299  28.465  1.00  0.00     0.010 A 
ATOM     33  C   UNL A   1      37.421  30.926  28.680  1.00  0.00    -0.014 A 
BRANCH  33  34
ATOM     34  C   UNL A   1      38.609  30.431  29.420  1.00  0.00     0.031 A 
ATOM     35  C   UNL A   1      38.795  30.841  30.858  1.00  0.00     0.074 A 
ATOM     36  C   UNL A   1      39.438  29.532  28.861  1.00  0.00     0.049 A 
ATOM     37  N   UNL A   1      39.693  30.447  31.726  1.00  0.00    -0.248 NA
ATOM     38  C   UNL A   1      37.840  31.824  31.391  1.00  0.00     0.031 C 
ATOM     39  C   UNL A   1      39.337  29.030  27.493  1.00  0.00     0.029 A 
ATOM     40  N   UNL A   1      40.516  28.866  29.387  1.00  0.00    -0.354 N 
ATOM     41  C   UNL A   1      39.410  31.131  32.902  1.00  0.00     0.074 A 
ATOM     42  C   UNL A   1      38.289  32.002  32.625  1.00  0.00     0.031 C 
ATOM     43  C   UNL A   1      40.306  28.121  27.290  1.00  0.00     0.029 A 
ATOM     44  C   UNL A   1      41.109  27.997  28.505  1.00  0.00     0.049 A 
ATOM     45  H   UNL A   1      40.834  28.998  30.309  1.00  0.00     0.167 HD
ATOM     46  C   UNL A   1      40.015  31.030  34.109  1.00  0.00     0.037 A 
ATOM     47  C   UNL A   1      42.181  27.197  28.662  1.00  0.00     0.037 A 
ATOM     48  C   UNL A   1      41.127  30.158  34.386  1.00  0.00     0.049 A 
ATOM     49  C   UNL A   1      42.873  27.146  30.000  1.00  0.00     0.074 A 
ATOM     50  C   UNL A   1      41.801  29.971  35.580  1.00  0.00     0.029 A 
ATOM     51  N   UNL A   1      41.732  29.330  33.451  1.00  0.00    -0.354 N 
ATOM     52  N   UNL A   1      42.576  27.773  31.113  1.00  0.00    -0.248 NA
ATOM     53  C   UNL A   1      44.042  26.263  30.105  1.00  0.00     0.031 C 
ATOM     54  C   UNL A   1      42.853  29.076  35.352  1.00  0.00     0.029 A 
ATOM     55  C   UNL A   1      42.790  28.651  34.035  1.00  0.00     0.049 A 
ATOM     56  H   UNL A   1      41.451  29.238  32.512  1.00  0.00     0.167 HD
ATOM     57  C   UNL A   1      43.500  27.336  32.056  1.00  0.00     0.074 A 
ATOM     58  C   UNL A   1      44.353  26.375  31.388  1.00  0.00     0.031 C 
ATOM     59  C   UNL A   1      43.630  27.695  33.358  1.00  0.00     0.037 A 
BRANCH  46  60
ATOM     60  C   UNL A   1      39.503  31.905  35.219  1.00  0.00     0.064 A 
ATOM     61  C   UNL A   1      39.876  33.253  35.334  1.00  0.00     0.173 A 
ATOM     62  C   UNL A   1      38.603  31.393  36.167  1.00  0.00     0.173 A 
ATOM     63  F   UNL A   1      40.745  33.790  34.464  1.00  0.00    -0.203 F 
ATOM     64  C   UNL A   1      39.391  34.047  36.371  1.00  0.00     0.198 A 
ATOM     65  C   UNL A   1      38.093  32.197  37.182  1.00  0.00     0.198 A 
ATOM     66  F   UNL A   1      38.209  30.112  36.102  1.00  0.00    -0.203 F 
ATOM     67  F   UNL A   1      39.802  35.316  36.491  1.00  0.00    -0.200 F 
ATOM     68  C   UNL A   1      38.493  33.520  37.289  1.00  0.00     0.200 A 
ATOM     69  F   UNL A   1      37.216  31.691  38.059  1.00  0.00    -0.200 F 
ATOM     70  F   UNL A   1      38.021  34.287  38.282  1.00  0.00    -0.200 F 
ENDBRANCH  46  60
BRANCH  47  71
ATOM     71  C   UNL A   1      42.667  26.374  27.523  1.00  0.00     0.064 A 
ATOM     72  C   UNL A   1      42.158  25.090  27.280  1.00  0.00     0.173 A 
ATOM     73  C   UNL A   1      43.671  26.848  26.665  1.00  0.00     0.173 A 
ATOM     74  F   UNL A   1      41.213  24.582  28.085  1.00  0.00    -0.203 F 
ATOM     75  C   UNL A   1      42.652  24.304  26.241  1.00  0.00     0.198 A 
ATOM     76  C   UNL A   1      44.141  26.074  25.606  1.00  0.00     0.198 A 
ATOM     77  F   UNL A   1      44.193  28.070  26.851  1.00  0.00    -0.203 F 
ATOM     78  F   UNL A   1      42.185  23.059  26.066  1.00  0.00    -0.200 F 
ATOM     79  C   UNL A   1      43.638  24.798  25.401  1.00  0.00     0.200 A 
ATOM     80  F   UNL A   1      45.083  26.563  24.789  1.00  0.00    -0.200 F 
ATOM     81  F   UNL A   1      44.110  24.043  24.401  1.00  0.00    -0.200 F 
ENDBRANCH  47  71
BRANCH  59  82
ATOM     82  C   UNL A   1      44.707  27.016  34.156  1.00  0.00     0.064 A 
ATOM     83  C   UNL A   1      45.996  27.558  34.276  1.00  0.00     0.173 A 
ATOM     84  C   UNL A   1      44.441  25.809  34.823  1.00  0.00     0.173 A 
ATOM     85  F   UNL A   1      46.308  28.701  33.649  1.00  0.00    -0.203 F 
ATOM     86  C   UNL A   1      46.987  26.897  34.998  1.00  0.00     0.198 A 
ATOM     87  C   UNL A   1      45.423  25.172  35.576  1.00  0.00     0.198 A 
ATOM     88  F   UNL A   1      43.223  25.251  34.753  1.00  0.00    -0.203 F 
ATOM     89  F   UNL A   1      48.228  27.400  35.042  1.00  0.00    -0.200 F 
ATOM     90  C   UNL A   1      46.699  25.708  35.652  1.00  0.00     0.200 A 
ATOM     91  F   UNL A   1      45.137  24.033  36.222  1.00  0.00    -0.200 F 
ATOM     92  F   UNL A   1      47.654  25.075  36.346  1.00  0.00    -0.200 F 
ENDBRANCH  59  82
ENDBRANCH  33  34
ENDBRANCH  26  28
ENDBRANCH  25  26
ENDBRANCH  24  25
ENDBRANCH  23  24
ENDBRANCH   1  23
TORSDOF 16
ENDMDL
MODEL 2
REMARK VINA RESULT:     -12.0      1.566      2.776
REMARK SMILES C[C@H]1[C@@H](C(=O)OCCOCCOC(=O)c2ccc(-c3c4nc(c(-c5c(F)c(F)c(F)c(F)c5F)c5ccc([nH]5)c(-c5c(F)c(F)c(F)c(F)c5F)c5nc(c(-c6c(F)c(F)c(F)c(F)c6F)c6ccc3[nH]6)C=C5)C=C4)cc2)CCN1C(=O)NC1CCCCC1
REMARK SMILES IDX 9 1 8 2 7 3 6 4 4 5 5 6 3 7 1 8 2 9 80 10 78 11 79 12 81 13
REMARK SMILES IDX 82 14 83 15 84 17 85 18 89 19 86 20 88 21 87 22 10 23 11 24
REMARK SMILES IDX 12 25 13 26 14 27 15 28 16 29 77 30 17 31 76 32 18 33 19 34
REMARK SMILES IDX 20 35 70 36 21 37 75 38 69 39 71 40 22 41 74 42 68 43 67 44
REMARK SMILES IDX 23 46 55 47 35 48 54 49 36 50 39 51 53 52 72 53 37 54 38 55
REMARK SMILES IDX 52 57 73 58 40 59 24 60 25 61 33 62 26 63 27 64 31 65 34 66
REMARK SMILES IDX 28 67 29 68 32 69 30 70 56 71 57 72 65 73 58 74 59 75 63 76
REMARK SMILES IDX 66 77 60 78 61 79 64 80 62 81 41 82 42 83 50 84 43 85 44 86
REMARK SMILES IDX 48 87 51 88 45 89 46 90 49 91 47 92
REMARK H PARENT 83 16 71 45 39 56
REMARK Flexibility Score: inf
ROOT
ATOM      1  O   UNL A   1      31.046  28.951  24.858  1.00  0.00    -0.374 OA
ENDROOT
BRANCH   1   2
ATOM      2  C   UNL A   1      31.302  27.543  24.840  1.00  0.00     0.202 C 
BRANCH   2   3
ATOM      3  C   UNL A   1      31.060  26.815  26.171  1.00  0.00     0.261 C 
BRANCH   3   4
ATOM      4  O   UNL A   1      31.983  25.722  26.319  1.00  0.00    -0.463 OA
BRANCH   4   5
ATOM      5  C   UNL A   1      31.469  24.471  26.308  1.00  0.00     0.311 C 
ATOM      6  O   UNL A   1      30.404  24.153  26.819  1.00  0.00    -0.252 OA
BRANCH   5   7
ATOM      7  C   UNL A   1      32.352  23.497  25.552  1.00  0.00     0.123 C 
ATOM      8  C   UNL A   1      33.466  22.572  27.805  1.00  0.00     0.032 C 
ATOM      9  C   UNL A   1      33.149  22.424  26.315  1.00  0.00     0.098 C 
ATOM     10  N   UNL A   1      34.389  22.239  25.590  1.00  0.00    -0.321 N 
ATOM     11  C   UNL A   1      33.377  24.181  24.640  1.00  0.00     0.039 C 
ATOM     12  C   UNL A   1      34.697  23.449  24.849  1.00  0.00     0.122 C 
BRANCH  10  13
ATOM     13  C   UNL A   1      35.311  21.242  25.644  1.00  0.00     0.317 C 
ATOM     14  O   UNL A   1      36.463  21.485  26.025  1.00  0.00    -0.249 OA
ATOM     15  N   UNL A   1      35.100  19.958  25.306  1.00  0.00    -0.335 N 
ATOM     16  H   UNL A   1      35.964  19.488  25.374  1.00  0.00     0.165 HD
BRANCH  15  17
ATOM     17  C   UNL A   1      34.079  18.962  24.867  1.00  0.00     0.083 C 
ATOM     18  C   UNL A   1      33.016  19.461  23.899  1.00  0.00     0.025 C 
ATOM     19  C   UNL A   1      34.816  17.752  24.248  1.00  0.00     0.025 C 
ATOM     20  C   UNL A   1      32.159  18.451  23.170  1.00  0.00     0.002 C 
ATOM     21  C   UNL A   1      33.883  16.734  23.590  1.00  0.00     0.002 C 
ATOM     22  C   UNL A   1      33.005  17.382  22.530  1.00  0.00     0.000 C 
ENDBRANCH  15  17
ENDBRANCH  10  13
ENDBRANCH   5   7
ENDBRANCH   4   5
ENDBRANCH   3   4
ENDBRANCH   2   3
ENDBRANCH   1   2
BRANCH   1  23
ATOM     23  C   UNL A   1      32.110  29.802  25.278  1.00  0.00     0.202 C 
BRANCH  23  24
ATOM     24  C   UNL A   1      31.835  30.699  26.491  1.00  0.00     0.261 C 
BRANCH  24  25
ATOM     25  O   UNL A   1      32.858  30.574  27.492  1.00  0.00    -0.460 OA
BRANCH  25  26
ATOM     26  C   UNL A   1      33.625  31.674  27.624  1.00  0.00     0.338 C 
ATOM     27  O   UNL A   1      33.240  32.838  27.670  1.00  0.00    -0.246 OA
BRANCH  26  28
ATOM     28  C   UNL A   1      35.036  31.311  27.856  1.00  0.00     0.060 A 
ATOM     29  C   UNL A   1      35.306  29.948  28.015  1.00  0.00     0.016 A 
ATOM     30  C   UNL A   1      36.052  32.258  28.019  1.00  0.00     0.016 A 
ATOM     31  C   UNL A   1      36.555  29.533  28.455  1.00  0.00     0.010 A 
ATOM     32  C   UNL A   1      37.317  31.837  28.450  1.00  0.00     0.010 A 
ATOM     33  C   UNL A   1      37.550  30.479  28.737  1.00  0.00    -0.014 A 
BRANCH  33  34
ATOM     34  C   UNL A   1      38.734  30.033  29.514  1.00  0.00     0.031 A 
ATOM     35  C   UNL A   1      38.900  30.519  30.932  1.00  0.00     0.074 A 
ATOM     36  C   UNL A   1      39.578  29.115  29.013  1.00  0.00     0.049 A 
ATOM     37  N   UNL A   1      39.791  30.178  31.829  1.00  0.00    -0.248 NA
ATOM     38  C   UNL A   1      37.930  31.519  31.403  1.00  0.00     0.031 C 
ATOM     39  C   UNL A   1      39.497  28.542  27.671  1.00  0.00     0.029 A 
ATOM     40  N   UNL A   1      40.655  28.487  29.585  1.00  0.00    -0.354 N 
ATOM     41  C   UNL A   1      39.488  30.919  32.965  1.00  0.00     0.074 A 
ATOM     42  C   UNL A   1      38.362  31.764  32.631  1.00  0.00     0.031 C 
ATOM     43  C   UNL A   1      40.477  27.634  27.526  1.00  0.00     0.029 A 
ATOM     44  C   UNL A   1      41.266  27.580  28.755  1.00  0.00     0.049 A 
ATOM     45  H   UNL A   1      40.961  28.669  30.502  1.00  0.00     0.167 HD
ATOM     46  C   UNL A   1      40.079  30.886  34.182  1.00  0.00     0.037 A 
ATOM     47  C   UNL A   1      42.343  26.798  28.965  1.00  0.00     0.037 A 
ATOM     48  C   UNL A   1      41.195  30.040  34.517  1.00  0.00     0.049 A 
ATOM     49  C   UNL A   1      43.019  26.823  30.311  1.00  0.00     0.074 A 
ATOM     50  C   UNL A   1      41.857  29.920  35.726  1.00  0.00     0.029 A 
ATOM     51  N   UNL A   1      41.819  29.171  33.633  1.00  0.00    -0.354 N 
ATOM     52  N   UNL A   1      42.704  27.503  31.388  1.00  0.00    -0.248 NA
ATOM     53  C   UNL A   1      44.195  25.957  30.475  1.00  0.00     0.031 C 
ATOM     54  C   UNL A   1      42.919  29.025  35.557  1.00  0.00     0.029 A 
ATOM     55  C   UNL A   1      42.876  28.533  34.263  1.00  0.00     0.049 A 
ATOM     56  H   UNL A   1      41.550  29.028  32.697  1.00  0.00     0.167 HD
ATOM     57  C   UNL A   1      43.620  27.124  32.362  1.00  0.00     0.074 A 
ATOM     58  C   UNL A   1      44.490  26.139  31.754  1.00  0.00     0.031 C 
ATOM     59  C   UNL A   1      43.732  27.551  33.645  1.00  0.00     0.037 A 
BRANCH  46  60
ATOM     60  C   UNL A   1      39.546  31.812  35.240  1.00  0.00     0.064 A 
ATOM     61  C   UNL A   1      39.953  33.153  35.327  1.00  0.00     0.173 A 
ATOM     62  C   UNL A   1      38.593  31.358  36.164  1.00  0.00     0.173 A 
ATOM     63  F   UNL A   1      40.873  33.635  34.479  1.00  0.00    -0.203 F 
ATOM     64  C   UNL A   1      39.448  33.994  36.316  1.00  0.00     0.198 A 
ATOM     65  C   UNL A   1      38.064  32.210  37.130  1.00  0.00     0.198 A 
ATOM     66  F   UNL A   1      38.164  30.086  36.125  1.00  0.00    -0.203 F 
ATOM     67  F   UNL A   1      39.890  35.255  36.411  1.00  0.00    -0.200 F 
ATOM     68  C   UNL A   1      38.497  33.524  37.211  1.00  0.00     0.200 A 
ATOM     69  F   UNL A   1      37.135  31.758  37.984  1.00  0.00    -0.200 F 
ATOM     70  F   UNL A   1      38.006  34.336  38.156  1.00  0.00    -0.200 F 
ENDBRANCH  46  60
BRANCH  47  71
ATOM     71  C   UNL A   1      42.850  25.923  27.875  1.00  0.00     0.064 A 
ATOM     72  C   UNL A   1      43.802  26.381  26.954  1.00  0.00     0.173 A 
ATOM     73  C   UNL A   1      42.370  24.613  27.719  1.00  0.00     0.173 A 
ATOM     74  F   UNL A   1      44.275  27.632  27.047  1.00  0.00    -0.203 F 
ATOM     75  C   UNL A   1      44.236  25.572  25.906  1.00  0.00     0.198 A 
ATOM     76  C   UNL A   1      42.830  23.794  26.689  1.00  0.00     0.198 A 
ATOM     77  F   UNL A   1      41.458  24.124  28.572  1.00  0.00    -0.203 F 
ATOM     78  F   UNL A   1      45.107  26.055  25.008  1.00  0.00    -0.200 F 
ATOM     79  C   UNL A   1      43.755  24.279  25.777  1.00  0.00     0.200 A 
ATOM     80  F   UNL A   1      42.372  22.540  26.579  1.00  0.00    -0.200 F 
ATOM     81  F   UNL A   1      44.175  23.501  24.771  1.00  0.00    -0.200 F 
ENDBRANCH  47  71
BRANCH  59  82
ATOM     82  C   UNL A   1      44.806  26.924  34.489  1.00  0.00     0.064 A 
ATOM     83  C   UNL A   1      44.550  25.817  35.314  1.00  0.00     0.173 A 
ATOM     84  C   UNL A   1      46.115  27.429  34.461  1.00  0.00     0.173 A 
ATOM     85  F   UNL A   1      43.314  25.302  35.388  1.00  0.00    -0.203 F 
ATOM     86  C   UNL A   1      45.554  25.269  36.109  1.00  0.00     0.198 A 
ATOM     87  C   UNL A   1      47.125  26.853  35.227  1.00  0.00     0.198 A 
ATOM     88  F   UNL A   1      46.420  28.478  33.682  1.00  0.00    -0.203 F 
ATOM     89  F   UNL A   1      45.270  24.255  36.938  1.00  0.00    -0.200 F 
ATOM     90  C   UNL A   1      46.841  25.783  36.061  1.00  0.00     0.200 A 
ATOM     91  F   UNL A   1      48.372  27.341  35.165  1.00  0.00    -0.200 F 
ATOM     92  F   UNL A   1      47.805  25.252  36.826  1.00  0.00    -0.200 F 
ENDBRANCH  59  82
ENDBRANCH  33  34
ENDBRANCH  26  28
ENDBRANCH  25  26
ENDBRANCH  24  25
ENDBRANCH  23  24
ENDBRANCH   1  23
TORSDOF 16
ENDMDL
MODEL 3
REMARK VINA RESULT:     -12.0      1.316      2.458
REMARK SMILES C[C@H]1[C@@H](C(=O)OCCOCCOC(=O)c2ccc(-c3c4nc(c(-c5c(F)c(F)c(F)c(F)c5F)c5ccc([nH]5)c(-c5c(F)c(F)c(F)c(F)c5F)c5nc(c(-c6c(F)c(F)c(F)c(F)c6F)c6ccc3[nH]6)C=C5)C=C4)cc2)CCN1C(=O)NC1CCCCC1
REMARK SMILES IDX 9 1 8 2 7 3 6 4 4 5 5 6 3 7 1 8 2 9 80 10 78 11 79 12 81 13
REMARK SMILES IDX 82 14 83 15 84 17 85 18 89 19 86 20 88 21 87 22 10 23 11 24
REMARK SMILES IDX 12 25 13 26 14 27 15 28 16 29 77 30 17 31 76 32 18 33 19 34
REMARK SMILES IDX 20 35 70 36 21 37 75 38 69 39 71 40 22 41 74 42 68 43 67 44
REMARK SMILES IDX 23 46 55 47 35 48 54 49 36 50 39 51 53 52 72 53 37 54 38 55
REMARK SMILES IDX 52 57 73 58 40 59 24 60 25 61 33 62 26 63 27 64 31 65 34 66
REMARK SMILES IDX 28 67 29 68 32 69 30 70 56 71 57 72 65 73 58 74 59 75 63 76
REMARK SMILES IDX 66 77 60 78 61 79 64 80 62 81 41 82 42 83 50 84 43 85 44 86
REMARK SMILES IDX 48 87 51 88 45 89 46 90 49 91 47 92
REMARK H PARENT 83 16 71 45 39 56
REMARK Flexibility Score: inf
ROOT
ATOM      1  O   UNL A   1      31.086  29.867  24.564  1.00  0.00    -0.374 OA
ENDROOT
BRANCH   1   2
ATOM      2  C   UNL A   1      31.128  28.627  23.851  1.00  0.00     0.202 C 
BRANCH   2   3
ATOM      3  C   UNL A   1      31.038  27.365  24.724  1.00  0.00     0.261 C 
BRANCH   3   4
ATOM      4  O   UNL A   1      32.120  26.468  24.419  1.00  0.00    -0.463 OA
BRANCH   4   5
ATOM      5  C   UNL A   1      31.810  25.320  23.775  1.00  0.00     0.311 C 
ATOM      6  O   UNL A   1      30.859  25.184  23.017  1.00  0.00    -0.252 OA
BRANCH   5   7
ATOM      7  C   UNL A   1      32.803  24.212  24.070  1.00  0.00     0.123 C 
ATOM      8  C   UNL A   1      31.204  23.108  25.914  1.00  0.00     0.032 C 
ATOM      9  C   UNL A   1      32.389  23.018  24.949  1.00  0.00     0.098 C 
ATOM     10  N   UNL A   1      33.569  22.628  25.695  1.00  0.00    -0.321 N 
ATOM     11  C   UNL A   1      34.118  24.714  24.675  1.00  0.00     0.039 C 
ATOM     12  C   UNL A   1      34.456  23.770  25.821  1.00  0.00     0.122 C 
BRANCH  10  13
ATOM     13  C   UNL A   1      33.851  21.490  26.380  1.00  0.00     0.317 C 
ATOM     14  O   UNL A   1      33.941  21.518  27.614  1.00  0.00    -0.249 OA
ATOM     15  N   UNL A   1      34.059  20.277  25.839  1.00  0.00    -0.335 N 
ATOM     16  H   UNL A   1      34.316  19.666  26.569  1.00  0.00     0.165 HD
BRANCH  15  17
ATOM     17  C   UNL A   1      34.058  19.488  24.572  1.00  0.00     0.083 C 
ATOM     18  C   UNL A   1      34.645  18.086  24.646  1.00  0.00     0.025 C 
ATOM     19  C   UNL A   1      32.606  19.415  24.048  1.00  0.00     0.025 C 
ATOM     20  C   UNL A   1      34.387  17.125  23.506  1.00  0.00     0.002 C 
ATOM     21  C   UNL A   1      32.430  18.480  22.850  1.00  0.00     0.002 C 
ATOM     22  C   UNL A   1      32.922  17.074  23.160  1.00  0.00     0.000 C 
ENDBRANCH  15  17
ENDBRANCH  10  13
ENDBRANCH   5   7
ENDBRANCH   4   5
ENDBRANCH   3   4
ENDBRANCH   2   3
ENDBRANCH   1   2
BRANCH   1  23
ATOM     23  C   UNL A   1      31.713  29.906  25.844  1.00  0.00     0.202 C 
BRANCH  23  24
ATOM     24  C   UNL A   1      31.907  31.291  26.472  1.00  0.00     0.261 C 
BRANCH  24  25
ATOM     25  O   UNL A   1      32.770  31.242  27.620  1.00  0.00    -0.460 OA
BRANCH  25  26
ATOM     26  C   UNL A   1      33.586  32.309  27.731  1.00  0.00     0.338 C 
ATOM     27  O   UNL A   1      33.251  33.489  27.778  1.00  0.00    -0.246 OA
BRANCH  26  28
ATOM     28  C   UNL A   1      34.983  31.887  27.941  1.00  0.00     0.060 A 
ATOM     29  C   UNL A   1      35.207  30.510  28.029  1.00  0.00     0.016 A 
ATOM     30  C   UNL A   1      36.030  32.790  28.151  1.00  0.00     0.016 A 
ATOM     31  C   UNL A   1      36.442  30.030  28.443  1.00  0.00     0.010 A 
ATOM     32  C   UNL A   1      37.281  32.305  28.556  1.00  0.00     0.010 A 
ATOM     33  C   UNL A   1      37.469  30.927  28.772  1.00  0.00    -0.014 A 
BRANCH  33  34
ATOM     34  C   UNL A   1      38.637  30.402  29.522  1.00  0.00     0.031 A 
ATOM     35  C   UNL A   1      38.809  30.791  30.968  1.00  0.00     0.074 A 
ATOM     36  C   UNL A   1      39.459  29.496  28.965  1.00  0.00     0.049 A 
ATOM     37  N   UNL A   1      39.687  30.371  31.844  1.00  0.00    -0.248 NA
ATOM     38  C   UNL A   1      37.863  31.784  31.500  1.00  0.00     0.031 C 
ATOM     39  C   UNL A   1      39.370  29.012  27.589  1.00  0.00     0.029 A 
ATOM     40  N   UNL A   1      40.518  28.805  29.498  1.00  0.00    -0.354 N 
ATOM     41  C   UNL A   1      39.399  31.046  33.024  1.00  0.00     0.074 A 
ATOM     42  C   UNL A   1      38.296  31.939  32.742  1.00  0.00     0.031 C 
ATOM     43  C   UNL A   1      40.326  28.090  27.389  1.00  0.00     0.029 A 
ATOM     44  C   UNL A   1      41.109  27.937  28.614  1.00  0.00     0.049 A 
ATOM     45  H   UNL A   1      40.824  28.921  30.426  1.00  0.00     0.167 HD
ATOM     46  C   UNL A   1      39.984  30.919  34.239  1.00  0.00     0.037 A 
ATOM     47  C   UNL A   1      42.165  27.117  28.777  1.00  0.00     0.037 A 
ATOM     48  C   UNL A   1      41.076  30.025  34.521  1.00  0.00     0.049 A 
ATOM     49  C   UNL A   1      42.836  27.038  30.124  1.00  0.00     0.074 A 
ATOM     50  C   UNL A   1      41.730  29.811  35.722  1.00  0.00     0.029 A 
ATOM     51  N   UNL A   1      41.682  29.199  33.585  1.00  0.00    -0.354 N 
ATOM     52  N   UNL A   1      42.534  27.655  31.240  1.00  0.00    -0.248 NA
ATOM     53  C   UNL A   1      43.988  26.133  30.234  1.00  0.00     0.031 C 
ATOM     54  C   UNL A   1      42.769  28.902  35.499  1.00  0.00     0.029 A 
ATOM     55  C   UNL A   1      42.719  28.494  34.176  1.00  0.00     0.049 A 
ATOM     56  H   UNL A   1      41.413  29.123  32.641  1.00  0.00     0.167 HD
ATOM     57  C   UNL A   1      43.435  27.192  32.191  1.00  0.00     0.074 A 
ATOM     58  C   UNL A   1      44.282  26.225  31.523  1.00  0.00     0.031 C 
ATOM     59  C   UNL A   1      43.552  27.533  33.499  1.00  0.00     0.037 A 
BRANCH  46  60
ATOM     60  C   UNL A   1      39.470  31.789  35.352  1.00  0.00     0.064 A 
ATOM     61  C   UNL A   1      38.534  31.323  36.287  1.00  0.00     0.173 A 
ATOM     62  C   UNL A   1      39.944  33.102  35.502  1.00  0.00     0.173 A 
ATOM     63  F   UNL A   1      38.036  30.082  36.182  1.00  0.00    -0.203 F 
ATOM     64  C   UNL A   1      38.070  32.146  37.312  1.00  0.00     0.198 A 
ATOM     65  C   UNL A   1      39.505  33.911  36.546  1.00  0.00     0.198 A 
ATOM     66  F   UNL A   1      40.844  33.599  34.639  1.00  0.00    -0.203 F 
ATOM     67  F   UNL A   1      37.137  31.695  38.161  1.00  0.00    -0.200 F 
ATOM     68  C   UNL A   1      38.562  33.436  37.445  1.00  0.00     0.200 A 
ATOM     69  F   UNL A   1      39.993  35.151  36.682  1.00  0.00    -0.200 F 
ATOM     70  F   UNL A   1      38.121  34.224  38.435  1.00  0.00    -0.200 F 
ENDBRANCH  46  60
BRANCH  47  71
ATOM     71  C   UNL A   1      42.654  26.299  27.634  1.00  0.00     0.064 A 
ATOM     72  C   UNL A   1      42.131  25.025  27.372  1.00  0.00     0.173 A 
ATOM     73  C   UNL A   1      43.674  26.770  26.794  1.00  0.00     0.173 A 
ATOM     74  F   UNL A   1      41.170  24.521  28.160  1.00  0.00    -0.203 F 
ATOM     75  C   UNL A   1      42.627  24.244  26.331  1.00  0.00     0.198 A 
ATOM     76  C   UNL A   1      44.146  26.001  25.732  1.00  0.00     0.198 A 
ATOM     77  F   UNL A   1      44.209  27.982  26.999  1.00  0.00    -0.203 F 
ATOM     78  F   UNL A   1      42.147  23.008  26.137  1.00  0.00    -0.200 F 
ATOM     79  C   UNL A   1      43.629  24.734  25.508  1.00  0.00     0.200 A 
ATOM     80  F   UNL A   1      45.105  26.487  24.931  1.00  0.00    -0.200 F 
ATOM     81  F   UNL A   1      44.103  23.984  24.505  1.00  0.00    -0.200 F 
ENDBRANCH  47  71
BRANCH  59  82
ATOM     82  C   UNL A   1      44.606  26.825  34.304  1.00  0.00     0.064 A 
ATOM     83  C   UNL A   1      44.358  25.596  34.934  1.00  0.00     0.173 A 
ATOM     84  C   UNL A   1      45.890  27.379  34.434  1.00  0.00     0.173 A 
ATOM     85  F   UNL A   1      43.146  25.027  34.852  1.00  0.00    -0.203 F 
ATOM     86  C   UNL A   1      45.341  24.971  35.698  1.00  0.00     0.198 A 
ATOM     87  C   UNL A   1      46.882  26.732  35.167  1.00  0.00     0.198 A 
ATOM     88  F   UNL A   1      46.186  28.546  33.843  1.00  0.00    -0.203 F 
ATOM     89  F   UNL A   1      45.060  23.832  36.346  1.00  0.00    -0.200 F 
ATOM     90  C   UNL A   1      46.603  25.536  35.809  1.00  0.00     0.200 A 
ATOM     91  F   UNL A   1      48.105  27.271  35.257  1.00  0.00    -0.200 F 
ATOM     92  F   UNL A   1      47.547  24.932  36.544  1.00  0.00    -0.200 F 
ENDBRANCH  59  82
ENDBRANCH  33  34
ENDBRANCH  26  28
ENDBRANCH  25  26
ENDBRANCH  24  25
ENDBRANCH  23  24
ENDBRANCH   1  23
TORSDOF 16
ENDMDL
