MODEL 1
REMARK VINA RESULT:     -12.8      0.000      0.000
REMARK SMILES COc1cc2c(cc1OC)[C@H](C(=O)OCCOCCOC(=O)c1ccc(-c3c4nc(c(-c5c(F)c(F)c(F)c(F)c5F)c5ccc([nH]5)c(-c5c(F)c(F)c(F)c(F)c5F)c5nc(c(-c6c(F)c(F)c(F)c(F)c6F)c6ccc3[nH]6)C=C5)C=C4)cc1)[C@H](c1cccc(Cl)c1)N(C)C2=O
REMARK SMILES IDX 18 1 17 2 16 3 15 4 14 5 12 6 13 7 11 8 3 9 4 10 8 11 5 12
REMARK SMILES IDX 7 13 6 14 96 15 94 16 97 17 86 18 95 19 2 20 1 21 9 22 10 23
REMARK SMILES IDX 87 24 88 25 93 26 89 27 91 28 90 29 92 30 19 31 20 32 21 33
REMARK SMILES IDX 22 34 23 35 24 36 85 37 25 38 84 39 26 40 27 41 28 42 78 43
REMARK SMILES IDX 29 44 83 45 77 46 79 47 30 48 82 49 76 50 75 51 31 53 63 54
REMARK SMILES IDX 43 55 62 56 44 57 47 58 61 59 80 60 45 61 46 62 60 64 81 65
REMARK SMILES IDX 48 66 32 67 33 68 41 69 34 70 35 71 39 72 42 73 36 74 37 75
REMARK SMILES IDX 40 76 38 77 64 78 65 79 73 80 66 81 67 82 71 83 74 84 68 85
REMARK SMILES IDX 69 86 72 87 70 88 49 89 50 90 58 91 51 92 52 93 56 94 59 95
REMARK SMILES IDX 53 96 54 97 57 98 55 99
REMARK H PARENT 79 52 47 63
REMARK Flexibility Score: inf
ROOT
ATOM      1  C   UNL A   1      41.738  21.428  26.528  1.00  0.00     0.202 C 
ENDROOT
BRANCH   1   2
ATOM      2  O   UNL A   1      40.551  21.311  25.744  1.00  0.00    -0.374 OA
BRANCH   2   3
ATOM      3  C   UNL A   1      39.346  21.829  26.310  1.00  0.00     0.202 C 
BRANCH   3   4
ATOM      4  C   UNL A   1      38.152  21.862  25.351  1.00  0.00     0.261 C 
BRANCH   4   5
ATOM      5  O   UNL A   1      37.313  22.995  25.650  1.00  0.00    -0.463 OA
BRANCH   5   6
ATOM      6  C   UNL A   1      36.294  23.232  24.799  1.00  0.00     0.316 C 
ATOM      7  O   UNL A   1      36.362  23.032  23.587  1.00  0.00    -0.251 OA
BRANCH   6   8
ATOM      8  C   UNL A   1      35.012  23.701  25.444  1.00  0.00     0.157 C 
ATOM      9  C   UNL A   1      31.881  26.026  23.480  1.00  0.00     0.161 A 
ATOM     10  C   UNL A   1      31.647  25.311  24.658  1.00  0.00     0.064 A 
ATOM     11  C   UNL A   1      33.174  26.059  22.943  1.00  0.00     0.161 A 
ATOM     12  C   UNL A   1      32.683  24.606  25.283  1.00  0.00     0.048 A 
ATOM     13  C   UNL A   1      34.207  25.349  23.589  1.00  0.00     0.056 A 
ATOM     14  C   UNL A   1      33.972  24.549  24.718  1.00  0.00    -0.015 A 
ATOM     15  C   UNL A   1      32.393  23.937  26.589  1.00  0.00     0.254 C 
ATOM     16  N   UNL A   1      33.282  22.946  26.994  1.00  0.00    -0.333 N 
ATOM     17  O   UNL A   1      31.412  24.275  27.242  1.00  0.00    -0.269 OA
ATOM     18  C   UNL A   1      34.335  22.461  26.091  1.00  0.00     0.134 C 
ATOM     19  C   UNL A   1      33.099  22.296  28.278  1.00  0.00     0.147 C 
BRANCH   9  20
ATOM     20  O   UNL A   1      30.838  26.614  22.816  1.00  0.00    -0.493 OA
ATOM     21  C   UNL A   1      30.524  27.927  23.274  1.00  0.00     0.278 C 
ENDBRANCH   9  20
BRANCH  11  22
ATOM     22  O   UNL A   1      33.615  26.728  21.831  1.00  0.00    -0.493 OA
ATOM     23  C   UNL A   1      33.942  28.107  21.952  1.00  0.00     0.278 C 
ENDBRANCH  11  22
BRANCH  18  24
ATOM     24  C   UNL A   1      33.846  21.417  25.071  1.00  0.00    -0.023 A 
ATOM     25  C   UNL A   1      32.815  21.750  24.170  1.00  0.00     0.006 A 
ATOM     26  C   UNL A   1      34.351  20.107  25.015  1.00  0.00     0.026 A 
ATOM     27  C   UNL A   1      32.238  20.792  23.332  1.00  0.00     0.002 A 
ATOM     28  C   UNL A   1      33.786  19.156  24.163  1.00  0.00     0.041 A 
ATOM     29  C   UNL A   1      32.717  19.487  23.339  1.00  0.00     0.020 A 
ATOM     30  Cl  UNL A   1      34.413  17.553  24.143  1.00  0.00    -0.084 Cl
ENDBRANCH  18  24
ENDBRANCH   6   8
ENDBRANCH   5   6
ENDBRANCH   4   5
ENDBRANCH   3   4
ENDBRANCH   2   3
ENDBRANCH   1   2
BRANCH   1  31
ATOM     31  C   UNL A   1      42.996  21.824  25.752  1.00  0.00     0.261 C 
BRANCH  31  32
ATOM     32  O   UNL A   1      42.706  22.907  24.851  1.00  0.00    -0.460 OA
BRANCH  32  33
ATOM     33  C   UNL A   1      43.510  23.983  24.995  1.00  0.00     0.338 C 
ATOM     34  O   UNL A   1      44.560  24.207  24.406  1.00  0.00    -0.246 OA
BRANCH  33  35
ATOM     35  C   UNL A   1      42.863  24.986  25.858  1.00  0.00     0.060 A 
ATOM     36  C   UNL A   1      43.643  26.077  26.262  1.00  0.00     0.016 A 
ATOM     37  C   UNL A   1      41.551  24.843  26.315  1.00  0.00     0.016 A 
ATOM     38  C   UNL A   1      43.138  26.994  27.177  1.00  0.00     0.010 A 
ATOM     39  C   UNL A   1      41.048  25.760  27.243  1.00  0.00     0.010 A 
ATOM     40  C   UNL A   1      41.855  26.814  27.707  1.00  0.00    -0.014 A 
BRANCH  40  41
ATOM     41  C   UNL A   1      41.433  27.632  28.867  1.00  0.00     0.031 A 
ATOM     42  C   UNL A   1      42.225  27.541  30.141  1.00  0.00     0.074 A 
ATOM     43  C   UNL A   1      40.390  28.475  28.774  1.00  0.00     0.049 A 
ATOM     44  N   UNL A   1      42.043  28.159  31.280  1.00  0.00    -0.248 NA
ATOM     45  C   UNL A   1      43.380  26.629  30.128  1.00  0.00     0.031 C 
ATOM     46  C   UNL A   1      39.571  28.674  27.581  1.00  0.00     0.029 A 
ATOM     47  N   UNL A   1      39.845  29.321  29.706  1.00  0.00    -0.354 N 
ATOM     48  C   UNL A   1      43.052  27.705  32.118  1.00  0.00     0.074 A 
ATOM     49  C   UNL A   1      43.825  26.737  31.370  1.00  0.00     0.031 C 
ATOM     50  C   UNL A   1      38.616  29.578  27.857  1.00  0.00     0.029 A 
ATOM     51  C   UNL A   1      38.744  30.001  29.251  1.00  0.00     0.049 A 
ATOM     52  H   UNL A   1      40.208  29.428  30.615  1.00  0.00     0.167 HD
ATOM     53  C   UNL A   1      43.317  28.071  33.395  1.00  0.00     0.037 A 
ATOM     54  C   UNL A   1      37.926  30.855  29.895  1.00  0.00     0.037 A 
ATOM     55  C   UNL A   1      42.551  29.040  34.133  1.00  0.00     0.049 A 
ATOM     56  C   UNL A   1      38.206  31.203  31.334  1.00  0.00     0.074 A 
ATOM     57  C   UNL A   1      42.759  29.506  35.420  1.00  0.00     0.029 A 
ATOM     58  N   UNL A   1      41.421  29.684  33.651  1.00  0.00    -0.354 N 
ATOM     59  N   UNL A   1      39.181  30.797  32.110  1.00  0.00    -0.248 NA
ATOM     60  C   UNL A   1      37.271  32.132  31.985  1.00  0.00     0.031 C 
ATOM     61  C   UNL A   1      41.723  30.393  35.735  1.00  0.00     0.029 A 
ATOM     62  C   UNL A   1      40.901  30.521  34.626  1.00  0.00     0.049 A 
ATOM     63  H   UNL A   1      41.045  29.566  32.748  1.00  0.00     0.167 HD
ATOM     64  C   UNL A   1      38.992  31.434  33.329  1.00  0.00     0.074 A 
ATOM     65  C   UNL A   1      37.816  32.266  33.186  1.00  0.00     0.031 C 
ATOM     66  C   UNL A   1      39.726  31.340  34.466  1.00  0.00     0.037 A 
BRANCH  53  67
ATOM     67  C   UNL A   1      44.467  27.396  34.082  1.00  0.00     0.064 A 
ATOM     68  C   UNL A   1      45.760  27.942  34.072  1.00  0.00     0.173 A 
ATOM     69  C   UNL A   1      44.269  26.193  34.776  1.00  0.00     0.173 A 
ATOM     70  F   UNL A   1      46.006  29.083  33.410  1.00  0.00    -0.203 F 
ATOM     71  C   UNL A   1      46.816  27.294  34.705  1.00  0.00     0.198 A 
ATOM     72  C   UNL A   1      45.322  25.562  35.433  1.00  0.00     0.198 A 
ATOM     73  F   UNL A   1      43.052  25.629  34.819  1.00  0.00    -0.203 F 
ATOM     74  F   UNL A   1      48.053  27.807  34.640  1.00  0.00    -0.200 F 
ATOM     75  C   UNL A   1      46.595  26.108  35.391  1.00  0.00     0.200 A 
ATOM     76  F   UNL A   1      45.104  24.422  36.103  1.00  0.00    -0.200 F 
ATOM     77  F   UNL A   1      47.612  25.486  36.003  1.00  0.00    -0.200 F 
ENDBRANCH  53  67
BRANCH  54  78
ATOM     78  C   UNL A   1      36.756  31.430  29.184  1.00  0.00     0.064 A 
ATOM     79  C   UNL A   1      35.642  30.643  28.864  1.00  0.00     0.173 A 
ATOM     80  C   UNL A   1      36.731  32.782  28.810  1.00  0.00     0.173 A 
ATOM     81  F   UNL A   1      35.631  29.340  29.179  1.00  0.00    -0.203 F 
ATOM     82  C   UNL A   1      34.550  31.184  28.188  1.00  0.00     0.198 A 
ATOM     83  C   UNL A   1      35.628  33.328  28.157  1.00  0.00     0.198 A 
ATOM     84  F   UNL A   1      37.774  33.577  29.091  1.00  0.00    -0.203 F 
ATOM     85  F   UNL A   1      33.513  30.401  27.861  1.00  0.00    -0.200 F 
ATOM     86  C   UNL A   1      34.540  32.527  27.842  1.00  0.00     0.200 A 
ATOM     87  F   UNL A   1      35.619  34.628  27.833  1.00  0.00    -0.200 F 
ATOM     88  F   UNL A   1      33.487  33.048  27.197  1.00  0.00    -0.200 F 
ENDBRANCH  54  78
BRANCH  66  89
ATOM     89  C   UNL A   1      39.293  32.172  35.639  1.00  0.00     0.064 A 
ATOM     90  C   UNL A   1      38.431  31.663  36.622  1.00  0.00     0.173 A 
ATOM     91  C   UNL A   1      39.782  33.476  35.806  1.00  0.00     0.173 A 
ATOM     92  F   UNL A   1      37.925  30.426  36.501  1.00  0.00    -0.203 F 
ATOM     93  C   UNL A   1      38.056  32.439  37.715  1.00  0.00     0.198 A 
ATOM     94  C   UNL A   1      39.428  34.238  36.915  1.00  0.00     0.198 A 
ATOM     95  F   UNL A   1      40.617  34.007  34.898  1.00  0.00    -0.203 F 
ATOM     96  F   UNL A   1      37.196  31.948  38.619  1.00  0.00    -0.200 F 
ATOM     97  C   UNL A   1      38.560  33.722  37.865  1.00  0.00     0.200 A 
ATOM     98  F   UNL A   1      39.929  35.473  37.065  1.00  0.00    -0.200 F 
ATOM     99  F   UNL A   1      38.206  34.464  38.923  1.00  0.00    -0.200 F 
ENDBRANCH  66  89
ENDBRANCH  40  41
ENDBRANCH  33  35
ENDBRANCH  32  33
ENDBRANCH  31  32
ENDBRANCH   1  31
TORSDOF 17
ENDMDL
MODEL 2
REMARK VINA RESULT:     -12.7      0.559      1.634
REMARK SMILES COc1cc2c(cc1OC)[C@H](C(=O)OCCOCCOC(=O)c1ccc(-c3c4nc(c(-c5c(F)c(F)c(F)c(F)c5F)c5ccc([nH]5)c(-c5c(F)c(F)c(F)c(F)c5F)c5nc(c(-c6c(F)c(F)c(F)c(F)c6F)c6ccc3[nH]6)C=C5)C=C4)cc1)[C@H](c1cccc(Cl)c1)N(C)C2=O
REMARK SMILES IDX 18 1 17 2 16 3 15 4 14 5 12 6 13 7 11 8 3 9 4 10 8 11 5 12
REMARK SMILES IDX 7 13 6 14 96 15 94 16 97 17 86 18 95 19 2 20 1 21 9 22 10 23
REMARK SMILES IDX 87 24 88 25 93 26 89 27 91 28 90 29 92 30 19 31 20 32 21 33
REMARK SMILES IDX 22 34 23 35 24 36 85 37 25 38 84 39 26 40 27 41 28 42 78 43
REMARK SMILES IDX 29 44 83 45 77 46 79 47 30 48 82 49 76 50 75 51 31 53 63 54
REMARK SMILES IDX 43 55 62 56 44 57 47 58 61 59 80 60 45 61 46 62 60 64 81 65
REMARK SMILES IDX 48 66 32 67 33 68 41 69 34 70 35 71 39 72 42 73 36 74 37 75
REMARK SMILES IDX 40 76 38 77 64 78 65 79 73 80 66 81 67 82 71 83 74 84 68 85
REMARK SMILES IDX 69 86 72 87 70 88 49 89 50 90 58 91 51 92 52 93 56 94 59 95
REMARK SMILES IDX 53 96 54 97 57 98 55 99
REMARK H PARENT 79 52 47 63
REMARK Flexibility Score: inf
ROOT
ATOM      1  C   UNL A   1      41.666  21.122  26.120  1.00  0.00     0.202 C 
ENDROOT
BRANCH   1   2
ATOM      2  O   UNL A   1      40.479  21.907  26.227  1.00  0.00    -0.374 OA
BRANCH   2   3
ATOM      3  C   UNL A   1      39.266  21.318  25.754  1.00  0.00     0.202 C 
BRANCH   3   4
ATOM      4  C   UNL A   1      38.135  22.315  25.481  1.00  0.00     0.261 C 
BRANCH   4   5
ATOM      5  O   UNL A   1      37.179  21.736  24.573  1.00  0.00    -0.463 OA
BRANCH   5   6
ATOM      6  C   UNL A   1      36.353  22.594  23.939  1.00  0.00     0.316 C 
ATOM      7  O   UNL A   1      36.477  22.905  22.756  1.00  0.00    -0.251 OA
BRANCH   6   8
ATOM      8  C   UNL A   1      35.199  23.107  24.768  1.00  0.00     0.157 C 
ATOM      9  C   UNL A   1      31.819  25.421  23.256  1.00  0.00     0.161 A 
ATOM     10  C   UNL A   1      31.770  24.750  24.482  1.00  0.00     0.064 A 
ATOM     11  C   UNL A   1      33.007  25.414  22.516  1.00  0.00     0.161 A 
ATOM     12  C   UNL A   1      32.886  24.047  24.955  1.00  0.00     0.048 A 
ATOM     13  C   UNL A   1      34.123  24.706  23.010  1.00  0.00     0.056 A 
ATOM     14  C   UNL A   1      34.066  23.949  24.190  1.00  0.00    -0.015 A 
ATOM     15  C   UNL A   1      32.805  23.426  26.313  1.00  0.00     0.254 C 
ATOM     16  N   UNL A   1      33.735  22.434  26.603  1.00  0.00    -0.333 N 
ATOM     17  O   UNL A   1      31.947  23.803  27.104  1.00  0.00    -0.269 OA
ATOM     18  C   UNL A   1      34.622  21.900  25.558  1.00  0.00     0.134 C 
ATOM     19  C   UNL A   1      33.756  21.829  27.922  1.00  0.00     0.147 C 
BRANCH   9  20
ATOM     20  O   UNL A   1      30.689  26.006  22.751  1.00  0.00    -0.493 OA
ATOM     21  C   UNL A   1      30.314  27.213  23.410  1.00  0.00     0.278 C 
ENDBRANCH   9  20
BRANCH  11  22
ATOM     22  O   UNL A   1      33.269  26.038  21.324  1.00  0.00    -0.493 OA
ATOM     23  C   UNL A   1      32.606  25.577  20.155  1.00  0.00     0.278 C 
ENDBRANCH  11  22
BRANCH  18  24
ATOM     24  C   UNL A   1      33.960  20.833  24.669  1.00  0.00    -0.023 A 
ATOM     25  C   UNL A   1      32.878  21.187  23.839  1.00  0.00     0.006 A 
ATOM     26  C   UNL A   1      34.355  19.484  24.671  1.00  0.00     0.026 A 
ATOM     27  C   UNL A   1      32.153  20.224  23.132  1.00  0.00     0.002 A 
ATOM     28  C   UNL A   1      33.642  18.526  23.947  1.00  0.00     0.041 A 
ATOM     29  C   UNL A   1      32.528  18.887  23.198  1.00  0.00     0.020 A 
ATOM     30  Cl  UNL A   1      34.138  16.879  23.996  1.00  0.00    -0.084 Cl
ENDBRANCH  18  24
ENDBRANCH   6   8
ENDBRANCH   5   6
ENDBRANCH   4   5
ENDBRANCH   3   4
ENDBRANCH   2   3
ENDBRANCH   1   2
BRANCH   1  31
ATOM     31  C   UNL A   1      42.932  21.899  25.758  1.00  0.00     0.261 C 
BRANCH  31  32
ATOM     32  O   UNL A   1      42.605  23.027  24.927  1.00  0.00    -0.460 OA
BRANCH  32  33
ATOM     33  C   UNL A   1      43.393  24.107  25.114  1.00  0.00     0.338 C 
ATOM     34  O   UNL A   1      44.452  24.358  24.551  1.00  0.00    -0.246 OA
BRANCH  33  35
ATOM     35  C   UNL A   1      42.719  25.079  25.992  1.00  0.00     0.060 A 
ATOM     36  C   UNL A   1      43.414  26.258  26.289  1.00  0.00     0.016 A 
ATOM     37  C   UNL A   1      41.468  24.829  26.560  1.00  0.00     0.016 A 
ATOM     38  C   UNL A   1      42.894  27.161  27.209  1.00  0.00     0.010 A 
ATOM     39  C   UNL A   1      40.951  25.732  27.493  1.00  0.00     0.010 A 
ATOM     40  C   UNL A   1      41.682  26.879  27.850  1.00  0.00    -0.014 A 
BRANCH  40  41
ATOM     41  C   UNL A   1      41.272  27.703  29.011  1.00  0.00     0.031 A 
ATOM     42  C   UNL A   1      42.061  27.595  30.286  1.00  0.00     0.074 A 
ATOM     43  C   UNL A   1      40.246  28.566  28.918  1.00  0.00     0.049 A 
ATOM     44  N   UNL A   1      41.887  28.213  31.427  1.00  0.00    -0.248 NA
ATOM     45  C   UNL A   1      43.198  26.661  30.275  1.00  0.00     0.031 C 
ATOM     46  C   UNL A   1      39.433  28.782  27.724  1.00  0.00     0.029 A 
ATOM     47  N   UNL A   1      39.715  29.419  29.851  1.00  0.00    -0.354 N 
ATOM     48  C   UNL A   1      42.887  27.739  32.266  1.00  0.00     0.074 A 
ATOM     49  C   UNL A   1      43.642  26.759  31.518  1.00  0.00     0.031 C 
ATOM     50  C   UNL A   1      38.494  29.703  28.000  1.00  0.00     0.029 A 
ATOM     51  C   UNL A   1      38.628  30.121  29.395  1.00  0.00     0.049 A 
ATOM     52  H   UNL A   1      40.078  29.518  30.760  1.00  0.00     0.167 HD
ATOM     53  C   UNL A   1      43.155  28.097  33.544  1.00  0.00     0.037 A 
ATOM     54  C   UNL A   1      37.824  30.989  30.040  1.00  0.00     0.037 A 
ATOM     55  C   UNL A   1      42.406  29.079  34.283  1.00  0.00     0.049 A 
ATOM     56  C   UNL A   1      38.108  31.328  31.479  1.00  0.00     0.074 A 
ATOM     57  C   UNL A   1      42.620  29.538  35.571  1.00  0.00     0.029 A 
ATOM     58  N   UNL A   1      41.289  29.745  33.800  1.00  0.00    -0.354 N 
ATOM     59  N   UNL A   1      39.074  30.903  32.257  1.00  0.00    -0.248 NA
ATOM     60  C   UNL A   1      37.189  32.274  32.130  1.00  0.00     0.031 C 
ATOM     61  C   UNL A   1      41.600  30.444  35.885  1.00  0.00     0.029 A 
ATOM     62  C   UNL A   1      40.783  30.589  34.776  1.00  0.00     0.049 A 
ATOM     63  H   UNL A   1      40.913  29.636  32.896  1.00  0.00     0.167 HD
ATOM     64  C   UNL A   1      38.894  31.541  33.477  1.00  0.00     0.074 A 
ATOM     65  C   UNL A   1      37.734  32.395  33.333  1.00  0.00     0.031 C 
ATOM     66  C   UNL A   1      39.624  31.430  34.615  1.00  0.00     0.037 A 
BRANCH  53  67
ATOM     67  C   UNL A   1      44.291  27.400  34.232  1.00  0.00     0.064 A 
ATOM     68  C   UNL A   1      44.113  26.182  34.906  1.00  0.00     0.173 A 
ATOM     69  C   UNL A   1      45.582  27.951  34.202  1.00  0.00     0.173 A 
ATOM     70  F   UNL A   1      42.897  25.622  34.977  1.00  0.00    -0.203 F 
ATOM     71  C   UNL A   1      45.178  25.557  35.549  1.00  0.00     0.198 A 
ATOM     72  C   UNL A   1      46.650  27.308  34.822  1.00  0.00     0.198 A 
ATOM     73  F   UNL A   1      45.807  29.112  33.570  1.00  0.00    -0.203 F 
ATOM     74  F   UNL A   1      44.975  24.420  36.230  1.00  0.00    -0.200 F 
ATOM     75  C   UNL A   1      46.447  26.116  35.501  1.00  0.00     0.200 A 
ATOM     76  F   UNL A   1      47.876  27.845  34.765  1.00  0.00    -0.200 F 
ATOM     77  F   UNL A   1      47.471  25.512  36.118  1.00  0.00    -0.200 F 
ENDBRANCH  53  67
BRANCH  54  78
ATOM     78  C   UNL A   1      36.667  31.587  29.327  1.00  0.00     0.064 A 
ATOM     79  C   UNL A   1      36.646  32.947  28.990  1.00  0.00     0.173 A 
ATOM     80  C   UNL A   1      35.556  30.808  28.969  1.00  0.00     0.173 A 
ATOM     81  F   UNL A   1      37.674  33.737  29.334  1.00  0.00    -0.203 F 
ATOM     82  C   UNL A   1      35.555  33.507  28.330  1.00  0.00     0.198 A 
ATOM     83  C   UNL A   1      34.477  31.364  28.286  1.00  0.00     0.198 A 
ATOM     84  F   UNL A   1      35.526  29.501  29.271  1.00  0.00    -0.203 F 
ATOM     85  F   UNL A   1      35.543  34.818  28.052  1.00  0.00    -0.200 F 
ATOM     86  C   UNL A   1      34.475  32.714  27.971  1.00  0.00     0.200 A 
ATOM     87  F   UNL A   1      33.440  30.592  27.933  1.00  0.00    -0.200 F 
ATOM     88  F   UNL A   1      33.428  33.253  27.331  1.00  0.00    -0.200 F 
ENDBRANCH  54  78
BRANCH  66  89
ATOM     89  C   UNL A   1      39.204  32.268  35.789  1.00  0.00     0.064 A 
ATOM     90  C   UNL A   1      38.318  31.779  36.760  1.00  0.00     0.173 A 
ATOM     91  C   UNL A   1      39.729  33.556  35.968  1.00  0.00     0.173 A 
ATOM     92  F   UNL A   1      37.778  30.558  36.627  1.00  0.00    -0.203 F 
ATOM     93  C   UNL A   1      37.955  32.559  37.855  1.00  0.00     0.198 A 
ATOM     94  C   UNL A   1      39.387  34.322  37.079  1.00  0.00     0.198 A 
ATOM     95  F   UNL A   1      40.587  34.068  35.071  1.00  0.00    -0.203 F 
ATOM     96  F   UNL A   1      37.073  32.089  38.748  1.00  0.00    -0.200 F 
ATOM     97  C   UNL A   1      38.495  33.826  38.017  1.00  0.00     0.200 A 
ATOM     98  F   UNL A   1      39.922  35.541  37.241  1.00  0.00    -0.200 F 
ATOM     99  F   UNL A   1      38.152  34.572  39.077  1.00  0.00    -0.200 F 
ENDBRANCH  66  89
ENDBRANCH  40  41
ENDBRANCH  33  35
ENDBRANCH  32  33
ENDBRANCH  31  32
ENDBRANCH   1  31
TORSDOF 17
ENDMDL
MODEL 3
REMARK VINA RESULT:     -12.4      4.194      6.269
REMARK SMILES COc1cc2c(cc1OC)[C@H](C(=O)OCCOCCOC(=O)c1ccc(-c3c4nc(c(-c5c(F)c(F)c(F)c(F)c5F)c5ccc([nH]5)c(-c5c(F)c(F)c(F)c(F)c5F)c5nc(c(-c6c(F)c(F)c(F)c(F)c6F)c6ccc3[nH]6)C=C5)C=C4)cc1)[C@H](c1cccc(Cl)c1)N(C)C2=O
REMARK SMILES IDX 18 1 17 2 16 3 15 4 14 5 12 6 13 7 11 8 3 9 4 10 8 11 5 12
REMARK SMILES IDX 7 13 6 14 96 15 94 16 97 17 86 18 95 19 2 20 1 21 9 22 10 23
REMARK SMILES IDX 87 24 88 25 93 26 89 27 91 28 90 29 92 30 19 31 20 32 21 33
REMARK SMILES IDX 22 34 23 35 24 36 85 37 25 38 84 39 26 40 27 41 28 42 78 43
REMARK SMILES IDX 29 44 83 45 77 46 79 47 30 48 82 49 76 50 75 51 31 53 63 54
REMARK SMILES IDX 43 55 62 56 44 57 47 58 61 59 80 60 45 61 46 62 60 64 81 65
REMARK SMILES IDX 48 66 32 67 33 68 41 69 34 70 35 71 39 72 42 73 36 74 37 75
REMARK SMILES IDX 40 76 38 77 64 78 65 79 73 80 66 81 67 82 71 83 74 84 68 85
REMARK SMILES IDX 69 86 72 87 70 88 49 89 50 90 58 91 51 92 52 93 56 94 59 95
REMARK SMILES IDX 53 96 54 97 57 98 55 99
REMARK H PARENT 79 52 47 63
REMARK Flexibility Score: inf
ROOT
ATOM      1  C   UNL A   1      38.179  19.747  24.664  1.00  0.00     0.202 C 
ENDROOT
BRANCH   1   2
ATOM      2  O   UNL A   1      36.902  20.156  25.153  1.00  0.00    -0.374 OA
BRANCH   2   3
ATOM      3  C   UNL A   1      36.815  21.461  25.728  1.00  0.00     0.202 C 
BRANCH   3   4
ATOM      4  C   UNL A   1      37.526  22.559  24.931  1.00  0.00     0.261 C 
BRANCH   4   5
ATOM      5  O   UNL A   1      36.788  23.793  25.031  1.00  0.00    -0.463 OA
BRANCH   5   6
ATOM      6  C   UNL A   1      35.637  23.866  24.333  1.00  0.00     0.316 C 
ATOM      7  O   UNL A   1      35.561  23.653  23.124  1.00  0.00    -0.251 OA
BRANCH   6   8
ATOM      8  C   UNL A   1      34.404  24.161  25.155  1.00  0.00     0.157 C 
ATOM      9  C   UNL A   1      31.014  26.592  23.865  1.00  0.00     0.161 A 
ATOM     10  C   UNL A   1      30.919  25.692  24.931  1.00  0.00     0.064 A 
ATOM     11  C   UNL A   1      32.248  26.777  23.231  1.00  0.00     0.161 A 
ATOM     12  C   UNL A   1      32.037  24.954  25.343  1.00  0.00     0.048 A 
ATOM     13  C   UNL A   1      33.364  26.031  23.662  1.00  0.00     0.056 A 
ATOM     14  C   UNL A   1      33.268  25.054  24.666  1.00  0.00    -0.015 A 
ATOM     15  C   UNL A   1      31.898  24.076  26.545  1.00  0.00     0.254 C 
ATOM     16  N   UNL A   1      32.858  23.083  26.708  1.00  0.00    -0.333 N 
ATOM     17  O   UNL A   1      30.969  24.256  27.327  1.00  0.00    -0.269 OA
ATOM     18  C   UNL A   1      33.840  22.800  25.651  1.00  0.00     0.134 C 
ATOM     19  C   UNL A   1      32.823  22.232  27.884  1.00  0.00     0.147 C 
BRANCH   9  20
ATOM     20  O   UNL A   1      29.891  27.220  23.397  1.00  0.00    -0.493 OA
ATOM     21  C   UNL A   1      28.670  26.613  23.813  1.00  0.00     0.278 C 
ENDBRANCH   9  20
BRANCH  11  22
ATOM     22  O   UNL A   1      32.556  27.633  22.205  1.00  0.00    -0.493 OA
ATOM     23  C   UNL A   1      33.673  28.500  22.356  1.00  0.00     0.278 C 
ENDBRANCH  11  22
BRANCH  18  24
ATOM     24  C   UNL A   1      33.297  21.903  24.525  1.00  0.00    -0.023 A 
ATOM     25  C   UNL A   1      32.722  22.489  23.379  1.00  0.00     0.006 A 
ATOM     26  C   UNL A   1      33.303  20.499  24.595  1.00  0.00     0.026 A 
ATOM     27  C   UNL A   1      32.084  21.718  22.405  1.00  0.00     0.002 A 
ATOM     28  C   UNL A   1      32.682  19.729  23.609  1.00  0.00     0.041 A 
ATOM     29  C   UNL A   1      32.052  20.333  22.528  1.00  0.00     0.020 A 
ATOM     30  Cl  UNL A   1      32.685  18.013  23.744  1.00  0.00    -0.084 Cl
ENDBRANCH  18  24
ENDBRANCH   6   8
ENDBRANCH   5   6
ENDBRANCH   4   5
ENDBRANCH   3   4
ENDBRANCH   2   3
ENDBRANCH   1   2
BRANCH   1  31
ATOM     31  C   UNL A   1      39.208  19.398  25.740  1.00  0.00     0.261 C 
BRANCH  31  32
ATOM     32  O   UNL A   1      40.149  20.475  25.898  1.00  0.00    -0.460 OA
BRANCH  32  33
ATOM     33  C   UNL A   1      40.818  20.465  27.070  1.00  0.00     0.338 C 
ATOM     34  O   UNL A   1      41.313  19.496  27.633  1.00  0.00    -0.246 OA
BRANCH  33  35
ATOM     35  C   UNL A   1      41.042  21.844  27.536  1.00  0.00     0.060 A 
ATOM     36  C   UNL A   1      40.314  22.858  26.899  1.00  0.00     0.016 A 
ATOM     37  C   UNL A   1      41.978  22.156  28.524  1.00  0.00     0.016 A 
ATOM     38  C   UNL A   1      40.566  24.191  27.199  1.00  0.00     0.010 A 
ATOM     39  C   UNL A   1      42.238  23.498  28.818  1.00  0.00     0.010 A 
ATOM     40  C   UNL A   1      41.563  24.519  28.127  1.00  0.00    -0.014 A 
BRANCH  40  41
ATOM     41  C   UNL A   1      42.006  25.927  28.241  1.00  0.00     0.031 A 
ATOM     42  C   UNL A   1      43.326  26.320  27.639  1.00  0.00     0.074 A 
ATOM     43  C   UNL A   1      41.226  26.851  28.828  1.00  0.00     0.049 A 
ATOM     44  N   UNL A   1      43.918  27.487  27.618  1.00  0.00    -0.248 NA
ATOM     45  C   UNL A   1      44.084  25.249  26.972  1.00  0.00     0.031 C 
ATOM     46  C   UNL A   1      39.913  26.596  29.414  1.00  0.00     0.029 A 
ATOM     47  N   UNL A   1      41.433  28.192  29.028  1.00  0.00    -0.354 N 
ATOM     48  C   UNL A   1      45.115  27.289  26.944  1.00  0.00     0.074 A 
ATOM     49  C   UNL A   1      45.184  25.886  26.601  1.00  0.00     0.031 C 
ATOM     50  C   UNL A   1      39.434  27.744  29.921  1.00  0.00     0.029 A 
ATOM     51  C   UNL A   1      40.417  28.807  29.715  1.00  0.00     0.049 A 
ATOM     52  H   UNL A   1      42.234  28.668  28.711  1.00  0.00     0.167 HD
ATOM     53  C   UNL A   1      46.068  28.199  26.631  1.00  0.00     0.037 A 
ATOM     54  C   UNL A   1      40.305  30.079  30.141  1.00  0.00     0.037 A 
ATOM     55  C   UNL A   1      45.992  29.596  26.967  1.00  0.00     0.049 A 
ATOM     56  C   UNL A   1      41.404  31.061  29.832  1.00  0.00     0.074 A 
ATOM     57  C   UNL A   1      46.888  30.607  26.665  1.00  0.00     0.029 A 
ATOM     58  N   UNL A   1      44.962  30.177  27.693  1.00  0.00    -0.354 N 
ATOM     59  N   UNL A   1      42.518  30.876  29.165  1.00  0.00    -0.248 NA
ATOM     60  C   UNL A   1      41.229  32.432  30.332  1.00  0.00     0.031 C 
ATOM     61  C   UNL A   1      46.426  31.789  27.254  1.00  0.00     0.029 A 
ATOM     62  C   UNL A   1      45.216  31.527  27.877  1.00  0.00     0.049 A 
ATOM     63  H   UNL A   1      44.168  29.701  28.027  1.00  0.00     0.167 HD
ATOM     64  C   UNL A   1      43.163  32.106  29.146  1.00  0.00     0.074 A 
ATOM     65  C   UNL A   1      42.310  33.035  29.857  1.00  0.00     0.031 C 
ATOM     66  C   UNL A   1      44.356  32.436  28.591  1.00  0.00     0.037 A 
BRANCH  53  67
ATOM     67  C   UNL A   1      47.287  27.703  25.912  1.00  0.00     0.064 A 
ATOM     68  C   UNL A   1      48.404  27.209  26.603  1.00  0.00     0.173 A 
ATOM     69  C   UNL A   1      47.331  27.706  24.510  1.00  0.00     0.173 A 
ATOM     70  F   UNL A   1      48.418  27.199  27.944  1.00  0.00    -0.203 F 
ATOM     71  C   UNL A   1      49.532  26.764  25.917  1.00  0.00     0.198 A 
ATOM     72  C   UNL A   1      48.449  27.234  23.827  1.00  0.00     0.198 A 
ATOM     73  F   UNL A   1      46.290  28.165  23.801  1.00  0.00    -0.203 F 
ATOM     74  F   UNL A   1      50.607  26.345  26.598  1.00  0.00    -0.200 F 
ATOM     75  C   UNL A   1      49.550  26.771  24.530  1.00  0.00     0.200 A 
ATOM     76  F   UNL A   1      48.462  27.231  22.487  1.00  0.00    -0.200 F 
ATOM     77  F   UNL A   1      50.635  26.340  23.871  1.00  0.00    -0.200 F 
ENDBRANCH  53  67
BRANCH  54  78
ATOM     78  C   UNL A   1      39.109  30.492  30.917  1.00  0.00     0.064 A 
ATOM     79  C   UNL A   1      37.984  31.035  30.283  1.00  0.00     0.173 A 
ATOM     80  C   UNL A   1      39.068  30.351  32.313  1.00  0.00     0.173 A 
ATOM     81  F   UNL A   1      37.986  31.214  28.954  1.00  0.00    -0.203 F 
ATOM     82  C   UNL A   1      36.866  31.430  31.016  1.00  0.00     0.198 A 
ATOM     83  C   UNL A   1      37.940  30.721  33.041  1.00  0.00     0.198 A 
ATOM     84  F   UNL A   1      40.120  29.838  32.968  1.00  0.00    -0.203 F 
ATOM     85  F   UNL A   1      35.818  31.982  30.389  1.00  0.00    -0.200 F 
ATOM     86  C   UNL A   1      36.842  31.266  32.393  1.00  0.00     0.200 A 
ATOM     87  F   UNL A   1      37.917  30.552  34.371  1.00  0.00    -0.200 F 
ATOM     88  F   UNL A   1      35.764  31.640  33.096  1.00  0.00    -0.200 F 
ENDBRANCH  54  78
BRANCH  66  89
ATOM     89  C   UNL A   1      44.800  33.866  28.709  1.00  0.00     0.064 A 
ATOM     90  C   UNL A   1      44.426  34.832  27.763  1.00  0.00     0.173 A 
ATOM     91  C   UNL A   1      45.570  34.284  29.805  1.00  0.00     0.173 A 
ATOM     92  F   UNL A   1      43.701  34.480  26.690  1.00  0.00    -0.203 F 
ATOM     93  C   UNL A   1      44.827  36.159  27.898  1.00  0.00     0.198 A 
ATOM     94  C   UNL A   1      45.945  35.617  29.952  1.00  0.00     0.198 A 
ATOM     95  F   UNL A   1      45.947  33.401  30.743  1.00  0.00    -0.203 F 
ATOM     96  F   UNL A   1      44.496  37.055  26.959  1.00  0.00    -0.200 F 
ATOM     97  C   UNL A   1      45.579  36.551  28.995  1.00  0.00     0.200 A 
ATOM     98  F   UNL A   1      46.659  35.996  31.021  1.00  0.00    -0.200 F 
ATOM     99  F   UNL A   1      45.957  37.830  29.128  1.00  0.00    -0.200 F 
ENDBRANCH  66  89
ENDBRANCH  40  41
ENDBRANCH  33  35
ENDBRANCH  32  33
ENDBRANCH  31  32
ENDBRANCH   1  31
TORSDOF 17
ENDMDL
