MODEL 1
REMARK VINA RESULT:      -9.7      0.000      0.000
REMARK SMILES CC(C)C[N@@H+](Cc1ccc(C(=O)OCCOCCOC(=O)c2ccc(-c3c4nc(c(-c5c(F)c(F)c(F)c(F)c5F)c5ccc([nH]5)c(-c5c(F)c(F)c(F)c(F)c5F)c5nc(c(-c6c(F)c(F)c(F)c(F)c6F)c6ccc3[nH]6)C=C5)C=C4)cc2)cn1)C1CC1
REMARK SMILES IDX 15 1 14 2 13 3 11 4 12 5 10 6 7 7 8 8 86 9 9 10 85 11 6 12
REMARK SMILES IDX 5 13 4 15 2 16 1 17 3 18 87 19 88 20 89 21 16 22 17 23 18 24
REMARK SMILES IDX 19 25 20 26 21 27 22 28 23 29 84 30 24 31 83 32 25 33 26 34
REMARK SMILES IDX 27 35 77 36 28 37 82 38 76 39 78 40 29 41 81 42 75 43 74 44
REMARK SMILES IDX 30 46 62 47 42 48 61 49 43 50 46 51 60 52 79 53 44 54 45 55
REMARK SMILES IDX 59 57 80 58 47 59 31 60 32 61 40 62 33 63 34 64 38 65 41 66
REMARK SMILES IDX 35 67 36 68 39 69 37 70 63 71 64 72 72 73 65 74 66 75 70 76
REMARK SMILES IDX 73 77 67 78 68 79 71 80 69 81 48 82 49 83 57 84 50 85 51 86
REMARK SMILES IDX 55 87 58 88 52 89 53 90 56 91 54 92
REMARK H PARENT 5 14 78 45 46 56
REMARK Flexibility Score: inf
ROOT
ATOM      1  C   UNL A   1      40.408  22.276  26.637  1.00  0.00     0.202 C 
ENDROOT
BRANCH   1   2
ATOM      2  C   UNL A   1      39.122  21.609  26.140  1.00  0.00     0.261 C 
BRANCH   2   3
ATOM      3  O   UNL A   1      38.181  22.588  25.664  1.00  0.00    -0.460 OA
BRANCH   3   4
ATOM      4  C   UNL A   1      37.126  22.083  24.982  1.00  0.00     0.339 C 
ATOM      5  O   UNL A   1      37.091  21.027  24.365  1.00  0.00    -0.246 OA
BRANCH   4   6
ATOM      6  C   UNL A   1      35.928  22.913  25.200  1.00  0.00     0.078 A 
ATOM      7  C   UNL A   1      33.646  24.329  25.828  1.00  0.00     0.095 A 
ATOM      8  C   UNL A   1      34.388  24.690  24.699  1.00  0.00     0.031 A 
ATOM      9  N   UNL A   1      34.028  23.309  26.639  1.00  0.00    -0.254 NA
ATOM     10  C   UNL A   1      35.548  23.977  24.384  1.00  0.00     0.019 A 
ATOM     11  C   UNL A   1      35.148  22.626  26.309  1.00  0.00     0.127 A 
BRANCH   7  12
ATOM     12  C   UNL A   1      32.349  25.049  26.171  1.00  0.00     0.319 C 
BRANCH  12  13
ATOM     13  N   UNL A   1      32.221  26.460  25.725  1.00  0.00    -0.327 N 
ATOM     14  H   UNL A   1      32.678  26.547  24.817  1.00  0.00     0.348 HD
BRANCH  13  15
ATOM     15  C   UNL A   1      32.943  27.363  26.641  1.00  0.00     0.265 C 
BRANCH  15  16
ATOM     16  C   UNL A   1      33.935  28.369  26.006  1.00  0.00     0.038 C 
ATOM     17  C   UNL A   1      33.295  29.299  24.971  1.00  0.00     0.013 C 
ATOM     18  C   UNL A   1      34.540  29.236  27.120  1.00  0.00     0.013 C 
ENDBRANCH  15  16
ENDBRANCH  13  15
BRANCH  13  19
ATOM     19  C   UNL A   1      30.824  26.855  25.448  1.00  0.00     0.184 C 
ATOM     20  C   UNL A   1      30.442  27.086  24.004  1.00  0.00     0.071 C 
ATOM     21  C   UNL A   1      29.844  25.942  24.752  1.00  0.00     0.071 C 
ENDBRANCH  13  19
ENDBRANCH  12  13
ENDBRANCH   7  12
ENDBRANCH   4   6
ENDBRANCH   3   4
ENDBRANCH   2   3
ENDBRANCH   1   2
BRANCH   1  22
ATOM     22  O   UNL A   1      41.598  21.497  26.523  1.00  0.00    -0.374 OA
BRANCH  22  23
ATOM     23  C   UNL A   1      41.566  20.177  27.072  1.00  0.00     0.202 C 
BRANCH  23  24
ATOM     24  C   UNL A   1      42.379  19.118  26.319  1.00  0.00     0.261 C 
BRANCH  24  25
ATOM     25  O   UNL A   1      42.716  19.555  24.988  1.00  0.00    -0.460 OA
BRANCH  25  26
ATOM     26  C   UNL A   1      44.043  19.585  24.726  1.00  0.00     0.338 C 
ATOM     27  O   UNL A   1      44.726  18.687  24.255  1.00  0.00    -0.246 OA
BRANCH  26  28
ATOM     28  C   UNL A   1      44.578  20.944  24.931  1.00  0.00     0.060 A 
ATOM     29  C   UNL A   1      45.269  21.181  26.125  1.00  0.00     0.016 A 
ATOM     30  C   UNL A   1      44.331  21.987  24.034  1.00  0.00     0.016 A 
ATOM     31  C   UNL A   1      45.644  22.477  26.468  1.00  0.00     0.010 A 
ATOM     32  C   UNL A   1      44.707  23.291  24.381  1.00  0.00     0.010 A 
ATOM     33  C   UNL A   1      45.316  23.546  25.624  1.00  0.00    -0.014 A 
BRANCH  33  34
ATOM     34  C   UNL A   1      45.441  24.929  26.149  1.00  0.00     0.031 A 
ATOM     35  C   UNL A   1      46.774  25.623  26.056  1.00  0.00     0.074 A 
ATOM     36  C   UNL A   1      44.371  25.587  26.627  1.00  0.00     0.049 A 
ATOM     37  N   UNL A   1      47.103  26.845  26.392  1.00  0.00    -0.248 NA
ATOM     38  C   UNL A   1      47.887  24.832  25.505  1.00  0.00     0.031 C 
ATOM     39  C   UNL A   1      43.022  25.036  26.738  1.00  0.00     0.029 A 
ATOM     40  N   UNL A   1      44.252  26.871  27.097  1.00  0.00    -0.354 N 
ATOM     41  C   UNL A   1      48.455  26.967  26.095  1.00  0.00     0.074 A 
ATOM     42  C   UNL A   1      48.896  25.684  25.590  1.00  0.00     0.031 C 
ATOM     43  C   UNL A   1      42.208  25.978  27.244  1.00  0.00     0.029 A 
ATOM     44  C   UNL A   1      42.982  27.191  27.506  1.00  0.00     0.049 A 
ATOM     45  H   UNL A   1      45.006  27.502  27.136  1.00  0.00     0.167 HD
ATOM     46  C   UNL A   1      49.255  28.054  26.216  1.00  0.00     0.037 A 
ATOM     47  C   UNL A   1      42.503  28.334  28.035  1.00  0.00     0.037 A 
ATOM     48  C   UNL A   1      48.816  29.331  26.714  1.00  0.00     0.049 A 
ATOM     49  C   UNL A   1      43.424  29.515  28.202  1.00  0.00     0.074 A 
ATOM     50  C   UNL A   1      49.547  30.497  26.863  1.00  0.00     0.029 A 
ATOM     51  N   UNL A   1      47.529  29.608  27.146  1.00  0.00    -0.354 N 
ATOM     52  N   UNL A   1      44.693  29.630  27.889  1.00  0.00    -0.248 NA
ATOM     53  C   UNL A   1      42.838  30.732  28.780  1.00  0.00     0.031 C 
ATOM     54  C   UNL A   1      48.712  31.467  27.429  1.00  0.00     0.029 A 
ATOM     55  C   UNL A   1      47.447  30.921  27.581  1.00  0.00     0.049 A 
ATOM     56  H   UNL A   1      46.781  28.967  27.143  1.00  0.00     0.167 HD
ATOM     57  C   UNL A   1      45.048  30.936  28.205  1.00  0.00     0.074 A 
ATOM     58  C   UNL A   1      43.855  31.579  28.717  1.00  0.00     0.031 C 
ATOM     59  C   UNL A   1      46.251  31.548  28.083  1.00  0.00     0.037 A 
BRANCH  46  60
ATOM     60  C   UNL A   1      50.694  27.899  25.819  1.00  0.00     0.064 A 
ATOM     61  C   UNL A   1      51.699  27.660  26.768  1.00  0.00     0.173 A 
ATOM     62  C   UNL A   1      51.069  27.969  24.469  1.00  0.00     0.173 A 
ATOM     63  F   UNL A   1      51.395  27.601  28.074  1.00  0.00    -0.203 F 
ATOM     64  C   UNL A   1      53.031  27.523  26.383  1.00  0.00     0.198 A 
ATOM     65  C   UNL A   1      52.398  27.803  24.084  1.00  0.00     0.198 A 
ATOM     66  F   UNL A   1      50.147  28.193  23.521  1.00  0.00    -0.203 F 
ATOM     67  F   UNL A   1      53.980  27.345  27.311  1.00  0.00    -0.200 F 
ATOM     68  C   UNL A   1      53.377  27.588  25.041  1.00  0.00     0.200 A 
ATOM     69  F   UNL A   1      52.730  27.855  22.787  1.00  0.00    -0.200 F 
ATOM     70  F   UNL A   1      54.658  27.452  24.671  1.00  0.00    -0.200 F 
ENDBRANCH  46  60
BRANCH  47  71
ATOM     71  C   UNL A   1      41.077  28.423  28.442  1.00  0.00     0.064 A 
ATOM     72  C   UNL A   1      40.103  28.922  27.565  1.00  0.00     0.173 A 
ATOM     73  C   UNL A   1      40.663  28.036  29.724  1.00  0.00     0.173 A 
ATOM     74  F   UNL A   1      40.454  29.329  26.336  1.00  0.00    -0.203 F 
ATOM     75  C   UNL A   1      38.774  29.050  27.964  1.00  0.00     0.198 A 
ATOM     76  C   UNL A   1      39.329  28.138  30.113  1.00  0.00     0.198 A 
ATOM     77  F   UNL A   1      41.556  27.553  30.601  1.00  0.00    -0.203 F 
ATOM     78  F   UNL A   1      37.873  29.578  27.124  1.00  0.00    -0.200 F 
ATOM     79  C   UNL A   1      38.387  28.654  29.235  1.00  0.00     0.200 A 
ATOM     80  F   UNL A   1      38.958  27.743  31.338  1.00  0.00    -0.200 F 
ATOM     81  F   UNL A   1      37.110  28.777  29.618  1.00  0.00    -0.200 F 
ENDBRANCH  47  71
BRANCH  59  82
ATOM     82  C   UNL A   1      46.327  32.997  28.473  1.00  0.00     0.064 A 
ATOM     83  C   UNL A   1      46.657  33.394  29.778  1.00  0.00     0.173 A 
ATOM     84  C   UNL A   1      46.080  34.002  27.525  1.00  0.00     0.173 A 
ATOM     85  F   UNL A   1      46.890  32.473  30.725  1.00  0.00    -0.203 F 
ATOM     86  C   UNL A   1      46.697  34.742  30.127  1.00  0.00     0.198 A 
ATOM     87  C   UNL A   1      46.153  35.348  27.870  1.00  0.00     0.198 A 
ATOM     88  F   UNL A   1      45.769  33.677  26.261  1.00  0.00    -0.203 F 
ATOM     89  F   UNL A   1      46.955  35.096  31.394  1.00  0.00    -0.200 F 
ATOM     90  C   UNL A   1      46.450  35.717  29.173  1.00  0.00     0.200 A 
ATOM     91  F   UNL A   1      45.927  36.289  26.943  1.00  0.00    -0.200 F 
ATOM     92  F   UNL A   1      46.489  37.013  29.511  1.00  0.00    -0.200 F 
ENDBRANCH  59  82
ENDBRANCH  33  34
ENDBRANCH  26  28
ENDBRANCH  25  26
ENDBRANCH  24  25
ENDBRANCH  23  24
ENDBRANCH  22  23
ENDBRANCH   1  22
TORSDOF 19
ENDMDL
MODEL 2
REMARK VINA RESULT:      -9.7      1.767      3.213
REMARK SMILES CC(C)C[N@@H+](Cc1ccc(C(=O)OCCOCCOC(=O)c2ccc(-c3c4nc(c(-c5c(F)c(F)c(F)c(F)c5F)c5ccc([nH]5)c(-c5c(F)c(F)c(F)c(F)c5F)c5nc(c(-c6c(F)c(F)c(F)c(F)c6F)c6ccc3[nH]6)C=C5)C=C4)cc2)cn1)C1CC1
REMARK SMILES IDX 15 1 14 2 13 3 11 4 12 5 10 6 7 7 8 8 86 9 9 10 85 11 6 12
REMARK SMILES IDX 5 13 4 15 2 16 1 17 3 18 87 19 88 20 89 21 16 22 17 23 18 24
REMARK SMILES IDX 19 25 20 26 21 27 22 28 23 29 84 30 24 31 83 32 25 33 26 34
REMARK SMILES IDX 27 35 77 36 28 37 82 38 76 39 78 40 29 41 81 42 75 43 74 44
REMARK SMILES IDX 30 46 62 47 42 48 61 49 43 50 46 51 60 52 79 53 44 54 45 55
REMARK SMILES IDX 59 57 80 58 47 59 31 60 32 61 40 62 33 63 34 64 38 65 41 66
REMARK SMILES IDX 35 67 36 68 39 69 37 70 63 71 64 72 72 73 65 74 66 75 70 76
REMARK SMILES IDX 73 77 67 78 68 79 71 80 69 81 48 82 49 83 57 84 50 85 51 86
REMARK SMILES IDX 55 87 58 88 52 89 53 90 56 91 54 92
REMARK H PARENT 5 14 78 45 46 56
REMARK Flexibility Score: inf
ROOT
ATOM      1  C   UNL A   1      36.391  20.316  25.002  1.00  0.00     0.202 C 
ENDROOT
BRANCH   1   2
ATOM      2  C   UNL A   1      34.898  20.657  24.970  1.00  0.00     0.261 C 
BRANCH   2   3
ATOM      3  O   UNL A   1      34.693  22.080  24.928  1.00  0.00    -0.460 OA
BRANCH   3   4
ATOM      4  C   UNL A   1      34.284  22.634  26.095  1.00  0.00     0.339 C 
ATOM      5  O   UNL A   1      34.727  22.399  27.211  1.00  0.00    -0.246 OA
BRANCH   4   6
ATOM      6  C   UNL A   1      33.304  23.704  25.841  1.00  0.00     0.078 A 
ATOM      7  C   UNL A   1      31.602  25.759  25.142  1.00  0.00     0.095 A 
ATOM      8  C   UNL A   1      31.342  25.016  26.298  1.00  0.00     0.031 A 
ATOM      9  N   UNL A   1      32.662  25.486  24.339  1.00  0.00    -0.254 NA
ATOM     10  C   UNL A   1      32.201  23.971  26.649  1.00  0.00     0.019 A 
ATOM     11  C   UNL A   1      33.485  24.477  24.704  1.00  0.00     0.127 A 
BRANCH   7  12
ATOM     12  C   UNL A   1      30.718  26.939  24.759  1.00  0.00     0.319 C 
BRANCH  12  13
ATOM     13  N   UNL A   1      31.336  28.288  24.802  1.00  0.00    -0.327 N 
ATOM     14  H   UNL A   1      32.256  28.228  24.365  1.00  0.00     0.348 HD
BRANCH  13  15
ATOM     15  C   UNL A   1      31.564  28.712  26.196  1.00  0.00     0.265 C 
BRANCH  15  16
ATOM     16  C   UNL A   1      33.034  28.804  26.675  1.00  0.00     0.038 C 
ATOM     17  C   UNL A   1      34.062  28.528  25.575  1.00  0.00     0.013 C 
ATOM     18  C   UNL A   1      33.288  30.217  27.224  1.00  0.00     0.013 C 
ENDBRANCH  15  16
ENDBRANCH  13  15
BRANCH  13  19
ATOM     19  C   UNL A   1      30.622  29.278  23.968  1.00  0.00     0.184 C 
ATOM     20  C   UNL A   1      30.844  29.215  22.474  1.00  0.00     0.071 C 
ATOM     21  C   UNL A   1      29.499  28.895  23.035  1.00  0.00     0.071 C 
ENDBRANCH  13  19
ENDBRANCH  12  13
ENDBRANCH   7  12
ENDBRANCH   4   6
ENDBRANCH   3   4
ENDBRANCH   2   3
ENDBRANCH   1   2
BRANCH   1  22
ATOM     22  O   UNL A   1      37.284  21.413  24.814  1.00  0.00    -0.374 OA
BRANCH  22  23
ATOM     23  C   UNL A   1      38.577  21.309  25.415  1.00  0.00     0.202 C 
BRANCH  23  24
ATOM     24  C   UNL A   1      39.238  19.928  25.350  1.00  0.00     0.261 C 
BRANCH  24  25
ATOM     25  O   UNL A   1      40.111  19.704  26.473  1.00  0.00    -0.460 OA
BRANCH  25  26
ATOM     26  C   UNL A   1      41.415  19.554  26.149  1.00  0.00     0.338 C 
ATOM     27  O   UNL A   1      41.921  18.639  25.515  1.00  0.00    -0.246 OA
BRANCH  26  28
ATOM     28  C   UNL A   1      42.182  20.757  26.524  1.00  0.00     0.060 A 
ATOM     29  C   UNL A   1      42.207  21.096  27.883  1.00  0.00     0.016 A 
ATOM     30  C   UNL A   1      42.777  21.590  25.573  1.00  0.00     0.016 A 
ATOM     31  C   UNL A   1      42.754  22.309  28.288  1.00  0.00     0.010 A 
ATOM     32  C   UNL A   1      43.325  22.813  25.982  1.00  0.00     0.010 A 
ATOM     33  C   UNL A   1      43.266  23.199  27.334  1.00  0.00    -0.014 A 
BRANCH  33  34
ATOM     34  C   UNL A   1      43.551  24.596  27.747  1.00  0.00     0.031 A 
ATOM     35  C   UNL A   1      44.980  25.068  27.776  1.00  0.00     0.074 A 
ATOM     36  C   UNL A   1      42.552  25.455  28.014  1.00  0.00     0.049 A 
ATOM     37  N   UNL A   1      45.461  26.256  28.045  1.00  0.00    -0.248 NA
ATOM     38  C   UNL A   1      46.008  24.064  27.455  1.00  0.00     0.031 C 
ATOM     39  C   UNL A   1      41.128  25.128  27.988  1.00  0.00     0.029 A 
ATOM     40  N   UNL A   1      42.588  26.786  28.348  1.00  0.00    -0.354 N 
ATOM     41  C   UNL A   1      46.841  26.141  27.926  1.00  0.00     0.074 A 
ATOM     42  C   UNL A   1      47.125  24.760  27.601  1.00  0.00     0.031 C 
ATOM     43  C   UNL A   1      40.423  26.231  28.293  1.00  0.00     0.029 A 
ATOM     44  C   UNL A   1      41.347  27.336  28.550  1.00  0.00     0.049 A 
ATOM     45  H   UNL A   1      43.425  27.297  28.434  1.00  0.00     0.167 HD
ATOM     46  C   UNL A   1      47.786  27.102  28.058  1.00  0.00     0.037 A 
ATOM     47  C   UNL A   1      41.001  28.587  28.906  1.00  0.00     0.037 A 
ATOM     48  C   UNL A   1      47.505  28.477  28.377  1.00  0.00     0.049 A 
ATOM     49  C   UNL A   1      42.074  29.629  29.091  1.00  0.00     0.074 A 
ATOM     50  C   UNL A   1      48.392  29.530  28.521  1.00  0.00     0.029 A 
ATOM     51  N   UNL A   1      46.236  28.990  28.603  1.00  0.00    -0.354 N 
ATOM     52  N   UNL A   1      43.373  29.517  28.947  1.00  0.00    -0.248 NA
ATOM     53  C   UNL A   1      41.629  30.976  29.475  1.00  0.00     0.031 C 
ATOM     54  C   UNL A   1      47.663  30.669  28.879  1.00  0.00     0.029 A 
ATOM     55  C   UNL A   1      46.318  30.340  28.905  1.00  0.00     0.049 A 
ATOM     56  H   UNL A   1      45.400  28.471  28.555  1.00  0.00     0.167 HD
ATOM     57  C   UNL A   1      43.895  30.782  29.191  1.00  0.00     0.074 A 
ATOM     58  C   UNL A   1      42.770  31.648  29.477  1.00  0.00     0.031 C 
ATOM     59  C   UNL A   1      45.188  31.190  29.182  1.00  0.00     0.037 A 
BRANCH  46  60
ATOM     60  C   UNL A   1      49.218  26.691  27.877  1.00  0.00     0.064 A 
ATOM     61  C   UNL A   1      49.793  26.564  26.603  1.00  0.00     0.173 A 
ATOM     62  C   UNL A   1      50.032  26.442  28.992  1.00  0.00     0.173 A 
ATOM     63  F   UNL A   1      49.053  26.775  25.504  1.00  0.00    -0.203 F 
ATOM     64  C   UNL A   1      51.124  26.177  26.453  1.00  0.00     0.198 A 
ATOM     65  C   UNL A   1      51.369  26.083  28.839  1.00  0.00     0.198 A 
ATOM     66  F   UNL A   1      49.532  26.550  30.231  1.00  0.00    -0.203 F 
ATOM     67  F   UNL A   1      51.637  26.014  25.226  1.00  0.00    -0.200 F 
ATOM     68  C   UNL A   1      51.911  25.944  27.570  1.00  0.00     0.200 A 
ATOM     69  F   UNL A   1      52.131  25.868  29.919  1.00  0.00    -0.200 F 
ATOM     70  F   UNL A   1      53.191  25.576  27.425  1.00  0.00    -0.200 F 
ENDBRANCH  46  60
BRANCH  47  71
ATOM     71  C   UNL A   1      39.569  28.934  29.104  1.00  0.00     0.064 A 
ATOM     72  C   UNL A   1      38.962  28.818  30.363  1.00  0.00     0.173 A 
ATOM     73  C   UNL A   1      38.772  29.364  28.033  1.00  0.00     0.173 A 
ATOM     74  F   UNL A   1      39.676  28.386  31.413  1.00  0.00    -0.203 F 
ATOM     75  C   UNL A   1      37.609  29.098  30.537  1.00  0.00     0.198 A 
ATOM     76  C   UNL A   1      37.426  29.671  28.215  1.00  0.00     0.198 A 
ATOM     77  F   UNL A   1      39.305  29.492  26.809  1.00  0.00    -0.203 F 
ATOM     78  F   UNL A   1      37.042  28.929  31.740  1.00  0.00    -0.200 F 
ATOM     79  C   UNL A   1      36.843  29.528  29.464  1.00  0.00     0.200 A 
ATOM     80  F   UNL A   1      36.692  30.098  27.178  1.00  0.00    -0.200 F 
ATOM     81  F   UNL A   1      35.541  29.797  29.633  1.00  0.00    -0.200 F 
ENDBRANCH  47  71
BRANCH  59  82
ATOM     82  C   UNL A   1      45.451  32.645  29.449  1.00  0.00     0.064 A 
ATOM     83  C   UNL A   1      45.537  33.582  28.408  1.00  0.00     0.173 A 
ATOM     84  C   UNL A   1      45.603  33.109  30.765  1.00  0.00     0.173 A 
ATOM     85  F   UNL A   1      45.412  33.188  27.132  1.00  0.00    -0.203 F 
ATOM     86  C   UNL A   1      45.807  34.923  28.674  1.00  0.00     0.198 A 
ATOM     87  C   UNL A   1      45.840  34.455  31.028  1.00  0.00     0.198 A 
ATOM     88  F   UNL A   1      45.519  32.256  31.796  1.00  0.00    -0.203 F 
ATOM     89  F   UNL A   1      45.946  35.789  27.661  1.00  0.00    -0.200 F 
ATOM     90  C   UNL A   1      45.953  35.359  29.983  1.00  0.00     0.200 A 
ATOM     91  F   UNL A   1      45.967  34.876  32.293  1.00  0.00    -0.200 F 
ATOM     92  F   UNL A   1      46.213  36.649  30.236  1.00  0.00    -0.200 F 
ENDBRANCH  59  82
ENDBRANCH  33  34
ENDBRANCH  26  28
ENDBRANCH  25  26
ENDBRANCH  24  25
ENDBRANCH  23  24
ENDBRANCH  22  23
ENDBRANCH   1  22
TORSDOF 19
ENDMDL
MODEL 3
REMARK VINA RESULT:      -9.6      5.735      9.909
REMARK SMILES CC(C)C[N@@H+](Cc1ccc(C(=O)OCCOCCOC(=O)c2ccc(-c3c4nc(c(-c5c(F)c(F)c(F)c(F)c5F)c5ccc([nH]5)c(-c5c(F)c(F)c(F)c(F)c5F)c5nc(c(-c6c(F)c(F)c(F)c(F)c6F)c6ccc3[nH]6)C=C5)C=C4)cc2)cn1)C1CC1
REMARK SMILES IDX 15 1 14 2 13 3 11 4 12 5 10 6 7 7 8 8 86 9 9 10 85 11 6 12
REMARK SMILES IDX 5 13 4 15 2 16 1 17 3 18 87 19 88 20 89 21 16 22 17 23 18 24
REMARK SMILES IDX 19 25 20 26 21 27 22 28 23 29 84 30 24 31 83 32 25 33 26 34
REMARK SMILES IDX 27 35 77 36 28 37 82 38 76 39 78 40 29 41 81 42 75 43 74 44
REMARK SMILES IDX 30 46 62 47 42 48 61 49 43 50 46 51 60 52 79 53 44 54 45 55
REMARK SMILES IDX 59 57 80 58 47 59 31 60 32 61 40 62 33 63 34 64 38 65 41 66
REMARK SMILES IDX 35 67 36 68 39 69 37 70 63 71 64 72 72 73 65 74 66 75 70 76
REMARK SMILES IDX 73 77 67 78 68 79 71 80 69 81 48 82 49 83 57 84 50 85 51 86
REMARK SMILES IDX 55 87 58 88 52 89 53 90 56 91 54 92
REMARK H PARENT 5 14 78 45 46 56
REMARK Flexibility Score: inf
ROOT
ATOM      1  C   UNL A   1      32.821  28.752  25.361  1.00  0.00     0.202 C 
ENDROOT
BRANCH   1   2
ATOM      2  C   UNL A   1      32.063  27.821  26.313  1.00  0.00     0.261 C 
BRANCH   2   3
ATOM      3  O   UNL A   1      32.295  26.441  25.982  1.00  0.00    -0.460 OA
BRANCH   3   4
ATOM      4  C   UNL A   1      31.213  25.635  26.098  1.00  0.00     0.339 C 
ATOM      5  O   UNL A   1      30.087  25.967  26.442  1.00  0.00    -0.246 OA
BRANCH   4   6
ATOM      6  C   UNL A   1      31.523  24.283  25.601  1.00  0.00     0.078 A 
ATOM      7  C   UNL A   1      32.205  21.867  24.458  1.00  0.00     0.095 A 
ATOM      8  C   UNL A   1      31.632  21.884  25.734  1.00  0.00     0.031 A 
ATOM      9  N   UNL A   1      32.455  23.011  23.771  1.00  0.00    -0.254 NA
ATOM     10  C   UNL A   1      31.291  23.109  26.316  1.00  0.00     0.019 A 
ATOM     11  C   UNL A   1      32.108  24.183  24.349  1.00  0.00     0.127 A 
BRANCH   7  12
ATOM     12  C   UNL A   1      32.540  20.549  23.772  1.00  0.00     0.319 C 
BRANCH  12  13
ATOM     13  N   UNL A   1      33.717  19.802  24.283  1.00  0.00    -0.327 N 
ATOM     14  H   UNL A   1      34.299  19.546  23.486  1.00  0.00     0.348 HD
BRANCH  13  15
ATOM     15  C   UNL A   1      33.297  18.536  24.913  1.00  0.00     0.265 C 
BRANCH  15  16
ATOM     16  C   UNL A   1      34.140  17.275  24.598  1.00  0.00     0.038 C 
ATOM     17  C   UNL A   1      33.722  16.037  25.394  1.00  0.00     0.013 C 
ATOM     18  C   UNL A   1      34.005  16.952  23.102  1.00  0.00     0.013 C 
ENDBRANCH  15  16
ENDBRANCH  13  15
BRANCH  13  19
ATOM     19  C   UNL A   1      34.613  20.633  25.114  1.00  0.00     0.184 C 
ATOM     20  C   UNL A   1      36.095  20.342  25.039  1.00  0.00     0.071 C 
ATOM     21  C   UNL A   1      35.570  21.639  24.521  1.00  0.00     0.071 C 
ENDBRANCH  13  19
ENDBRANCH  12  13
ENDBRANCH   7  12
ENDBRANCH   4   6
ENDBRANCH   3   4
ENDBRANCH   2   3
ENDBRANCH   1   2
BRANCH   1  22
ATOM     22  O   UNL A   1      32.023  29.699  24.651  1.00  0.00    -0.374 OA
BRANCH  22  23
ATOM     23  C   UNL A   1      31.045  30.421  25.404  1.00  0.00     0.202 C 
BRANCH  23  24
ATOM     24  C   UNL A   1      31.577  31.575  26.261  1.00  0.00     0.261 C 
BRANCH  24  25
ATOM     25  O   UNL A   1      32.718  31.173  27.043  1.00  0.00    -0.460 OA
BRANCH  25  26
ATOM     26  C   UNL A   1      33.475  32.197  27.498  1.00  0.00     0.338 C 
ATOM     27  O   UNL A   1      33.123  33.353  27.685  1.00  0.00    -0.246 OA
BRANCH  26  28
ATOM     28  C   UNL A   1      34.802  31.710  27.919  1.00  0.00     0.060 A 
ATOM     29  C   UNL A   1      34.911  30.348  28.226  1.00  0.00     0.016 A 
ATOM     30  C   UNL A   1      35.889  32.569  28.107  1.00  0.00     0.016 A 
ATOM     31  C   UNL A   1      36.078  29.854  28.800  1.00  0.00     0.010 A 
ATOM     32  C   UNL A   1      37.062  32.071  28.687  1.00  0.00     0.010 A 
ATOM     33  C   UNL A   1      37.139  30.723  29.084  1.00  0.00    -0.014 A 
BRANCH  33  34
ATOM     34  C   UNL A   1      38.231  30.245  29.970  1.00  0.00     0.031 A 
ATOM     35  C   UNL A   1      39.233  29.264  29.421  1.00  0.00     0.074 A 
ATOM     36  C   UNL A   1      38.377  30.733  31.213  1.00  0.00     0.049 A 
ATOM     37  N   UNL A   1      40.298  28.756  29.988  1.00  0.00    -0.248 NA
ATOM     38  C   UNL A   1      39.003  28.794  28.045  1.00  0.00     0.031 C 
ATOM     39  C   UNL A   1      37.493  31.709  31.845  1.00  0.00     0.029 A 
ATOM     40  N   UNL A   1      39.335  30.479  32.162  1.00  0.00    -0.354 N 
ATOM     41  C   UNL A   1      40.863  27.910  29.041  1.00  0.00     0.074 A 
ATOM     42  C   UNL A   1      40.002  27.941  27.878  1.00  0.00     0.031 C 
ATOM     43  C   UNL A   1      37.951  31.975  33.081  1.00  0.00     0.029 A 
ATOM     44  C   UNL A   1      39.150  31.176  33.330  1.00  0.00     0.049 A 
ATOM     45  H   UNL A   1      40.084  29.857  32.019  1.00  0.00     0.167 HD
ATOM     46  C   UNL A   1      42.005  27.186  29.124  1.00  0.00     0.037 A 
ATOM     47  C   UNL A   1      39.867  31.164  34.470  1.00  0.00     0.037 A 
ATOM     48  C   UNL A   1      42.865  27.159  30.278  1.00  0.00     0.049 A 
ATOM     49  C   UNL A   1      41.109  30.315  34.555  1.00  0.00     0.074 A 
ATOM     50  C   UNL A   1      44.050  26.467  30.457  1.00  0.00     0.029 A 
ATOM     51  N   UNL A   1      42.628  27.856  31.453  1.00  0.00    -0.354 N 
ATOM     52  N   UNL A   1      41.651  29.543  33.643  1.00  0.00    -0.248 NA
ATOM     53  C   UNL A   1      41.849  30.351  35.824  1.00  0.00     0.031 C 
ATOM     54  C   UNL A   1      44.506  26.709  31.757  1.00  0.00     0.029 A 
ATOM     55  C   UNL A   1      43.635  27.595  32.369  1.00  0.00     0.049 A 
ATOM     56  H   UNL A   1      41.859  28.449  31.614  1.00  0.00     0.167 HD
ATOM     57  C   UNL A   1      42.806  29.026  34.217  1.00  0.00     0.074 A 
ATOM     58  C   UNL A   1      42.896  29.587  35.550  1.00  0.00     0.031 C 
ATOM     59  C   UNL A   1      43.712  28.165  33.691  1.00  0.00     0.037 A 
BRANCH  46  60
ATOM     60  C   UNL A   1      42.379  26.348  27.937  1.00  0.00     0.064 A 
ATOM     61  C   UNL A   1      41.835  25.070  27.737  1.00  0.00     0.173 A 
ATOM     62  C   UNL A   1      43.276  26.837  26.976  1.00  0.00     0.173 A 
ATOM     63  F   UNL A   1      40.984  24.549  28.635  1.00  0.00    -0.203 F 
ATOM     64  C   UNL A   1      42.196  24.302  26.631  1.00  0.00     0.198 A 
ATOM     65  C   UNL A   1      43.612  26.079  25.857  1.00  0.00     0.198 A 
ATOM     66  F   UNL A   1      43.823  28.053  27.119  1.00  0.00    -0.203 F 
ATOM     67  F   UNL A   1      41.701  23.065  26.486  1.00  0.00    -0.200 F 
ATOM     68  C   UNL A   1      43.078  24.810  25.690  1.00  0.00     0.200 A 
ATOM     69  F   UNL A   1      44.457  26.575  24.943  1.00  0.00    -0.200 F 
ATOM     70  F   UNL A   1      43.421  24.073  24.624  1.00  0.00    -0.200 F 
ENDBRANCH  46  60
BRANCH  47  71
ATOM     71  C   UNL A   1      39.435  31.989  35.628  1.00  0.00     0.064 A 
ATOM     72  C   UNL A   1      38.522  31.495  36.571  1.00  0.00     0.173 A 
ATOM     73  C   UNL A   1      39.908  33.298  35.802  1.00  0.00     0.173 A 
ATOM     74  F   UNL A   1      38.022  30.258  36.433  1.00  0.00    -0.203 F 
ATOM     75  C   UNL A   1      38.082  32.286  37.629  1.00  0.00     0.198 A 
ATOM     76  C   UNL A   1      39.488  34.078  36.877  1.00  0.00     0.198 A 
ATOM     77  F   UNL A   1      40.782  33.817  34.928  1.00  0.00    -0.203 F 
ATOM     78  F   UNL A   1      37.170  31.807  38.486  1.00  0.00    -0.200 F 
ATOM     79  C   UNL A   1      38.568  33.576  37.784  1.00  0.00     0.200 A 
ATOM     80  F   UNL A   1      39.970  35.319  37.029  1.00  0.00    -0.200 F 
ATOM     81  F   UNL A   1      38.145  34.336  38.802  1.00  0.00    -0.200 F 
ENDBRANCH  47  71
BRANCH  59  82
ATOM     82  C   UNL A   1      44.897  27.809  34.543  1.00  0.00     0.064 A 
ATOM     83  C   UNL A   1      46.074  28.574  34.527  1.00  0.00     0.173 A 
ATOM     84  C   UNL A   1      44.849  26.697  35.397  1.00  0.00     0.173 A 
ATOM     85  F   UNL A   1      46.176  29.639  33.718  1.00  0.00    -0.203 F 
ATOM     86  C   UNL A   1      47.171  28.213  35.305  1.00  0.00     0.198 A 
ATOM     87  C   UNL A   1      45.937  26.359  36.197  1.00  0.00     0.198 A 
ATOM     88  F   UNL A   1      43.745  25.938  35.457  1.00  0.00    -0.203 F 
ATOM     89  F   UNL A   1      48.306  28.923  35.228  1.00  0.00    -0.200 F 
ATOM     90  C   UNL A   1      47.101  27.110  36.142  1.00  0.00     0.200 A 
ATOM     91  F   UNL A   1      45.861  25.301  37.016  1.00  0.00    -0.200 F 
ATOM     92  F   UNL A   1      48.158  26.765  36.889  1.00  0.00    -0.200 F 
ENDBRANCH  59  82
ENDBRANCH  33  34
ENDBRANCH  26  28
ENDBRANCH  25  26
ENDBRANCH  24  25
ENDBRANCH  23  24
ENDBRANCH  22  23
ENDBRANCH   1  22
TORSDOF 19
ENDMDL
