MODEL 1
REMARK VINA RESULT:     -11.3      0.000      0.000
REMARK SMILES C=CCc1cccc(-c2ccc([C@@H](C)C(=O)OCCOCCOC(=O)c3ccc(-c4c5nc(c(-c6c(F)c(F)c(F)c(F)c6F)c6ccc([nH]6)c(-c6c(F)c(F)c(F)c(F)c6F)c6nc(c(-c7c(F)c(F)c(F)c(F)c7F)c7ccc4[nH]7)C=C6)C=C5)cc3)cc2)c1
REMARK SMILES IDX 19 1 18 2 17 3 15 4 16 5 13 6 14 7 12 8 9 9 10 10 90 11
REMARK SMILES IDX 11 12 89 13 8 14 4 15 5 16 91 17 6 18 7 19 3 20 2 21 1 22
REMARK SMILES IDX 20 23 21 24 22 25 23 26 24 27 25 28 26 29 27 30 88 31 28 32
REMARK SMILES IDX 87 33 29 34 30 35 31 36 81 37 32 38 86 39 80 40 82 41 33 42
REMARK SMILES IDX 85 43 79 44 78 45 34 47 66 48 46 49 65 50 47 51 50 52 64 53
REMARK SMILES IDX 83 54 48 55 49 56 63 58 84 59 51 60 35 61 36 62 44 63 37 64
REMARK SMILES IDX 38 65 42 66 45 67 39 68 40 69 43 70 41 71 67 72 68 73 76 74
REMARK SMILES IDX 69 75 70 76 74 77 77 78 71 79 72 80 75 81 73 82 52 83 53 84
REMARK SMILES IDX 61 85 54 86 55 87 59 88 62 89 56 90 57 91 60 92 58 93
REMARK H PARENT 82 46 50 57
REMARK Flexibility Score: inf
ROOT
ATOM      1  C   UNL A   1      36.304  21.568  25.229  1.00  0.00     0.202 C 
ENDROOT
BRANCH   1   2
ATOM      2  C   UNL A   1      35.252  20.478  25.006  1.00  0.00     0.261 C 
BRANCH   2   3
ATOM      3  O   UNL A   1      34.054  20.762  25.751  1.00  0.00    -0.463 OA
BRANCH   3   4
ATOM      4  C   UNL A   1      32.921  20.157  25.310  1.00  0.00     0.313 C 
ATOM      5  O   UNL A   1      32.637  18.981  25.522  1.00  0.00    -0.252 OA
BRANCH   4   6
ATOM      6  C   UNL A   1      32.027  21.056  24.470  1.00  0.00     0.126 C 
ATOM      7  C   UNL A   1      32.207  20.698  22.996  1.00  0.00     0.025 C 
BRANCH   6   8
ATOM      8  C   UNL A   1      32.107  22.563  24.704  1.00  0.00    -0.034 A 
ATOM      9  C   UNL A   1      31.998  25.399  24.980  1.00  0.00    -0.018 A 
ATOM     10  C   UNL A   1      32.932  24.783  24.133  1.00  0.00     0.009 A 
ATOM     11  C   UNL A   1      31.158  24.567  25.733  1.00  0.00     0.009 A 
ATOM     12  C   UNL A   1      32.988  23.389  23.995  1.00  0.00     0.005 A 
ATOM     13  C   UNL A   1      31.210  23.173  25.598  1.00  0.00     0.005 A 
BRANCH   9  14
ATOM     14  C   UNL A   1      31.838  26.863  25.003  1.00  0.00    -0.018 A 
ATOM     15  C   UNL A   1      32.025  29.039  26.128  1.00  0.00    -0.044 A 
ATOM     16  C   UNL A   1      31.399  29.647  25.030  1.00  0.00     0.004 A 
ATOM     17  C   UNL A   1      32.227  27.644  26.106  1.00  0.00     0.012 A 
ATOM     18  C   UNL A   1      31.013  28.892  23.926  1.00  0.00     0.001 A 
ATOM     19  C   UNL A   1      31.233  27.515  23.914  1.00  0.00     0.009 A 
BRANCH  15  20
ATOM     20  C   UNL A   1      32.409  29.857  27.343  1.00  0.00     0.062 C 
BRANCH  20  21
ATOM     21  C   UNL A   1      33.815  30.393  27.287  1.00  0.00    -0.030 C 
ATOM     22  C   UNL A   1      34.918  29.632  27.320  1.00  0.00     0.004 C 
ENDBRANCH  20  21
ENDBRANCH  15  20
ENDBRANCH   9  14
ENDBRANCH   6   8
ENDBRANCH   4   6
ENDBRANCH   3   4
ENDBRANCH   2   3
ENDBRANCH   1   2
BRANCH   1  23
ATOM     23  O   UNL A   1      37.654  21.193  24.957  1.00  0.00    -0.374 OA
BRANCH  23  24
ATOM     24  C   UNL A   1      37.959  19.797  24.967  1.00  0.00     0.202 C 
BRANCH  24  25
ATOM     25  C   UNL A   1      39.254  19.399  25.683  1.00  0.00     0.261 C 
BRANCH  25  26
ATOM     26  O   UNL A   1      40.127  20.524  25.888  1.00  0.00    -0.460 OA
BRANCH  26  27
ATOM     27  C   UNL A   1      40.794  20.524  27.063  1.00  0.00     0.338 C 
ATOM     28  O   UNL A   1      41.310  19.568  27.627  1.00  0.00    -0.246 OA
BRANCH  27  29
ATOM     29  C   UNL A   1      40.982  21.907  27.538  1.00  0.00     0.060 A 
ATOM     30  C   UNL A   1      40.247  22.913  26.898  1.00  0.00     0.016 A 
ATOM     31  C   UNL A   1      41.916  22.228  28.526  1.00  0.00     0.016 A 
ATOM     32  C   UNL A   1      40.484  24.252  27.201  1.00  0.00     0.010 A 
ATOM     33  C   UNL A   1      42.160  23.574  28.823  1.00  0.00     0.010 A 
ATOM     34  C   UNL A   1      41.474  24.591  28.134  1.00  0.00    -0.014 A 
BRANCH  34  35
ATOM     35  C   UNL A   1      41.906  26.005  28.253  1.00  0.00     0.031 A 
ATOM     36  C   UNL A   1      43.236  26.407  27.682  1.00  0.00     0.074 A 
ATOM     37  C   UNL A   1      41.109  26.927  28.821  1.00  0.00     0.049 A 
ATOM     38  N   UNL A   1      43.826  27.576  27.686  1.00  0.00    -0.248 NA
ATOM     39  C   UNL A   1      44.005  25.347  27.010  1.00  0.00     0.031 C 
ATOM     40  C   UNL A   1      39.775  26.674  29.357  1.00  0.00     0.029 A 
ATOM     41  N   UNL A   1      41.313  28.267  29.036  1.00  0.00    -0.354 N 
ATOM     42  C   UNL A   1      45.032  27.391  27.021  1.00  0.00     0.074 A 
ATOM     43  C   UNL A   1      45.105  25.993  26.655  1.00  0.00     0.031 C 
ATOM     44  C   UNL A   1      39.278  27.825  29.844  1.00  0.00     0.029 A 
ATOM     45  C   UNL A   1      40.272  28.885  29.680  1.00  0.00     0.049 A 
ATOM     46  H   UNL A   1      42.129  28.740  28.753  1.00  0.00     0.167 HD
ATOM     47  C   UNL A   1      45.986  28.307  26.730  1.00  0.00     0.037 A 
ATOM     48  C   UNL A   1      40.145  30.158  30.103  1.00  0.00     0.037 A 
ATOM     49  C   UNL A   1      45.918  29.696  27.100  1.00  0.00     0.049 A 
ATOM     50  C   UNL A   1      41.265  31.136  29.857  1.00  0.00     0.074 A 
ATOM     51  C   UNL A   1      46.835  30.703  26.852  1.00  0.00     0.029 A 
ATOM     52  N   UNL A   1      44.871  30.272  27.805  1.00  0.00    -0.354 N 
ATOM     53  N   UNL A   1      42.397  30.957  29.221  1.00  0.00    -0.248 NA
ATOM     54  C   UNL A   1      41.088  32.493  30.393  1.00  0.00     0.031 C 
ATOM     55  C   UNL A   1      46.363  31.879  27.448  1.00  0.00     0.029 A 
ATOM     56  C   UNL A   1      45.131  31.616  28.023  1.00  0.00     0.049 A 
ATOM     57  H   UNL A   1      44.063  29.796  28.105  1.00  0.00     0.167 HD
ATOM     58  C   UNL A   1      43.050  32.182  29.249  1.00  0.00     0.074 A 
ATOM     59  C   UNL A   1      42.186  33.099  29.964  1.00  0.00     0.031 C 
ATOM     60  C   UNL A   1      44.255  32.518  28.728  1.00  0.00     0.037 A 
BRANCH  47  61
ATOM     61  C   UNL A   1      47.202  27.821  25.998  1.00  0.00     0.064 A 
ATOM     62  C   UNL A   1      47.235  27.741  24.598  1.00  0.00     0.173 A 
ATOM     63  C   UNL A   1      48.351  27.437  26.705  1.00  0.00     0.173 A 
ATOM     64  F   UNL A   1      46.157  28.082  23.877  1.00  0.00    -0.203 F 
ATOM     65  C   UNL A   1      48.363  27.265  23.934  1.00  0.00     0.198 A 
ATOM     66  C   UNL A   1      49.487  26.988  26.037  1.00  0.00     0.198 A 
ATOM     67  F   UNL A   1      48.373  27.497  28.045  1.00  0.00    -0.203 F 
ATOM     68  F   UNL A   1      48.355  27.149  22.599  1.00  0.00    -0.200 F 
ATOM     69  C   UNL A   1      49.489  26.894  24.654  1.00  0.00     0.200 A 
ATOM     70  F   UNL A   1      50.578  26.639  26.733  1.00  0.00    -0.200 F 
ATOM     71  F   UNL A   1      50.574  26.436  24.014  1.00  0.00    -0.200 F 
ENDBRANCH  47  61
BRANCH  48  72
ATOM     72  C   UNL A   1      38.909  30.585  30.805  1.00  0.00     0.064 A 
ATOM     73  C   UNL A   1      37.790  31.029  30.088  1.00  0.00     0.173 A 
ATOM     74  C   UNL A   1      38.823  30.566  32.206  1.00  0.00     0.173 A 
ATOM     75  F   UNL A   1      37.834  31.090  28.749  1.00  0.00    -0.203 F 
ATOM     76  C   UNL A   1      36.635  31.449  30.745  1.00  0.00     0.198 A 
ATOM     77  C   UNL A   1      37.659  30.964  32.860  1.00  0.00     0.198 A 
ATOM     78  F   UNL A   1      39.868  30.154  32.937  1.00  0.00    -0.203 F 
ATOM     79  F   UNL A   1      35.593  31.906  30.037  1.00  0.00    -0.200 F 
ATOM     80  C   UNL A   1      36.568  31.410  32.129  1.00  0.00     0.200 A 
ATOM     81  F   UNL A   1      37.595  30.916  34.197  1.00  0.00    -0.200 F 
ATOM     82  F   UNL A   1      35.455  31.810  32.761  1.00  0.00    -0.200 F 
ENDBRANCH  48  72
BRANCH  60  83
ATOM     83  C   UNL A   1      44.698  33.946  28.870  1.00  0.00     0.064 A 
ATOM     84  C   UNL A   1      44.340  34.925  27.933  1.00  0.00     0.173 A 
ATOM     85  C   UNL A   1      45.449  34.345  29.987  1.00  0.00     0.173 A 
ATOM     86  F   UNL A   1      43.636  34.589  26.842  1.00  0.00    -0.203 F 
ATOM     87  C   UNL A   1      44.736  36.250  28.098  1.00  0.00     0.198 A 
ATOM     88  C   UNL A   1      45.820  35.675  30.161  1.00  0.00     0.198 A 
ATOM     89  F   UNL A   1      45.811  33.447  30.915  1.00  0.00    -0.203 F 
ATOM     90  F   UNL A   1      44.417  37.163  27.170  1.00  0.00    -0.200 F 
ATOM     91  C   UNL A   1      45.468  36.625  29.215  1.00  0.00     0.200 A 
ATOM     92  F   UNL A   1      46.516  36.038  31.248  1.00  0.00    -0.200 F 
ATOM     93  F   UNL A   1      45.841  37.903  29.376  1.00  0.00    -0.200 F 
ENDBRANCH  60  83
ENDBRANCH  34  35
ENDBRANCH  27  29
ENDBRANCH  26  27
ENDBRANCH  25  26
ENDBRANCH  24  25
ENDBRANCH  23  24
ENDBRANCH   1  23
TORSDOF 18
ENDMDL
MODEL 2
REMARK VINA RESULT:     -11.3      5.287     10.961
REMARK SMILES C=CCc1cccc(-c2ccc([C@@H](C)C(=O)OCCOCCOC(=O)c3ccc(-c4c5nc(c(-c6c(F)c(F)c(F)c(F)c6F)c6ccc([nH]6)c(-c6c(F)c(F)c(F)c(F)c6F)c6nc(c(-c7c(F)c(F)c(F)c(F)c7F)c7ccc4[nH]7)C=C6)C=C5)cc3)cc2)c1
REMARK SMILES IDX 19 1 18 2 17 3 15 4 16 5 13 6 14 7 12 8 9 9 10 10 90 11
REMARK SMILES IDX 11 12 89 13 8 14 4 15 5 16 91 17 6 18 7 19 3 20 2 21 1 22
REMARK SMILES IDX 20 23 21 24 22 25 23 26 24 27 25 28 26 29 27 30 88 31 28 32
REMARK SMILES IDX 87 33 29 34 30 35 31 36 81 37 32 38 86 39 80 40 82 41 33 42
REMARK SMILES IDX 85 43 79 44 78 45 34 47 66 48 46 49 65 50 47 51 50 52 64 53
REMARK SMILES IDX 83 54 48 55 49 56 63 58 84 59 51 60 35 61 36 62 44 63 37 64
REMARK SMILES IDX 38 65 42 66 45 67 39 68 40 69 43 70 41 71 67 72 68 73 76 74
REMARK SMILES IDX 69 75 70 76 74 77 77 78 71 79 72 80 75 81 73 82 52 83 53 84
REMARK SMILES IDX 61 85 54 86 55 87 59 88 62 89 56 90 57 91 60 92 58 93
REMARK H PARENT 82 46 50 57
REMARK Flexibility Score: inf
ROOT
ATOM      1  C   UNL A   1      32.158  30.643  26.836  1.00  0.00     0.202 C 
ENDROOT
BRANCH   1   2
ATOM      2  C   UNL A   1      32.761  29.652  25.837  1.00  0.00     0.261 C 
BRANCH   2   3
ATOM      3  O   UNL A   1      31.728  28.969  25.105  1.00  0.00    -0.463 OA
BRANCH   3   4
ATOM      4  C   UNL A   1      32.039  28.604  23.834  1.00  0.00     0.313 C 
ATOM      5  O   UNL A   1      31.255  28.656  22.889  1.00  0.00    -0.252 OA
BRANCH   4   6
ATOM      6  C   UNL A   1      33.452  28.068  23.673  1.00  0.00     0.126 C 
ATOM      7  C   UNL A   1      34.012  28.539  22.332  1.00  0.00     0.025 C 
BRANCH   6   8
ATOM      8  C   UNL A   1      33.678  26.573  23.891  1.00  0.00    -0.034 A 
ATOM      9  C   UNL A   1      34.398  23.847  24.317  1.00  0.00    -0.018 A 
ATOM     10  C   UNL A   1      33.978  24.304  23.057  1.00  0.00     0.009 A 
ATOM     11  C   UNL A   1      34.393  24.767  25.375  1.00  0.00     0.009 A 
ATOM     12  C   UNL A   1      33.625  25.644  22.845  1.00  0.00     0.005 A 
ATOM     13  C   UNL A   1      34.041  26.107  25.166  1.00  0.00     0.005 A 
BRANCH   9  14
ATOM     14  C   UNL A   1      34.918  22.481  24.499  1.00  0.00    -0.018 A 
ATOM     15  C   UNL A   1      34.589  20.055  24.709  1.00  0.00    -0.044 A 
ATOM     16  C   UNL A   1      35.960  19.904  24.967  1.00  0.00     0.004 A 
ATOM     17  C   UNL A   1      34.080  21.351  24.489  1.00  0.00     0.012 A 
ATOM     18  C   UNL A   1      36.806  21.009  24.975  1.00  0.00     0.001 A 
ATOM     19  C   UNL A   1      36.289  22.283  24.740  1.00  0.00     0.009 A 
BRANCH  15  20
ATOM     20  C   UNL A   1      33.666  18.856  24.740  1.00  0.00     0.062 C 
BRANCH  20  21
ATOM     21  C   UNL A   1      34.155  17.700  23.908  1.00  0.00    -0.030 C 
ATOM     22  C   UNL A   1      33.921  16.411  24.189  1.00  0.00     0.004 C 
ENDBRANCH  20  21
ENDBRANCH  15  20
ENDBRANCH   9  14
ENDBRANCH   6   8
ENDBRANCH   4   6
ENDBRANCH   3   4
ENDBRANCH   2   3
ENDBRANCH   1   2
BRANCH   1  23
ATOM     23  O   UNL A   1      31.313  31.649  26.279  1.00  0.00    -0.374 OA
BRANCH  23  24
ATOM     24  C   UNL A   1      31.690  33.010  26.487  1.00  0.00     0.202 C 
BRANCH  24  25
ATOM     25  C   UNL A   1      32.749  33.256  27.567  1.00  0.00     0.261 C 
BRANCH  25  26
ATOM     26  O   UNL A   1      32.279  34.148  28.592  1.00  0.00    -0.460 OA
BRANCH  26  27
ATOM     27  C   UNL A   1      33.093  35.193  28.860  1.00  0.00     0.338 C 
ATOM     28  O   UNL A   1      32.880  36.379  28.645  1.00  0.00    -0.246 OA
BRANCH  27  29
ATOM     29  C   UNL A   1      34.264  34.737  29.630  1.00  0.00     0.060 A 
ATOM     30  C   UNL A   1      35.489  34.658  28.954  1.00  0.00     0.016 A 
ATOM     31  C   UNL A   1      34.157  34.314  30.957  1.00  0.00     0.016 A 
ATOM     32  C   UNL A   1      36.600  34.100  29.583  1.00  0.00     0.010 A 
ATOM     33  C   UNL A   1      35.271  33.745  31.585  1.00  0.00     0.010 A 
ATOM     34  C   UNL A   1      36.485  33.600  30.887  1.00  0.00    -0.014 A 
BRANCH  34  35
ATOM     35  C   UNL A   1      37.582  32.774  31.447  1.00  0.00     0.031 A 
ATOM     36  C   UNL A   1      38.105  33.098  32.819  1.00  0.00     0.074 A 
ATOM     37  C   UNL A   1      38.075  31.724  30.768  1.00  0.00     0.049 A 
ATOM     38  N   UNL A   1      39.067  32.528  33.500  1.00  0.00    -0.248 NA
ATOM     39  C   UNL A   1      37.452  34.215  33.519  1.00  0.00     0.031 C 
ATOM     40  C   UNL A   1      37.611  31.272  29.459  1.00  0.00     0.029 A 
ATOM     41  N   UNL A   1      39.077  30.845  31.095  1.00  0.00    -0.354 N 
ATOM     42  C   UNL A   1      39.134  33.216  34.705  1.00  0.00     0.074 A 
ATOM     43  C   UNL A   1      38.139  34.266  34.650  1.00  0.00     0.031 C 
ATOM     44  C   UNL A   1      38.332  30.199  29.091  1.00  0.00     0.029 A 
ATOM     45  C   UNL A   1      39.325  29.909  30.124  1.00  0.00     0.049 A 
ATOM     46  H   UNL A   1      39.571  30.883  31.947  1.00  0.00     0.167 HD
ATOM     47  C   UNL A   1      39.942  32.987  35.766  1.00  0.00     0.037 A 
ATOM     48  C   UNL A   1      40.260  28.940  30.071  1.00  0.00     0.037 A 
ATOM     49  C   UNL A   1      40.937  31.949  35.819  1.00  0.00     0.049 A 
ATOM     50  C   UNL A   1      41.216  28.768  31.222  1.00  0.00     0.074 A 
ATOM     51  C   UNL A   1      41.807  31.635  36.850  1.00  0.00     0.029 A 
ATOM     52  N   UNL A   1      41.198  31.056  34.790  1.00  0.00    -0.354 N 
ATOM     53  N   UNL A   1      41.268  29.416  32.361  1.00  0.00    -0.248 NA
ATOM     54  C   UNL A   1      42.246  27.730  31.077  1.00  0.00     0.031 C 
ATOM     55  C   UNL A   1      42.626  30.583  36.425  1.00  0.00     0.029 A 
ATOM     56  C   UNL A   1      42.233  30.208  35.151  1.00  0.00     0.049 A 
ATOM     57  H   UNL A   1      40.719  31.029  33.931  1.00  0.00     0.167 HD
ATOM     58  C   UNL A   1      42.310  28.844  33.080  1.00  0.00     0.074 A 
ATOM     59  C   UNL A   1      42.862  27.793  32.250  1.00  0.00     0.031 C 
ATOM     60  C   UNL A   1      42.765  29.159  34.317  1.00  0.00     0.037 A 
BRANCH  47  61
ATOM     61  C   UNL A   1      39.800  33.901  36.947  1.00  0.00     0.064 A 
ATOM     62  C   UNL A   1      38.996  33.564  38.046  1.00  0.00     0.173 A 
ATOM     63  C   UNL A   1      40.482  35.126  36.984  1.00  0.00     0.173 A 
ATOM     64  F   UNL A   1      38.311  32.410  38.053  1.00  0.00    -0.203 F 
ATOM     65  C   UNL A   1      38.855  34.434  39.125  1.00  0.00     0.198 A 
ATOM     66  C   UNL A   1      40.361  35.982  38.076  1.00  0.00     0.198 A 
ATOM     67  F   UNL A   1      41.267  35.495  35.960  1.00  0.00    -0.203 F 
ATOM     68  F   UNL A   1      38.041  34.115  40.139  1.00  0.00    -0.200 F 
ATOM     69  C   UNL A   1      39.541  35.639  39.140  1.00  0.00     0.200 A 
ATOM     70  F   UNL A   1      41.033  37.141  38.095  1.00  0.00    -0.200 F 
ATOM     71  F   UNL A   1      39.404  36.476  40.178  1.00  0.00    -0.200 F 
ENDBRANCH  47  61
BRANCH  48  72
ATOM     72  C   UNL A   1      40.339  28.053  28.883  1.00  0.00     0.064 A 
ATOM     73  C   UNL A   1      41.075  28.428  27.751  1.00  0.00     0.173 A 
ATOM     74  C   UNL A   1      39.675  26.817  28.851  1.00  0.00     0.173 A 
ATOM     75  F   UNL A   1      41.706  29.611  27.725  1.00  0.00    -0.203 F 
ATOM     76  C   UNL A   1      41.136  27.606  26.627  1.00  0.00     0.198 A 
ATOM     77  C   UNL A   1      39.756  25.986  27.736  1.00  0.00     0.198 A 
ATOM     78  F   UNL A   1      38.953  26.415  29.907  1.00  0.00    -0.203 F 
ATOM     79  F   UNL A   1      41.815  28.006  25.543  1.00  0.00    -0.200 F 
ATOM     80  C   UNL A   1      40.481  26.384  26.623  1.00  0.00     0.200 A 
ATOM     81  F   UNL A   1      39.129  24.802  27.739  1.00  0.00    -0.200 F 
ATOM     82  F   UNL A   1      40.543  25.591  25.544  1.00  0.00    -0.200 F 
ENDBRANCH  48  72
BRANCH  60  83
ATOM     83  C   UNL A   1      43.890  28.333  34.872  1.00  0.00     0.064 A 
ATOM     84  C   UNL A   1      45.229  28.718  34.722  1.00  0.00     0.173 A 
ATOM     85  C   UNL A   1      43.616  27.167  35.604  1.00  0.00     0.173 A 
ATOM     86  F   UNL A   1      45.541  29.815  34.018  1.00  0.00    -0.203 F 
ATOM     87  C   UNL A   1      46.257  27.954  35.269  1.00  0.00     0.198 A 
ATOM     88  C   UNL A   1      44.645  26.420  36.172  1.00  0.00     0.198 A 
ATOM     89  F   UNL A   1      42.350  26.760  35.781  1.00  0.00    -0.203 F 
ATOM     90  F   UNL A   1      47.533  28.317  35.080  1.00  0.00    -0.200 F 
ATOM     91  C   UNL A   1      45.964  26.811  36.000  1.00  0.00     0.200 A 
ATOM     92  F   UNL A   1      44.359  25.324  36.888  1.00  0.00    -0.200 F 
ATOM     93  F   UNL A   1      46.955  26.082  36.532  1.00  0.00    -0.200 F 
ENDBRANCH  60  83
ENDBRANCH  34  35
ENDBRANCH  27  29
ENDBRANCH  26  27
ENDBRANCH  25  26
ENDBRANCH  24  25
ENDBRANCH  23  24
ENDBRANCH   1  23
TORSDOF 18
ENDMDL
MODEL 3
REMARK VINA RESULT:     -11.3      0.512      2.078
REMARK SMILES C=CCc1cccc(-c2ccc([C@@H](C)C(=O)OCCOCCOC(=O)c3ccc(-c4c5nc(c(-c6c(F)c(F)c(F)c(F)c6F)c6ccc([nH]6)c(-c6c(F)c(F)c(F)c(F)c6F)c6nc(c(-c7c(F)c(F)c(F)c(F)c7F)c7ccc4[nH]7)C=C6)C=C5)cc3)cc2)c1
REMARK SMILES IDX 19 1 18 2 17 3 15 4 16 5 13 6 14 7 12 8 9 9 10 10 90 11
REMARK SMILES IDX 11 12 89 13 8 14 4 15 5 16 91 17 6 18 7 19 3 20 2 21 1 22
REMARK SMILES IDX 20 23 21 24 22 25 23 26 24 27 25 28 26 29 27 30 88 31 28 32
REMARK SMILES IDX 87 33 29 34 30 35 31 36 81 37 32 38 86 39 80 40 82 41 33 42
REMARK SMILES IDX 85 43 79 44 78 45 34 47 66 48 46 49 65 50 47 51 50 52 64 53
REMARK SMILES IDX 83 54 48 55 49 56 63 58 84 59 51 60 35 61 36 62 44 63 37 64
REMARK SMILES IDX 38 65 42 66 45 67 39 68 40 69 43 70 41 71 67 72 68 73 76 74
REMARK SMILES IDX 69 75 70 76 74 77 77 78 71 79 72 80 75 81 73 82 52 83 53 84
REMARK SMILES IDX 61 85 54 86 55 87 59 88 62 89 56 90 57 91 60 92 58 93
REMARK H PARENT 82 46 50 57
REMARK Flexibility Score: inf
ROOT
ATOM      1  C   UNL A   1      36.391  21.588  25.234  1.00  0.00     0.202 C 
ENDROOT
BRANCH   1   2
ATOM      2  C   UNL A   1      35.330  20.509  25.001  1.00  0.00     0.261 C 
BRANCH   2   3
ATOM      3  O   UNL A   1      34.138  20.792  25.755  1.00  0.00    -0.463 OA
BRANCH   3   4
ATOM      4  C   UNL A   1      33.006  20.167  25.338  1.00  0.00     0.313 C 
ATOM      5  O   UNL A   1      32.766  18.976  25.522  1.00  0.00    -0.252 OA
BRANCH   4   6
ATOM      6  C   UNL A   1      32.055  21.064  24.563  1.00  0.00     0.126 C 
ATOM      7  C   UNL A   1      32.198  20.769  23.071  1.00  0.00     0.025 C 
BRANCH   6   8
ATOM      8  C   UNL A   1      32.089  22.563  24.853  1.00  0.00    -0.034 A 
ATOM      9  C   UNL A   1      31.895  25.382  25.235  1.00  0.00    -0.018 A 
ATOM     10  C   UNL A   1      32.847  24.826  24.365  1.00  0.00     0.009 A 
ATOM     11  C   UNL A   1      31.081  24.497  25.956  1.00  0.00     0.009 A 
ATOM     12  C   UNL A   1      32.944  23.441  24.175  1.00  0.00     0.005 A 
ATOM     13  C   UNL A   1      31.175  23.111  25.768  1.00  0.00     0.005 A 
BRANCH   9  14
ATOM     14  C   UNL A   1      31.691  26.839  25.312  1.00  0.00    -0.018 A 
ATOM     15  C   UNL A   1      30.814  28.948  24.408  1.00  0.00    -0.044 A 
ATOM     16  C   UNL A   1      31.434  29.642  25.457  1.00  0.00     0.004 A 
ATOM     17  C   UNL A   1      30.961  27.548  24.341  1.00  0.00     0.012 A 
ATOM     18  C   UNL A   1      32.155  28.957  26.432  1.00  0.00     0.001 A 
ATOM     19  C   UNL A   1      32.278  27.570  26.360  1.00  0.00     0.009 A 
BRANCH  15  20
ATOM     20  C   UNL A   1      30.064  29.700  23.329  1.00  0.00     0.062 C 
BRANCH  20  21
ATOM     21  C   UNL A   1      28.879  28.946  22.784  1.00  0.00    -0.030 C 
ATOM     22  C   UNL A   1      27.607  29.349  22.898  1.00  0.00     0.004 C 
ENDBRANCH  20  21
ENDBRANCH  15  20
ENDBRANCH   9  14
ENDBRANCH   6   8
ENDBRANCH   4   6
ENDBRANCH   3   4
ENDBRANCH   2   3
ENDBRANCH   1   2
BRANCH   1  23
ATOM     23  O   UNL A   1      37.740  21.195  24.983  1.00  0.00    -0.374 OA
BRANCH  23  24
ATOM     24  C   UNL A   1      38.033  19.797  25.020  1.00  0.00     0.202 C 
BRANCH  24  25
ATOM     25  C   UNL A   1      39.343  19.404  25.711  1.00  0.00     0.261 C 
BRANCH  25  26
ATOM     26  O   UNL A   1      40.230  20.525  25.867  1.00  0.00    -0.460 OA
BRANCH  26  27
ATOM     27  C   UNL A   1      40.938  20.540  27.018  1.00  0.00     0.338 C 
ATOM     28  O   UNL A   1      41.497  19.597  27.561  1.00  0.00    -0.246 OA
BRANCH  27  29
ATOM     29  C   UNL A   1      41.108  21.926  27.489  1.00  0.00     0.060 A 
ATOM     30  C   UNL A   1      40.411  22.930  26.804  1.00  0.00     0.016 A 
ATOM     31  C   UNL A   1      41.992  22.252  28.521  1.00  0.00     0.016 A 
ATOM     32  C   UNL A   1      40.640  24.271  27.107  1.00  0.00     0.010 A 
ATOM     33  C   UNL A   1      42.227  23.600  28.818  1.00  0.00     0.010 A 
ATOM     34  C   UNL A   1      41.582  24.614  28.085  1.00  0.00    -0.014 A 
BRANCH  34  35
ATOM     35  C   UNL A   1      42.014  26.027  28.214  1.00  0.00     0.031 A 
ATOM     36  C   UNL A   1      43.337  26.437  27.630  1.00  0.00     0.074 A 
ATOM     37  C   UNL A   1      41.224  26.942  28.801  1.00  0.00     0.049 A 
ATOM     38  N   UNL A   1      43.926  27.606  27.639  1.00  0.00    -0.248 NA
ATOM     39  C   UNL A   1      44.097  25.385  26.937  1.00  0.00     0.031 C 
ATOM     40  C   UNL A   1      39.897  26.683  29.352  1.00  0.00     0.029 A 
ATOM     41  N   UNL A   1      41.429  28.280  29.028  1.00  0.00    -0.354 N 
ATOM     42  C   UNL A   1      45.123  27.430  26.956  1.00  0.00     0.074 A 
ATOM     43  C   UNL A   1      45.192  26.035  26.575  1.00  0.00     0.031 C 
ATOM     44  C   UNL A   1      39.405  27.828  29.857  1.00  0.00     0.029 A 
ATOM     45  C   UNL A   1      40.396  28.890  29.692  1.00  0.00     0.049 A 
ATOM     46  H   UNL A   1      42.241  28.757  28.739  1.00  0.00     0.167 HD
ATOM     47  C   UNL A   1      46.072  28.349  26.663  1.00  0.00     0.037 A 
ATOM     48  C   UNL A   1      40.274  30.158  30.130  1.00  0.00     0.037 A 
ATOM     49  C   UNL A   1      46.008  29.734  27.048  1.00  0.00     0.049 A 
ATOM     50  C   UNL A   1      41.389  31.140  29.880  1.00  0.00     0.074 A 
ATOM     51  C   UNL A   1      46.920  30.745  26.799  1.00  0.00     0.029 A 
ATOM     52  N   UNL A   1      44.969  30.301  27.773  1.00  0.00    -0.354 N 
ATOM     53  N   UNL A   1      42.513  30.969  29.227  1.00  0.00    -0.248 NA
ATOM     54  C   UNL A   1      41.217  32.491  30.432  1.00  0.00     0.031 C 
ATOM     55  C   UNL A   1      46.455  31.913  27.414  1.00  0.00     0.029 A 
ATOM     56  C   UNL A   1      45.231  31.643  28.002  1.00  0.00     0.049 A 
ATOM     57  H   UNL A   1      44.166  29.822  28.078  1.00  0.00     0.167 HD
ATOM     58  C   UNL A   1      43.165  32.195  29.260  1.00  0.00     0.074 A 
ATOM     59  C   UNL A   1      42.310  33.103  29.996  1.00  0.00     0.031 C 
ATOM     60  C   UNL A   1      44.363  32.537  28.727  1.00  0.00     0.037 A 
BRANCH  47  61
ATOM     61  C   UNL A   1      47.279  27.872  25.910  1.00  0.00     0.064 A 
ATOM     62  C   UNL A   1      47.274  27.750  24.513  1.00  0.00     0.173 A 
ATOM     63  C   UNL A   1      48.458  27.540  26.594  1.00  0.00     0.173 A 
ATOM     64  F   UNL A   1      46.166  28.041  23.814  1.00  0.00    -0.203 F 
ATOM     65  C   UNL A   1      48.395  27.283  23.830  1.00  0.00     0.198 A 
ATOM     66  C   UNL A   1      49.586  27.100  25.907  1.00  0.00     0.198 A 
ATOM     67  F   UNL A   1      48.517  27.643  27.930  1.00  0.00    -0.203 F 
ATOM     68  F   UNL A   1      48.351  27.125  22.501  1.00  0.00    -0.200 F 
ATOM     69  C   UNL A   1      49.551  26.963  24.528  1.00  0.00     0.200 A 
ATOM     70  F   UNL A   1      50.705  26.801  26.580  1.00  0.00    -0.200 F 
ATOM     71  F   UNL A   1      50.628  26.514  23.870  1.00  0.00    -0.200 F 
ENDBRANCH  47  61
BRANCH  48  72
ATOM     72  C   UNL A   1      39.046  30.577  30.852  1.00  0.00     0.064 A 
ATOM     73  C   UNL A   1      38.967  30.491  32.249  1.00  0.00     0.173 A 
ATOM     74  C   UNL A   1      37.925  31.063  30.162  1.00  0.00     0.173 A 
ATOM     75  F   UNL A   1      40.003  30.008  32.949  1.00  0.00    -0.203 F 
ATOM     76  C   UNL A   1      37.808  30.864  32.928  1.00  0.00     0.198 A 
ATOM     77  C   UNL A   1      36.777  31.458  30.845  1.00  0.00     0.198 A 
ATOM     78  F   UNL A   1      37.949  31.160  28.825  1.00  0.00    -0.203 F 
ATOM     79  F   UNL A   1      37.745  30.736  34.260  1.00  0.00    -0.200 F 
ATOM     80  C   UNL A   1      36.717  31.354  32.226  1.00  0.00     0.200 A 
ATOM     81  F   UNL A   1      35.728  31.939  30.163  1.00  0.00    -0.200 F 
ATOM     82  F   UNL A   1      35.605  31.718  32.880  1.00  0.00    -0.200 F 
ENDBRANCH  48  72
BRANCH  60  83
ATOM     83  C   UNL A   1      44.806  33.964  28.878  1.00  0.00     0.064 A 
ATOM     84  C   UNL A   1      45.526  34.397  30.000  1.00  0.00     0.173 A 
ATOM     85  C   UNL A   1      44.546  34.897  27.862  1.00  0.00     0.173 A 
ATOM     86  F   UNL A   1      45.785  33.547  31.004  1.00  0.00    -0.203 F 
ATOM     87  C   UNL A   1      45.954  35.717  30.109  1.00  0.00     0.198 A 
ATOM     88  C   UNL A   1      44.998  36.210  27.963  1.00  0.00     0.198 A 
ATOM     89  F   UNL A   1      43.866  34.531  26.765  1.00  0.00    -0.203 F 
ATOM     90  F   UNL A   1      46.606  36.120  31.208  1.00  0.00    -0.200 F 
ATOM     91  C   UNL A   1      45.697  36.620  29.087  1.00  0.00     0.200 A 
ATOM     92  F   UNL A   1      44.760  37.077  26.968  1.00  0.00    -0.200 F 
ATOM     93  F   UNL A   1      46.116  37.889  29.191  1.00  0.00    -0.200 F 
ENDBRANCH  60  83
ENDBRANCH  34  35
ENDBRANCH  27  29
ENDBRANCH  26  27
ENDBRANCH  25  26
ENDBRANCH  24  25
ENDBRANCH  23  24
ENDBRANCH   1  23
TORSDOF 18
ENDMDL
