MODEL 1
REMARK VINA RESULT:     -11.6      0.000      0.000
REMARK SMILES CC(=O)OCC1=C(C(=O)OCCOCCOC(=O)c2ccc(-c3c4nc(c(-c5c(F)c(F)c(F)c(F)c5F)c5ccc([nH]5)c(-c5c(F)c(F)c(F)c(F)c5F)c5nc(c(-c6c(F)c(F)c(F)c(F)c6F)c6ccc3[nH]6)C=C5)C=C4)cc2)N2C(=O)[C@H](NC(=O)c3c(C)nn(C(F)F)c3C)[C@@H]2SC1
REMARK SMILES IDX 12 1 11 2 10 3 8 4 9 5 7 6 6 7 101 8 82 9 100 10 83 11 99 12
REMARK SMILES IDX 84 13 85 14 5 15 4 16 2 17 1 18 3 19 86 20 87 21 88 23 89 24
REMARK SMILES IDX 90 25 97 26 91 27 92 28 93 29 98 30 94 31 95 32 96 33 13 34
REMARK SMILES IDX 14 35 15 36 16 37 17 38 18 39 19 40 20 41 81 42 21 43 80 44
REMARK SMILES IDX 22 45 23 46 24 47 74 48 25 49 79 50 73 51 75 52 26 53 78 54
REMARK SMILES IDX 72 55 71 56 27 58 59 59 39 60 58 61 40 62 43 63 57 64 76 65
REMARK SMILES IDX 41 66 42 67 56 69 77 70 44 71 28 72 29 73 37 74 30 75 31 76
REMARK SMILES IDX 35 77 38 78 32 79 33 80 36 81 34 82 60 83 61 84 69 85 62 86
REMARK SMILES IDX 63 87 67 88 70 89 64 90 65 91 68 92 66 93 45 94 46 95 54 96
REMARK SMILES IDX 47 97 48 98 52 99 55 100 49 101 50 102 53 103 51 104
REMARK H PARENT 86 22 75 57 43 68
REMARK Flexibility Score: inf
ROOT
ATOM      1  C   UNL A   1      38.580  23.124  26.015  1.00  0.00     0.202 C 
ENDROOT
BRANCH   1   2
ATOM      2  C   UNL A   1      37.169  23.692  25.789  1.00  0.00     0.261 C 
BRANCH   2   3
ATOM      3  O   UNL A   1      36.234  22.623  25.553  1.00  0.00    -0.459 OA
BRANCH   3   4
ATOM      4  C   UNL A   1      35.757  22.505  24.290  1.00  0.00     0.355 C 
ATOM      5  O   UNL A   1      36.418  22.496  23.264  1.00  0.00    -0.244 OA
BRANCH   4   6
ATOM      6  C   UNL A   1      34.274  22.266  24.318  1.00  0.00     0.134 C 
ATOM      7  C   UNL A   1      33.714  21.064  24.614  1.00  0.00     0.008 C 
ATOM      8  C   UNL A   1      32.221  20.867  24.812  1.00  0.00     0.108 C 
ATOM      9  N   UNL A   1      33.486  23.369  24.170  1.00  0.00    -0.289 N 
ATOM     10  S   UNL A   1      31.395  22.350  25.436  1.00  0.00    -0.129 SA
ATOM     11  C   UNL A   1      33.649  24.702  24.031  1.00  0.00     0.253 C 
ATOM     12  C   UNL A   1      32.044  23.367  24.089  1.00  0.00     0.181 C 
ATOM     13  O   UNL A   1      34.612  25.397  23.830  1.00  0.00    -0.272 OA
ATOM     14  C   UNL A   1      32.110  24.910  24.309  1.00  0.00     0.206 C 
BRANCH   7  15
ATOM     15  C   UNL A   1      34.446  19.757  24.818  1.00  0.00     0.267 C 
BRANCH  15  16
ATOM     16  O   UNL A   1      33.795  18.649  24.212  1.00  0.00    -0.461 OA
BRANCH  16  17
ATOM     17  C   UNL A   1      34.566  17.533  24.148  1.00  0.00     0.302 C 
ATOM     18  C   UNL A   1      34.073  16.659  23.061  1.00  0.00     0.139 C 
ATOM     19  O   UNL A   1      35.503  17.255  24.882  1.00  0.00    -0.253 OA
ENDBRANCH  16  17
ENDBRANCH  15  16
ENDBRANCH   7  15
BRANCH  14  20
ATOM     20  N   UNL A   1      31.774  25.394  25.674  1.00  0.00    -0.337 N 
ATOM     21  C   UNL A   1      31.257  26.603  26.066  1.00  0.00     0.255 C 
ATOM     22  H   UNL A   1      31.947  24.754  26.402  1.00  0.00     0.164 HD
ATOM     23  O   UNL A   1      31.097  26.828  27.262  1.00  0.00    -0.269 OA
BRANCH  21  24
ATOM     24  C   UNL A   1      30.976  27.597  25.047  1.00  0.00     0.083 A 
ATOM     25  C   UNL A   1      31.634  28.845  24.880  1.00  0.00     0.073 A 
ATOM     26  C   UNL A   1      29.966  27.606  24.090  1.00  0.00     0.054 A 
ATOM     27  C   UNL A   1      32.722  29.438  25.700  1.00  0.00     0.069 C 
ATOM     28  N   UNL A   1      31.178  29.508  23.813  1.00  0.00    -0.172 NA
ATOM     29  N   UNL A   1      30.192  28.729  23.318  1.00  0.00    -0.208 N 
ATOM     30  C   UNL A   1      28.821  26.690  23.866  1.00  0.00     0.067 C 
BRANCH  29  31
ATOM     31  C   UNL A   1      29.514  29.108  22.076  1.00  0.00     0.465 C 
ATOM     32  F   UNL A   1      28.247  29.550  22.295  1.00  0.00    -0.184 F 
ATOM     33  F   UNL A   1      30.180  30.092  21.413  1.00  0.00    -0.184 F 
ENDBRANCH  29  31
ENDBRANCH  21  24
ENDBRANCH  14  20
ENDBRANCH   4   6
ENDBRANCH   3   4
ENDBRANCH   2   3
ENDBRANCH   1   2
BRANCH   1  34
ATOM     34  O   UNL A   1      38.601  21.738  26.354  1.00  0.00    -0.374 OA
BRANCH  34  35
ATOM     35  C   UNL A   1      39.057  20.845  25.334  1.00  0.00     0.202 C 
BRANCH  35  36
ATOM     36  C   UNL A   1      39.680  19.555  25.876  1.00  0.00     0.261 C 
BRANCH  36  37
ATOM     37  O   UNL A   1      40.994  19.343  25.314  1.00  0.00    -0.460 OA
BRANCH  37  38
ATOM     38  C   UNL A   1      42.019  19.202  26.190  1.00  0.00     0.338 C 
ATOM     39  O   UNL A   1      42.597  18.176  26.496  1.00  0.00    -0.246 OA
BRANCH  38  40
ATOM     40  C   UNL A   1      42.484  20.553  26.583  1.00  0.00     0.060 A 
ATOM     41  C   UNL A   1      42.881  21.431  25.568  1.00  0.00     0.016 A 
ATOM     42  C   UNL A   1      42.442  20.993  27.909  1.00  0.00     0.016 A 
ATOM     43  C   UNL A   1      43.205  22.758  25.872  1.00  0.00     0.010 A 
ATOM     44  C   UNL A   1      42.730  22.333  28.206  1.00  0.00     0.010 A 
ATOM     45  C   UNL A   1      43.128  23.227  27.191  1.00  0.00    -0.014 A 
BRANCH  45  46
ATOM     46  C   UNL A   1      43.629  24.586  27.545  1.00  0.00     0.031 A 
ATOM     47  C   UNL A   1      42.616  25.647  27.885  1.00  0.00     0.074 A 
ATOM     48  C   UNL A   1      44.941  24.891  27.597  1.00  0.00     0.049 A 
ATOM     49  N   UNL A   1      42.795  26.908  28.186  1.00  0.00    -0.248 NA
ATOM     50  C   UNL A   1      41.207  25.224  27.879  1.00  0.00     0.031 C 
ATOM     51  C   UNL A   1      46.043  23.967  27.340  1.00  0.00     0.029 A 
ATOM     52  N   UNL A   1      45.568  26.083  27.885  1.00  0.00    -0.354 N 
ATOM     53  C   UNL A   1      41.526  27.425  28.403  1.00  0.00     0.074 A 
ATOM     54  C   UNL A   1      40.583  26.360  28.142  1.00  0.00     0.031 C 
ATOM     55  C   UNL A   1      47.209  24.623  27.487  1.00  0.00     0.029 A 
ATOM     56  C   UNL A   1      46.940  26.024  27.814  1.00  0.00     0.049 A 
ATOM     57  H   UNL A   1      45.078  26.903  28.121  1.00  0.00     0.167 HD
ATOM     58  C   UNL A   1      41.168  28.666  28.808  1.00  0.00     0.037 A 
ATOM     59  C   UNL A   1      47.869  26.989  27.980  1.00  0.00     0.037 A 
ATOM     60  C   UNL A   1      42.090  29.736  29.072  1.00  0.00     0.049 A 
ATOM     61  C   UNL A   1      47.440  28.400  28.315  1.00  0.00     0.074 A 
ATOM     62  C   UNL A   1      41.813  31.023  29.499  1.00  0.00     0.029 A 
ATOM     63  N   UNL A   1      43.464  29.650  28.924  1.00  0.00    -0.354 N 
ATOM     64  N   UNL A   1      46.239  28.869  28.549  1.00  0.00    -0.248 NA
ATOM     65  C   UNL A   1      48.501  29.417  28.401  1.00  0.00     0.031 C 
ATOM     66  C   UNL A   1      43.015  31.736  29.548  1.00  0.00     0.029 A 
ATOM     67  C   UNL A   1      44.047  30.874  29.213  1.00  0.00     0.049 A 
ATOM     68  H   UNL A   1      43.954  28.840  28.654  1.00  0.00     0.167 HD
ATOM     69  C   UNL A   1      46.403  30.219  28.844  1.00  0.00     0.074 A 
ATOM     70  C   UNL A   1      47.821  30.494  28.769  1.00  0.00     0.031 C 
ATOM     71  C   UNL A   1      45.461  31.144  29.150  1.00  0.00     0.037 A 
BRANCH  58  72
ATOM     72  C   UNL A   1      39.700  28.934  28.964  1.00  0.00     0.064 A 
ATOM     73  C   UNL A   1      39.054  28.799  30.203  1.00  0.00     0.173 A 
ATOM     74  C   UNL A   1      38.932  29.333  27.862  1.00  0.00     0.173 A 
ATOM     75  F   UNL A   1      39.741  28.400  31.283  1.00  0.00    -0.203 F 
ATOM     76  C   UNL A   1      37.683  29.016  30.321  1.00  0.00     0.198 A 
ATOM     77  C   UNL A   1      37.569  29.584  27.992  1.00  0.00     0.198 A 
ATOM     78  F   UNL A   1      39.503  29.478  26.656  1.00  0.00    -0.203 F 
ATOM     79  F   UNL A   1      37.076  28.816  31.499  1.00  0.00    -0.200 F 
ATOM     80  C   UNL A   1      36.944  29.414  29.218  1.00  0.00     0.200 A 
ATOM     81  F   UNL A   1      36.859  29.981  26.927  1.00  0.00    -0.200 F 
ATOM     82  F   UNL A   1      35.626  29.623  29.334  1.00  0.00    -0.200 F 
ENDBRANCH  58  72
BRANCH  59  83
ATOM     83  C   UNL A   1      49.318  26.677  27.824  1.00  0.00     0.064 A 
ATOM     84  C   UNL A   1      50.118  26.371  28.936  1.00  0.00     0.173 A 
ATOM     85  C   UNL A   1      49.946  26.732  26.571  1.00  0.00     0.173 A 
ATOM     86  F   UNL A   1      49.574  26.341  30.162  1.00  0.00    -0.203 F 
ATOM     87  C   UNL A   1      51.488  26.152  28.802  1.00  0.00     0.198 A 
ATOM     88  C   UNL A   1      51.311  26.484  26.435  1.00  0.00     0.198 A 
ATOM     89  F   UNL A   1      49.233  27.031  25.474  1.00  0.00    -0.203 F 
ATOM     90  F   UNL A   1      52.236  25.919  29.890  1.00  0.00    -0.200 F 
ATOM     91  C   UNL A   1      52.083  26.204  27.552  1.00  0.00     0.200 A 
ATOM     92  F   UNL A   1      51.879  26.527  25.222  1.00  0.00    -0.200 F 
ATOM     93  F   UNL A   1      53.401  25.995  27.424  1.00  0.00    -0.200 F 
ENDBRANCH  59  83
BRANCH  71  94
ATOM     94  C   UNL A   1      45.917  32.543  29.466  1.00  0.00     0.064 A 
ATOM     95  C   UNL A   1      45.990  33.536  28.479  1.00  0.00     0.173 A 
ATOM     96  C   UNL A   1      46.210  32.912  30.788  1.00  0.00     0.173 A 
ATOM     97  F   UNL A   1      45.733  33.234  27.197  1.00  0.00    -0.203 F 
ATOM     98  C   UNL A   1      46.353  34.842  28.801  1.00  0.00     0.198 A 
ATOM     99  C   UNL A   1      46.542  34.225  31.112  1.00  0.00     0.198 A 
ATOM    100  F   UNL A   1      46.148  32.004  31.774  1.00  0.00    -0.203 F 
ATOM    101  F   UNL A   1      46.450  35.766  27.835  1.00  0.00    -0.200 F 
ATOM    102  C   UNL A   1      46.618  35.188  30.117  1.00  0.00     0.200 A 
ATOM    103  F   UNL A   1      46.779  34.560  32.387  1.00  0.00    -0.200 F 
ATOM    104  F   UNL A   1      46.948  36.449  30.428  1.00  0.00    -0.200 F 
ENDBRANCH  71  94
ENDBRANCH  45  46
ENDBRANCH  38  40
ENDBRANCH  37  38
ENDBRANCH  36  37
ENDBRANCH  35  36
ENDBRANCH  34  35
ENDBRANCH   1  34
TORSDOF 20
ENDMDL
MODEL 2
REMARK VINA RESULT:     -11.5      1.195      6.914
REMARK SMILES CC(=O)OCC1=C(C(=O)OCCOCCOC(=O)c2ccc(-c3c4nc(c(-c5c(F)c(F)c(F)c(F)c5F)c5ccc([nH]5)c(-c5c(F)c(F)c(F)c(F)c5F)c5nc(c(-c6c(F)c(F)c(F)c(F)c6F)c6ccc3[nH]6)C=C5)C=C4)cc2)N2C(=O)[C@H](NC(=O)c3c(C)nn(C(F)F)c3C)[C@@H]2SC1
REMARK SMILES IDX 12 1 11 2 10 3 8 4 9 5 7 6 6 7 101 8 82 9 100 10 83 11 99 12
REMARK SMILES IDX 84 13 85 14 5 15 4 16 2 17 1 18 3 19 86 20 87 21 88 23 89 24
REMARK SMILES IDX 90 25 97 26 91 27 92 28 93 29 98 30 94 31 95 32 96 33 13 34
REMARK SMILES IDX 14 35 15 36 16 37 17 38 18 39 19 40 20 41 81 42 21 43 80 44
REMARK SMILES IDX 22 45 23 46 24 47 74 48 25 49 79 50 73 51 75 52 26 53 78 54
REMARK SMILES IDX 72 55 71 56 27 58 59 59 39 60 58 61 40 62 43 63 57 64 76 65
REMARK SMILES IDX 41 66 42 67 56 69 77 70 44 71 28 72 29 73 37 74 30 75 31 76
REMARK SMILES IDX 35 77 38 78 32 79 33 80 36 81 34 82 60 83 61 84 69 85 62 86
REMARK SMILES IDX 63 87 67 88 70 89 64 90 65 91 68 92 66 93 45 94 46 95 54 96
REMARK SMILES IDX 47 97 48 98 52 99 55 100 49 101 50 102 53 103 51 104
REMARK H PARENT 86 22 75 57 43 68
REMARK Flexibility Score: inf
ROOT
ATOM      1  C   UNL A   1      38.520  23.086  25.922  1.00  0.00     0.202 C 
ENDROOT
BRANCH   1   2
ATOM      2  C   UNL A   1      37.049  23.531  25.993  1.00  0.00     0.261 C 
BRANCH   2   3
ATOM      3  O   UNL A   1      36.179  22.424  25.695  1.00  0.00    -0.459 OA
BRANCH   3   4
ATOM      4  C   UNL A   1      35.768  22.307  24.410  1.00  0.00     0.355 C 
ATOM      5  O   UNL A   1      36.484  22.262  23.422  1.00  0.00    -0.244 OA
BRANCH   4   6
ATOM      6  C   UNL A   1      34.277  22.124  24.358  1.00  0.00     0.134 C 
ATOM      7  C   UNL A   1      33.660  20.937  24.594  1.00  0.00     0.008 C 
ATOM      8  C   UNL A   1      32.153  20.791  24.713  1.00  0.00     0.108 C 
ATOM      9  N   UNL A   1      33.539  23.258  24.199  1.00  0.00    -0.289 N 
ATOM     10  S   UNL A   1      31.351  22.288  25.334  1.00  0.00    -0.129 SA
ATOM     11  C   UNL A   1      33.757  24.588  24.104  1.00  0.00     0.253 C 
ATOM     12  C   UNL A   1      32.103  23.312  24.047  1.00  0.00     0.181 C 
ATOM     13  O   UNL A   1      34.752  25.251  23.968  1.00  0.00    -0.272 OA
ATOM     14  C   UNL A   1      32.214  24.846  24.310  1.00  0.00     0.206 C 
BRANCH   7  15
ATOM     15  C   UNL A   1      34.333  19.598  24.801  1.00  0.00     0.267 C 
BRANCH  15  16
ATOM     16  O   UNL A   1      33.624  18.517  24.214  1.00  0.00    -0.461 OA
BRANCH  16  17
ATOM     17  C   UNL A   1      33.570  17.410  25.000  1.00  0.00     0.302 C 
ATOM     18  C   UNL A   1      34.828  16.645  24.855  1.00  0.00     0.139 C 
ATOM     19  O   UNL A   1      32.628  17.062  25.698  1.00  0.00    -0.253 OA
ENDBRANCH  16  17
ENDBRANCH  15  16
ENDBRANCH   7  15
BRANCH  14  20
ATOM     20  N   UNL A   1      31.827  25.309  25.668  1.00  0.00    -0.337 N 
ATOM     21  C   UNL A   1      31.288  26.510  26.058  1.00  0.00     0.255 C 
ATOM     22  H   UNL A   1      31.980  24.662  26.394  1.00  0.00     0.164 HD
ATOM     23  O   UNL A   1      31.085  26.717  27.251  1.00  0.00    -0.269 OA
BRANCH  21  24
ATOM     24  C   UNL A   1      31.035  27.515  25.043  1.00  0.00     0.083 A 
ATOM     25  C   UNL A   1      31.736  28.738  24.873  1.00  0.00     0.073 A 
ATOM     26  C   UNL A   1      30.019  27.563  24.095  1.00  0.00     0.054 A 
ATOM     27  C   UNL A   1      32.851  29.290  25.685  1.00  0.00     0.069 C 
ATOM     28  N   UNL A   1      31.297  29.420  23.811  1.00  0.00    -0.172 NA
ATOM     29  N   UNL A   1      30.279  28.678  23.322  1.00  0.00    -0.208 N 
ATOM     30  C   UNL A   1      28.839  26.689  23.878  1.00  0.00     0.067 C 
BRANCH  29  31
ATOM     31  C   UNL A   1      29.605  29.084  22.086  1.00  0.00     0.465 C 
ATOM     32  F   UNL A   1      28.340  29.528  22.312  1.00  0.00    -0.184 F 
ATOM     33  F   UNL A   1      30.277  30.076  21.443  1.00  0.00    -0.184 F 
ENDBRANCH  29  31
ENDBRANCH  21  24
ENDBRANCH  14  20
ENDBRANCH   4   6
ENDBRANCH   3   4
ENDBRANCH   2   3
ENDBRANCH   1   2
BRANCH   1  34
ATOM     34  O   UNL A   1      38.750  21.762  26.401  1.00  0.00    -0.374 OA
BRANCH  34  35
ATOM     35  C   UNL A   1      38.937  20.753  25.404  1.00  0.00     0.202 C 
BRANCH  35  36
ATOM     36  C   UNL A   1      39.631  19.491  25.926  1.00  0.00     0.261 C 
BRANCH  36  37
ATOM     37  O   UNL A   1      40.962  19.373  25.379  1.00  0.00    -0.460 OA
BRANCH  37  38
ATOM     38  C   UNL A   1      41.994  19.434  26.256  1.00  0.00     0.338 C 
ATOM     39  O   UNL A   1      42.720  18.525  26.610  1.00  0.00    -0.246 OA
BRANCH  38  40
ATOM     40  C   UNL A   1      42.245  20.858  26.580  1.00  0.00     0.060 A 
ATOM     41  C   UNL A   1      42.359  21.762  25.518  1.00  0.00     0.016 A 
ATOM     42  C   UNL A   1      42.273  21.323  27.898  1.00  0.00     0.016 A 
ATOM     43  C   UNL A   1      42.466  23.135  25.770  1.00  0.00     0.010 A 
ATOM     44  C   UNL A   1      42.342  22.701  28.147  1.00  0.00     0.010 A 
ATOM     45  C   UNL A   1      42.454  23.621  27.084  1.00  0.00    -0.014 A 
BRANCH  45  46
ATOM     46  C   UNL A   1      42.733  25.059  27.365  1.00  0.00     0.031 A 
ATOM     47  C   UNL A   1      44.089  25.601  26.998  1.00  0.00     0.074 A 
ATOM     48  C   UNL A   1      41.819  25.889  27.904  1.00  0.00     0.049 A 
ATOM     49  N   UNL A   1      44.587  26.799  27.175  1.00  0.00    -0.248 NA
ATOM     50  C   UNL A   1      45.010  24.657  26.347  1.00  0.00     0.031 C 
ATOM     51  C   UNL A   1      40.451  25.530  28.272  1.00  0.00     0.029 A 
ATOM     52  N   UNL A   1      41.914  27.222  28.240  1.00  0.00    -0.354 N 
ATOM     53  C   UNL A   1      45.874  26.749  26.658  1.00  0.00     0.074 A 
ATOM     54  C   UNL A   1      46.103  25.392  26.216  1.00  0.00     0.031 C 
ATOM     55  C   UNL A   1      39.834  26.614  28.777  1.00  0.00     0.029 A 
ATOM     56  C   UNL A   1      40.771  27.739  28.803  1.00  0.00     0.049 A 
ATOM     57  H   UNL A   1      42.727  27.756  28.091  1.00  0.00     0.167 HD
ATOM     58  C   UNL A   1      46.782  27.745  26.535  1.00  0.00     0.037 A 
ATOM     59  C   UNL A   1      40.513  28.970  29.293  1.00  0.00     0.037 A 
ATOM     60  C   UNL A   1      46.573  29.100  26.967  1.00  0.00     0.049 A 
ATOM     61  C   UNL A   1      41.585  30.036  29.255  1.00  0.00     0.074 A 
ATOM     62  C   UNL A   1      47.436  30.176  26.869  1.00  0.00     0.029 A 
ATOM     63  N   UNL A   1      45.425  29.562  27.590  1.00  0.00    -0.354 N 
ATOM     64  N   UNL A   1      42.787  29.987  28.735  1.00  0.00    -0.248 NA
ATOM     65  C   UNL A   1      41.263  31.330  29.880  1.00  0.00     0.031 C 
ATOM     66  C   UNL A   1      46.837  31.276  27.490  1.00  0.00     0.029 A 
ATOM     67  C   UNL A   1      45.574  30.900  27.918  1.00  0.00     0.049 A 
ATOM     68  H   UNL A   1      44.624  29.021  27.773  1.00  0.00     0.167 HD
ATOM     69  C   UNL A   1      43.346  31.244  28.938  1.00  0.00     0.074 A 
ATOM     70  C   UNL A   1      42.350  32.041  29.620  1.00  0.00     0.031 C 
ATOM     71  C   UNL A   1      44.576  31.696  28.588  1.00  0.00     0.037 A 
BRANCH  58  72
ATOM     72  C   UNL A   1      48.105  27.389  25.923  1.00  0.00     0.064 A 
ATOM     73  C   UNL A   1      48.315  27.447  24.537  1.00  0.00     0.173 A 
ATOM     74  C   UNL A   1      49.174  26.985  26.735  1.00  0.00     0.173 A 
ATOM     75  F   UNL A   1      47.318  27.807  23.716  1.00  0.00    -0.203 F 
ATOM     76  C   UNL A   1      49.539  27.076  23.984  1.00  0.00     0.198 A 
ATOM     77  C   UNL A   1      50.406  26.650  26.181  1.00  0.00     0.198 A 
ATOM     78  F   UNL A   1      49.024  26.914  28.066  1.00  0.00    -0.203 F 
ATOM     79  F   UNL A   1      49.696  27.075  22.653  1.00  0.00    -0.200 F 
ATOM     80  C   UNL A   1      50.584  26.685  24.806  1.00  0.00     0.200 A 
ATOM     81  F   UNL A   1      51.419  26.284  26.979  1.00  0.00    -0.200 F 
ATOM     82  F   UNL A   1      51.760  26.329  24.273  1.00  0.00    -0.200 F 
ENDBRANCH  58  72
BRANCH  59  83
ATOM     83  C   UNL A   1      39.182  29.284  29.885  1.00  0.00     0.064 A 
ATOM     84  C   UNL A   1      38.158  29.846  29.107  1.00  0.00     0.173 A 
ATOM     85  C   UNL A   1      38.922  29.083  31.249  1.00  0.00     0.173 A 
ATOM     86  F   UNL A   1      38.366  30.092  27.805  1.00  0.00    -0.203 F 
ATOM     87  C   UNL A   1      36.937  30.210  29.674  1.00  0.00     0.198 A 
ATOM     88  C   UNL A   1      37.691  29.421  31.808  1.00  0.00     0.198 A 
ATOM     89  F   UNL A   1      39.869  28.560  32.043  1.00  0.00    -0.203 F 
ATOM     90  F   UNL A   1      35.999  30.798  28.918  1.00  0.00    -0.200 F 
ATOM     91  C   UNL A   1      36.703  29.993  31.022  1.00  0.00     0.200 A 
ATOM     92  F   UNL A   1      37.467  29.201  33.111  1.00  0.00    -0.200 F 
ATOM     93  F   UNL A   1      35.530  30.345  31.567  1.00  0.00    -0.200 F 
ENDBRANCH  59  83
BRANCH  71  94
ATOM     94  C   UNL A   1      44.920  33.128  28.896  1.00  0.00     0.064 A 
ATOM     95  C   UNL A   1      44.566  34.174  28.032  1.00  0.00     0.173 A 
ATOM     96  C   UNL A   1      45.544  33.463  30.108  1.00  0.00     0.173 A 
ATOM     97  F   UNL A   1      43.980  33.908  26.854  1.00  0.00    -0.203 F 
ATOM     98  C   UNL A   1      44.837  35.500  28.362  1.00  0.00     0.198 A 
ATOM     99  C   UNL A   1      45.784  34.792  30.450  1.00  0.00     0.198 A 
ATOM    100  F   UNL A   1      45.897  32.503  30.976  1.00  0.00    -0.203 F 
ATOM    101  F   UNL A   1      44.521  36.481  27.505  1.00  0.00    -0.200 F 
ATOM    102  C   UNL A   1      45.434  35.809  29.575  1.00  0.00     0.200 A 
ATOM    103  F   UNL A   1      46.345  35.087  31.630  1.00  0.00    -0.200 F 
ATOM    104  F   UNL A   1      45.676  37.087  29.900  1.00  0.00    -0.200 F 
ENDBRANCH  71  94
ENDBRANCH  45  46
ENDBRANCH  38  40
ENDBRANCH  37  38
ENDBRANCH  36  37
ENDBRANCH  35  36
ENDBRANCH  34  35
ENDBRANCH   1  34
TORSDOF 20
ENDMDL
MODEL 3
REMARK VINA RESULT:     -11.3      1.496      2.374
REMARK SMILES CC(=O)OCC1=C(C(=O)OCCOCCOC(=O)c2ccc(-c3c4nc(c(-c5c(F)c(F)c(F)c(F)c5F)c5ccc([nH]5)c(-c5c(F)c(F)c(F)c(F)c5F)c5nc(c(-c6c(F)c(F)c(F)c(F)c6F)c6ccc3[nH]6)C=C5)C=C4)cc2)N2C(=O)[C@H](NC(=O)c3c(C)nn(C(F)F)c3C)[C@@H]2SC1
REMARK SMILES IDX 12 1 11 2 10 3 8 4 9 5 7 6 6 7 101 8 82 9 100 10 83 11 99 12
REMARK SMILES IDX 84 13 85 14 5 15 4 16 2 17 1 18 3 19 86 20 87 21 88 23 89 24
REMARK SMILES IDX 90 25 97 26 91 27 92 28 93 29 98 30 94 31 95 32 96 33 13 34
REMARK SMILES IDX 14 35 15 36 16 37 17 38 18 39 19 40 20 41 81 42 21 43 80 44
REMARK SMILES IDX 22 45 23 46 24 47 74 48 25 49 79 50 73 51 75 52 26 53 78 54
REMARK SMILES IDX 72 55 71 56 27 58 59 59 39 60 58 61 40 62 43 63 57 64 76 65
REMARK SMILES IDX 41 66 42 67 56 69 77 70 44 71 28 72 29 73 37 74 30 75 31 76
REMARK SMILES IDX 35 77 38 78 32 79 33 80 36 81 34 82 60 83 61 84 69 85 62 86
REMARK SMILES IDX 63 87 67 88 70 89 64 90 65 91 68 92 66 93 45 94 46 95 54 96
REMARK SMILES IDX 47 97 48 98 52 99 55 100 49 101 50 102 53 103 51 104
REMARK H PARENT 86 22 75 57 43 68
REMARK Flexibility Score: inf
ROOT
ATOM      1  C   UNL A   1      37.351  22.036  24.574  1.00  0.00     0.202 C 
ENDROOT
BRANCH   1   2
ATOM      2  C   UNL A   1      36.390  22.561  25.654  1.00  0.00     0.261 C 
BRANCH   2   3
ATOM      3  O   UNL A   1      35.690  21.466  26.274  1.00  0.00    -0.459 OA
BRANCH   3   4
ATOM      4  C   UNL A   1      34.356  21.622  26.448  1.00  0.00     0.355 C 
ATOM      5  O   UNL A   1      33.771  21.718  27.514  1.00  0.00    -0.244 OA
BRANCH   4   6
ATOM      6  C   UNL A   1      33.677  21.780  25.116  1.00  0.00     0.134 C 
ATOM      7  C   UNL A   1      33.330  20.731  24.324  1.00  0.00     0.008 C 
ATOM      8  C   UNL A   1      32.491  20.880  23.067  1.00  0.00     0.108 C 
ATOM      9  N   UNL A   1      33.283  23.043  24.789  1.00  0.00    -0.289 N 
ATOM     10  S   UNL A   1      31.351  22.281  23.147  1.00  0.00    -0.129 SA
ATOM     11  C   UNL A   1      33.289  24.269  25.355  1.00  0.00     0.253 C 
ATOM     12  C   UNL A   1      32.684  23.438  23.536  1.00  0.00     0.181 C 
ATOM     13  O   UNL A   1      33.813  24.718  26.341  1.00  0.00    -0.272 OA
ATOM     14  C   UNL A   1      32.302  24.780  24.235  1.00  0.00     0.206 C 
BRANCH   7  15
ATOM     15  C   UNL A   1      33.678  19.278  24.552  1.00  0.00     0.267 C 
BRANCH  15  16
ATOM     16  O   UNL A   1      32.784  18.380  23.911  1.00  0.00    -0.461 OA
BRANCH  16  17
ATOM     17  C   UNL A   1      33.359  17.204  23.548  1.00  0.00     0.302 C 
ATOM     18  C   UNL A   1      33.298  16.258  24.684  1.00  0.00     0.139 C 
ATOM     19  O   UNL A   1      33.882  16.954  22.471  1.00  0.00    -0.253 OA
ENDBRANCH  16  17
ENDBRANCH  15  16
ENDBRANCH   7  15
BRANCH  14  20
ATOM     20  N   UNL A   1      30.884  24.919  24.658  1.00  0.00    -0.337 N 
ATOM     21  C   UNL A   1      30.181  26.052  24.986  1.00  0.00     0.255 C 
ATOM     22  H   UNL A   1      30.376  24.078  24.712  1.00  0.00     0.164 HD
ATOM     23  O   UNL A   1      29.017  25.947  25.364  1.00  0.00    -0.269 OA
BRANCH  21  24
ATOM     24  C   UNL A   1      30.864  27.330  24.929  1.00  0.00     0.083 A 
ATOM     25  C   UNL A   1      31.065  28.130  23.773  1.00  0.00     0.073 A 
ATOM     26  C   UNL A   1      31.545  28.002  25.939  1.00  0.00     0.054 A 
ATOM     27  C   UNL A   1      30.663  27.851  22.370  1.00  0.00     0.069 C 
ATOM     28  N   UNL A   1      31.683  29.278  24.064  1.00  0.00    -0.172 NA
ATOM     29  N   UNL A   1      31.935  29.208  25.389  1.00  0.00    -0.208 N 
ATOM     30  C   UNL A   1      31.877  27.605  27.330  1.00  0.00     0.067 C 
BRANCH  29  31
ATOM     31  C   UNL A   1      32.537  30.350  26.082  1.00  0.00     0.465 C 
ATOM     32  F   UNL A   1      31.826  30.720  27.179  1.00  0.00    -0.184 F 
ATOM     33  F   UNL A   1      33.808  30.085  26.489  1.00  0.00    -0.184 F 
ENDBRANCH  29  31
ENDBRANCH  21  24
ENDBRANCH  14  20
ENDBRANCH   4   6
ENDBRANCH   3   4
ENDBRANCH   2   3
ENDBRANCH   1   2
BRANCH   1  34
ATOM     34  O   UNL A   1      37.954  20.782  24.893  1.00  0.00    -0.374 OA
BRANCH  34  35
ATOM     35  C   UNL A   1      39.110  20.832  25.733  1.00  0.00     0.202 C 
BRANCH  35  36
ATOM     36  C   UNL A   1      39.649  19.452  26.125  1.00  0.00     0.261 C 
BRANCH  36  37
ATOM     37  O   UNL A   1      40.848  19.140  25.384  1.00  0.00    -0.460 OA
BRANCH  37  38
ATOM     38  C   UNL A   1      42.001  19.051  26.092  1.00  0.00     0.338 C 
ATOM     39  O   UNL A   1      42.651  18.049  26.327  1.00  0.00    -0.246 OA
BRANCH  38  40
ATOM     40  C   UNL A   1      42.478  20.424  26.379  1.00  0.00     0.060 A 
ATOM     41  C   UNL A   1      42.819  21.239  25.294  1.00  0.00     0.016 A 
ATOM     42  C   UNL A   1      42.501  20.943  27.677  1.00  0.00     0.016 A 
ATOM     43  C   UNL A   1      43.152  22.583  25.500  1.00  0.00     0.010 A 
ATOM     44  C   UNL A   1      42.797  22.299  27.876  1.00  0.00     0.010 A 
ATOM     45  C   UNL A   1      43.139  23.131  26.791  1.00  0.00    -0.014 A 
BRANCH  45  46
ATOM     46  C   UNL A   1      43.650  24.510  27.036  1.00  0.00     0.031 A 
ATOM     47  C   UNL A   1      42.689  25.535  27.578  1.00  0.00     0.074 A 
ATOM     48  C   UNL A   1      44.932  24.864  26.818  1.00  0.00     0.049 A 
ATOM     49  N   UNL A   1      42.878  26.804  27.837  1.00  0.00    -0.248 NA
ATOM     50  C   UNL A   1      41.325  25.060  27.860  1.00  0.00     0.031 C 
ATOM     51  C   UNL A   1      45.992  23.979  26.340  1.00  0.00     0.029 A 
ATOM     52  N   UNL A   1      45.560  26.080  26.974  1.00  0.00    -0.354 N 
ATOM     53  C   UNL A   1      41.662  27.275  28.310  1.00  0.00     0.074 A 
ATOM     54  C   UNL A   1      40.726  26.174  28.247  1.00  0.00     0.031 C 
ATOM     55  C   UNL A   1      47.138  24.679  26.246  1.00  0.00     0.029 A 
ATOM     56  C   UNL A   1      46.889  26.071  26.623  1.00  0.00     0.049 A 
ATOM     57  H   UNL A   1      45.098  26.883  27.306  1.00  0.00     0.167 HD
ATOM     58  C   UNL A   1      41.348  28.504  28.781  1.00  0.00     0.037 A 
ATOM     59  C   UNL A   1      47.796  27.071  26.596  1.00  0.00     0.037 A 
ATOM     60  C   UNL A   1      42.263  29.610  28.852  1.00  0.00     0.049 A 
ATOM     61  C   UNL A   1      47.392  28.467  27.012  1.00  0.00     0.074 A 
ATOM     62  C   UNL A   1      42.032  30.888  29.328  1.00  0.00     0.029 A 
ATOM     63  N   UNL A   1      43.581  29.573  28.425  1.00  0.00    -0.354 N 
ATOM     64  N   UNL A   1      46.247  28.893  27.489  1.00  0.00    -0.248 NA
ATOM     65  C   UNL A   1      48.409  29.524  26.881  1.00  0.00     0.031 C 
ATOM     66  C   UNL A   1      43.190  31.645  29.130  1.00  0.00     0.029 A 
ATOM     67  C   UNL A   1      44.164  30.820  28.590  1.00  0.00     0.049 A 
ATOM     68  H   UNL A   1      44.035  28.781  28.059  1.00  0.00     0.167 HD
ATOM     69  C   UNL A   1      46.418  30.250  27.745  1.00  0.00     0.074 A 
ATOM     70  C   UNL A   1      47.779  30.578  27.381  1.00  0.00     0.031 C 
ATOM     71  C   UNL A   1      45.524  31.142  28.238  1.00  0.00     0.037 A 
BRANCH  58  72
ATOM     72  C   UNL A   1      39.934  28.719  29.235  1.00  0.00     0.064 A 
ATOM     73  C   UNL A   1      38.937  29.165  28.355  1.00  0.00     0.173 A 
ATOM     74  C   UNL A   1      39.574  28.474  30.568  1.00  0.00     0.173 A 
ATOM     75  F   UNL A   1      39.236  29.433  27.075  1.00  0.00    -0.203 F 
ATOM     76  C   UNL A   1      37.638  29.394  28.803  1.00  0.00     0.198 A 
ATOM     77  C   UNL A   1      38.266  28.669  31.003  1.00  0.00     0.198 A 
ATOM     78  F   UNL A   1      40.490  28.045  31.449  1.00  0.00    -0.203 F 
ATOM     79  F   UNL A   1      36.719  29.884  27.960  1.00  0.00    -0.200 F 
ATOM     80  C   UNL A   1      37.303  29.140  30.123  1.00  0.00     0.200 A 
ATOM     81  F   UNL A   1      37.942  28.411  32.278  1.00  0.00    -0.200 F 
ATOM     82  F   UNL A   1      36.054  29.361  30.553  1.00  0.00    -0.200 F 
ENDBRANCH  58  72
BRANCH  59  83
ATOM     83  C   UNL A   1      49.193  26.812  26.145  1.00  0.00     0.064 A 
ATOM     84  C   UNL A   1      50.178  26.383  27.049  1.00  0.00     0.173 A 
ATOM     85  C   UNL A   1      49.587  27.040  24.818  1.00  0.00     0.173 A 
ATOM     86  F   UNL A   1      49.862  26.185  28.337  1.00  0.00    -0.203 F 
ATOM     87  C   UNL A   1      51.501  26.212  26.646  1.00  0.00     0.198 A 
ATOM     88  C   UNL A   1      50.904  26.839  24.411  1.00  0.00     0.198 A 
ATOM     89  F   UNL A   1      48.690  27.461  23.914  1.00  0.00    -0.203 F 
ATOM     90  F   UNL A   1      52.431  25.857  27.544  1.00  0.00    -0.200 F 
ATOM     91  C   UNL A   1      51.863  26.435  25.327  1.00  0.00     0.200 A 
ATOM     92  F   UNL A   1      51.247  27.049  23.132  1.00  0.00    -0.200 F 
ATOM     93  F   UNL A   1      53.136  26.272  24.942  1.00  0.00    -0.200 F 
ENDBRANCH  59  83
BRANCH  71  94
ATOM     94  C   UNL A   1      45.982  32.559  28.456  1.00  0.00     0.064 A 
ATOM     95  C   UNL A   1      46.612  32.956  29.643  1.00  0.00     0.173 A 
ATOM     96  C   UNL A   1      45.855  33.511  27.432  1.00  0.00     0.173 A 
ATOM     97  F   UNL A   1      46.747  32.089  30.659  1.00  0.00    -0.203 F 
ATOM     98  C   UNL A   1      47.087  34.256  29.804  1.00  0.00     0.198 A 
ATOM     99  C   UNL A   1      46.359  34.800  27.582  1.00  0.00     0.198 A 
ATOM    100  F   UNL A   1      45.268  33.183  26.271  1.00  0.00    -0.203 F 
ATOM    101  F   UNL A   1      47.655  34.623  30.961  1.00  0.00    -0.200 F 
ATOM    102  C   UNL A   1      46.970  35.173  28.770  1.00  0.00     0.200 A 
ATOM    103  F   UNL A   1      46.261  35.679  26.576  1.00  0.00    -0.200 F 
ATOM    104  F   UNL A   1      47.445  36.418  28.918  1.00  0.00    -0.200 F 
ENDBRANCH  71  94
ENDBRANCH  45  46
ENDBRANCH  38  40
ENDBRANCH  37  38
ENDBRANCH  36  37
ENDBRANCH  35  36
ENDBRANCH  34  35
ENDBRANCH   1  34
TORSDOF 20
ENDMDL
