MODEL 1
REMARK VINA RESULT:     -11.2      0.000      0.000
REMARK SMILES CCOc1cc(N2CCOCC2)ccc1[C@H]([NH3+])C(=O)OCCOCCOC(=O)c1ccc(-c2c3nc(c(-c4c(F)c(F)c(F)c(F)c4F)c4ccc([nH]4)c(-c4c(F)c(F)c(F)c(F)c4F)c4nc(c(-c5c(F)c(F)c(F)c(F)c5F)c5ccc2[nH]5)C=C4)C=C3)cc1
REMARK SMILES IDX 22 1 21 2 20 3 18 4 19 5 16 6 15 7 4 8 5 9 6 10 14 11 13 12
REMARK SMILES IDX 3 13 2 14 1 15 7 16 8 17 12 18 9 19 11 20 10 21 17 22 23 26
REMARK SMILES IDX 24 27 25 28 26 29 27 30 28 31 29 32 30 33 91 34 31 35 90 36
REMARK SMILES IDX 32 37 33 38 34 39 84 40 35 41 89 42 83 43 85 44 36 45 88 46
REMARK SMILES IDX 82 47 81 48 37 50 69 51 49 52 68 53 50 54 53 55 67 56 86 57
REMARK SMILES IDX 51 58 52 59 66 61 87 62 54 63 38 64 39 65 47 66 40 67 41 68
REMARK SMILES IDX 45 69 48 70 42 71 43 72 46 73 44 74 70 75 71 76 79 77 72 78
REMARK SMILES IDX 73 79 77 80 80 81 74 82 75 83 78 84 76 85 55 86 56 87 64 88
REMARK SMILES IDX 57 89 58 90 62 91 65 92 59 93 60 94 63 95 61 96
REMARK H PARENT 17 23 17 24 17 25 85 49 53 60
REMARK Flexibility Score: inf
ROOT
ATOM      1  C   UNL A   1      34.762  23.357  23.743  1.00  0.00     0.202 C 
ENDROOT
BRANCH   1   2
ATOM      2  C   UNL A   1      33.585  24.227  23.274  1.00  0.00     0.261 C 
BRANCH   2   3
ATOM      3  O   UNL A   1      33.724  25.626  23.547  1.00  0.00    -0.459 OA
BRANCH   3   4
ATOM      4  C   UNL A   1      33.318  25.966  24.812  1.00  0.00     0.369 C 
ATOM      5  O   UNL A   1      34.100  26.194  25.729  1.00  0.00    -0.245 OA
BRANCH   4   6
ATOM      6  C   UNL A   1      31.773  26.135  24.904  1.00  0.00     0.326 C 
BRANCH   6   7
ATOM      7  C   UNL A   1      31.306  27.381  24.173  1.00  0.00     0.063 A 
ATOM      8  C   UNL A   1      31.434  28.658  24.741  1.00  0.00     0.131 A 
ATOM      9  C   UNL A   1      30.641  29.715  24.279  1.00  0.00     0.072 A 
ATOM     10  C   UNL A   1      29.757  29.521  23.214  1.00  0.00     0.040 A 
ATOM     11  C   UNL A   1      30.629  27.277  22.951  1.00  0.00     0.016 A 
ATOM     12  C   UNL A   1      29.860  28.336  22.484  1.00  0.00     0.027 A 
BRANCH   8  13
ATOM     13  O   UNL A   1      32.098  28.840  25.923  1.00  0.00    -0.493 OA
BRANCH  13  14
ATOM     14  C   UNL A   1      33.096  29.865  25.907  1.00  0.00     0.226 C 
ATOM     15  C   UNL A   1      34.123  29.690  27.018  1.00  0.00     0.049 C 
ENDBRANCH  13  14
ENDBRANCH   8  13
BRANCH  10  16
ATOM     16  N   UNL A   1      28.714  30.392  22.999  1.00  0.00    -0.367 N 
ATOM     17  C   UNL A   1      27.978  30.348  21.728  1.00  0.00     0.145 C 
ATOM     18  C   UNL A   1      28.520  31.600  23.795  1.00  0.00     0.145 C 
ATOM     19  C   UNL A   1      28.243  31.627  20.926  1.00  0.00     0.181 C 
ATOM     20  C   UNL A   1      28.760  32.830  22.899  1.00  0.00     0.181 C 
ATOM     21  O   UNL A   1      27.951  32.800  21.706  1.00  0.00    -0.378 OA
ENDBRANCH  10  16
ENDBRANCH   6   7
BRANCH   6  22
ATOM     22  N   UNL A   1      31.329  26.094  26.334  1.00  0.00    -0.342 N 
ATOM     23  H   UNL A   1      31.743  25.285  26.795  1.00  0.00     0.345 HD
ATOM     24  H   UNL A   1      30.312  26.025  26.372  1.00  0.00     0.345 HD
ATOM     25  H   UNL A   1      31.629  26.946  26.808  1.00  0.00     0.345 HD
ENDBRANCH   6  22
ENDBRANCH   4   6
ENDBRANCH   3   4
ENDBRANCH   2   3
ENDBRANCH   1   2
BRANCH   1  26
ATOM     26  O   UNL A   1      34.508  22.186  24.507  1.00  0.00    -0.374 OA
BRANCH  26  27
ATOM     27  C   UNL A   1      35.534  21.214  24.693  1.00  0.00     0.202 C 
BRANCH  27  28
ATOM     28  C   UNL A   1      36.628  21.472  25.731  1.00  0.00     0.261 C 
BRANCH  28  29
ATOM     29  O   UNL A   1      37.896  21.807  25.135  1.00  0.00    -0.460 OA
BRANCH  29  30
ATOM     30  C   UNL A   1      38.963  21.544  25.926  1.00  0.00     0.338 C 
ATOM     31  O   UNL A   1      39.589  20.495  26.005  1.00  0.00    -0.246 OA
BRANCH  30  32
ATOM     32  C   UNL A   1      39.426  22.763  26.601  1.00  0.00     0.060 A 
ATOM     33  C   UNL A   1      38.932  23.991  26.143  1.00  0.00     0.016 A 
ATOM     34  C   UNL A   1      40.455  22.712  27.542  1.00  0.00     0.016 A 
ATOM     35  C   UNL A   1      39.498  25.180  26.591  1.00  0.00     0.010 A 
ATOM     36  C   UNL A   1      41.033  23.908  27.981  1.00  0.00     0.010 A 
ATOM     37  C   UNL A   1      40.583  25.141  27.476  1.00  0.00    -0.014 A 
BRANCH  37  38
ATOM     38  C   UNL A   1      41.348  26.384  27.732  1.00  0.00     0.031 A 
ATOM     39  C   UNL A   1      40.697  27.493  28.511  1.00  0.00     0.074 A 
ATOM     40  C   UNL A   1      42.619  26.502  27.316  1.00  0.00     0.049 A 
ATOM     41  N   UNL A   1      41.176  28.662  28.853  1.00  0.00    -0.248 NA
ATOM     42  C   UNL A   1      39.321  27.247  28.970  1.00  0.00     0.031 C 
ATOM     43  C   UNL A   1      43.372  25.472  26.605  1.00  0.00     0.029 A 
ATOM     44  N   UNL A   1      43.502  27.545  27.440  1.00  0.00    -0.354 N 
ATOM     45  C   UNL A   1      40.161  29.293  29.560  1.00  0.00     0.074 A 
ATOM     46  C   UNL A   1      39.031  28.389  29.575  1.00  0.00     0.031 C 
ATOM     47  C   UNL A   1      44.608  25.934  26.355  1.00  0.00     0.029 A 
ATOM     48  C   UNL A   1      44.721  27.300  26.863  1.00  0.00     0.049 A 
ATOM     49  H   UNL A   1      43.281  28.386  27.900  1.00  0.00     0.167 HD
ATOM     50  C   UNL A   1      40.173  30.513  30.149  1.00  0.00     0.037 A 
ATOM     51  C   UNL A   1      45.800  28.099  26.746  1.00  0.00     0.037 A 
ATOM     52  C   UNL A   1      41.299  31.409  30.129  1.00  0.00     0.049 A 
ATOM     53  C   UNL A   1      45.755  29.488  27.328  1.00  0.00     0.074 A 
ATOM     54  C   UNL A   1      41.423  32.656  30.717  1.00  0.00     0.029 A 
ATOM     55  N   UNL A   1      42.496  31.156  29.473  1.00  0.00    -0.354 N 
ATOM     56  N   UNL A   1      44.803  30.069  28.017  1.00  0.00    -0.248 NA
ATOM     57  C   UNL A   1      46.938  30.332  27.109  1.00  0.00     0.031 C 
ATOM     58  C   UNL A   1      42.676  33.179  30.372  1.00  0.00     0.029 A 
ATOM     59  C   UNL A   1      43.351  32.237  29.612  1.00  0.00     0.049 A 
ATOM     60  H   UNL A   1      42.705  30.330  28.981  1.00  0.00     0.167 HD
ATOM     61  C   UNL A   1      45.281  31.331  28.341  1.00  0.00     0.074 A 
ATOM     62  C   UNL A   1      46.612  31.430  27.777  1.00  0.00     0.031 C 
ATOM     63  C   UNL A   1      44.675  32.318  29.046  1.00  0.00     0.037 A 
BRANCH  50  64
ATOM     64  C   UNL A   1      38.913  30.960  30.829  1.00  0.00     0.064 A 
ATOM     65  C   UNL A   1      38.727  30.815  32.212  1.00  0.00     0.173 A 
ATOM     66  C   UNL A   1      37.876  31.544  30.086  1.00  0.00     0.173 A 
ATOM     67  F   UNL A   1      39.682  30.248  32.966  1.00  0.00    -0.203 F 
ATOM     68  C   UNL A   1      37.536  31.205  32.821  1.00  0.00     0.198 A 
ATOM     69  C   UNL A   1      36.698  31.959  30.702  1.00  0.00     0.198 A 
ATOM     70  F   UNL A   1      38.004  31.710  28.761  1.00  0.00    -0.203 F 
ATOM     71  F   UNL A   1      37.358  31.004  34.134  1.00  0.00    -0.200 F 
ATOM     72  C   UNL A   1      36.525  31.780  32.066  1.00  0.00     0.200 A 
ATOM     73  F   UNL A   1      35.726  32.524  29.972  1.00  0.00    -0.200 F 
ATOM     74  F   UNL A   1      35.377  32.152  32.651  1.00  0.00    -0.200 F 
ENDBRANCH  50  64
BRANCH  51  75
ATOM     75  C   UNL A   1      47.016  27.601  26.057  1.00  0.00     0.064 A 
ATOM     76  C   UNL A   1      47.142  27.698  24.664  1.00  0.00     0.173 A 
ATOM     77  C   UNL A   1      48.073  27.020  26.770  1.00  0.00     0.173 A 
ATOM     78  F   UNL A   1      46.145  28.223  23.937  1.00  0.00    -0.203 F 
ATOM     79  C   UNL A   1      48.279  27.226  24.011  1.00  0.00     0.198 A 
ATOM     80  C   UNL A   1      49.220  26.570  26.119  1.00  0.00     0.198 A 
ATOM     81  F   UNL A   1      47.999  26.902  28.104  1.00  0.00    -0.203 F 
ATOM     82  F   UNL A   1      48.360  27.300  22.675  1.00  0.00    -0.200 F 
ATOM     83  C   UNL A   1      49.319  26.670  24.739  1.00  0.00     0.200 A 
ATOM     84  F   UNL A   1      50.228  26.043  26.827  1.00  0.00    -0.200 F 
ATOM     85  F   UNL A   1      50.414  26.222  24.110  1.00  0.00    -0.200 F 
ENDBRANCH  51  75
BRANCH  63  86
ATOM     86  C   UNL A   1      45.457  33.578  29.278  1.00  0.00     0.064 A 
ATOM     87  C   UNL A   1      46.312  33.721  30.380  1.00  0.00     0.173 A 
ATOM     88  C   UNL A   1      45.379  34.640  28.363  1.00  0.00     0.173 A 
ATOM     89  F   UNL A   1      46.410  32.741  31.290  1.00  0.00    -0.203 F 
ATOM     90  C   UNL A   1      47.043  34.892  30.570  1.00  0.00     0.198 A 
ATOM     91  C   UNL A   1      46.132  35.797  28.542  1.00  0.00     0.198 A 
ATOM     92  F   UNL A   1      44.581  34.550  27.289  1.00  0.00    -0.203 F 
ATOM     93  F   UNL A   1      47.819  35.026  31.655  1.00  0.00    -0.200 F 
ATOM     94  C   UNL A   1      46.958  35.925  29.649  1.00  0.00     0.200 A 
ATOM     95  F   UNL A   1      46.059  36.789  27.644  1.00  0.00    -0.200 F 
ATOM     96  F   UNL A   1      47.666  37.047  29.831  1.00  0.00    -0.200 F 
ENDBRANCH  63  86
ENDBRANCH  37  38
ENDBRANCH  30  32
ENDBRANCH  29  30
ENDBRANCH  28  29
ENDBRANCH  27  28
ENDBRANCH  26  27
ENDBRANCH   1  26
TORSDOF 19
ENDMDL
MODEL 2
REMARK VINA RESULT:     -11.0      4.306     10.294
REMARK SMILES CCOc1cc(N2CCOCC2)ccc1[C@H]([NH3+])C(=O)OCCOCCOC(=O)c1ccc(-c2c3nc(c(-c4c(F)c(F)c(F)c(F)c4F)c4ccc([nH]4)c(-c4c(F)c(F)c(F)c(F)c4F)c4nc(c(-c5c(F)c(F)c(F)c(F)c5F)c5ccc2[nH]5)C=C4)C=C3)cc1
REMARK SMILES IDX 22 1 21 2 20 3 18 4 19 5 16 6 15 7 4 8 5 9 6 10 14 11 13 12
REMARK SMILES IDX 3 13 2 14 1 15 7 16 8 17 12 18 9 19 11 20 10 21 17 22 23 26
REMARK SMILES IDX 24 27 25 28 26 29 27 30 28 31 29 32 30 33 91 34 31 35 90 36
REMARK SMILES IDX 32 37 33 38 34 39 84 40 35 41 89 42 83 43 85 44 36 45 88 46
REMARK SMILES IDX 82 47 81 48 37 50 69 51 49 52 68 53 50 54 53 55 67 56 86 57
REMARK SMILES IDX 51 58 52 59 66 61 87 62 54 63 38 64 39 65 47 66 40 67 41 68
REMARK SMILES IDX 45 69 48 70 42 71 43 72 46 73 44 74 70 75 71 76 79 77 72 78
REMARK SMILES IDX 73 79 77 80 80 81 74 82 75 83 78 84 76 85 55 86 56 87 64 88
REMARK SMILES IDX 57 89 58 90 62 91 65 92 59 93 60 94 63 95 61 96
REMARK H PARENT 17 23 17 24 17 25 85 49 53 60
REMARK Flexibility Score: inf
ROOT
ATOM      1  C   UNL A   1      32.594  28.062  23.312  1.00  0.00     0.202 C 
ENDROOT
BRANCH   1   2
ATOM      2  C   UNL A   1      32.696  26.569  23.661  1.00  0.00     0.261 C 
BRANCH   2   3
ATOM      3  O   UNL A   1      33.909  26.185  24.318  1.00  0.00    -0.459 OA
BRANCH   3   4
ATOM      4  C   UNL A   1      33.851  24.923  24.851  1.00  0.00     0.369 C 
ATOM      5  O   UNL A   1      34.042  24.687  26.040  1.00  0.00    -0.245 OA
BRANCH   4   6
ATOM      6  C   UNL A   1      33.407  23.864  23.799  1.00  0.00     0.326 C 
BRANCH   6   7
ATOM      7  C   UNL A   1      33.329  22.476  24.407  1.00  0.00     0.063 A 
ATOM      8  C   UNL A   1      34.444  21.625  24.445  1.00  0.00     0.131 A 
ATOM      9  C   UNL A   1      34.272  20.245  24.600  1.00  0.00     0.072 A 
ATOM     10  C   UNL A   1      32.992  19.709  24.773  1.00  0.00     0.040 A 
ATOM     11  C   UNL A   1      32.103  21.961  24.848  1.00  0.00     0.016 A 
ATOM     12  C   UNL A   1      31.940  20.592  25.022  1.00  0.00     0.027 A 
BRANCH   8  13
ATOM     13  O   UNL A   1      35.678  22.064  24.048  1.00  0.00    -0.493 OA
BRANCH  13  14
ATOM     14  C   UNL A   1      36.742  21.796  24.966  1.00  0.00     0.226 C 
ATOM     15  C   UNL A   1      37.136  23.027  25.771  1.00  0.00     0.049 C 
ENDBRANCH  13  14
ENDBRANCH   8  13
BRANCH  10  16
ATOM     16  N   UNL A   1      32.751  18.375  24.538  1.00  0.00    -0.367 N 
ATOM     17  C   UNL A   1      32.777  17.422  25.656  1.00  0.00     0.145 C 
ATOM     18  C   UNL A   1      32.833  17.783  23.207  1.00  0.00     0.145 C 
ATOM     19  C   UNL A   1      33.974  16.476  25.508  1.00  0.00     0.181 C 
ATOM     20  C   UNL A   1      34.030  16.814  23.165  1.00  0.00     0.181 C 
ATOM     21  O   UNL A   1      33.974  15.834  24.220  1.00  0.00    -0.378 OA
ENDBRANCH  10  16
ENDBRANCH   6   7
BRANCH   6  22
ATOM     22  N   UNL A   1      34.293  23.926  22.592  1.00  0.00    -0.342 N 
ATOM     23  H   UNL A   1      33.932  24.621  21.941  1.00  0.00     0.345 HD
ATOM     24  H   UNL A   1      34.315  23.012  22.139  1.00  0.00     0.345 HD
ATOM     25  H   UNL A   1      35.237  24.186  22.877  1.00  0.00     0.345 HD
ENDBRANCH   6  22
ENDBRANCH   4   6
ENDBRANCH   3   4
ENDBRANCH   2   3
ENDBRANCH   1   2
BRANCH   1  26
ATOM     26  O   UNL A   1      31.734  28.902  24.069  1.00  0.00    -0.374 OA
BRANCH  26  27
ATOM     27  C   UNL A   1      31.989  29.130  25.452  1.00  0.00     0.202 C 
BRANCH  27  28
ATOM     28  C   UNL A   1      31.879  30.552  26.008  1.00  0.00     0.261 C 
BRANCH  28  29
ATOM     29  O   UNL A   1      32.475  30.692  27.311  1.00  0.00    -0.460 OA
BRANCH  29  30
ATOM     30  C   UNL A   1      33.296  31.762  27.430  1.00  0.00     0.338 C 
ATOM     31  O   UNL A   1      32.988  32.945  27.373  1.00  0.00    -0.246 OA
BRANCH  30  32
ATOM     32  C   UNL A   1      34.649  31.341  27.820  1.00  0.00     0.060 A 
ATOM     33  C   UNL A   1      34.845  29.992  28.141  1.00  0.00     0.016 A 
ATOM     34  C   UNL A   1      35.655  32.282  28.035  1.00  0.00     0.016 A 
ATOM     35  C   UNL A   1      36.039  29.583  28.726  1.00  0.00     0.010 A 
ATOM     36  C   UNL A   1      36.850  31.873  28.636  1.00  0.00     0.010 A 
ATOM     37  C   UNL A   1      37.029  30.531  29.020  1.00  0.00    -0.014 A 
BRANCH  37  38
ATOM     38  C   UNL A   1      38.169  30.140  29.880  1.00  0.00     0.031 A 
ATOM     39  C   UNL A   1      39.203  29.194  29.334  1.00  0.00     0.074 A 
ATOM     40  C   UNL A   1      38.304  30.654  31.113  1.00  0.00     0.049 A 
ATOM     41  N   UNL A   1      40.280  28.719  29.905  1.00  0.00    -0.248 NA
ATOM     42  C   UNL A   1      38.996  28.727  27.955  1.00  0.00     0.031 C 
ATOM     43  C   UNL A   1      37.397  31.622  31.725  1.00  0.00     0.029 A 
ATOM     44  N   UNL A   1      39.264  30.436  32.067  1.00  0.00    -0.354 N 
ATOM     45  C   UNL A   1      40.874  27.893  28.960  1.00  0.00     0.074 A 
ATOM     46  C   UNL A   1      40.026  27.910  27.789  1.00  0.00     0.031 C 
ATOM     47  C   UNL A   1      37.846  31.917  32.956  1.00  0.00     0.029 A 
ATOM     48  C   UNL A   1      39.052  31.137  33.227  1.00  0.00     0.049 A 
ATOM     49  H   UNL A   1      40.032  29.835  31.932  1.00  0.00     0.167 HD
ATOM     50  C   UNL A   1      42.028  27.190  29.059  1.00  0.00     0.037 A 
ATOM     51  C   UNL A   1      39.749  31.134  34.380  1.00  0.00     0.037 A 
ATOM     52  C   UNL A   1      42.868  27.173  30.228  1.00  0.00     0.049 A 
ATOM     53  C   UNL A   1      40.976  30.269  34.497  1.00  0.00     0.074 A 
ATOM     54  C   UNL A   1      44.069  26.515  30.420  1.00  0.00     0.029 A 
ATOM     55  N   UNL A   1      42.585  27.841  31.410  1.00  0.00    -0.354 N 
ATOM     56  N   UNL A   1      41.547  29.511  33.593  1.00  0.00    -0.248 NA
ATOM     57  C   UNL A   1      41.652  30.259  35.802  1.00  0.00     0.031 C 
ATOM     58  C   UNL A   1      44.486  26.742  31.737  1.00  0.00     0.029 A 
ATOM     59  C   UNL A   1      43.570  27.583  32.349  1.00  0.00     0.049 A 
ATOM     60  H   UNL A   1      41.798  28.414  31.560  1.00  0.00     0.167 HD
ATOM     61  C   UNL A   1      42.664  28.960  34.206  1.00  0.00     0.074 A 
ATOM     62  C   UNL A   1      42.694  29.474  35.559  1.00  0.00     0.031 C 
ATOM     63  C   UNL A   1      43.585  28.107  33.692  1.00  0.00     0.037 A 
BRANCH  50  64
ATOM     64  C   UNL A   1      42.422  26.349  27.880  1.00  0.00     0.064 A 
ATOM     65  C   UNL A   1      43.304  26.821  26.897  1.00  0.00     0.173 A 
ATOM     66  C   UNL A   1      41.912  25.050  27.735  1.00  0.00     0.173 A 
ATOM     67  F   UNL A   1      43.808  28.061  26.981  1.00  0.00    -0.203 F 
ATOM     68  C   UNL A   1      43.632  26.037  25.792  1.00  0.00     0.198 A 
ATOM     69  C   UNL A   1      42.264  24.258  26.644  1.00  0.00     0.198 A 
ATOM     70  F   UNL A   1      41.068  24.548  28.650  1.00  0.00    -0.203 F 
ATOM     71  F   UNL A   1      44.431  26.530  24.836  1.00  0.00    -0.200 F 
ATOM     72  C   UNL A   1      43.115  24.756  25.669  1.00  0.00     0.200 A 
ATOM     73  F   UNL A   1      41.771  23.018  26.532  1.00  0.00    -0.200 F 
ATOM     74  F   UNL A   1      43.428  24.004  24.605  1.00  0.00    -0.200 F 
ENDBRANCH  50  64
BRANCH  51  75
ATOM     75  C   UNL A   1      39.304  31.984  35.512  1.00  0.00     0.064 A 
ATOM     76  C   UNL A   1      38.452  31.474  36.501  1.00  0.00     0.173 A 
ATOM     77  C   UNL A   1      39.720  33.317  35.631  1.00  0.00     0.173 A 
ATOM     78  F   UNL A   1      38.009  30.211  36.416  1.00  0.00    -0.203 F 
ATOM     79  C   UNL A   1      38.027  32.269  37.563  1.00  0.00     0.198 A 
ATOM     80  C   UNL A   1      39.313  34.105  36.706  1.00  0.00     0.198 A 
ATOM     81  F   UNL A   1      40.532  33.852  34.708  1.00  0.00    -0.203 F 
ATOM     82  F   UNL A   1      37.185  31.767  38.477  1.00  0.00    -0.200 F 
ATOM     83  C   UNL A   1      38.463  33.581  37.668  1.00  0.00     0.200 A 
ATOM     84  F   UNL A   1      39.746  35.369  36.809  1.00  0.00    -0.200 F 
ATOM     85  F   UNL A   1      38.058  34.343  38.693  1.00  0.00    -0.200 F 
ENDBRANCH  51  75
BRANCH  63  86
ATOM     86  C   UNL A   1      44.723  27.704  34.586  1.00  0.00     0.064 A 
ATOM     87  C   UNL A   1      44.657  26.557  35.390  1.00  0.00     0.173 A 
ATOM     88  C   UNL A   1      45.909  28.455  34.607  1.00  0.00     0.173 A 
ATOM     89  F   UNL A   1      43.540  25.815  35.417  1.00  0.00    -0.203 F 
ATOM     90  C   UNL A   1      45.729  26.190  36.200  1.00  0.00     0.198 A 
ATOM     91  C   UNL A   1      46.988  28.069  35.397  1.00  0.00     0.198 A 
ATOM     92  F   UNL A   1      46.025  29.557  33.851  1.00  0.00    -0.203 F 
ATOM     93  F   UNL A   1      45.627  25.115  36.995  1.00  0.00    -0.200 F 
ATOM     94  C   UNL A   1      46.894  26.941  36.198  1.00  0.00     0.200 A 
ATOM     95  F   UNL A   1      48.118  28.789  35.384  1.00  0.00    -0.200 F 
ATOM     96  F   UNL A   1      47.926  26.582  36.974  1.00  0.00    -0.200 F 
ENDBRANCH  63  86
ENDBRANCH  37  38
ENDBRANCH  30  32
ENDBRANCH  29  30
ENDBRANCH  28  29
ENDBRANCH  27  28
ENDBRANCH  26  27
ENDBRANCH   1  26
TORSDOF 19
ENDMDL
MODEL 3
REMARK VINA RESULT:     -10.9      3.488      5.367
REMARK SMILES CCOc1cc(N2CCOCC2)ccc1[C@H]([NH3+])C(=O)OCCOCCOC(=O)c1ccc(-c2c3nc(c(-c4c(F)c(F)c(F)c(F)c4F)c4ccc([nH]4)c(-c4c(F)c(F)c(F)c(F)c4F)c4nc(c(-c5c(F)c(F)c(F)c(F)c5F)c5ccc2[nH]5)C=C4)C=C3)cc1
REMARK SMILES IDX 22 1 21 2 20 3 18 4 19 5 16 6 15 7 4 8 5 9 6 10 14 11 13 12
REMARK SMILES IDX 3 13 2 14 1 15 7 16 8 17 12 18 9 19 11 20 10 21 17 22 23 26
REMARK SMILES IDX 24 27 25 28 26 29 27 30 28 31 29 32 30 33 91 34 31 35 90 36
REMARK SMILES IDX 32 37 33 38 34 39 84 40 35 41 89 42 83 43 85 44 36 45 88 46
REMARK SMILES IDX 82 47 81 48 37 50 69 51 49 52 68 53 50 54 53 55 67 56 86 57
REMARK SMILES IDX 51 58 52 59 66 61 87 62 54 63 38 64 39 65 47 66 40 67 41 68
REMARK SMILES IDX 45 69 48 70 42 71 43 72 46 73 44 74 70 75 71 76 79 77 72 78
REMARK SMILES IDX 73 79 77 80 80 81 74 82 75 83 78 84 76 85 55 86 56 87 64 88
REMARK SMILES IDX 57 89 58 90 62 91 65 92 59 93 60 94 63 95 61 96
REMARK H PARENT 17 23 17 24 17 25 85 49 53 60
REMARK Flexibility Score: inf
ROOT
ATOM      1  C   UNL A   1      37.842  21.934  25.389  1.00  0.00     0.202 C 
ENDROOT
BRANCH   1   2
ATOM      2  C   UNL A   1      37.412  23.292  24.812  1.00  0.00     0.261 C 
BRANCH   2   3
ATOM      3  O   UNL A   1      36.012  23.575  24.917  1.00  0.00    -0.459 OA
BRANCH   3   4
ATOM      4  C   UNL A   1      35.335  23.361  23.743  1.00  0.00     0.369 C 
ATOM      5  O   UNL A   1      35.876  22.953  22.721  1.00  0.00    -0.245 OA
BRANCH   4   6
ATOM      6  C   UNL A   1      33.803  23.589  23.904  1.00  0.00     0.326 C 
BRANCH   6   7
ATOM      7  C   UNL A   1      33.059  22.275  24.055  1.00  0.00     0.063 A 
ATOM      8  C   UNL A   1      33.019  21.588  25.279  1.00  0.00     0.131 A 
ATOM      9  C   UNL A   1      32.719  20.222  25.309  1.00  0.00     0.072 A 
ATOM     10  C   UNL A   1      32.404  19.542  24.129  1.00  0.00     0.040 A 
ATOM     11  C   UNL A   1      32.484  21.651  22.941  1.00  0.00     0.016 A 
ATOM     12  C   UNL A   1      32.166  20.299  22.980  1.00  0.00     0.027 A 
BRANCH   8  13
ATOM     13  O   UNL A   1      33.545  22.142  26.414  1.00  0.00    -0.493 OA
BRANCH  13  14
ATOM     14  C   UNL A   1      32.585  22.527  27.402  1.00  0.00     0.226 C 
ATOM     15  C   UNL A   1      31.594  23.557  26.877  1.00  0.00     0.049 C 
ENDBRANCH  13  14
ENDBRANCH   8  13
BRANCH  10  16
ATOM     16  N   UNL A   1      32.490  18.170  24.063  1.00  0.00    -0.367 N 
ATOM     17  C   UNL A   1      32.527  17.382  25.301  1.00  0.00     0.145 C 
ATOM     18  C   UNL A   1      32.915  17.466  22.857  1.00  0.00     0.145 C 
ATOM     19  C   UNL A   1      33.903  16.725  25.461  1.00  0.00     0.181 C 
ATOM     20  C   UNL A   1      34.278  16.800  23.124  1.00  0.00     0.181 C 
ATOM     21  O   UNL A   1      34.252  15.959  24.295  1.00  0.00    -0.378 OA
ENDBRANCH  10  16
ENDBRANCH   6   7
BRANCH   6  22
ATOM     22  N   UNL A   1      33.281  24.432  22.781  1.00  0.00    -0.342 N 
ATOM     23  H   UNL A   1      32.568  25.068  23.136  1.00  0.00     0.345 HD
ATOM     24  H   UNL A   1      32.874  23.830  22.065  1.00  0.00     0.345 HD
ATOM     25  H   UNL A   1      34.046  24.970  22.376  1.00  0.00     0.345 HD
ENDBRANCH   6  22
ENDBRANCH   4   6
ENDBRANCH   3   4
ENDBRANCH   2   3
ENDBRANCH   1   2
BRANCH   1  26
ATOM     26  O   UNL A   1      37.592  20.746  24.650  1.00  0.00    -0.374 OA
BRANCH  26  27
ATOM     27  C   UNL A   1      38.247  19.530  25.001  1.00  0.00     0.202 C 
BRANCH  27  28
ATOM     28  C   UNL A   1      39.356  19.557  26.056  1.00  0.00     0.261 C 
BRANCH  28  29
ATOM     29  O   UNL A   1      40.649  19.222  25.517  1.00  0.00    -0.460 OA
BRANCH  29  30
ATOM     30  C   UNL A   1      41.677  19.454  26.367  1.00  0.00     0.338 C 
ATOM     31  O   UNL A   1      42.560  18.673  26.696  1.00  0.00    -0.246 OA
BRANCH  30  32
ATOM     32  C   UNL A   1      41.724  20.871  26.755  1.00  0.00     0.060 A 
ATOM     33  C   UNL A   1      41.535  21.828  25.751  1.00  0.00     0.016 A 
ATOM     34  C   UNL A   1      42.121  21.247  28.038  1.00  0.00     0.016 A 
ATOM     35  C   UNL A   1      41.788  23.171  26.013  1.00  0.00     0.010 A 
ATOM     36  C   UNL A   1      42.389  22.595  28.297  1.00  0.00     0.010 A 
ATOM     37  C   UNL A   1      42.262  23.554  27.275  1.00  0.00    -0.014 A 
BRANCH  37  38
ATOM     38  C   UNL A   1      42.784  24.927  27.462  1.00  0.00     0.031 A 
ATOM     39  C   UNL A   1      41.888  25.971  28.069  1.00  0.00     0.074 A 
ATOM     40  C   UNL A   1      44.051  25.227  27.137  1.00  0.00     0.049 A 
ATOM     41  N   UNL A   1      42.133  27.231  28.327  1.00  0.00    -0.248 NA
ATOM     42  C   UNL A   1      40.535  25.531  28.442  1.00  0.00     0.031 C 
ATOM     43  C   UNL A   1      45.027  24.285  26.596  1.00  0.00     0.029 A 
ATOM     44  N   UNL A   1      44.735  26.414  27.222  1.00  0.00    -0.354 N 
ATOM     45  C   UNL A   1      40.966  27.735  28.884  1.00  0.00     0.074 A 
ATOM     46  C   UNL A   1      40.004  26.655  28.903  1.00  0.00     0.031 C 
ATOM     47  C   UNL A   1      46.189  24.931  26.398  1.00  0.00     0.029 A 
ATOM     48  C   UNL A   1      46.027  26.335  26.770  1.00  0.00     0.049 A 
ATOM     49  H   UNL A   1      44.335  27.241  27.575  1.00  0.00     0.167 HD
ATOM     50  C   UNL A   1      40.721  28.986  29.343  1.00  0.00     0.037 A 
ATOM     51  C   UNL A   1      46.965  27.295  26.658  1.00  0.00     0.037 A 
ATOM     52  C   UNL A   1      41.680  30.059  29.320  1.00  0.00     0.049 A 
ATOM     53  C   UNL A   1      46.637  28.700  27.088  1.00  0.00     0.074 A 
ATOM     54  C   UNL A   1      41.541  31.354  29.785  1.00  0.00     0.029 A 
ATOM     55  N   UNL A   1      42.959  29.960  28.790  1.00  0.00    -0.354 N 
ATOM     56  N   UNL A   1      45.542  29.166  27.637  1.00  0.00    -0.248 NA
ATOM     57  C   UNL A   1      47.680  29.714  26.878  1.00  0.00     0.031 C 
ATOM     58  C   UNL A   1      42.717  32.054  29.488  1.00  0.00     0.029 A 
ATOM     59  C   UNL A   1      43.607  31.180  28.884  1.00  0.00     0.049 A 
ATOM     60  H   UNL A   1      43.347  29.143  28.403  1.00  0.00     0.167 HD
ATOM     61  C   UNL A   1      45.772  30.515  27.867  1.00  0.00     0.074 A 
ATOM     62  C   UNL A   1      47.115  30.794  27.402  1.00  0.00     0.031 C 
ATOM     63  C   UNL A   1      44.947  31.440  28.418  1.00  0.00     0.037 A 
BRANCH  50  64
ATOM     64  C   UNL A   1      39.345  29.265  29.874  1.00  0.00     0.064 A 
ATOM     65  C   UNL A   1      38.324  29.768  29.053  1.00  0.00     0.173 A 
ATOM     66  C   UNL A   1      39.043  29.024  31.222  1.00  0.00     0.173 A 
ATOM     67  F   UNL A   1      38.565  30.031  27.760  1.00  0.00    -0.203 F 
ATOM     68  C   UNL A   1      37.063  30.053  29.572  1.00  0.00     0.198 A 
ATOM     69  C   UNL A   1      37.773  29.282  31.731  1.00  0.00     0.198 A 
ATOM     70  F   UNL A   1      39.983  28.539  32.049  1.00  0.00    -0.203 F 
ATOM     71  F   UNL A   1      36.120  30.586  28.783  1.00  0.00    -0.200 F 
ATOM     72  C   UNL A   1      36.787  29.806  30.909  1.00  0.00     0.200 A 
ATOM     73  F   UNL A   1      37.507  29.035  33.021  1.00  0.00    -0.200 F 
ATOM     74  F   UNL A   1      35.575  30.084  31.407  1.00  0.00    -0.200 F 
ENDBRANCH  50  64
BRANCH  51  75
ATOM     75  C   UNL A   1      48.306  26.956  26.120  1.00  0.00     0.064 A 
ATOM     76  C   UNL A   1      48.578  27.065  24.749  1.00  0.00     0.173 A 
ATOM     77  C   UNL A   1      49.340  26.520  26.959  1.00  0.00     0.173 A 
ATOM     78  F   UNL A   1      47.613  27.455  23.904  1.00  0.00    -0.203 F 
ATOM     79  C   UNL A   1      49.834  26.743  24.238  1.00  0.00     0.198 A 
ATOM     80  C   UNL A   1      50.602  26.220  26.451  1.00  0.00     0.198 A 
ATOM     81  F   UNL A   1      49.128  26.396  28.278  1.00  0.00    -0.203 F 
ATOM     82  F   UNL A   1      50.058  26.823  22.919  1.00  0.00    -0.200 F 
ATOM     83  C   UNL A   1      50.846  26.328  25.090  1.00  0.00     0.200 A 
ATOM     84  F   UNL A   1      51.581  25.830  27.279  1.00  0.00    -0.200 F 
ATOM     85  F   UNL A   1      52.055  26.024  24.598  1.00  0.00    -0.200 F 
ENDBRANCH  51  75
BRANCH  63  86
ATOM     86  C   UNL A   1      45.485  32.832  28.580  1.00  0.00     0.064 A 
ATOM     87  C   UNL A   1      45.243  33.831  27.627  1.00  0.00     0.173 A 
ATOM     88  C   UNL A   1      46.219  33.180  29.725  1.00  0.00     0.173 A 
ATOM     89  F   UNL A   1      44.560  33.545  26.508  1.00  0.00    -0.203 F 
ATOM     90  C   UNL A   1      45.737  35.121  27.802  1.00  0.00     0.198 A 
ATOM     91  C   UNL A   1      46.688  34.477  29.910  1.00  0.00     0.198 A 
ATOM     92  F   UNL A   1      46.473  32.262  30.670  1.00  0.00    -0.203 F 
ATOM     93  F   UNL A   1      45.533  36.049  26.856  1.00  0.00    -0.200 F 
ATOM     94  C   UNL A   1      46.452  35.445  28.945  1.00  0.00     0.200 A 
ATOM     95  F   UNL A   1      47.367  34.792  31.021  1.00  0.00    -0.200 F 
ATOM     96  F   UNL A   1      46.921  36.689  29.114  1.00  0.00    -0.200 F 
ENDBRANCH  63  86
ENDBRANCH  37  38
ENDBRANCH  30  32
ENDBRANCH  29  30
ENDBRANCH  28  29
ENDBRANCH  27  28
ENDBRANCH  26  27
ENDBRANCH   1  26
TORSDOF 19
ENDMDL
