MODEL 1
REMARK VINA RESULT:     -11.7      0.000      0.000
REMARK SMILES CC(C)c1cc(C2CC[NH+](Cc3c[nH]nc3C(=O)OCCOCCOC(=O)c3ccc(-c4c5nc(c(-c6c(F)c(F)c(F)c(F)c6F)c6ccc([nH]6)c(-c6c(F)c(F)c(F)c(F)c6F)c6nc(c(-c7c(F)c(F)c(F)c(F)c7F)c7ccc4[nH]7)C=C6)C=C5)cc3)CC2)n[nH]1
REMARK SMILES IDX 21 1 20 2 19 3 17 4 18 5 16 6 12 7 13 8 14 9 15 10 11 12
REMARK SMILES IDX 10 13 7 14 8 15 92 16 9 17 91 18 6 20 4 21 5 22 94 23 93 24
REMARK SMILES IDX 2 26 1 27 3 28 22 29 23 30 24 31 25 32 26 33 27 34 28 35
REMARK SMILES IDX 29 36 90 37 30 38 89 39 31 40 32 41 33 42 83 43 34 44 88 45
REMARK SMILES IDX 82 46 84 47 35 48 87 49 81 50 80 51 36 53 68 54 48 55 67 56
REMARK SMILES IDX 49 57 52 58 66 59 85 60 50 61 51 62 65 64 86 65 53 66 37 67
REMARK SMILES IDX 38 68 46 69 39 70 40 71 44 72 47 73 41 74 42 75 45 76 43 77
REMARK SMILES IDX 69 78 70 79 78 80 71 81 72 82 76 83 79 84 73 85 74 86 77 87
REMARK SMILES IDX 75 88 54 89 55 90 63 91 56 92 57 93 61 94 64 95 58 96 59 97
REMARK SMILES IDX 62 98 60 99
REMARK H PARENT 14 11 10 19 94 25 84 52 52 63
REMARK Flexibility Score: inf
ROOT
ATOM      1  C   UNL A   1      33.323  29.244  26.431  1.00  0.00     0.202 C 
ENDROOT
BRANCH   1   2
ATOM      2  C   UNL A   1      32.266  28.383  27.123  1.00  0.00     0.261 C 
BRANCH   2   3
ATOM      3  O   UNL A   1      31.607  27.511  26.187  1.00  0.00    -0.458 OA
BRANCH   3   4
ATOM      4  C   UNL A   1      32.157  26.261  26.110  1.00  0.00     0.359 C 
ATOM      5  O   UNL A   1      33.353  26.065  25.917  1.00  0.00    -0.244 OA
BRANCH   4   6
ATOM      6  C   UNL A   1      31.198  25.160  26.333  1.00  0.00     0.178 A 
ATOM      7  C   UNL A   1      31.358  23.723  26.405  1.00  0.00     0.059 A 
ATOM      8  C   UNL A   1      30.128  23.307  26.896  1.00  0.00     0.115 A 
ATOM      9  N   UNL A   1      29.292  24.373  26.868  1.00  0.00    -0.284 N 
ATOM     10  N   UNL A   1      29.906  25.502  26.536  1.00  0.00    -0.168 NA
ATOM     11  H   UNL A   1      28.331  24.317  27.071  1.00  0.00     0.189 HD
BRANCH   7  12
ATOM     12  C   UNL A   1      32.581  22.853  26.208  1.00  0.00     0.303 C 
BRANCH  12  13
ATOM     13  N   UNL A   1      33.016  22.650  24.801  1.00  0.00    -0.331 N 
ATOM     14  C   UNL A   1      33.372  23.510  21.986  1.00  0.00     0.051 C 
ATOM     15  C   UNL A   1      32.366  22.421  22.354  1.00  0.00     0.071 C 
ATOM     16  C   UNL A   1      34.568  23.361  22.936  1.00  0.00     0.071 C 
ATOM     17  C   UNL A   1      31.942  22.498  23.820  1.00  0.00     0.263 C 
ATOM     18  C   UNL A   1      34.177  23.451  24.419  1.00  0.00     0.263 C 
ATOM     19  H   UNL A   1      33.396  21.703  24.778  1.00  0.00     0.348 HD
BRANCH  14  20
ATOM     20  C   UNL A   1      32.833  24.925  21.977  1.00  0.00     0.066 A 
ATOM     21  C   UNL A   1      31.608  26.718  22.469  1.00  0.00     0.038 A 
ATOM     22  C   UNL A   1      31.521  25.366  22.257  1.00  0.00     0.049 A 
ATOM     23  N   UNL A   1      32.880  27.048  22.094  1.00  0.00    -0.282 N 
ATOM     24  N   UNL A   1      33.654  25.974  21.829  1.00  0.00    -0.180 NA
ATOM     25  H   UNL A   1      33.200  27.976  22.025  1.00  0.00     0.190 HD
BRANCH  21  26
ATOM     26  C   UNL A   1      30.581  27.633  23.056  1.00  0.00     0.031 C 
ATOM     27  C   UNL A   1      30.248  28.809  22.143  1.00  0.00     0.014 C 
ATOM     28  C   UNL A   1      29.332  26.880  23.498  1.00  0.00     0.014 C 
ENDBRANCH  21  26
ENDBRANCH  14  20
ENDBRANCH  12  13
ENDBRANCH   7  12
ENDBRANCH   4   6
ENDBRANCH   3   4
ENDBRANCH   2   3
ENDBRANCH   1   2
BRANCH   1  29
ATOM     29  O   UNL A   1      32.891  30.534  26.007  1.00  0.00    -0.374 OA
BRANCH  29  30
ATOM     30  C   UNL A   1      31.746  31.086  26.663  1.00  0.00     0.202 C 
BRANCH  30  31
ATOM     31  C   UNL A   1      31.803  32.594  26.933  1.00  0.00     0.261 C 
BRANCH  31  32
ATOM     32  O   UNL A   1      33.153  33.089  26.850  1.00  0.00    -0.460 OA
BRANCH  32  33
ATOM     33  C   UNL A   1      33.647  33.612  27.999  1.00  0.00     0.338 C 
ATOM     34  O   UNL A   1      33.128  34.445  28.720  1.00  0.00    -0.246 OA
BRANCH  33  35
ATOM     35  C   UNL A   1      34.864  32.872  28.386  1.00  0.00     0.060 A 
ATOM     36  C   UNL A   1      34.716  31.533  28.769  1.00  0.00     0.016 A 
ATOM     37  C   UNL A   1      36.118  33.484  28.422  1.00  0.00     0.016 A 
ATOM     38  C   UNL A   1      35.814  30.814  29.238  1.00  0.00     0.010 A 
ATOM     39  C   UNL A   1      37.219  32.763  28.894  1.00  0.00     0.010 A 
ATOM     40  C   UNL A   1      37.064  31.439  29.340  1.00  0.00    -0.014 A 
BRANCH  40  41
ATOM     41  C   UNL A   1      38.162  30.769  30.078  1.00  0.00     0.031 A 
ATOM     42  C   UNL A   1      38.398  31.145  31.514  1.00  0.00     0.074 A 
ATOM     43  C   UNL A   1      38.919  29.825  29.490  1.00  0.00     0.049 A 
ATOM     44  N   UNL A   1      39.333  30.746  32.337  1.00  0.00    -0.248 NA
ATOM     45  C   UNL A   1      37.449  32.106  32.103  1.00  0.00     0.031 C 
ATOM     46  C   UNL A   1      38.759  29.346  28.119  1.00  0.00     0.029 A 
ATOM     47  N   UNL A   1      39.984  29.108  29.977  1.00  0.00    -0.354 N 
ATOM     48  C   UNL A   1      39.088  31.406  33.535  1.00  0.00     0.074 A 
ATOM     49  C   UNL A   1      37.938  32.257  33.325  1.00  0.00     0.031 C 
ATOM     50  C   UNL A   1      39.707  28.425  27.867  1.00  0.00     0.029 A 
ATOM     51  C   UNL A   1      40.556  28.275  29.047  1.00  0.00     0.049 A 
ATOM     52  H   UNL A   1      40.306  29.185  30.904  1.00  0.00     0.167 HD
ATOM     53  C   UNL A   1      39.755  31.301  34.708  1.00  0.00     0.037 A 
ATOM     54  C   UNL A   1      41.655  27.502  29.137  1.00  0.00     0.037 A 
ATOM     55  C   UNL A   1      40.898  30.452  34.916  1.00  0.00     0.049 A 
ATOM     56  C   UNL A   1      42.422  27.455  30.436  1.00  0.00     0.074 A 
ATOM     57  C   UNL A   1      41.650  30.283  36.064  1.00  0.00     0.029 A 
ATOM     58  N   UNL A   1      41.453  29.630  33.947  1.00  0.00    -0.354 N 
ATOM     59  N   UNL A   1      42.177  28.075  31.565  1.00  0.00    -0.248 NA
ATOM     60  C   UNL A   1      43.616  26.598  30.472  1.00  0.00     0.031 C 
ATOM     61  C   UNL A   1      42.684  29.385  35.781  1.00  0.00     0.029 A 
ATOM     62  C   UNL A   1      42.545  28.959  34.470  1.00  0.00     0.049 A 
ATOM     63  H   UNL A   1      41.121  29.537  33.026  1.00  0.00     0.167 HD
ATOM     64  C   UNL A   1      43.161  27.655  32.453  1.00  0.00     0.074 A 
ATOM     65  C   UNL A   1      44.000  26.721  31.734  1.00  0.00     0.031 C 
ATOM     66  C   UNL A   1      43.352  28.011  33.746  1.00  0.00     0.037 A 
BRANCH  53  67
ATOM     67  C   UNL A   1      39.271  32.130  35.860  1.00  0.00     0.064 A 
ATOM     68  C   UNL A   1      38.325  31.637  36.771  1.00  0.00     0.173 A 
ATOM     69  C   UNL A   1      39.797  33.410  36.087  1.00  0.00     0.173 A 
ATOM     70  F   UNL A   1      37.781  30.424  36.588  1.00  0.00    -0.203 F 
ATOM     71  C   UNL A   1      37.913  32.401  37.858  1.00  0.00     0.198 A 
ATOM     72  C   UNL A   1      39.402  34.162  37.190  1.00  0.00     0.198 A 
ATOM     73  F   UNL A   1      40.706  33.927  35.246  1.00  0.00    -0.203 F 
ATOM     74  F   UNL A   1      36.982  31.924  38.697  1.00  0.00    -0.200 F 
ATOM     75  C   UNL A   1      38.458  33.659  38.072  1.00  0.00     0.200 A 
ATOM     76  F   UNL A   1      39.939  35.372  37.401  1.00  0.00    -0.200 F 
ATOM     77  F   UNL A   1      38.070  34.389  39.128  1.00  0.00    -0.200 F 
ENDBRANCH  53  67
BRANCH  54  78
ATOM     78  C   UNL A   1      42.122  26.722  27.959  1.00  0.00     0.064 A 
ATOM     79  C   UNL A   1      43.023  27.271  27.037  1.00  0.00     0.173 A 
ATOM     80  C   UNL A   1      41.637  25.430  27.707  1.00  0.00     0.173 A 
ATOM     81  F   UNL A   1      43.496  28.513  27.218  1.00  0.00    -0.203 F 
ATOM     82  C   UNL A   1      43.400  26.569  25.892  1.00  0.00     0.198 A 
ATOM     83  C   UNL A   1      42.038  24.717  26.579  1.00  0.00     0.198 A 
ATOM     84  F   UNL A   1      40.771  24.859  28.557  1.00  0.00    -0.203 F 
ATOM     85  F   UNL A   1      44.215  27.141  24.996  1.00  0.00    -0.200 F 
ATOM     86  C   UNL A   1      42.909  25.291  25.666  1.00  0.00     0.200 A 
ATOM     87  F   UNL A   1      41.570  23.480  26.370  1.00  0.00    -0.200 F 
ATOM     88  F   UNL A   1      43.266  24.620  24.563  1.00  0.00    -0.200 F 
ENDBRANCH  54  78
BRANCH  66  89
ATOM     89  C   UNL A   1      44.477  27.349  34.488  1.00  0.00     0.064 A 
ATOM     90  C   UNL A   1      45.754  27.924  34.558  1.00  0.00     0.173 A 
ATOM     91  C   UNL A   1      44.256  26.150  35.181  1.00  0.00     0.173 A 
ATOM     92  F   UNL A   1      46.019  29.063  33.903  1.00  0.00    -0.203 F 
ATOM     93  C   UNL A   1      46.776  27.309  35.277  1.00  0.00     0.198 A 
ATOM     94  C   UNL A   1      45.272  25.552  35.922  1.00  0.00     0.198 A 
ATOM     95  F   UNL A   1      43.049  25.564  35.152  1.00  0.00    -0.203 F 
ATOM     96  F   UNL A   1      48.001  27.851  35.295  1.00  0.00    -0.200 F 
ATOM     97  C   UNL A   1      46.532  26.129  35.964  1.00  0.00     0.200 A 
ATOM     98  F   UNL A   1      45.029  24.419  36.597  1.00  0.00    -0.200 F 
ATOM     99  F   UNL A   1      47.514  25.542  36.662  1.00  0.00    -0.200 F 
ENDBRANCH  66  89
ENDBRANCH  40  41
ENDBRANCH  33  35
ENDBRANCH  32  33
ENDBRANCH  31  32
ENDBRANCH  30  31
ENDBRANCH  29  30
ENDBRANCH   1  29
TORSDOF 18
ENDMDL
MODEL 2
REMARK VINA RESULT:     -11.5      1.614      2.964
REMARK SMILES CC(C)c1cc(C2CC[NH+](Cc3c[nH]nc3C(=O)OCCOCCOC(=O)c3ccc(-c4c5nc(c(-c6c(F)c(F)c(F)c(F)c6F)c6ccc([nH]6)c(-c6c(F)c(F)c(F)c(F)c6F)c6nc(c(-c7c(F)c(F)c(F)c(F)c7F)c7ccc4[nH]7)C=C6)C=C5)cc3)CC2)n[nH]1
REMARK SMILES IDX 21 1 20 2 19 3 17 4 18 5 16 6 12 7 13 8 14 9 15 10 11 12
REMARK SMILES IDX 10 13 7 14 8 15 92 16 9 17 91 18 6 20 4 21 5 22 94 23 93 24
REMARK SMILES IDX 2 26 1 27 3 28 22 29 23 30 24 31 25 32 26 33 27 34 28 35
REMARK SMILES IDX 29 36 90 37 30 38 89 39 31 40 32 41 33 42 83 43 34 44 88 45
REMARK SMILES IDX 82 46 84 47 35 48 87 49 81 50 80 51 36 53 68 54 48 55 67 56
REMARK SMILES IDX 49 57 52 58 66 59 85 60 50 61 51 62 65 64 86 65 53 66 37 67
REMARK SMILES IDX 38 68 46 69 39 70 40 71 44 72 47 73 41 74 42 75 45 76 43 77
REMARK SMILES IDX 69 78 70 79 78 80 71 81 72 82 76 83 79 84 73 85 74 86 77 87
REMARK SMILES IDX 75 88 54 89 55 90 63 91 56 92 57 93 61 94 64 95 58 96 59 97
REMARK SMILES IDX 62 98 60 99
REMARK H PARENT 14 11 10 19 94 25 84 52 52 63
REMARK Flexibility Score: inf
ROOT
ATOM      1  C   UNL A   1      32.573  30.694  27.016  1.00  0.00     0.202 C 
ENDROOT
BRANCH   1   2
ATOM      2  C   UNL A   1      33.123  29.678  26.014  1.00  0.00     0.261 C 
BRANCH   2   3
ATOM      3  O   UNL A   1      32.246  29.530  24.883  1.00  0.00    -0.458 OA
BRANCH   3   4
ATOM      4  C   UNL A   1      32.305  28.298  24.292  1.00  0.00     0.359 C 
ATOM      5  O   UNL A   1      33.359  27.707  24.076  1.00  0.00    -0.244 OA
BRANCH   4   6
ATOM      6  C   UNL A   1      30.987  27.709  23.981  1.00  0.00     0.178 A 
ATOM      7  C   UNL A   1      30.365  26.455  24.349  1.00  0.00     0.059 A 
ATOM      8  C   UNL A   1      29.047  26.646  23.956  1.00  0.00     0.115 A 
ATOM      9  N   UNL A   1      28.996  27.787  23.226  1.00  0.00    -0.284 N 
ATOM     10  N   UNL A   1      30.146  28.450  23.225  1.00  0.00    -0.168 NA
ATOM     11  H   UNL A   1      28.193  28.092  22.747  1.00  0.00     0.189 HD
BRANCH   7  12
ATOM     12  C   UNL A   1      30.899  25.280  25.140  1.00  0.00     0.303 C 
BRANCH  12  13
ATOM     13  N   UNL A   1      32.257  24.807  24.767  1.00  0.00    -0.331 N 
ATOM     14  C   UNL A   1      34.348  22.727  24.459  1.00  0.00     0.051 C 
ATOM     15  C   UNL A   1      34.479  23.824  25.514  1.00  0.00     0.071 C 
ATOM     16  C   UNL A   1      33.653  23.351  23.242  1.00  0.00     0.071 C 
ATOM     17  C   UNL A   1      33.129  24.436  25.882  1.00  0.00     0.263 C 
ATOM     18  C   UNL A   1      32.283  23.962  23.575  1.00  0.00     0.263 C 
ATOM     19  H   UNL A   1      32.747  25.642  24.444  1.00  0.00     0.348 HD
BRANCH  14  20
ATOM     20  C   UNL A   1      33.656  21.460  24.914  1.00  0.00     0.066 A 
ATOM     21  C   UNL A   1      32.840  19.387  24.920  1.00  0.00     0.038 A 
ATOM     22  C   UNL A   1      32.978  20.501  24.131  1.00  0.00     0.049 A 
ATOM     23  N   UNL A   1      33.223  19.796  26.167  1.00  0.00    -0.282 N 
ATOM     24  N   UNL A   1      33.758  21.036  26.182  1.00  0.00    -0.180 NA
ATOM     25  H   UNL A   1      33.121  19.242  26.973  1.00  0.00     0.190 HD
BRANCH  21  26
ATOM     26  C   UNL A   1      32.443  18.004  24.513  1.00  0.00     0.031 C 
ATOM     27  C   UNL A   1      33.120  17.553  23.223  1.00  0.00     0.014 C 
ATOM     28  C   UNL A   1      32.635  17.000  25.642  1.00  0.00     0.014 C 
ENDBRANCH  21  26
ENDBRANCH  14  20
ENDBRANCH  12  13
ENDBRANCH   7  12
ENDBRANCH   4   6
ENDBRANCH   3   4
ENDBRANCH   2   3
ENDBRANCH   1   2
BRANCH   1  29
ATOM     29  O   UNL A   1      31.465  31.470  26.566  1.00  0.00    -0.374 OA
BRANCH  29  30
ATOM     30  C   UNL A   1      31.612  32.892  26.596  1.00  0.00     0.202 C 
BRANCH  30  31
ATOM     31  C   UNL A   1      32.842  33.414  27.348  1.00  0.00     0.261 C 
BRANCH  31  32
ATOM     32  O   UNL A   1      32.460  34.265  28.446  1.00  0.00    -0.460 OA
BRANCH  32  33
ATOM     33  C   UNL A   1      33.473  34.970  29.009  1.00  0.00     0.338 C 
ATOM     34  O   UNL A   1      33.455  36.130  29.376  1.00  0.00    -0.246 OA
BRANCH  33  35
ATOM     35  C   UNL A   1      34.592  34.057  29.311  1.00  0.00     0.060 A 
ATOM     36  C   UNL A   1      34.315  32.920  30.082  1.00  0.00     0.016 A 
ATOM     37  C   UNL A   1      35.896  34.327  28.892  1.00  0.00     0.016 A 
ATOM     38  C   UNL A   1      35.349  32.076  30.480  1.00  0.00     0.010 A 
ATOM     39  C   UNL A   1      36.934  33.480  29.292  1.00  0.00     0.010 A 
ATOM     40  C   UNL A   1      36.670  32.374  30.119  1.00  0.00    -0.014 A 
BRANCH  40  41
ATOM     41  C   UNL A   1      37.789  31.636  30.754  1.00  0.00     0.031 A 
ATOM     42  C   UNL A   1      38.163  31.976  32.171  1.00  0.00     0.074 A 
ATOM     43  C   UNL A   1      38.445  30.666  30.093  1.00  0.00     0.049 A 
ATOM     44  N   UNL A   1      39.140  31.515  32.908  1.00  0.00    -0.248 NA
ATOM     45  C   UNL A   1      37.317  32.973  32.850  1.00  0.00     0.031 C 
ATOM     46  C   UNL A   1      38.148  30.220  28.734  1.00  0.00     0.029 A 
ATOM     47  N   UNL A   1      39.507  29.887  30.480  1.00  0.00    -0.354 N 
ATOM     48  C   UNL A   1      39.029  32.166  34.130  1.00  0.00     0.074 A 
ATOM     49  C   UNL A   1      37.912  33.078  34.028  1.00  0.00     0.031 C 
ATOM     50  C   UNL A   1      39.022  29.256  28.392  1.00  0.00     0.029 A 
ATOM     51  C   UNL A   1      39.957  29.043  29.495  1.00  0.00     0.049 A 
ATOM     52  H   UNL A   1      39.909  29.932  31.378  1.00  0.00     0.167 HD
ATOM     53  C   UNL A   1      39.785  32.006  35.242  1.00  0.00     0.037 A 
ATOM     54  C   UNL A   1      41.018  28.213  29.483  1.00  0.00     0.037 A 
ATOM     55  C   UNL A   1      40.895  31.097  35.343  1.00  0.00     0.049 A 
ATOM     56  C   UNL A   1      41.886  28.106  30.713  1.00  0.00     0.074 A 
ATOM     57  C   UNL A   1      41.729  30.870  36.422  1.00  0.00     0.029 A 
ATOM     58  N   UNL A   1      41.325  30.265  34.321  1.00  0.00    -0.354 N 
ATOM     59  N   UNL A   1      41.768  28.717  31.866  1.00  0.00    -0.248 NA
ATOM     60  C   UNL A   1      43.033  27.188  30.638  1.00  0.00     0.031 C 
ATOM     61  C   UNL A   1      42.689  29.926  36.042  1.00  0.00     0.029 A 
ATOM     62  C   UNL A   1      42.420  29.530  34.742  1.00  0.00     0.049 A 
ATOM     63  H   UNL A   1      40.913  30.205  33.429  1.00  0.00     0.167 HD
ATOM     64  C   UNL A   1      42.799  28.232  32.663  1.00  0.00     0.074 A 
ATOM     65  C   UNL A   1      43.526  27.269  31.865  1.00  0.00     0.031 C 
ATOM     66  C   UNL A   1      43.114  28.556  33.941  1.00  0.00     0.037 A 
BRANCH  53  67
ATOM     67  C   UNL A   1      39.441  32.839  36.441  1.00  0.00     0.064 A 
ATOM     68  C   UNL A   1      38.481  32.418  37.374  1.00  0.00     0.173 A 
ATOM     69  C   UNL A   1      40.115  34.043  36.689  1.00  0.00     0.173 A 
ATOM     70  F   UNL A   1      37.798  31.281  37.173  1.00  0.00    -0.203 F 
ATOM     71  C   UNL A   1      38.199  33.181  38.503  1.00  0.00     0.198 A 
ATOM     72  C   UNL A   1      39.849  34.791  37.833  1.00  0.00     0.198 A 
ATOM     73  F   UNL A   1      41.044  34.488  35.829  1.00  0.00    -0.203 F 
ATOM     74  F   UNL A   1      37.254  32.778  39.364  1.00  0.00    -0.200 F 
ATOM     75  C   UNL A   1      38.889  34.362  38.736  1.00  0.00     0.200 A 
ATOM     76  F   UNL A   1      40.526  35.925  38.063  1.00  0.00    -0.200 F 
ATOM     77  F   UNL A   1      38.626  35.089  39.832  1.00  0.00    -0.200 F 
ENDBRANCH  53  67
BRANCH  54  78
ATOM     78  C   UNL A   1      41.345  27.432  28.260  1.00  0.00     0.064 A 
ATOM     79  C   UNL A   1      42.198  27.948  27.275  1.00  0.00     0.173 A 
ATOM     80  C   UNL A   1      40.771  26.172  28.030  1.00  0.00     0.173 A 
ATOM     81  F   UNL A   1      42.752  29.159  27.435  1.00  0.00    -0.203 F 
ATOM     82  C   UNL A   1      42.442  27.248  26.094  1.00  0.00     0.198 A 
ATOM     83  C   UNL A   1      41.040  25.460  26.863  1.00  0.00     0.198 A 
ATOM     84  F   UNL A   1      39.945  25.633  28.939  1.00  0.00    -0.203 F 
ATOM     85  F   UNL A   1      43.213  27.792  25.143  1.00  0.00    -0.200 F 
ATOM     86  C   UNL A   1      41.865  26.003  25.891  1.00  0.00     0.200 A 
ATOM     87  F   UNL A   1      40.488  24.254  26.675  1.00  0.00    -0.200 F 
ATOM     88  F   UNL A   1      42.094  25.335  24.753  1.00  0.00    -0.200 F 
ENDBRANCH  54  78
BRANCH  66  89
ATOM     89  C   UNL A   1      44.261  27.825  34.577  1.00  0.00     0.064 A 
ATOM     90  C   UNL A   1      45.552  28.369  34.618  1.00  0.00     0.173 A 
ATOM     91  C   UNL A   1      44.048  26.587  35.201  1.00  0.00     0.173 A 
ATOM     92  F   UNL A   1      45.809  29.544  34.025  1.00  0.00    -0.203 F 
ATOM     93  C   UNL A   1      46.595  27.688  35.240  1.00  0.00     0.198 A 
ATOM     94  C   UNL A   1      45.087  25.922  35.847  1.00  0.00     0.198 A 
ATOM     95  F   UNL A   1      42.828  26.027  35.198  1.00  0.00    -0.203 F 
ATOM     96  F   UNL A   1      47.831  28.205  35.229  1.00  0.00    -0.200 F 
ATOM     97  C   UNL A   1      46.360  26.470  35.860  1.00  0.00     0.200 A 
ATOM     98  F   UNL A   1      44.854  24.751  36.459  1.00  0.00    -0.200 F 
ATOM     99  F   UNL A   1      47.363  25.820  36.466  1.00  0.00    -0.200 F 
ENDBRANCH  66  89
ENDBRANCH  40  41
ENDBRANCH  33  35
ENDBRANCH  32  33
ENDBRANCH  31  32
ENDBRANCH  30  31
ENDBRANCH  29  30
ENDBRANCH   1  29
TORSDOF 18
ENDMDL
MODEL 3
REMARK VINA RESULT:     -11.5      4.441      9.872
REMARK SMILES CC(C)c1cc(C2CC[NH+](Cc3c[nH]nc3C(=O)OCCOCCOC(=O)c3ccc(-c4c5nc(c(-c6c(F)c(F)c(F)c(F)c6F)c6ccc([nH]6)c(-c6c(F)c(F)c(F)c(F)c6F)c6nc(c(-c7c(F)c(F)c(F)c(F)c7F)c7ccc4[nH]7)C=C6)C=C5)cc3)CC2)n[nH]1
REMARK SMILES IDX 21 1 20 2 19 3 17 4 18 5 16 6 12 7 13 8 14 9 15 10 11 12
REMARK SMILES IDX 10 13 7 14 8 15 92 16 9 17 91 18 6 20 4 21 5 22 94 23 93 24
REMARK SMILES IDX 2 26 1 27 3 28 22 29 23 30 24 31 25 32 26 33 27 34 28 35
REMARK SMILES IDX 29 36 90 37 30 38 89 39 31 40 32 41 33 42 83 43 34 44 88 45
REMARK SMILES IDX 82 46 84 47 35 48 87 49 81 50 80 51 36 53 68 54 48 55 67 56
REMARK SMILES IDX 49 57 52 58 66 59 85 60 50 61 51 62 65 64 86 65 53 66 37 67
REMARK SMILES IDX 38 68 46 69 39 70 40 71 44 72 47 73 41 74 42 75 45 76 43 77
REMARK SMILES IDX 69 78 70 79 78 80 71 81 72 82 76 83 79 84 73 85 74 86 77 87
REMARK SMILES IDX 75 88 54 89 55 90 63 91 56 92 57 93 61 94 64 95 58 96 59 97
REMARK SMILES IDX 62 98 60 99
REMARK H PARENT 14 11 10 19 94 25 84 52 52 63
REMARK Flexibility Score: inf
ROOT
ATOM      1  C   UNL A   1      36.424  21.678  24.772  1.00  0.00     0.202 C 
ENDROOT
BRANCH   1   2
ATOM      2  C   UNL A   1      36.155  22.982  25.525  1.00  0.00     0.261 C 
BRANCH   2   3
ATOM      3  O   UNL A   1      34.797  23.422  25.341  1.00  0.00    -0.458 OA
BRANCH   3   4
ATOM      4  C   UNL A   1      33.860  22.479  25.664  1.00  0.00     0.359 C 
ATOM      5  O   UNL A   1      33.652  22.106  26.815  1.00  0.00    -0.244 OA
BRANCH   4   6
ATOM      6  C   UNL A   1      33.078  21.980  24.514  1.00  0.00     0.178 A 
ATOM      7  C   UNL A   1      32.637  22.607  23.286  1.00  0.00     0.059 A 
ATOM      8  C   UNL A   1      32.189  21.525  22.540  1.00  0.00     0.115 A 
ATOM      9  N   UNL A   1      32.157  20.446  23.359  1.00  0.00    -0.284 N 
ATOM     10  N   UNL A   1      32.687  20.687  24.551  1.00  0.00    -0.168 NA
ATOM     11  H   UNL A   1      31.781  19.575  23.097  1.00  0.00     0.189 HD
BRANCH   7  12
ATOM     12  C   UNL A   1      32.783  24.031  22.794  1.00  0.00     0.303 C 
BRANCH  12  13
ATOM     13  N   UNL A   1      32.744  25.088  23.838  1.00  0.00    -0.331 N 
ATOM     14  C   UNL A   1      31.949  27.742  24.896  1.00  0.00     0.051 C 
ATOM     15  C   UNL A   1      33.407  27.435  24.558  1.00  0.00     0.071 C 
ATOM     16  C   UNL A   1      31.327  26.447  25.432  1.00  0.00     0.071 C 
ATOM     17  C   UNL A   1      33.539  26.285  23.560  1.00  0.00     0.263 C 
ATOM     18  C   UNL A   1      31.427  25.273  24.445  1.00  0.00     0.263 C 
ATOM     19  H   UNL A   1      33.283  24.708  24.616  1.00  0.00     0.348 HD
BRANCH  14  20
ATOM     20  C   UNL A   1      31.128  28.339  23.773  1.00  0.00     0.066 A 
ATOM     21  C   UNL A   1      29.454  29.308  22.669  1.00  0.00     0.038 A 
ATOM     22  C   UNL A   1      29.723  28.374  23.637  1.00  0.00     0.049 A 
ATOM     23  N   UNL A   1      30.673  29.609  22.129  1.00  0.00    -0.282 N 
ATOM     24  N   UNL A   1      31.706  29.064  22.806  1.00  0.00    -0.180 NA
ATOM     25  H   UNL A   1      30.787  30.169  21.327  1.00  0.00     0.190 HD
BRANCH  21  26
ATOM     26  C   UNL A   1      28.141  29.933  22.321  1.00  0.00     0.031 C 
ATOM     27  C   UNL A   1      27.621  30.860  23.415  1.00  0.00     0.014 C 
ATOM     28  C   UNL A   1      28.177  30.617  20.961  1.00  0.00     0.014 C 
ENDBRANCH  21  26
ENDBRANCH  14  20
ENDBRANCH  12  13
ENDBRANCH   7  12
ENDBRANCH   4   6
ENDBRANCH   3   4
ENDBRANCH   2   3
ENDBRANCH   1   2
BRANCH   1  29
ATOM     29  O   UNL A   1      37.772  21.218  24.792  1.00  0.00    -0.374 OA
BRANCH  29  30
ATOM     30  C   UNL A   1      37.978  19.811  24.945  1.00  0.00     0.202 C 
BRANCH  30  31
ATOM     31  C   UNL A   1      39.282  19.405  25.642  1.00  0.00     0.261 C 
BRANCH  31  32
ATOM     32  O   UNL A   1      40.134  20.546  25.859  1.00  0.00    -0.460 OA
BRANCH  32  33
ATOM     33  C   UNL A   1      40.795  20.556  27.043  1.00  0.00     0.338 C 
ATOM     34  O   UNL A   1      41.303  19.611  27.618  1.00  0.00    -0.246 OA
BRANCH  33  35
ATOM     35  C   UNL A   1      40.996  21.953  27.476  1.00  0.00     0.060 A 
ATOM     36  C   UNL A   1      40.268  22.950  26.815  1.00  0.00     0.016 A 
ATOM     37  C   UNL A   1      41.912  22.289  28.475  1.00  0.00     0.016 A 
ATOM     38  C   UNL A   1      40.490  24.292  27.114  1.00  0.00     0.010 A 
ATOM     39  C   UNL A   1      42.136  23.636  28.774  1.00  0.00     0.010 A 
ATOM     40  C   UNL A   1      41.455  24.643  28.068  1.00  0.00    -0.014 A 
BRANCH  40  41
ATOM     41  C   UNL A   1      41.878  26.059  28.198  1.00  0.00     0.031 A 
ATOM     42  C   UNL A   1      43.221  26.461  27.652  1.00  0.00     0.074 A 
ATOM     43  C   UNL A   1      41.075  26.974  28.768  1.00  0.00     0.049 A 
ATOM     44  N   UNL A   1      43.830  27.617  27.707  1.00  0.00    -0.248 NA
ATOM     45  C   UNL A   1      43.981  25.414  26.948  1.00  0.00     0.031 C 
ATOM     46  C   UNL A   1      39.738  26.715  29.295  1.00  0.00     0.029 A 
ATOM     47  N   UNL A   1      41.279  28.312  29.005  1.00  0.00    -0.354 N 
ATOM     48  C   UNL A   1      45.041  27.436  27.050  1.00  0.00     0.074 A 
ATOM     49  C   UNL A   1      45.098  26.053  26.634  1.00  0.00     0.031 C 
ATOM     50  C   UNL A   1      39.245  27.855  29.813  1.00  0.00     0.029 A 
ATOM     51  C   UNL A   1      40.245  28.913  29.681  1.00  0.00     0.049 A 
ATOM     52  H   UNL A   1      42.088  28.793  28.719  1.00  0.00     0.167 HD
ATOM     53  C   UNL A   1      46.012  28.347  26.806  1.00  0.00     0.037 A 
ATOM     54  C   UNL A   1      40.136  30.168  30.159  1.00  0.00     0.037 A 
ATOM     55  C   UNL A   1      45.953  29.724  27.219  1.00  0.00     0.049 A 
ATOM     56  C   UNL A   1      41.263  31.145  29.933  1.00  0.00     0.074 A 
ATOM     57  C   UNL A   1      46.890  30.723  27.029  1.00  0.00     0.029 A 
ATOM     58  N   UNL A   1      44.894  30.293  27.910  1.00  0.00    -0.354 N 
ATOM     59  N   UNL A   1      42.399  30.968  29.303  1.00  0.00    -0.248 NA
ATOM     60  C   UNL A   1      41.090  32.498  30.482  1.00  0.00     0.031 C 
ATOM     61  C   UNL A   1      46.414  31.890  27.636  1.00  0.00     0.029 A 
ATOM     62  C   UNL A   1      45.159  31.628  28.162  1.00  0.00     0.049 A 
ATOM     63  H   UNL A   1      44.074  29.819  28.180  1.00  0.00     0.167 HD
ATOM     64  C   UNL A   1      43.056  32.192  29.348  1.00  0.00     0.074 A 
ATOM     65  C   UNL A   1      42.188  33.106  30.058  1.00  0.00     0.031 C 
ATOM     66  C   UNL A   1      44.270  32.529  28.847  1.00  0.00     0.037 A 
BRANCH  53  67
ATOM     67  C   UNL A   1      47.228  27.884  26.061  1.00  0.00     0.064 A 
ATOM     68  C   UNL A   1      48.387  27.471  26.736  1.00  0.00     0.173 A 
ATOM     69  C   UNL A   1      47.217  27.800  24.661  1.00  0.00     0.173 A 
ATOM     70  F   UNL A   1      48.452  27.547  28.074  1.00  0.00    -0.203 F 
ATOM     71  C   UNL A   1      49.495  27.006  26.035  1.00  0.00     0.198 A 
ATOM     72  C   UNL A   1      48.318  27.309  23.964  1.00  0.00     0.198 A 
ATOM     73  F   UNL A   1      46.133  28.180  23.969  1.00  0.00    -0.203 F 
ATOM     74  F   UNL A   1      50.604  26.649  26.698  1.00  0.00    -0.200 F 
ATOM     75  C   UNL A   1      49.457  26.917  24.651  1.00  0.00     0.200 A 
ATOM     76  F   UNL A   1      48.275  27.213  22.628  1.00  0.00    -0.200 F 
ATOM     77  F   UNL A   1      50.521  26.455  23.978  1.00  0.00    -0.200 F 
ENDBRANCH  53  67
BRANCH  54  78
ATOM     78  C   UNL A   1      38.927  30.576  30.923  1.00  0.00     0.064 A 
ATOM     79  C   UNL A   1      37.805  31.111  30.274  1.00  0.00     0.173 A 
ATOM     80  C   UNL A   1      38.888  30.484  32.322  1.00  0.00     0.173 A 
ATOM     81  F   UNL A   1      37.803  31.245  28.939  1.00  0.00    -0.203 F 
ATOM     82  C   UNL A   1      36.703  31.566  30.997  1.00  0.00     0.198 A 
ATOM     83  C   UNL A   1      37.773  30.910  33.042  1.00  0.00     0.198 A 
ATOM     84  F   UNL A   1      39.935  29.982  32.992  1.00  0.00    -0.203 F 
ATOM     85  F   UNL A   1      35.670  32.129  30.356  1.00  0.00    -0.200 F 
ATOM     86  C   UNL A   1      36.687  31.462  32.380  1.00  0.00     0.200 A 
ATOM     87  F   UNL A   1      37.758  30.799  34.376  1.00  0.00    -0.200 F 
ATOM     88  F   UNL A   1      35.631  31.905  33.074  1.00  0.00    -0.200 F 
ENDBRANCH  54  78
BRANCH  66  89
ATOM     89  C   UNL A   1      44.709  33.957  28.997  1.00  0.00     0.064 A 
ATOM     90  C   UNL A   1      44.374  34.935  28.050  1.00  0.00     0.173 A 
ATOM     91  C   UNL A   1      45.428  34.358  30.132  1.00  0.00     0.173 A 
ATOM     92  F   UNL A   1      43.697  34.599  26.942  1.00  0.00    -0.203 F 
ATOM     93  C   UNL A   1      44.765  36.260  28.223  1.00  0.00     0.198 A 
ATOM     94  C   UNL A   1      45.793  35.689  30.317  1.00  0.00     0.198 A 
ATOM     95  F   UNL A   1      45.765  33.461  31.072  1.00  0.00    -0.203 F 
ATOM     96  F   UNL A   1      44.473  37.171  27.285  1.00  0.00    -0.200 F 
ATOM     97  C   UNL A   1      45.466  36.637  29.359  1.00  0.00     0.200 A 
ATOM     98  F   UNL A   1      46.458  36.054  31.422  1.00  0.00    -0.200 F 
ATOM     99  F   UNL A   1      45.835  37.915  29.528  1.00  0.00    -0.200 F 
ENDBRANCH  66  89
ENDBRANCH  40  41
ENDBRANCH  33  35
ENDBRANCH  32  33
ENDBRANCH  31  32
ENDBRANCH  30  31
ENDBRANCH  29  30
ENDBRANCH   1  29
TORSDOF 18
ENDMDL
