MODEL 1
REMARK VINA RESULT:     -11.5      0.000      0.000
REMARK SMILES O=C(OCCOCCOC(=O)[C@@H]1O[C@H](OC(=O)c2cccnc2)[C@@H](O)[C@H](O)[C@H]1O)c1ccc(-c2c3nc(c(-c4c(F)c(F)c(F)c(F)c4F)c4ccc([nH]4)c(-c4c(F)c(F)c(F)c(F)c4F)c4nc(c(-c5c(F)c(F)c(F)c(F)c5F)c5ccc2[nH]5)C=C4)C=C3)cc1
REMARK SMILES IDX 7 1 6 2 5 3 4 4 3 5 2 6 1 7 30 8 31 9 92 10 32 11 91 12
REMARK SMILES IDX 33 13 34 14 35 15 85 16 36 17 90 18 84 19 86 20 37 21 89 22
REMARK SMILES IDX 83 23 82 24 38 26 70 27 50 28 69 29 51 30 54 31 68 32 87 33
REMARK SMILES IDX 52 34 53 35 67 37 88 38 55 39 39 40 40 41 48 42 41 43 42 44
REMARK SMILES IDX 46 45 49 46 43 47 44 48 47 49 45 50 71 51 72 52 80 53 73 54
REMARK SMILES IDX 74 55 78 56 81 57 75 58 76 59 79 60 77 61 56 62 57 63 65 64
REMARK SMILES IDX 58 65 59 66 63 67 66 68 60 69 61 70 64 71 62 72 8 73 9 74
REMARK SMILES IDX 10 75 11 76 12 77 13 78 28 79 14 80 26 81 24 82 29 83 15 85
REMARK SMILES IDX 16 86 17 87 18 88 19 89 23 90 20 91 22 92 21 93 27 94 25 96
REMARK H PARENT 86 25 54 36 29 84 27 95 25 97
REMARK Flexibility Score: inf
ROOT
ATOM      1  C   UNL A   1      32.998  28.895  27.617  1.00  0.00     0.202 C 
ENDROOT
BRANCH   1   2
ATOM      2  O   UNL A   1      33.048  30.005  26.706  1.00  0.00    -0.374 OA
BRANCH   2   3
ATOM      3  C   UNL A   1      31.818  30.699  26.465  1.00  0.00     0.202 C 
BRANCH   3   4
ATOM      4  C   UNL A   1      31.620  32.087  27.087  1.00  0.00     0.261 C 
BRANCH   4   5
ATOM      5  O   UNL A   1      32.790  32.906  26.939  1.00  0.00    -0.460 OA
BRANCH   5   6
ATOM      6  C   UNL A   1      33.509  33.495  27.926  1.00  0.00     0.338 C 
ATOM      7  O   UNL A   1      33.171  34.595  28.350  1.00  0.00    -0.246 OA
BRANCH   6   8
ATOM      8  C   UNL A   1      34.708  32.843  28.521  1.00  0.00     0.060 A 
ATOM      9  C   UNL A   1      34.689  31.582  29.116  1.00  0.00     0.016 A 
ATOM     10  C   UNL A   1      35.938  33.506  28.412  1.00  0.00     0.016 A 
ATOM     11  C   UNL A   1      35.811  31.036  29.701  1.00  0.00     0.010 A 
ATOM     12  C   UNL A   1      37.100  32.932  28.936  1.00  0.00     0.010 A 
ATOM     13  C   UNL A   1      37.024  31.704  29.604  1.00  0.00    -0.014 A 
BRANCH  13  14
ATOM     14  C   UNL A   1      38.166  31.099  30.300  1.00  0.00     0.031 A 
ATOM     15  C   UNL A   1      38.322  31.357  31.763  1.00  0.00     0.074 A 
ATOM     16  C   UNL A   1      38.917  30.195  29.645  1.00  0.00     0.049 A 
ATOM     17  N   UNL A   1      39.251  30.943  32.579  1.00  0.00    -0.248 NA
ATOM     18  C   UNL A   1      37.276  32.175  32.400  1.00  0.00     0.031 C 
ATOM     19  C   UNL A   1      38.715  29.785  28.252  1.00  0.00     0.029 A 
ATOM     20  N   UNL A   1      39.963  29.426  30.070  1.00  0.00    -0.354 N 
ATOM     21  C   UNL A   1      38.925  31.480  33.814  1.00  0.00     0.074 A 
ATOM     22  C   UNL A   1      37.706  32.240  33.651  1.00  0.00     0.031 C 
ATOM     23  C   UNL A   1      39.592  28.815  27.948  1.00  0.00     0.029 A 
ATOM     24  C   UNL A   1      40.464  28.600  29.095  1.00  0.00     0.049 A 
ATOM     25  H   UNL A   1      40.324  29.462  30.986  1.00  0.00     0.167 HD
ATOM     26  C   UNL A   1      39.605  31.351  34.975  1.00  0.00     0.037 A 
ATOM     27  C   UNL A   1      41.540  27.793  29.127  1.00  0.00     0.037 A 
ATOM     28  C   UNL A   1      40.813  30.582  35.092  1.00  0.00     0.049 A 
ATOM     29  C   UNL A   1      42.331  27.745  30.405  1.00  0.00     0.074 A 
ATOM     30  C   UNL A   1      41.649  30.435  36.182  1.00  0.00     0.029 A 
ATOM     31  N   UNL A   1      41.351  29.818  34.062  1.00  0.00    -0.354 N 
ATOM     32  N   UNL A   1      42.081  28.330  31.553  1.00  0.00    -0.248 NA
ATOM     33  C   UNL A   1      43.563  26.948  30.390  1.00  0.00     0.031 C 
ATOM     34  C   UNL A   1      42.715  29.614  35.799  1.00  0.00     0.029 A 
ATOM     35  C   UNL A   1      42.518  29.208  34.486  1.00  0.00     0.049 A 
ATOM     36  H   UNL A   1      40.961  29.724  33.164  1.00  0.00     0.167 HD
ATOM     37  C   UNL A   1      43.115  27.968  32.401  1.00  0.00     0.074 A 
ATOM     38  C   UNL A   1      43.983  27.089  31.640  1.00  0.00     0.031 C 
ATOM     39  C   UNL A   1      43.340  28.332  33.687  1.00  0.00     0.037 A 
BRANCH  26  40
ATOM     40  C   UNL A   1      39.100  32.124  36.155  1.00  0.00     0.064 A 
ATOM     41  C   UNL A   1      39.537  33.426  36.435  1.00  0.00     0.173 A 
ATOM     42  C   UNL A   1      38.186  31.533  37.039  1.00  0.00     0.173 A 
ATOM     43  F   UNL A   1      40.438  34.023  35.640  1.00  0.00    -0.203 F 
ATOM     44  C   UNL A   1      39.094  34.100  37.572  1.00  0.00     0.198 A 
ATOM     45  C   UNL A   1      37.726  32.217  38.161  1.00  0.00     0.198 A 
ATOM     46  F   UNL A   1      37.747  30.284  36.823  1.00  0.00    -0.203 F 
ATOM     47  F   UNL A   1      39.566  35.323  37.851  1.00  0.00    -0.200 F 
ATOM     48  C   UNL A   1      38.186  33.498  38.431  1.00  0.00     0.200 A 
ATOM     49  F   UNL A   1      36.851  31.633  38.990  1.00  0.00    -0.200 F 
ATOM     50  F   UNL A   1      37.767  34.145  39.528  1.00  0.00    -0.200 F 
ENDBRANCH  26  40
BRANCH  27  51
ATOM     51  C   UNL A   1      41.956  27.042  27.913  1.00  0.00     0.064 A 
ATOM     52  C   UNL A   1      41.512  25.734  27.673  1.00  0.00     0.173 A 
ATOM     53  C   UNL A   1      42.822  27.614  26.966  1.00  0.00     0.173 A 
ATOM     54  F   UNL A   1      40.702  25.131  28.554  1.00  0.00    -0.203 F 
ATOM     55  C   UNL A   1      41.930  25.025  26.547  1.00  0.00     0.198 A 
ATOM     56  C   UNL A   1      43.212  26.918  25.824  1.00  0.00     0.198 A 
ATOM     57  F   UNL A   1      43.282  28.862  27.143  1.00  0.00    -0.203 F 
ATOM     58  F   UNL A   1      41.530  23.759  26.370  1.00  0.00    -0.200 F 
ATOM     59  C   UNL A   1      42.775  25.619  25.621  1.00  0.00     0.200 A 
ATOM     60  F   UNL A   1      44.016  27.504  24.927  1.00  0.00    -0.200 F 
ATOM     61  F   UNL A   1      43.175  24.938  24.539  1.00  0.00    -0.200 F 
ENDBRANCH  27  51
BRANCH  39  62
ATOM     62  C   UNL A   1      44.552  27.753  34.345  1.00  0.00     0.064 A 
ATOM     63  C   UNL A   1      45.783  28.424  34.328  1.00  0.00     0.173 A 
ATOM     64  C   UNL A   1      44.465  26.539  35.042  1.00  0.00     0.173 A 
ATOM     65  F   UNL A   1      45.914  29.580  33.659  1.00  0.00    -0.203 F 
ATOM     66  C   UNL A   1      46.894  27.886  34.970  1.00  0.00     0.198 A 
ATOM     67  C   UNL A   1      45.571  26.020  35.706  1.00  0.00     0.198 A 
ATOM     68  F   UNL A   1      43.305  25.869  35.090  1.00  0.00    -0.203 F 
ATOM     69  F   UNL A   1      48.073  28.520  34.907  1.00  0.00    -0.200 F 
ATOM     70  C   UNL A   1      46.784  26.690  35.665  1.00  0.00     0.200 A 
ATOM     71  F   UNL A   1      45.461  24.871  36.388  1.00  0.00    -0.200 F 
ATOM     72  F   UNL A   1      47.853  26.180  36.291  1.00  0.00    -0.200 F 
ENDBRANCH  39  62
ENDBRANCH  13  14
ENDBRANCH   6   8
ENDBRANCH   5   6
ENDBRANCH   4   5
ENDBRANCH   3   4
ENDBRANCH   2   3
ENDBRANCH   1   2
BRANCH   1  73
ATOM     73  C   UNL A   1      31.604  28.256  27.618  1.00  0.00     0.261 C 
BRANCH  73  74
ATOM     74  O   UNL A   1      31.737  26.890  27.211  1.00  0.00    -0.461 OA
BRANCH  74  75
ATOM     75  C   UNL A   1      30.975  26.580  26.132  1.00  0.00     0.338 C 
ATOM     76  O   UNL A   1      30.185  25.641  26.100  1.00  0.00    -0.249 OA
BRANCH  75  77
ATOM     77  C   UNL A   1      31.110  27.613  25.015  1.00  0.00     0.263 C 
ATOM     78  O   UNL A   1      29.882  27.596  24.298  1.00  0.00    -0.322 OA
ATOM     79  C   UNL A   1      32.309  27.431  24.071  1.00  0.00     0.186 C 
ATOM     80  C   UNL A   1      29.769  28.529  23.234  1.00  0.00     0.343 C 
ATOM     81  C   UNL A   1      32.277  28.586  23.068  1.00  0.00     0.181 C 
ATOM     82  C   UNL A   1      30.979  28.579  22.272  1.00  0.00     0.214 C 
BRANCH  79  83
ATOM     83  O   UNL A   1      33.581  27.505  24.721  1.00  0.00    -0.387 OA
ATOM     84  H   UNL A   1      33.452  27.530  25.682  1.00  0.00     0.211 HD
ENDBRANCH  79  83
BRANCH  80  85
ATOM     85  O   UNL A   1      28.561  28.257  22.508  1.00  0.00    -0.429 OA
BRANCH  85  86
ATOM     86  C   UNL A   1      27.510  29.041  22.855  1.00  0.00     0.342 C 
ATOM     87  O   UNL A   1      26.527  28.721  23.502  1.00  0.00    -0.246 OA
BRANCH  86  88
ATOM     88  C   UNL A   1      27.753  30.406  22.386  1.00  0.00     0.078 A 
ATOM     89  C   UNL A   1      27.869  30.728  21.034  1.00  0.00     0.019 A 
ATOM     90  C   UNL A   1      27.847  31.422  23.325  1.00  0.00     0.126 A 
ATOM     91  C   UNL A   1      28.071  32.057  20.675  1.00  0.00     0.021 A 
ATOM     92  N   UNL A   1      28.052  32.720  23.001  1.00  0.00    -0.264 NA
ATOM     93  C   UNL A   1      28.156  33.007  21.683  1.00  0.00     0.111 A 
ENDBRANCH  86  88
ENDBRANCH  85  86
ENDBRANCH  80  85
BRANCH  81  94
ATOM     94  O   UNL A   1      33.427  28.514  22.209  1.00  0.00    -0.387 OA
ATOM     95  H   UNL A   1      33.975  27.756  22.465  1.00  0.00     0.211 HD
ENDBRANCH  81  94
BRANCH  82  96
ATOM     96  O   UNL A   1      30.890  29.740  21.430  1.00  0.00    -0.384 OA
ATOM     97  H   UNL A   1      29.962  30.010  21.346  1.00  0.00     0.211 HD
ENDBRANCH  82  96
ENDBRANCH  75  77
ENDBRANCH  74  75
ENDBRANCH  73  74
ENDBRANCH   1  73
TORSDOF 20
ENDMDL
MODEL 2
REMARK VINA RESULT:     -11.3      2.424      8.809
REMARK SMILES O=C(OCCOCCOC(=O)[C@@H]1O[C@H](OC(=O)c2cccnc2)[C@@H](O)[C@H](O)[C@H]1O)c1ccc(-c2c3nc(c(-c4c(F)c(F)c(F)c(F)c4F)c4ccc([nH]4)c(-c4c(F)c(F)c(F)c(F)c4F)c4nc(c(-c5c(F)c(F)c(F)c(F)c5F)c5ccc2[nH]5)C=C4)C=C3)cc1
REMARK SMILES IDX 7 1 6 2 5 3 4 4 3 5 2 6 1 7 30 8 31 9 92 10 32 11 91 12
REMARK SMILES IDX 33 13 34 14 35 15 85 16 36 17 90 18 84 19 86 20 37 21 89 22
REMARK SMILES IDX 83 23 82 24 38 26 70 27 50 28 69 29 51 30 54 31 68 32 87 33
REMARK SMILES IDX 52 34 53 35 67 37 88 38 55 39 39 40 40 41 48 42 41 43 42 44
REMARK SMILES IDX 46 45 49 46 43 47 44 48 47 49 45 50 71 51 72 52 80 53 73 54
REMARK SMILES IDX 74 55 78 56 81 57 75 58 76 59 79 60 77 61 56 62 57 63 65 64
REMARK SMILES IDX 58 65 59 66 63 67 66 68 60 69 61 70 64 71 62 72 8 73 9 74
REMARK SMILES IDX 10 75 11 76 12 77 13 78 28 79 14 80 26 81 24 82 29 83 15 85
REMARK SMILES IDX 16 86 17 87 18 88 19 89 23 90 20 91 22 92 21 93 27 94 25 96
REMARK H PARENT 86 25 54 36 29 84 27 95 25 97
REMARK Flexibility Score: inf
ROOT
ATOM      1  C   UNL A   1      29.901  27.598  23.753  1.00  0.00     0.202 C 
ENDROOT
BRANCH   1   2
ATOM      2  O   UNL A   1      30.463  28.921  23.770  1.00  0.00    -0.374 OA
BRANCH   2   3
ATOM      3  C   UNL A   1      31.693  29.091  24.485  1.00  0.00     0.202 C 
BRANCH   3   4
ATOM      4  C   UNL A   1      31.740  30.098  25.641  1.00  0.00     0.261 C 
BRANCH   4   5
ATOM      5  O   UNL A   1      33.081  30.541  25.905  1.00  0.00    -0.460 OA
BRANCH   5   6
ATOM      6  C   UNL A   1      33.513  31.258  26.970  1.00  0.00     0.338 C 
ATOM      7  O   UNL A   1      32.876  32.240  27.340  1.00  0.00    -0.246 OA
BRANCH   6   8
ATOM      8  C   UNL A   1      34.747  30.890  27.718  1.00  0.00     0.060 A 
ATOM      9  C   UNL A   1      35.063  29.586  28.098  1.00  0.00     0.016 A 
ATOM     10  C   UNL A   1      35.676  31.903  27.991  1.00  0.00     0.016 A 
ATOM     11  C   UNL A   1      36.190  29.296  28.834  1.00  0.00     0.010 A 
ATOM     12  C   UNL A   1      36.860  31.612  28.673  1.00  0.00     0.010 A 
ATOM     13  C   UNL A   1      37.100  30.306  29.116  1.00  0.00    -0.014 A 
BRANCH  13  14
ATOM     14  C   UNL A   1      38.248  29.942  29.954  1.00  0.00     0.031 A 
ATOM     15  C   UNL A   1      39.341  29.128  29.344  1.00  0.00     0.074 A 
ATOM     16  C   UNL A   1      38.364  30.503  31.171  1.00  0.00     0.049 A 
ATOM     17  N   UNL A   1      40.438  28.679  29.888  1.00  0.00    -0.248 NA
ATOM     18  C   UNL A   1      39.190  28.789  27.918  1.00  0.00     0.031 C 
ATOM     19  C   UNL A   1      37.398  31.434  31.763  1.00  0.00     0.029 A 
ATOM     20  N   UNL A   1      39.357  30.415  32.106  1.00  0.00    -0.354 N 
ATOM     21  C   UNL A   1      41.088  27.976  28.886  1.00  0.00     0.074 A 
ATOM     22  C   UNL A   1      40.274  28.063  27.695  1.00  0.00     0.031 C 
ATOM     23  C   UNL A   1      37.864  31.855  32.949  1.00  0.00     0.029 A 
ATOM     24  C   UNL A   1      39.112  31.160  33.233  1.00  0.00     0.049 A 
ATOM     25  H   UNL A   1      40.167  29.869  31.984  1.00  0.00     0.167 HD
ATOM     26  C   UNL A   1      42.259  27.306  28.975  1.00  0.00     0.037 A 
ATOM     27  C   UNL A   1      39.811  31.229  34.380  1.00  0.00     0.037 A 
ATOM     28  C   UNL A   1      43.037  27.248  30.181  1.00  0.00     0.049 A 
ATOM     29  C   UNL A   1      41.060  30.398  34.482  1.00  0.00     0.074 A 
ATOM     30  C   UNL A   1      44.194  26.539  30.437  1.00  0.00     0.029 A 
ATOM     31  N   UNL A   1      42.723  27.945  31.343  1.00  0.00    -0.354 N 
ATOM     32  N   UNL A   1      41.630  29.650  33.566  1.00  0.00    -0.248 NA
ATOM     33  C   UNL A   1      41.750  30.397  35.776  1.00  0.00     0.031 C 
ATOM     34  C   UNL A   1      44.559  26.776  31.767  1.00  0.00     0.029 A 
ATOM     35  C   UNL A   1      43.658  27.672  32.326  1.00  0.00     0.049 A 
ATOM     36  H   UNL A   1      41.951  28.545  31.451  1.00  0.00     0.167 HD
ATOM     37  C   UNL A   1      42.749  29.096  34.165  1.00  0.00     0.074 A 
ATOM     38  C   UNL A   1      42.791  29.617  35.519  1.00  0.00     0.031 C 
ATOM     39  C   UNL A   1      43.657  28.228  33.656  1.00  0.00     0.037 A 
BRANCH  26  40
ATOM     40  C   UNL A   1      42.697  26.530  27.770  1.00  0.00     0.064 A 
ATOM     41  C   UNL A   1      42.340  25.188  27.579  1.00  0.00     0.173 A 
ATOM     42  C   UNL A   1      43.519  27.135  26.809  1.00  0.00     0.173 A 
ATOM     43  F   UNL A   1      41.586  24.552  28.488  1.00  0.00    -0.203 F 
ATOM     44  C   UNL A   1      42.810  24.473  26.478  1.00  0.00     0.198 A 
ATOM     45  C   UNL A   1      43.968  26.426  25.698  1.00  0.00     0.198 A 
ATOM     46  F   UNL A   1      43.900  28.414  26.953  1.00  0.00    -0.203 F 
ATOM     47  F   UNL A   1      42.503  23.176  26.341  1.00  0.00    -0.200 F 
ATOM     48  C   UNL A   1      43.619  25.094  25.537  1.00  0.00     0.200 A 
ATOM     49  F   UNL A   1      44.749  27.028  24.791  1.00  0.00    -0.200 F 
ATOM     50  F   UNL A   1      44.076  24.403  24.483  1.00  0.00    -0.200 F 
ENDBRANCH  26  40
BRANCH  27  51
ATOM     51  C   UNL A   1      39.312  32.047  35.518  1.00  0.00     0.064 A 
ATOM     52  C   UNL A   1      39.697  33.384  35.683  1.00  0.00     0.173 A 
ATOM     53  C   UNL A   1      38.445  31.500  36.480  1.00  0.00     0.173 A 
ATOM     54  F   UNL A   1      40.540  33.950  34.808  1.00  0.00    -0.203 F 
ATOM     55  C   UNL A   1      39.250  34.136  36.770  1.00  0.00     0.198 A 
ATOM     56  C   UNL A   1      37.972  32.261  37.546  1.00  0.00     0.198 A 
ATOM     57  F   UNL A   1      38.046  30.224  36.377  1.00  0.00    -0.203 F 
ATOM     58  F   UNL A   1      39.673  35.396  36.929  1.00  0.00    -0.200 F 
ATOM     59  C   UNL A   1      38.383  33.575  37.696  1.00  0.00     0.200 A 
ATOM     60  F   UNL A   1      37.122  31.717  38.428  1.00  0.00    -0.200 F 
ATOM     61  F   UNL A   1      37.952  34.298  38.739  1.00  0.00    -0.200 F 
ENDBRANCH  27  51
BRANCH  39  62
ATOM     62  C   UNL A   1      44.777  27.822  34.562  1.00  0.00     0.064 A 
ATOM     63  C   UNL A   1      45.956  28.575  34.647  1.00  0.00     0.173 A 
ATOM     64  C   UNL A   1      44.645  26.695  35.387  1.00  0.00     0.173 A 
ATOM     65  F   UNL A   1      46.130  29.651  33.864  1.00  0.00    -0.203 F 
ATOM     66  C   UNL A   1      46.976  28.201  35.515  1.00  0.00     0.198 A 
ATOM     67  C   UNL A   1      45.656  26.342  36.273  1.00  0.00     0.198 A 
ATOM     68  F   UNL A   1      43.530  25.952  35.341  1.00  0.00    -0.203 F 
ATOM     69  F   UNL A   1      48.113  28.908  35.553  1.00  0.00    -0.200 F 
ATOM     70  C   UNL A   1      46.821  27.090  36.333  1.00  0.00     0.200 A 
ATOM     71  F   UNL A   1      45.500  25.277  37.072  1.00  0.00    -0.200 F 
ATOM     72  F   UNL A   1      47.801  26.738  37.176  1.00  0.00    -0.200 F 
ENDBRANCH  39  62
ENDBRANCH  13  14
ENDBRANCH   6   8
ENDBRANCH   5   6
ENDBRANCH   4   5
ENDBRANCH   3   4
ENDBRANCH   2   3
ENDBRANCH   1   2
BRANCH   1  73
ATOM     73  C   UNL A   1      30.631  26.686  24.746  1.00  0.00     0.261 C 
BRANCH  73  74
ATOM     74  O   UNL A   1      30.196  25.341  24.522  1.00  0.00    -0.461 OA
BRANCH  74  75
ATOM     75  C   UNL A   1      31.173  24.541  24.024  1.00  0.00     0.338 C 
ATOM     76  O   UNL A   1      31.329  24.316  22.828  1.00  0.00    -0.249 OA
BRANCH  75  77
ATOM     77  C   UNL A   1      32.140  24.070  25.109  1.00  0.00     0.263 C 
ATOM     78  O   UNL A   1      33.179  23.362  24.445  1.00  0.00    -0.322 OA
ATOM     79  C   UNL A   1      31.524  23.227  26.238  1.00  0.00     0.186 C 
ATOM     80  C   UNL A   1      34.225  22.872  25.270  1.00  0.00     0.343 C 
ATOM     81  C   UNL A   1      32.646  22.903  27.226  1.00  0.00     0.181 C 
ATOM     82  C   UNL A   1      33.764  22.126  26.544  1.00  0.00     0.214 C 
BRANCH  79  83
ATOM     83  O   UNL A   1      30.515  23.906  26.991  1.00  0.00    -0.387 OA
ATOM     84  H   UNL A   1      29.911  23.256  27.382  1.00  0.00     0.211 HD
ENDBRANCH  79  83
BRANCH  80  85
ATOM     85  O   UNL A   1      35.082  22.035  24.480  1.00  0.00    -0.429 OA
BRANCH  85  86
ATOM     86  C   UNL A   1      36.133  22.682  23.917  1.00  0.00     0.342 C 
ATOM     87  O   UNL A   1      36.177  23.213  22.821  1.00  0.00    -0.246 OA
BRANCH  86  88
ATOM     88  C   UNL A   1      37.243  22.718  24.872  1.00  0.00     0.078 A 
ATOM     89  C   UNL A   1      37.590  23.867  25.580  1.00  0.00     0.019 A 
ATOM     90  C   UNL A   1      37.962  21.552  25.094  1.00  0.00     0.126 A 
ATOM     91  C   UNL A   1      38.642  23.805  26.489  1.00  0.00     0.021 A 
ATOM     92  N   UNL A   1      38.994  21.469  25.966  1.00  0.00    -0.264 NA
ATOM     93  C   UNL A   1      39.307  22.596  26.645  1.00  0.00     0.111 A 
ENDBRANCH  86  88
ENDBRANCH  85  86
ENDBRANCH  80  85
BRANCH  81  94
ATOM     94  O   UNL A   1      32.110  22.184  28.349  1.00  0.00    -0.387 OA
ATOM     95  H   UNL A   1      32.068  21.238  28.137  1.00  0.00     0.211 HD
ENDBRANCH  81  94
BRANCH  82  96
ATOM     96  O   UNL A   1      34.876  21.942  27.435  1.00  0.00    -0.384 OA
ATOM     97  H   UNL A   1      35.657  21.672  26.928  1.00  0.00     0.211 HD
ENDBRANCH  82  96
ENDBRANCH  75  77
ENDBRANCH  74  75
ENDBRANCH  73  74
ENDBRANCH   1  73
TORSDOF 20
ENDMDL
MODEL 3
REMARK VINA RESULT:     -11.2      1.784      7.450
REMARK SMILES O=C(OCCOCCOC(=O)[C@@H]1O[C@H](OC(=O)c2cccnc2)[C@@H](O)[C@H](O)[C@H]1O)c1ccc(-c2c3nc(c(-c4c(F)c(F)c(F)c(F)c4F)c4ccc([nH]4)c(-c4c(F)c(F)c(F)c(F)c4F)c4nc(c(-c5c(F)c(F)c(F)c(F)c5F)c5ccc2[nH]5)C=C4)C=C3)cc1
REMARK SMILES IDX 7 1 6 2 5 3 4 4 3 5 2 6 1 7 30 8 31 9 92 10 32 11 91 12
REMARK SMILES IDX 33 13 34 14 35 15 85 16 36 17 90 18 84 19 86 20 37 21 89 22
REMARK SMILES IDX 83 23 82 24 38 26 70 27 50 28 69 29 51 30 54 31 68 32 87 33
REMARK SMILES IDX 52 34 53 35 67 37 88 38 55 39 39 40 40 41 48 42 41 43 42 44
REMARK SMILES IDX 46 45 49 46 43 47 44 48 47 49 45 50 71 51 72 52 80 53 73 54
REMARK SMILES IDX 74 55 78 56 81 57 75 58 76 59 79 60 77 61 56 62 57 63 65 64
REMARK SMILES IDX 58 65 59 66 63 67 66 68 60 69 61 70 64 71 62 72 8 73 9 74
REMARK SMILES IDX 10 75 11 76 12 77 13 78 28 79 14 80 26 81 24 82 29 83 15 85
REMARK SMILES IDX 16 86 17 87 18 88 19 89 23 90 20 91 22 92 21 93 27 94 25 96
REMARK H PARENT 86 25 54 36 29 84 27 95 25 97
REMARK Flexibility Score: inf
ROOT
ATOM      1  C   UNL A   1      33.030  29.897  27.108  1.00  0.00     0.202 C 
ENDROOT
BRANCH   1   2
ATOM      2  O   UNL A   1      31.771  30.423  26.657  1.00  0.00    -0.374 OA
BRANCH   2   3
ATOM      3  C   UNL A   1      31.576  31.836  26.790  1.00  0.00     0.202 C 
BRANCH   3   4
ATOM      4  C   UNL A   1      32.774  32.714  27.172  1.00  0.00     0.261 C 
BRANCH   4   5
ATOM      5  O   UNL A   1      32.356  33.956  27.760  1.00  0.00    -0.460 OA
BRANCH   5   6
ATOM      6  C   UNL A   1      33.026  34.695  28.677  1.00  0.00     0.338 C 
ATOM      7  O   UNL A   1      32.687  35.856  28.886  1.00  0.00    -0.246 OA
BRANCH   6   8
ATOM      8  C   UNL A   1      34.170  34.139  29.451  1.00  0.00     0.060 A 
ATOM      9  C   UNL A   1      35.507  34.383  29.139  1.00  0.00     0.016 A 
ATOM     10  C   UNL A   1      33.885  33.388  30.599  1.00  0.00     0.016 A 
ATOM     11  C   UNL A   1      36.537  33.808  29.849  1.00  0.00     0.010 A 
ATOM     12  C   UNL A   1      34.920  32.859  31.374  1.00  0.00     0.010 A 
ATOM     13  C   UNL A   1      36.248  33.052  30.978  1.00  0.00    -0.014 A 
BRANCH  13  14
ATOM     14  C   UNL A   1      37.386  32.418  31.655  1.00  0.00     0.031 A 
ATOM     15  C   UNL A   1      38.180  31.400  30.903  1.00  0.00     0.074 A 
ATOM     16  C   UNL A   1      37.783  32.903  32.844  1.00  0.00     0.049 A 
ATOM     17  N   UNL A   1      39.210  30.703  31.295  1.00  0.00    -0.248 NA
ATOM     18  C   UNL A   1      37.771  31.145  29.511  1.00  0.00     0.031 C 
ATOM     19  C   UNL A   1      37.136  34.008  33.560  1.00  0.00     0.029 A 
ATOM     20  N   UNL A   1      38.845  32.571  33.637  1.00  0.00    -0.354 N 
ATOM     21  C   UNL A   1      39.549  29.903  30.216  1.00  0.00     0.074 A 
ATOM     22  C   UNL A   1      38.626  30.203  29.145  1.00  0.00     0.031 C 
ATOM     23  C   UNL A   1      37.836  34.281  34.672  1.00  0.00     0.029 A 
ATOM     24  C   UNL A   1      38.924  33.318  34.786  1.00  0.00     0.049 A 
ATOM     25  H   UNL A   1      39.489  31.862  33.408  1.00  0.00     0.167 HD
ATOM     26  C   UNL A   1      40.541  28.988  30.148  1.00  0.00     0.037 A 
ATOM     27  C   UNL A   1      39.764  33.197  35.829  1.00  0.00     0.037 A 
ATOM     28  C   UNL A   1      41.438  28.723  31.239  1.00  0.00     0.049 A 
ATOM     29  C   UNL A   1      40.797  32.106  35.763  1.00  0.00     0.074 A 
ATOM     30  C   UNL A   1      42.431  27.768  31.337  1.00  0.00     0.029 A 
ATOM     31  N   UNL A   1      41.444  29.439  32.431  1.00  0.00    -0.354 N 
ATOM     32  N   UNL A   1      41.060  31.278  34.779  1.00  0.00    -0.248 NA
ATOM     33  C   UNL A   1      41.634  31.915  36.952  1.00  0.00     0.031 C 
ATOM     34  C   UNL A   1      43.011  27.879  32.605  1.00  0.00     0.029 A 
ATOM     35  C   UNL A   1      42.414  28.936  33.280  1.00  0.00     0.049 A 
ATOM     36  H   UNL A   1      40.846  30.191  32.642  1.00  0.00     0.167 HD
ATOM     37  C   UNL A   1      42.096  30.472  35.223  1.00  0.00     0.074 A 
ATOM     38  C   UNL A   1      42.431  30.931  36.559  1.00  0.00     0.031 C 
ATOM     39  C   UNL A   1      42.712  29.439  34.598  1.00  0.00     0.037 A 
BRANCH  26  40
ATOM     40  C   UNL A   1      40.633  28.169  28.896  1.00  0.00     0.064 A 
ATOM     41  C   UNL A   1      41.410  28.568  27.800  1.00  0.00     0.173 A 
ATOM     42  C   UNL A   1      39.899  26.979  28.783  1.00  0.00     0.173 A 
ATOM     43  F   UNL A   1      42.103  29.717  27.843  1.00  0.00    -0.203 F 
ATOM     44  C   UNL A   1      41.431  27.816  26.626  1.00  0.00     0.198 A 
ATOM     45  C   UNL A   1      39.939  26.217  27.618  1.00  0.00     0.198 A 
ATOM     46  F   UNL A   1      39.129  26.561  29.799  1.00  0.00    -0.203 F 
ATOM     47  F   UNL A   1      42.137  28.243  25.570  1.00  0.00    -0.200 F 
ATOM     48  C   UNL A   1      40.700  26.640  26.538  1.00  0.00     0.200 A 
ATOM     49  F   UNL A   1      39.232  25.083  27.535  1.00  0.00    -0.200 F 
ATOM     50  F   UNL A   1      40.715  25.922  25.406  1.00  0.00    -0.200 F 
ENDBRANCH  26  40
BRANCH  27  51
ATOM     51  C   UNL A   1      39.615  34.071  37.023  1.00  0.00     0.064 A 
ATOM     52  C   UNL A   1      38.846  33.678  38.127  1.00  0.00     0.173 A 
ATOM     53  C   UNL A   1      40.232  35.332  37.081  1.00  0.00     0.173 A 
ATOM     54  F   UNL A   1      38.217  32.494  38.116  1.00  0.00    -0.203 F 
ATOM     55  C   UNL A   1      38.686  34.516  39.230  1.00  0.00     0.198 A 
ATOM     56  C   UNL A   1      40.101  36.154  38.198  1.00  0.00     0.198 A 
ATOM     57  F   UNL A   1      40.978  35.764  36.053  1.00  0.00    -0.203 F 
ATOM     58  F   UNL A   1      37.905  34.135  40.250  1.00  0.00    -0.200 F 
ATOM     59  C   UNL A   1      39.318  35.750  39.268  1.00  0.00     0.200 A 
ATOM     60  F   UNL A   1      40.727  37.338  38.233  1.00  0.00    -0.200 F 
ATOM     61  F   UNL A   1      39.166  36.553  40.329  1.00  0.00    -0.200 F 
ENDBRANCH  27  51
BRANCH  39  62
ATOM     62  C   UNL A   1      43.822  28.769  35.344  1.00  0.00     0.064 A 
ATOM     63  C   UNL A   1      45.156  29.168  35.182  1.00  0.00     0.173 A 
ATOM     64  C   UNL A   1      43.538  27.752  36.268  1.00  0.00     0.173 A 
ATOM     65  F   UNL A   1      45.473  30.125  34.298  1.00  0.00    -0.203 F 
ATOM     66  C   UNL A   1      46.173  28.554  35.906  1.00  0.00     0.198 A 
ATOM     67  C   UNL A   1      44.554  27.161  37.009  1.00  0.00     0.198 A 
ATOM     68  F   UNL A   1      42.274  27.346  36.458  1.00  0.00    -0.203 F 
ATOM     69  F   UNL A   1      47.447  28.918  35.708  1.00  0.00    -0.200 F 
ATOM     70  C   UNL A   1      45.870  27.558  36.824  1.00  0.00     0.200 A 
ATOM     71  F   UNL A   1      44.260  26.209  37.905  1.00  0.00    -0.200 F 
ATOM     72  F   UNL A   1      46.850  26.976  37.528  1.00  0.00    -0.200 F 
ENDBRANCH  39  62
ENDBRANCH  13  14
ENDBRANCH   6   8
ENDBRANCH   5   6
ENDBRANCH   4   5
ENDBRANCH   3   4
ENDBRANCH   2   3
ENDBRANCH   1   2
BRANCH   1  73
ATOM     73  C   UNL A   1      33.021  28.364  27.071  1.00  0.00     0.261 C 
BRANCH  73  74
ATOM     74  O   UNL A   1      33.571  27.944  25.818  1.00  0.00    -0.461 OA
BRANCH  74  75
ATOM     75  C   UNL A   1      33.245  26.667  25.494  1.00  0.00     0.338 C 
ATOM     76  O   UNL A   1      32.948  25.807  26.319  1.00  0.00    -0.249 OA
BRANCH  75  77
ATOM     77  C   UNL A   1      33.152  26.462  23.984  1.00  0.00     0.263 C 
ATOM     78  O   UNL A   1      31.998  27.170  23.549  1.00  0.00    -0.322 OA
ATOM     79  C   UNL A   1      33.122  25.001  23.504  1.00  0.00     0.186 C 
ATOM     80  C   UNL A   1      31.747  27.154  22.153  1.00  0.00     0.343 C 
ATOM     81  C   UNL A   1      33.073  25.025  21.976  1.00  0.00     0.181 C 
ATOM     82  C   UNL A   1      31.834  25.763  21.484  1.00  0.00     0.214 C 
BRANCH  79  83
ATOM     83  O   UNL A   1      34.288  24.248  23.853  1.00  0.00    -0.387 OA
ATOM     84  H   UNL A   1      35.039  24.851  23.967  1.00  0.00     0.211 HD
ENDBRANCH  79  83
BRANCH  80  85
ATOM     85  O   UNL A   1      30.464  27.749  21.907  1.00  0.00    -0.429 OA
BRANCH  85  86
ATOM     86  C   UNL A   1      29.591  27.646  22.940  1.00  0.00     0.342 C 
ATOM     87  O   UNL A   1      29.346  26.656  23.608  1.00  0.00    -0.246 OA
BRANCH  86  88
ATOM     88  C   UNL A   1      29.001  28.959  23.205  1.00  0.00     0.078 A 
ATOM     89  C   UNL A   1      29.760  30.062  23.593  1.00  0.00     0.019 A 
ATOM     90  C   UNL A   1      27.632  29.115  23.038  1.00  0.00     0.126 A 
ATOM     91  C   UNL A   1      29.120  31.281  23.796  1.00  0.00     0.021 A 
ATOM     92  N   UNL A   1      26.986  30.287  23.237  1.00  0.00    -0.264 NA
ATOM     93  C   UNL A   1      27.746  31.343  23.608  1.00  0.00     0.111 A 
ENDBRANCH  86  88
ENDBRANCH  85  86
ENDBRANCH  80  85
BRANCH  81  94
ATOM     94  O   UNL A   1      33.128  23.683  21.467  1.00  0.00    -0.387 OA
ATOM     95  H   UNL A   1      32.314  23.490  20.976  1.00  0.00     0.211 HD
ENDBRANCH  81  94
BRANCH  82  96
ATOM     96  O   UNL A   1      31.859  25.905  20.054  1.00  0.00    -0.384 OA
ATOM     97  H   UNL A   1      31.507  26.774  19.808  1.00  0.00     0.211 HD
ENDBRANCH  82  96
ENDBRANCH  75  77
ENDBRANCH  74  75
ENDBRANCH  73  74
ENDBRANCH   1  73
TORSDOF 20
ENDMDL
