MODEL 1
REMARK VINA RESULT:     -12.2      0.000      0.000
REMARK SMILES COC(=O)C[C@H](NC(=O)N1CC[N@H+]2CCC[C@@H]2C1)C(=O)OCCOCCOC(=O)c1ccc(-c2c3nc(c(-c4c(F)c(F)c(F)c(F)c4F)c4ccc([nH]4)c(-c4c(F)c(F)c(F)c(F)c4F)c4nc(c(-c5c(F)c(F)c(F)c(F)c5F)c5ccc2[nH]5)C=C4)C=C3)cc1
REMARK SMILES IDX 23 1 22 2 21 3 19 4 20 5 6 6 5 7 3 8 4 9 2 10 1 11 7 12 8 13
REMARK SMILES IDX 9 15 10 16 11 17 18 18 12 19 17 20 13 21 16 22 14 23 15 25
REMARK SMILES IDX 24 26 25 27 26 28 27 29 28 30 29 31 30 32 31 33 92 34 32 35
REMARK SMILES IDX 91 36 33 37 34 38 35 39 85 40 36 41 90 42 84 43 86 44 37 45
REMARK SMILES IDX 89 46 83 47 82 48 38 50 70 51 50 52 69 53 51 54 54 55 68 56
REMARK SMILES IDX 87 57 52 58 53 59 67 61 88 62 55 63 39 64 40 65 48 66 41 67
REMARK SMILES IDX 42 68 46 69 49 70 43 71 44 72 47 73 45 74 71 75 72 76 80 77
REMARK SMILES IDX 73 78 74 79 78 80 81 81 75 82 76 83 79 84 77 85 56 86 57 87
REMARK SMILES IDX 65 88 58 89 59 90 63 91 66 92 60 93 61 94 64 95 62 96
REMARK H PARENT 7 14 13 24 86 49 54 60
REMARK Flexibility Score: inf
ROOT
ATOM      1  C   UNL A   1      35.919  23.095  24.749  1.00  0.00     0.202 C 
ENDROOT
BRANCH   1   2
ATOM      2  C   UNL A   1      34.795  23.866  25.504  1.00  0.00     0.261 C 
BRANCH   2   3
ATOM      3  O   UNL A   1      33.956  24.636  24.614  1.00  0.00    -0.462 OA
BRANCH   3   4
ATOM      4  C   UNL A   1      33.065  23.956  23.835  1.00  0.00     0.329 C 
ATOM      5  O   UNL A   1      33.042  24.011  22.609  1.00  0.00    -0.250 OA
BRANCH   4   6
ATOM      6  C   UNL A   1      32.006  23.192  24.667  1.00  0.00     0.204 C 
BRANCH   6   7
ATOM      7  C   UNL A   1      32.122  21.762  24.147  1.00  0.00     0.159 C 
BRANCH   7   8
ATOM      8  C   UNL A   1      32.398  20.745  25.202  1.00  0.00     0.308 C 
ATOM      9  O   UNL A   1      32.877  21.036  26.294  1.00  0.00    -0.252 OA
BRANCH   8  10
ATOM     10  O   UNL A   1      32.062  19.498  24.784  1.00  0.00    -0.469 OA
ATOM     11  C   UNL A   1      32.804  18.468  25.439  1.00  0.00     0.282 C 
ENDBRANCH   8  10
ENDBRANCH   7   8
ENDBRANCH   6   7
BRANCH   6  12
ATOM     12  N   UNL A   1      30.658  23.823  24.616  1.00  0.00    -0.324 N 
ATOM     13  C   UNL A   1      30.473  24.939  25.419  1.00  0.00     0.318 C 
ATOM     14  H   UNL A   1      29.938  23.469  24.043  1.00  0.00     0.166 HD
ATOM     15  O   UNL A   1      30.486  24.839  26.644  1.00  0.00    -0.249 OA
BRANCH  13  16
ATOM     16  N   UNL A   1      30.334  26.133  24.749  1.00  0.00    -0.313 N 
ATOM     17  C   UNL A   1      31.683  27.421  24.776  1.00  0.00     0.183 C 
ATOM     18  C   UNL A   1      28.700  26.490  23.887  1.00  0.00     0.186 C 
ATOM     19  C   UNL A   1      31.223  29.230  24.092  1.00  0.00     0.284 C 
ATOM     20  C   UNL A   1      28.464  28.256  23.111  1.00  0.00     0.204 C 
ATOM     21  N   UNL A   1      29.597  29.578  23.466  1.00  0.00    -0.330 N 
ATOM     22  C   UNL A   1      27.234  29.124  23.068  1.00  0.00     0.073 C 
ATOM     23  C   UNL A   1      29.299  30.583  22.489  1.00  0.00     0.262 C 
ATOM     24  H   UNL A   1      29.475  29.993  24.389  1.00  0.00     0.348 HD
ATOM     25  C   UNL A   1      27.764  30.369  22.246  1.00  0.00     0.068 C 
ENDBRANCH  13  16
ENDBRANCH   6  12
ENDBRANCH   4   6
ENDBRANCH   3   4
ENDBRANCH   2   3
ENDBRANCH   1   2
BRANCH   1  26
ATOM     26  O   UNL A   1      35.679  21.792  24.175  1.00  0.00    -0.374 OA
BRANCH  26  27
ATOM     27  C   UNL A   1      36.041  20.567  24.820  1.00  0.00     0.202 C 
BRANCH  27  28
ATOM     28  C   UNL A   1      37.578  19.914  24.936  1.00  0.00     0.261 C 
BRANCH  28  29
ATOM     29  O   UNL A   1      39.158  20.569  25.899  1.00  0.00    -0.460 OA
BRANCH  29  30
ATOM     30  C   UNL A   1      40.280  21.028  26.634  1.00  0.00     0.338 C 
ATOM     31  O   UNL A   1      41.220  20.340  26.989  1.00  0.00    -0.246 OA
BRANCH  30  32
ATOM     32  C   UNL A   1      40.403  22.430  27.244  1.00  0.00     0.060 A 
ATOM     33  C   UNL A   1      39.793  23.591  26.747  1.00  0.00     0.016 A 
ATOM     34  C   UNL A   1      41.439  22.572  28.191  1.00  0.00     0.016 A 
ATOM     35  C   UNL A   1      40.226  24.852  27.147  1.00  0.00     0.010 A 
ATOM     36  C   UNL A   1      41.904  23.838  28.563  1.00  0.00     0.010 A 
ATOM     37  C   UNL A   1      41.328  24.977  27.994  1.00  0.00    -0.014 A 
BRANCH  37  38
ATOM     38  C   UNL A   1      41.962  26.301  28.109  1.00  0.00     0.031 A 
ATOM     39  C   UNL A   1      41.249  27.385  28.864  1.00  0.00     0.074 A 
ATOM     40  C   UNL A   1      43.205  26.477  27.634  1.00  0.00     0.049 A 
ATOM     41  N   UNL A   1      41.600  28.629  29.053  1.00  0.00    -0.248 NA
ATOM     42  C   UNL A   1      39.975  27.014  29.503  1.00  0.00     0.031 C 
ATOM     43  C   UNL A   1      44.006  25.442  26.981  1.00  0.00     0.029 A 
ATOM     44  N   UNL A   1      44.008  27.583  27.632  1.00  0.00    -0.354 N 
ATOM     45  C   UNL A   1      40.580  29.198  29.807  1.00  0.00     0.074 A 
ATOM     46  C   UNL A   1      39.596  28.164  30.044  1.00  0.00     0.031 C 
ATOM     47  C   UNL A   1      45.188  25.970  26.624  1.00  0.00     0.029 A 
ATOM     48  C   UNL A   1      45.197  27.386  26.981  1.00  0.00     0.049 A 
ATOM     49  H   UNL A   1      43.757  28.436  28.056  1.00  0.00     0.167 HD
ATOM     50  C   UNL A   1      40.482  30.473  30.249  1.00  0.00     0.037 A 
ATOM     51  C   UNL A   1      46.163  28.270  26.672  1.00  0.00     0.037 A 
ATOM     52  C   UNL A   1      41.484  31.477  30.007  1.00  0.00     0.049 A 
ATOM     53  C   UNL A   1      45.993  29.698  27.108  1.00  0.00     0.074 A 
ATOM     54  C   UNL A   1      41.498  32.801  30.405  1.00  0.00     0.029 A 
ATOM     55  N   UNL A   1      42.657  31.259  29.296  1.00  0.00    -0.354 N 
ATOM     56  N   UNL A   1      45.016  30.242  27.793  1.00  0.00    -0.248 NA
ATOM     57  C   UNL A   1      47.055  30.635  26.724  1.00  0.00     0.031 C 
ATOM     58  C   UNL A   1      42.659  33.396  29.896  1.00  0.00     0.029 A 
ATOM     59  C   UNL A   1      43.391  32.431  29.222  1.00  0.00     0.049 A 
ATOM     60  H   UNL A   1      42.926  30.398  28.901  1.00  0.00     0.167 HD
ATOM     61  C   UNL A   1      45.350  31.579  27.940  1.00  0.00     0.074 A 
ATOM     62  C   UNL A   1      46.630  31.760  27.283  1.00  0.00     0.031 C 
ATOM     63  C   UNL A   1      44.663  32.572  28.559  1.00  0.00     0.037 A 
BRANCH  50  64
ATOM     64  C   UNL A   1      39.238  30.864  30.991  1.00  0.00     0.064 A 
ATOM     65  C   UNL A   1      38.110  31.379  30.335  1.00  0.00     0.173 A 
ATOM     66  C   UNL A   1      39.161  30.685  32.382  1.00  0.00     0.173 A 
ATOM     67  F   UNL A   1      38.135  31.586  29.009  1.00  0.00    -0.203 F 
ATOM     68  C   UNL A   1      36.958  31.713  31.045  1.00  0.00     0.198 A 
ATOM     69  C   UNL A   1      38.000  30.997  33.085  1.00  0.00     0.198 A 
ATOM     70  F   UNL A   1      40.212  30.196  33.060  1.00  0.00    -0.203 F 
ATOM     71  F   UNL A   1      35.903  32.234  30.401  1.00  0.00    -0.200 F 
ATOM     72  C   UNL A   1      36.901  31.514  32.418  1.00  0.00     0.200 A 
ATOM     73  F   UNL A   1      37.946  30.793  34.410  1.00  0.00    -0.200 F 
ATOM     74  F   UNL A   1      35.787  31.824  33.096  1.00  0.00    -0.200 F 
ENDBRANCH  50  64
BRANCH  51  75
ATOM     75  C   UNL A   1      47.341  27.822  25.889  1.00  0.00     0.064 A 
ATOM     76  C   UNL A   1      47.303  27.767  24.490  1.00  0.00     0.173 A 
ATOM     77  C   UNL A   1      48.543  27.474  26.527  1.00  0.00     0.173 A 
ATOM     78  F   UNL A   1      46.171  28.073  23.839  1.00  0.00    -0.203 F 
ATOM     79  C   UNL A   1      48.421  27.377  23.757  1.00  0.00     0.198 A 
ATOM     80  C   UNL A   1      49.668  27.112  25.792  1.00  0.00     0.198 A 
ATOM     81  F   UNL A   1      48.631  27.514  27.865  1.00  0.00    -0.203 F 
ATOM     82  F   UNL A   1      48.352  27.309  22.420  1.00  0.00    -0.200 F 
ATOM     83  C   UNL A   1      49.605  27.059  24.407  1.00  0.00     0.200 A 
ATOM     84  F   UNL A   1      50.814  26.823  26.425  1.00  0.00    -0.200 F 
ATOM     85  F   UNL A   1      50.685  26.702  23.699  1.00  0.00    -0.200 F 
ENDBRANCH  51  75
BRANCH  63  86
ATOM     86  C   UNL A   1      45.304  33.927  28.573  1.00  0.00     0.064 A 
ATOM     87  C   UNL A   1      45.006  34.889  27.596  1.00  0.00     0.173 A 
ATOM     88  C   UNL A   1      46.205  34.272  29.592  1.00  0.00     0.173 A 
ATOM     89  F   UNL A   1      44.164  34.596  26.595  1.00  0.00    -0.203 F 
ATOM     90  C   UNL A   1      45.612  36.141  27.623  1.00  0.00     0.198 A 
ATOM     91  C   UNL A   1      46.787  35.536  29.632  1.00  0.00     0.198 A 
ATOM     92  F   UNL A   1      46.515  33.388  30.551  1.00  0.00    -0.203 F 
ATOM     93  F   UNL A   1      45.353  37.029  26.652  1.00  0.00    -0.200 F 
ATOM     94  C   UNL A   1      46.496  36.465  28.643  1.00  0.00     0.200 A 
ATOM     95  F   UNL A   1      47.633  35.850  30.622  1.00  0.00    -0.200 F 
ATOM     96  F   UNL A   1      47.077  37.673  28.668  1.00  0.00    -0.200 F 
ENDBRANCH  63  86
ENDBRANCH  37  38
ENDBRANCH  30  32
ENDBRANCH  29  30
ENDBRANCH  28  29
ENDBRANCH  27  28
ENDBRANCH  26  27
ENDBRANCH   1  26
TORSDOF 19
ENDMDL
MODEL 2
REMARK VINA RESULT:     -12.0      4.753      8.219
REMARK SMILES COC(=O)C[C@H](NC(=O)N1CC[N@H+]2CCC[C@@H]2C1)C(=O)OCCOCCOC(=O)c1ccc(-c2c3nc(c(-c4c(F)c(F)c(F)c(F)c4F)c4ccc([nH]4)c(-c4c(F)c(F)c(F)c(F)c4F)c4nc(c(-c5c(F)c(F)c(F)c(F)c5F)c5ccc2[nH]5)C=C4)C=C3)cc1
REMARK SMILES IDX 23 1 22 2 21 3 19 4 20 5 6 6 5 7 3 8 4 9 2 10 1 11 7 12 8 13
REMARK SMILES IDX 9 15 10 16 11 17 18 18 12 19 17 20 13 21 16 22 14 23 15 25
REMARK SMILES IDX 24 26 25 27 26 28 27 29 28 30 29 31 30 32 31 33 92 34 32 35
REMARK SMILES IDX 91 36 33 37 34 38 35 39 85 40 36 41 90 42 84 43 86 44 37 45
REMARK SMILES IDX 89 46 83 47 82 48 38 50 70 51 50 52 69 53 51 54 54 55 68 56
REMARK SMILES IDX 87 57 52 58 53 59 67 61 88 62 55 63 39 64 40 65 48 66 41 67
REMARK SMILES IDX 42 68 46 69 49 70 43 71 44 72 47 73 45 74 71 75 72 76 80 77
REMARK SMILES IDX 73 78 74 79 78 80 81 81 75 82 76 83 79 84 77 85 56 86 57 87
REMARK SMILES IDX 65 88 58 89 59 90 63 91 66 92 60 93 61 94 64 95 62 96
REMARK H PARENT 7 14 13 24 86 49 54 60
REMARK Flexibility Score: inf
ROOT
ATOM      1  C   UNL A   1      32.192  27.942  25.869  1.00  0.00     0.202 C 
ENDROOT
BRANCH   1   2
ATOM      2  C   UNL A   1      31.730  26.568  26.439  1.00  0.00     0.261 C 
BRANCH   2   3
ATOM      3  O   UNL A   1      32.830  25.653  26.644  1.00  0.00    -0.462 OA
BRANCH   3   4
ATOM      4  C   UNL A   1      32.592  24.322  26.458  1.00  0.00     0.329 C 
ATOM      5  O   UNL A   1      31.819  23.660  27.144  1.00  0.00    -0.250 OA
BRANCH   4   6
ATOM      6  C   UNL A   1      33.488  23.703  25.358  1.00  0.00     0.204 C 
BRANCH   6   7
ATOM      7  C   UNL A   1      34.414  22.778  26.145  1.00  0.00     0.159 C 
BRANCH   7   8
ATOM      8  C   UNL A   1      35.848  22.864  25.748  1.00  0.00     0.308 C 
ATOM      9  O   UNL A   1      36.651  23.599  26.315  1.00  0.00    -0.252 OA
BRANCH   8  10
ATOM     10  O   UNL A   1      36.118  22.044  24.699  1.00  0.00    -0.469 OA
ATOM     11  C   UNL A   1      36.312  20.684  25.086  1.00  0.00     0.282 C 
ENDBRANCH   8  10
ENDBRANCH   7   8
ENDBRANCH   6   7
BRANCH   6  12
ATOM     12  N   UNL A   1      34.134  24.725  24.488  1.00  0.00    -0.324 N 
ATOM     13  C   UNL A   1      33.681  24.789  23.178  1.00  0.00     0.318 C 
ATOM     14  H   UNL A   1      34.842  25.322  24.823  1.00  0.00     0.166 HD
ATOM     15  O   UNL A   1      33.879  23.859  22.399  1.00  0.00    -0.249 OA
BRANCH  13  16
ATOM     16  N   UNL A   1      32.965  25.920  22.855  1.00  0.00    -0.313 N 
ATOM     17  C   UNL A   1      33.823  27.533  22.480  1.00  0.00     0.183 C 
ATOM     18  C   UNL A   1      31.087  25.834  22.903  1.00  0.00     0.186 C 
ATOM     19  C   UNL A   1      32.688  29.163  22.392  1.00  0.00     0.284 C 
ATOM     20  C   UNL A   1      30.107  27.489  22.627  1.00  0.00     0.204 C 
ATOM     21  N   UNL A   1      30.932  29.062  22.643  1.00  0.00    -0.330 N 
ATOM     22  C   UNL A   1      28.847  27.977  23.294  1.00  0.00     0.073 C 
ATOM     23  C   UNL A   1      29.977  29.978  22.093  1.00  0.00     0.262 C 
ATOM     24  H   UNL A   1      31.180  29.392  23.575  1.00  0.00     0.348 HD
ATOM     25  C   UNL A   1      28.612  29.350  22.542  1.00  0.00     0.068 C 
ENDBRANCH  13  16
ENDBRANCH   6  12
ENDBRANCH   4   6
ENDBRANCH   3   4
ENDBRANCH   2   3
ENDBRANCH   1   2
BRANCH   1  26
ATOM     26  O   UNL A   1      31.542  29.172  26.257  1.00  0.00    -0.374 OA
BRANCH  26  27
ATOM     27  C   UNL A   1      32.166  30.457  26.167  1.00  0.00     0.202 C 
BRANCH  27  28
ATOM     28  C   UNL A   1      31.511  31.922  26.642  1.00  0.00     0.261 C 
BRANCH  28  29
ATOM     29  O   UNL A   1      32.320  33.399  27.649  1.00  0.00    -0.460 OA
BRANCH  29  30
ATOM     30  C   UNL A   1      32.887  34.449  28.415  1.00  0.00     0.338 C 
ATOM     31  O   UNL A   1      32.500  35.603  28.425  1.00  0.00    -0.246 OA
BRANCH  30  32
ATOM     32  C   UNL A   1      34.186  34.328  29.224  1.00  0.00     0.060 A 
ATOM     33  C   UNL A   1      35.483  34.366  28.692  1.00  0.00     0.016 A 
ATOM     34  C   UNL A   1      34.017  33.858  30.543  1.00  0.00     0.016 A 
ATOM     35  C   UNL A   1      36.571  33.911  29.432  1.00  0.00     0.010 A 
ATOM     36  C   UNL A   1      35.102  33.362  31.274  1.00  0.00     0.010 A 
ATOM     37  C   UNL A   1      36.372  33.341  30.690  1.00  0.00    -0.014 A 
BRANCH  37  38
ATOM     38  C   UNL A   1      37.478  32.567  31.278  1.00  0.00     0.031 A 
ATOM     39  C   UNL A   1      37.940  32.900  32.667  1.00  0.00     0.074 A 
ATOM     40  C   UNL A   1      37.973  31.516  30.607  1.00  0.00     0.049 A 
ATOM     41  N   UNL A   1      38.918  32.381  33.360  1.00  0.00    -0.248 NA
ATOM     42  C   UNL A   1      37.191  33.952  33.376  1.00  0.00     0.031 C 
ATOM     43  C   UNL A   1      37.504  31.062  29.297  1.00  0.00     0.029 A 
ATOM     44  N   UNL A   1      38.969  30.640  30.936  1.00  0.00    -0.354 N 
ATOM     45  C   UNL A   1      38.921  33.059  34.574  1.00  0.00     0.074 A 
ATOM     46  C   UNL A   1      37.848  34.027  34.526  1.00  0.00     0.031 C 
ATOM     47  C   UNL A   1      38.230  29.996  28.924  1.00  0.00     0.029 A 
ATOM     48  C   UNL A   1      39.238  29.731  29.946  1.00  0.00     0.049 A 
ATOM     49  H   UNL A   1      39.446  30.659  31.797  1.00  0.00     0.167 HD
ATOM     50  C   UNL A   1      39.757  32.884  35.624  1.00  0.00     0.037 A 
ATOM     51  C   UNL A   1      40.222  28.818  29.864  1.00  0.00     0.037 A 
ATOM     52  C   UNL A   1      40.810  31.903  35.646  1.00  0.00     0.049 A 
ATOM     53  C   UNL A   1      41.184  28.696  31.011  1.00  0.00     0.074 A 
ATOM     54  C   UNL A   1      41.719  31.630  36.652  1.00  0.00     0.029 A 
ATOM     55  N   UNL A   1      41.092  31.030  34.603  1.00  0.00    -0.354 N 
ATOM     56  N   UNL A   1      41.207  29.357  32.144  1.00  0.00    -0.248 NA
ATOM     57  C   UNL A   1      42.260  27.709  30.868  1.00  0.00     0.031 C 
ATOM     58  C   UNL A   1      42.580  30.623  36.199  1.00  0.00     0.029 A 
ATOM     59  C   UNL A   1      42.177  30.234  34.931  1.00  0.00     0.049 A 
ATOM     60  H   UNL A   1      40.594  30.985  33.755  1.00  0.00     0.167 HD
ATOM     61  C   UNL A   1      42.285  28.857  32.858  1.00  0.00     0.074 A 
ATOM     62  C   UNL A   1      42.882  27.824  32.033  1.00  0.00     0.031 C 
ATOM     63  C   UNL A   1      42.744  29.216  34.083  1.00  0.00     0.037 A 
BRANCH  50  64
ATOM     64  C   UNL A   1      39.600  33.796  36.804  1.00  0.00     0.064 A 
ATOM     65  C   UNL A   1      40.172  35.077  36.837  1.00  0.00     0.173 A 
ATOM     66  C   UNL A   1      38.831  33.394  37.908  1.00  0.00     0.173 A 
ATOM     67  F   UNL A   1      40.930  35.505  35.816  1.00  0.00    -0.203 F 
ATOM     68  C   UNL A   1      39.991  35.914  37.937  1.00  0.00     0.198 A 
ATOM     69  C   UNL A   1      38.632  34.243  38.995  1.00  0.00     0.198 A 
ATOM     70  F   UNL A   1      38.261  32.178  37.929  1.00  0.00    -0.203 F 
ATOM     71  F   UNL A   1      40.574  37.122  37.961  1.00  0.00    -0.200 F 
ATOM     72  C   UNL A   1      39.215  35.500  39.010  1.00  0.00     0.200 A 
ATOM     73  F   UNL A   1      37.873  33.842  40.026  1.00  0.00    -0.200 F 
ATOM     74  F   UNL A   1      39.034  36.312  40.061  1.00  0.00    -0.200 F 
ENDBRANCH  50  64
BRANCH  51  75
ATOM     75  C   UNL A   1      40.347  27.985  28.642  1.00  0.00     0.064 A 
ATOM     76  C   UNL A   1      41.088  28.427  27.538  1.00  0.00     0.173 A 
ATOM     77  C   UNL A   1      39.757  26.714  28.569  1.00  0.00     0.173 A 
ATOM     78  F   UNL A   1      41.655  29.642  27.555  1.00  0.00    -0.203 F 
ATOM     79  C   UNL A   1      41.231  27.630  26.405  1.00  0.00     0.198 A 
ATOM     80  C   UNL A   1      39.924  25.906  27.447  1.00  0.00     0.198 A 
ATOM     81  F   UNL A   1      39.041  26.243  29.602  1.00  0.00    -0.203 F 
ATOM     82  F   UNL A   1      41.924  28.085  25.351  1.00  0.00    -0.200 F 
ATOM     83  C   UNL A   1      40.657  26.367  26.364  1.00  0.00     0.200 A 
ATOM     84  F   UNL A   1      39.383  24.680  27.421  1.00  0.00    -0.200 F 
ATOM     85  F   UNL A   1      40.811  25.594  25.281  1.00  0.00    -0.200 F 
ENDBRANCH  51  75
BRANCH  63  86
ATOM     86  C   UNL A   1      43.929  28.463  34.606  1.00  0.00     0.064 A 
ATOM     87  C   UNL A   1      43.783  27.236  35.271  1.00  0.00     0.173 A 
ATOM     88  C   UNL A   1      45.226  28.964  34.416  1.00  0.00     0.173 A 
ATOM     89  F   UNL A   1      42.561  26.728  35.490  1.00  0.00    -0.203 F 
ATOM     90  C   UNL A   1      44.894  26.550  35.751  1.00  0.00     0.198 A 
ATOM     91  C   UNL A   1      46.337  28.261  34.873  1.00  0.00     0.198 A 
ATOM     92  F   UNL A   1      45.415  30.129  33.780  1.00  0.00    -0.203 F 
ATOM     93  F   UNL A   1      44.729  25.404  36.429  1.00  0.00    -0.200 F 
ATOM     94  C   UNL A   1      46.169  27.060  35.548  1.00  0.00     0.200 A 
ATOM     95  F   UNL A   1      47.567  28.749  34.666  1.00  0.00    -0.200 F 
ATOM     96  F   UNL A   1      47.238  26.397  36.011  1.00  0.00    -0.200 F 
ENDBRANCH  63  86
ENDBRANCH  37  38
ENDBRANCH  30  32
ENDBRANCH  29  30
ENDBRANCH  28  29
ENDBRANCH  27  28
ENDBRANCH  26  27
ENDBRANCH   1  26
TORSDOF 19
ENDMDL
MODEL 3
REMARK VINA RESULT:     -11.9      4.860     10.102
REMARK SMILES COC(=O)C[C@H](NC(=O)N1CC[N@H+]2CCC[C@@H]2C1)C(=O)OCCOCCOC(=O)c1ccc(-c2c3nc(c(-c4c(F)c(F)c(F)c(F)c4F)c4ccc([nH]4)c(-c4c(F)c(F)c(F)c(F)c4F)c4nc(c(-c5c(F)c(F)c(F)c(F)c5F)c5ccc2[nH]5)C=C4)C=C3)cc1
REMARK SMILES IDX 23 1 22 2 21 3 19 4 20 5 6 6 5 7 3 8 4 9 2 10 1 11 7 12 8 13
REMARK SMILES IDX 9 15 10 16 11 17 18 18 12 19 17 20 13 21 16 22 14 23 15 25
REMARK SMILES IDX 24 26 25 27 26 28 27 29 28 30 29 31 30 32 31 33 92 34 32 35
REMARK SMILES IDX 91 36 33 37 34 38 35 39 85 40 36 41 90 42 84 43 86 44 37 45
REMARK SMILES IDX 89 46 83 47 82 48 38 50 70 51 50 52 69 53 51 54 54 55 68 56
REMARK SMILES IDX 87 57 52 58 53 59 67 61 88 62 55 63 39 64 40 65 48 66 41 67
REMARK SMILES IDX 42 68 46 69 49 70 43 71 44 72 47 73 45 74 71 75 72 76 80 77
REMARK SMILES IDX 73 78 74 79 78 80 81 81 75 82 76 83 79 84 77 85 56 86 57 87
REMARK SMILES IDX 65 88 58 89 59 90 63 91 66 92 60 93 61 94 64 95 62 96
REMARK H PARENT 7 14 13 24 86 49 54 60
REMARK Flexibility Score: inf
ROOT
ATOM      1  C   UNL A   1      31.864  27.673  26.260  1.00  0.00     0.202 C 
ENDROOT
BRANCH   1   2
ATOM      2  C   UNL A   1      30.966  26.425  26.513  1.00  0.00     0.261 C 
BRANCH   2   3
ATOM      3  O   UNL A   1      31.726  25.273  26.943  1.00  0.00    -0.462 OA
BRANCH   3   4
ATOM      4  C   UNL A   1      31.225  24.037  26.651  1.00  0.00     0.329 C 
ATOM      5  O   UNL A   1      30.296  23.511  27.256  1.00  0.00    -0.250 OA
BRANCH   4   6
ATOM      6  C   UNL A   1      32.030  23.313  25.545  1.00  0.00     0.204 C 
BRANCH   6   7
ATOM      7  C   UNL A   1      32.615  22.106  26.275  1.00  0.00     0.159 C 
BRANCH   7   8
ATOM      8  C   UNL A   1      32.976  20.966  25.384  1.00  0.00     0.308 C 
ATOM      9  O   UNL A   1      32.290  19.952  25.294  1.00  0.00    -0.252 OA
BRANCH   8  10
ATOM     10  O   UNL A   1      34.138  21.207  24.724  1.00  0.00    -0.469 OA
ATOM     11  C   UNL A   1      35.126  20.199  24.943  1.00  0.00     0.282 C 
ENDBRANCH   8  10
ENDBRANCH   7   8
ENDBRANCH   6   7
BRANCH   6  12
ATOM     12  N   UNL A   1      32.991  24.208  24.842  1.00  0.00    -0.324 N 
ATOM     13  C   UNL A   1      32.782  24.384  23.482  1.00  0.00     0.318 C 
ATOM     14  H   UNL A   1      33.733  24.651  25.316  1.00  0.00     0.166 HD
ATOM     15  O   UNL A   1      32.930  23.449  22.698  1.00  0.00    -0.249 OA
BRANCH  13  16
ATOM     16  N   UNL A   1      32.354  25.637  23.106  1.00  0.00    -0.313 N 
ATOM     17  C   UNL A   1      33.563  27.032  22.836  1.00  0.00     0.183 C 
ATOM     18  C   UNL A   1      30.504  25.949  22.975  1.00  0.00     0.186 C 
ATOM     19  C   UNL A   1      32.810  28.863  22.662  1.00  0.00     0.284 C 
ATOM     20  C   UNL A   1      29.925  27.771  22.628  1.00  0.00     0.204 C 
ATOM     21  N   UNL A   1      31.056  29.136  22.743  1.00  0.00    -0.330 N 
ATOM     22  C   UNL A   1      28.737  28.518  23.178  1.00  0.00     0.073 C 
ATOM     23  C   UNL A   1      30.372  30.228  22.116  1.00  0.00     0.262 C 
ATOM     24  H   UNL A   1      31.278  29.413  23.699  1.00  0.00     0.348 HD
ATOM     25  C   UNL A   1      28.869  29.903  22.425  1.00  0.00     0.068 C 
ENDBRANCH  13  16
ENDBRANCH   6  12
ENDBRANCH   4   6
ENDBRANCH   3   4
ENDBRANCH   2   3
ENDBRANCH   1   2
BRANCH   1  26
ATOM     26  O   UNL A   1      31.523  28.964  26.809  1.00  0.00    -0.374 OA
BRANCH  26  27
ATOM     27  C   UNL A   1      32.291  30.149  26.573  1.00  0.00     0.202 C 
BRANCH  27  28
ATOM     28  C   UNL A   1      31.746  31.729  26.663  1.00  0.00     0.261 C 
BRANCH  28  29
ATOM     29  O   UNL A   1      32.450  33.253  27.679  1.00  0.00    -0.460 OA
BRANCH  29  30
ATOM     30  C   UNL A   1      32.933  34.341  28.449  1.00  0.00     0.338 C 
ATOM     31  O   UNL A   1      32.460  35.463  28.458  1.00  0.00    -0.246 OA
BRANCH  30  32
ATOM     32  C   UNL A   1      34.234  34.318  29.263  1.00  0.00     0.060 A 
ATOM     33  C   UNL A   1      35.529  34.282  28.728  1.00  0.00     0.016 A 
ATOM     34  C   UNL A   1      34.067  34.020  30.632  1.00  0.00     0.016 A 
ATOM     35  C   UNL A   1      36.618  33.920  29.516  1.00  0.00     0.010 A 
ATOM     36  C   UNL A   1      35.152  33.615  31.416  1.00  0.00     0.010 A 
ATOM     37  C   UNL A   1      36.420  33.515  30.837  1.00  0.00    -0.014 A 
BRANCH  37  38
ATOM     38  C   UNL A   1      37.525  32.817  31.516  1.00  0.00     0.031 A 
ATOM     39  C   UNL A   1      38.194  31.667  30.819  1.00  0.00     0.074 A 
ATOM     40  C   UNL A   1      37.979  33.290  32.686  1.00  0.00     0.049 A 
ATOM     41  N   UNL A   1      39.152  30.888  31.245  1.00  0.00    -0.248 NA
ATOM     42  C   UNL A   1      37.731  31.362  29.455  1.00  0.00     0.031 C 
ATOM     43  C   UNL A   1      37.451  34.466  33.376  1.00  0.00     0.029 A 
ATOM     44  N   UNL A   1      38.987  32.842  33.495  1.00  0.00    -0.354 N 
ATOM     45  C   UNL A   1      39.388  29.984  30.216  1.00  0.00     0.074 A 
ATOM     46  C   UNL A   1      38.475  30.310  29.142  1.00  0.00     0.031 C 
ATOM     47  C   UNL A   1      38.132  34.639  34.520  1.00  0.00     0.029 A 
ATOM     48  C   UNL A   1      39.103  33.558  34.658  1.00  0.00     0.049 A 
ATOM     49  H   UNL A   1      39.571  32.084  33.265  1.00  0.00     0.167 HD
ATOM     50  C   UNL A   1      40.285  28.971  30.185  1.00  0.00     0.037 A 
ATOM     51  C   UNL A   1      39.882  33.330  35.730  1.00  0.00     0.037 A 
ATOM     52  C   UNL A   1      41.189  28.677  31.265  1.00  0.00     0.049 A 
ATOM     53  C   UNL A   1      40.815  32.153  35.702  1.00  0.00     0.074 A 
ATOM     54  C   UNL A   1      42.144  27.680  31.350  1.00  0.00     0.029 A 
ATOM     55  N   UNL A   1      41.246  29.390  32.456  1.00  0.00    -0.354 N 
ATOM     56  N   UNL A   1      41.015  31.281  34.743  1.00  0.00    -0.248 NA
ATOM     57  C   UNL A   1      41.623  31.922  36.905  1.00  0.00     0.031 C 
ATOM     58  C   UNL A   1      42.747  27.761  32.611  1.00  0.00     0.029 A 
ATOM     59  C   UNL A   1      42.203  28.839  33.293  1.00  0.00     0.049 A 
ATOM     60  H   UNL A   1      40.688  30.171  32.673  1.00  0.00     0.167 HD
ATOM     61  C   UNL A   1      41.984  30.409  35.215  1.00  0.00     0.074 A 
ATOM     62  C   UNL A   1      42.341  30.868  36.544  1.00  0.00     0.031 C 
ATOM     63  C   UNL A   1      42.531  29.324  34.609  1.00  0.00     0.037 A 
BRANCH  50  64
ATOM     64  C   UNL A   1      40.299  28.083  28.975  1.00  0.00     0.064 A 
ATOM     65  C   UNL A   1      41.042  28.398  27.828  1.00  0.00     0.173 A 
ATOM     66  C   UNL A   1      39.583  26.875  28.980  1.00  0.00     0.173 A 
ATOM     67  F   UNL A   1      41.730  29.548  27.763  1.00  0.00    -0.203 F 
ATOM     68  C   UNL A   1      41.057  27.544  26.727  1.00  0.00     0.198 A 
ATOM     69  C   UNL A   1      39.620  26.012  27.888  1.00  0.00     0.198 A 
ATOM     70  F   UNL A   1      38.855  26.524  30.052  1.00  0.00    -0.203 F 
ATOM     71  F   UNL A   1      41.749  27.881  25.628  1.00  0.00    -0.200 F 
ATOM     72  C   UNL A   1      40.353  26.348  26.761  1.00  0.00     0.200 A 
ATOM     73  F   UNL A   1      38.946  24.852  27.929  1.00  0.00    -0.200 F 
ATOM     74  F   UNL A   1      40.378  25.523  25.704  1.00  0.00    -0.200 F 
ENDBRANCH  50  64
BRANCH  51  75
ATOM     75  C   UNL A   1      39.776  34.220  36.913  1.00  0.00     0.064 A 
ATOM     76  C   UNL A   1      38.964  33.882  38.004  1.00  0.00     0.173 A 
ATOM     77  C   UNL A   1      40.515  35.412  36.990  1.00  0.00     0.173 A 
ATOM     78  F   UNL A   1      38.227  32.763  37.968  1.00  0.00    -0.203 F 
ATOM     79  C   UNL A   1      38.892  34.704  39.126  1.00  0.00     0.198 A 
ATOM     80  C   UNL A   1      40.464  36.217  38.124  1.00  0.00     0.198 A 
ATOM     81  F   UNL A   1      41.310  35.777  35.973  1.00  0.00    -0.203 F 
ATOM     82  F   UNL A   1      38.089  34.371  40.147  1.00  0.00    -0.200 F 
ATOM     83  C   UNL A   1      39.649  35.865  39.189  1.00  0.00     0.200 A 
ATOM     84  F   UNL A   1      41.211  37.329  38.187  1.00  0.00    -0.200 F 
ATOM     85  F   UNL A   1      39.593  36.645  40.277  1.00  0.00    -0.200 F 
ENDBRANCH  51  75
BRANCH  63  86
ATOM     86  C   UNL A   1      43.589  28.588  35.374  1.00  0.00     0.064 A 
ATOM     87  C   UNL A   1      44.951  28.881  35.206  1.00  0.00     0.173 A 
ATOM     88  C   UNL A   1      43.232  27.598  36.301  1.00  0.00     0.173 A 
ATOM     89  F   UNL A   1      45.339  29.807  34.318  1.00  0.00    -0.203 F 
ATOM     90  C   UNL A   1      45.921  28.186  35.922  1.00  0.00     0.198 A 
ATOM     91  C   UNL A   1      44.203  26.925  37.037  1.00  0.00     0.198 A 
ATOM     92  F   UNL A   1      41.942  27.289  36.500  1.00  0.00    -0.203 F 
ATOM     93  F   UNL A   1      47.220  28.445  35.711  1.00  0.00    -0.200 F 
ATOM     94  C   UNL A   1      45.547  27.214  36.840  1.00  0.00     0.200 A 
ATOM     95  F   UNL A   1      43.840  25.995  37.929  1.00  0.00    -0.200 F 
ATOM     96  F   UNL A   1      46.483  26.547  37.530  1.00  0.00    -0.200 F 
ENDBRANCH  63  86
ENDBRANCH  37  38
ENDBRANCH  30  32
ENDBRANCH  29  30
ENDBRANCH  28  29
ENDBRANCH  27  28
ENDBRANCH  26  27
ENDBRANCH   1  26
TORSDOF 19
ENDMDL
