MODEL 1
REMARK VINA RESULT:     -14.5      0.000      0.000
REMARK SMILES CC1(C)CCCC[C@@H]1NC(=O)NC1(C(=O)OCCOCCOC(=O)c2ccc(-c3c4nc(c(-c5c(F)c(F)c(F)c(F)c5F)c5ccc([nH]5)c(-c5c(F)c(F)c(F)c(F)c5F)c5nc(c(-c6c(F)c(F)c(F)c(F)c6F)c6ccc3[nH]6)C=C5)C=C4)cc2)CCCCC1
REMARK SMILES IDX 19 1 18 2 17 3 16 4 14 5 15 6 13 7 88 8 92 9 89 10 91 11
REMARK SMILES IDX 90 12 12 13 9 14 10 15 11 17 8 19 1 20 2 21 3 22 4 23 5 24
REMARK SMILES IDX 7 25 6 26 20 27 21 28 22 29 23 30 24 31 25 32 26 33 87 34
REMARK SMILES IDX 27 35 86 36 28 37 29 38 30 39 80 40 31 41 85 42 79 43 81 44
REMARK SMILES IDX 32 45 84 46 78 47 77 48 33 50 65 51 45 52 64 53 46 54 49 55
REMARK SMILES IDX 63 56 82 57 47 58 48 59 62 61 83 62 50 63 34 64 35 65 43 66
REMARK SMILES IDX 36 67 37 68 41 69 44 70 38 71 39 72 42 73 40 74 66 75 67 76
REMARK SMILES IDX 75 77 68 78 69 79 73 80 76 81 70 82 71 83 74 84 72 85 51 86
REMARK SMILES IDX 52 87 60 88 53 89 54 90 58 91 61 92 55 93 56 94 59 95 57 96
REMARK H PARENT 9 16 12 18 81 49 49 60
REMARK Flexibility Score: inf
ROOT
ATOM      1  O   UNL A   1      40.491  21.539  26.582  1.00  0.00    -0.374 OA
ENDROOT
BRANCH   1   2
ATOM      2  C   UNL A   1      39.313  21.198  25.890  1.00  0.00     0.202 C 
BRANCH   2   3
ATOM      3  C   UNL A   1      38.032  22.137  25.791  1.00  0.00     0.261 C 
BRANCH   3   4
ATOM      4  O   UNL A   1      36.300  21.817  25.454  1.00  0.00    -0.461 OA
BRANCH   4   5
ATOM      5  C   UNL A   1      34.700  21.286  25.772  1.00  0.00     0.331 C 
ATOM      6  O   UNL A   1      34.101  21.564  26.839  1.00  0.00    -0.249 OA
BRANCH   5   7
ATOM      7  C   UNL A   1      33.687  20.309  24.726  1.00  0.00     0.139 C 
ATOM      8  C   UNL A   1      34.562  18.998  24.719  1.00  0.00     0.040 C 
ATOM      9  C   UNL A   1      32.586  20.181  23.540  1.00  0.00     0.040 C 
ATOM     10  C   UNL A   1      34.117  17.693  24.071  1.00  0.00     0.003 C 
ATOM     11  C   UNL A   1      32.153  18.767  23.133  1.00  0.00     0.003 C 
ATOM     12  C   UNL A   1      33.325  17.890  22.800  1.00  0.00     0.000 C 
BRANCH   7  13
ATOM     13  N   UNL A   1      32.674  20.533  25.756  1.00  0.00    -0.322 N 
ATOM     14  N   UNL A   1      31.939  22.191  24.256  1.00  0.00    -0.335 N 
ATOM     15  C   UNL A   1      31.731  21.504  25.470  1.00  0.00     0.315 C 
ATOM     16  H   UNL A   1      31.225  22.149  23.579  1.00  0.00     0.165 HD
ATOM     17  O   UNL A   1      30.750  21.703  26.172  1.00  0.00    -0.249 OA
ATOM     18  H   UNL A   1      32.663  20.025  26.600  1.00  0.00     0.166 HD
BRANCH  14  19
ATOM     19  C   UNL A   1      33.167  22.980  23.925  1.00  0.00     0.089 C 
ATOM     20  C   UNL A   1      35.202  24.555  25.238  1.00  0.00     0.013 C 
ATOM     21  C   UNL A   1      33.695  24.682  24.789  1.00  0.00    -0.015 C 
ATOM     22  C   UNL A   1      33.188  24.965  26.230  1.00  0.00     0.013 C 
ATOM     23  C   UNL A   1      33.631  26.296  23.690  1.00  0.00     0.008 C 
ATOM     24  C   UNL A   1      33.230  26.213  21.790  1.00  0.00     0.001 C 
ATOM     25  C   UNL A   1      33.024  22.891  22.008  1.00  0.00     0.025 C 
ATOM     26  C   UNL A   1      33.039  24.479  20.921  1.00  0.00     0.002 C 
ENDBRANCH  14  19
ENDBRANCH   7  13
ENDBRANCH   5   7
ENDBRANCH   4   5
ENDBRANCH   3   4
ENDBRANCH   2   3
ENDBRANCH   1   2
BRANCH   1  27
ATOM     27  C   UNL A   1      41.723  20.956  26.151  1.00  0.00     0.202 C 
BRANCH  27  28
ATOM     28  C   UNL A   1      42.879  21.929  25.852  1.00  0.00     0.261 C 
BRANCH  28  29
ATOM     29  O   UNL A   1      42.519  23.030  24.999  1.00  0.00    -0.460 OA
BRANCH  29  30
ATOM     30  C   UNL A   1      43.278  24.134  25.152  1.00  0.00     0.338 C 
ATOM     31  O   UNL A   1      44.400  24.326  24.690  1.00  0.00    -0.246 OA
BRANCH  30  32
ATOM     32  C   UNL A   1      42.494  25.190  25.804  1.00  0.00     0.060 A 
ATOM     33  C   UNL A   1      43.075  26.457  25.933  1.00  0.00     0.016 A 
ATOM     34  C   UNL A   1      41.241  24.919  26.361  1.00  0.00     0.016 A 
ATOM     35  C   UNL A   1      42.448  27.435  26.697  1.00  0.00     0.010 A 
ATOM     36  C   UNL A   1      40.612  25.900  27.130  1.00  0.00     0.010 A 
ATOM     37  C   UNL A   1      41.253  27.132  27.361  1.00  0.00    -0.014 A 
BRANCH  37  38
ATOM     38  C   UNL A   1      40.871  27.954  28.536  1.00  0.00     0.031 A 
ATOM     39  C   UNL A   1      41.712  27.817  29.780  1.00  0.00     0.074 A 
ATOM     40  C   UNL A   1      39.873  28.851  28.489  1.00  0.00     0.049 A 
ATOM     41  N   UNL A   1      41.571  28.382  30.952  1.00  0.00    -0.248 NA
ATOM     42  C   UNL A   1      42.876  26.920  29.685  1.00  0.00     0.031 C 
ATOM     43  C   UNL A   1      39.045  29.138  27.321  1.00  0.00     0.029 A 
ATOM     44  N   UNL A   1      39.390  29.689  29.462  1.00  0.00    -0.354 N 
ATOM     45  C   UNL A   1      42.616  27.896  31.729  1.00  0.00     0.074 A 
ATOM     46  C   UNL A   1      43.364  26.969  30.914  1.00  0.00     0.031 C 
ATOM     47  C   UNL A   1      38.145  30.081  27.649  1.00  0.00     0.029 A 
ATOM     48  C   UNL A   1      38.308  30.432  29.060  1.00  0.00     0.049 A 
ATOM     49  H   UNL A   1      39.782  29.751  30.364  1.00  0.00     0.167 HD
ATOM     50  C   UNL A   1      42.930  28.204  33.009  1.00  0.00     0.037 A 
ATOM     51  C   UNL A   1      37.526  31.274  29.765  1.00  0.00     0.037 A 
ATOM     52  C   UNL A   1      42.190  29.135  33.816  1.00  0.00     0.049 A 
ATOM     53  C   UNL A   1      37.836  31.526  31.221  1.00  0.00     0.074 A 
ATOM     54  C   UNL A   1      42.421  29.515  35.125  1.00  0.00     0.029 A 
ATOM     55  N   UNL A   1      41.067  29.827  33.388  1.00  0.00    -0.354 N 
ATOM     56  N   UNL A   1      38.818  31.059  31.955  1.00  0.00    -0.248 NA
ATOM     57  C   UNL A   1      36.927  32.425  31.947  1.00  0.00     0.031 C 
ATOM     58  C   UNL A   1      41.403  30.390  35.510  1.00  0.00     0.029 A 
ATOM     59  C   UNL A   1      40.579  30.614  34.418  1.00  0.00     0.049 A 
ATOM     60  H   UNL A   1      40.677  29.770  32.486  1.00  0.00     0.167 HD
ATOM     61  C   UNL A   1      38.669  31.637  33.210  1.00  0.00     0.074 A 
ATOM     62  C   UNL A   1      37.505  32.493  33.138  1.00  0.00     0.031 C 
ATOM     63  C   UNL A   1      39.430  31.478  34.322  1.00  0.00     0.037 A 
BRANCH  50  64
ATOM     64  C   UNL A   1      44.100  27.494  33.626  1.00  0.00     0.064 A 
ATOM     65  C   UNL A   1      43.961  26.268  34.293  1.00  0.00     0.173 A 
ATOM     66  C   UNL A   1      45.387  28.045  33.532  1.00  0.00     0.173 A 
ATOM     67  F   UNL A   1      42.750  25.707  34.431  1.00  0.00    -0.203 F 
ATOM     68  C   UNL A   1      45.062  25.634  34.866  1.00  0.00     0.198 A 
ATOM     69  C   UNL A   1      46.490  27.392  34.074  1.00  0.00     0.198 A 
ATOM     70  F   UNL A   1      45.577  29.216  32.906  1.00  0.00    -0.203 F 
ATOM     71  F   UNL A   1      44.896  24.492  35.546  1.00  0.00    -0.200 F 
ATOM     72  C   UNL A   1      46.326  26.192  34.748  1.00  0.00     0.200 A 
ATOM     73  F   UNL A   1      47.712  27.927  33.947  1.00  0.00    -0.200 F 
ATOM     74  F   UNL A   1      47.384  25.578  35.292  1.00  0.00    -0.200 F 
ENDBRANCH  50  64
BRANCH  51  75
ATOM     75  C   UNL A   1      36.355  31.923  29.117  1.00  0.00     0.064 A 
ATOM     76  C   UNL A   1      36.321  33.306  28.889  1.00  0.00     0.173 A 
ATOM     77  C   UNL A   1      35.227  31.176  28.742  1.00  0.00     0.173 A 
ATOM     78  F   UNL A   1      37.363  34.070  29.254  1.00  0.00    -0.203 F 
ATOM     79  C   UNL A   1      35.199  33.918  28.335  1.00  0.00     0.198 A 
ATOM     80  C   UNL A   1      34.119  31.785  28.158  1.00  0.00     0.198 A 
ATOM     81  F   UNL A   1      35.204  29.849  28.941  1.00  0.00    -0.203 F 
ATOM     82  F   UNL A   1      35.173  35.250  28.182  1.00  0.00    -0.200 F 
ATOM     83  C   UNL A   1      34.101  33.157  27.965  1.00  0.00     0.200 A 
ATOM     84  F   UNL A   1      33.067  31.041  27.789  1.00  0.00    -0.200 F 
ATOM     85  F   UNL A   1      33.022  33.746  27.431  1.00  0.00    -0.200 F 
ENDBRANCH  51  75
BRANCH  63  86
ATOM     86  C   UNL A   1      39.076  32.291  35.535  1.00  0.00     0.064 A 
ATOM     87  C   UNL A   1      38.348  31.752  36.605  1.00  0.00     0.173 A 
ATOM     88  C   UNL A   1      39.531  33.615  35.652  1.00  0.00     0.173 A 
ATOM     89  F   UNL A   1      37.882  30.496  36.541  1.00  0.00    -0.203 F 
ATOM     90  C   UNL A   1      38.067  32.515  37.736  1.00  0.00     0.198 A 
ATOM     91  C   UNL A   1      39.278  34.362  36.798  1.00  0.00     0.198 A 
ATOM     92  F   UNL A   1      40.242  34.176  34.662  1.00  0.00    -0.203 F 
ATOM     93  F   UNL A   1      37.330  31.995  38.726  1.00  0.00    -0.200 F 
ATOM     94  C   UNL A   1      38.541  33.816  37.836  1.00  0.00     0.200 A 
ATOM     95  F   UNL A   1      39.755  35.611  36.900  1.00  0.00    -0.200 F 
ATOM     96  F   UNL A   1      38.280  34.543  38.931  1.00  0.00    -0.200 F 
ENDBRANCH  63  86
ENDBRANCH  37  38
ENDBRANCH  30  32
ENDBRANCH  29  30
ENDBRANCH  28  29
ENDBRANCH  27  28
ENDBRANCH   1  27
TORSDOF 16
ENDMDL
MODEL 2
REMARK VINA RESULT:     -14.0      5.320     10.532
REMARK SMILES CC1(C)CCCC[C@@H]1NC(=O)NC1(C(=O)OCCOCCOC(=O)c2ccc(-c3c4nc(c(-c5c(F)c(F)c(F)c(F)c5F)c5ccc([nH]5)c(-c5c(F)c(F)c(F)c(F)c5F)c5nc(c(-c6c(F)c(F)c(F)c(F)c6F)c6ccc3[nH]6)C=C5)C=C4)cc2)CCCCC1
REMARK SMILES IDX 19 1 18 2 17 3 16 4 14 5 15 6 13 7 88 8 92 9 89 10 91 11
REMARK SMILES IDX 90 12 12 13 9 14 10 15 11 17 8 19 1 20 2 21 3 22 4 23 5 24
REMARK SMILES IDX 7 25 6 26 20 27 21 28 22 29 23 30 24 31 25 32 26 33 87 34
REMARK SMILES IDX 27 35 86 36 28 37 29 38 30 39 80 40 31 41 85 42 79 43 81 44
REMARK SMILES IDX 32 45 84 46 78 47 77 48 33 50 65 51 45 52 64 53 46 54 49 55
REMARK SMILES IDX 63 56 82 57 47 58 48 59 62 61 83 62 50 63 34 64 35 65 43 66
REMARK SMILES IDX 36 67 37 68 41 69 44 70 38 71 39 72 42 73 40 74 66 75 67 76
REMARK SMILES IDX 75 77 68 78 69 79 73 80 76 81 70 82 71 83 74 84 72 85 51 86
REMARK SMILES IDX 52 87 60 88 53 89 54 90 58 91 61 92 55 93 56 94 59 95 57 96
REMARK H PARENT 9 16 12 18 81 49 49 60
REMARK Flexibility Score: inf
ROOT
ATOM      1  O   UNL A   1      34.288  32.331  27.956  1.00  0.00    -0.374 OA
ENDROOT
BRANCH   1   2
ATOM      2  C   UNL A   1      33.069  31.772  27.531  1.00  0.00     0.202 C 
BRANCH   2   3
ATOM      3  C   UNL A   1      32.878  30.243  27.133  1.00  0.00     0.261 C 
BRANCH   3   4
ATOM      4  O   UNL A   1      32.803  29.385  25.559  1.00  0.00    -0.461 OA
BRANCH   4   5
ATOM      5  C   UNL A   1      32.223  29.013  23.989  1.00  0.00     0.331 C 
ATOM      6  O   UNL A   1      32.992  28.846  23.011  1.00  0.00    -0.249 OA
BRANCH   5   7
ATOM      7  C   UNL A   1      30.549  28.824  23.501  1.00  0.00     0.139 C 
ATOM      8  C   UNL A   1      30.079  30.314  23.712  1.00  0.00     0.040 C 
ATOM      9  C   UNL A   1      29.224  27.904  23.319  1.00  0.00     0.040 C 
ATOM     10  C   UNL A   1      28.703  30.828  23.308  1.00  0.00     0.003 C 
ATOM     11  C   UNL A   1      27.971  28.581  22.749  1.00  0.00     0.003 C 
ATOM     12  C   UNL A   1      27.599  29.818  23.515  1.00  0.00     0.000 C 
BRANCH   7  13
ATOM     13  N   UNL A   1      31.129  28.389  22.232  1.00  0.00    -0.322 N 
ATOM     14  N   UNL A   1      30.717  26.247  23.116  1.00  0.00    -0.335 N 
ATOM     15  C   UNL A   1      31.170  27.021  22.028  1.00  0.00     0.315 C 
ATOM     16  H   UNL A   1      29.955  25.643  22.962  1.00  0.00     0.165 HD
ATOM     17  O   UNL A   1      31.498  26.519  20.963  1.00  0.00    -0.249 OA
ATOM     18  H   UNL A   1      31.469  29.029  21.565  1.00  0.00     0.166 HD
BRANCH  14  19
ATOM     19  C   UNL A   1      31.315  26.277  24.488  1.00  0.00     0.089 C 
ATOM     20  C   UNL A   1      33.876  26.643  25.775  1.00  0.00     0.013 C 
ATOM     21  C   UNL A   1      33.085  25.535  24.976  1.00  0.00    -0.015 C 
ATOM     22  C   UNL A   1      34.168  25.425  23.868  1.00  0.00     0.013 C 
ATOM     23  C   UNL A   1      33.104  23.966  26.140  1.00  0.00     0.008 C 
ATOM     24  C   UNL A   1      31.468  23.263  26.919  1.00  0.00     0.001 C 
ATOM     25  C   UNL A   1      29.751  25.726  25.465  1.00  0.00     0.025 C 
ATOM     26  C   UNL A   1      29.792  24.226  26.670  1.00  0.00     0.002 C 
ENDBRANCH  14  19
ENDBRANCH   7  13
ENDBRANCH   5   7
ENDBRANCH   4   5
ENDBRANCH   3   4
ENDBRANCH   2   3
ENDBRANCH   1   2
BRANCH   1  27
ATOM     27  C   UNL A   1      34.259  33.596  28.621  1.00  0.00     0.202 C 
BRANCH  27  28
ATOM     28  C   UNL A   1      34.621  33.597  30.118  1.00  0.00     0.261 C 
BRANCH  28  29
ATOM     29  O   UNL A   1      34.464  32.321  30.765  1.00  0.00    -0.460 OA
BRANCH  29  30
ATOM     30  C   UNL A   1      35.378  32.057  31.720  1.00  0.00     0.338 C 
ATOM     31  O   UNL A   1      35.370  32.461  32.880  1.00  0.00    -0.246 OA
BRANCH  30  32
ATOM     32  C   UNL A   1      36.319  31.037  31.239  1.00  0.00     0.060 A 
ATOM     33  C   UNL A   1      37.368  30.657  32.085  1.00  0.00     0.016 A 
ATOM     34  C   UNL A   1      36.225  30.523  29.943  1.00  0.00     0.016 A 
ATOM     35  C   UNL A   1      38.381  29.833  31.609  1.00  0.00     0.010 A 
ATOM     36  C   UNL A   1      37.244  29.696  29.463  1.00  0.00     0.010 A 
ATOM     37  C   UNL A   1      38.361  29.414  30.273  1.00  0.00    -0.014 A 
BRANCH  37  38
ATOM     38  C   UNL A   1      39.637  28.990  29.647  1.00  0.00     0.031 A 
ATOM     39  C   UNL A   1      40.738  30.016  29.556  1.00  0.00     0.074 A 
ATOM     40  C   UNL A   1      39.855  27.727  29.246  1.00  0.00     0.049 A 
ATOM     41  N   UNL A   1      41.928  29.922  29.019  1.00  0.00    -0.248 NA
ATOM     42  C   UNL A   1      40.457  31.330  30.158  1.00  0.00     0.031 C 
ATOM     43  C   UNL A   1      38.903  26.626  29.362  1.00  0.00     0.029 A 
ATOM     44  N   UNL A   1      40.959  27.163  28.660  1.00  0.00    -0.354 N 
ATOM     45  C   UNL A   1      42.523  31.164  29.207  1.00  0.00     0.074 A 
ATOM     46  C   UNL A   1      41.559  32.005  29.876  1.00  0.00     0.031 C 
ATOM     47  C   UNL A   1      39.462  25.515  28.849  1.00  0.00     0.029 A 
ATOM     48  C   UNL A   1      40.792  25.839  28.333  1.00  0.00     0.049 A 
ATOM     49  H   UNL A   1      41.792  27.659  28.488  1.00  0.00     0.167 HD
ATOM     50  C   UNL A   1      43.768  31.566  28.862  1.00  0.00     0.037 A 
ATOM     51  C   UNL A   1      41.612  25.002  27.668  1.00  0.00     0.037 A 
ATOM     52  C   UNL A   1      44.730  30.723  28.205  1.00  0.00     0.049 A 
ATOM     53  C   UNL A   1      42.959  25.501  27.202  1.00  0.00     0.074 A 
ATOM     54  C   UNL A   1      46.017  31.032  27.807  1.00  0.00     0.029 A 
ATOM     55  N   UNL A   1      44.503  29.404  27.843  1.00  0.00    -0.354 N 
ATOM     56  N   UNL A   1      43.514  26.677  27.374  1.00  0.00    -0.248 NA
ATOM     57  C   UNL A   1      43.795  24.553  26.451  1.00  0.00     0.031 C 
ATOM     58  C   UNL A   1      46.548  29.920  27.149  1.00  0.00     0.029 A 
ATOM     59  C   UNL A   1      45.619  28.893  27.203  1.00  0.00     0.049 A 
ATOM     60  H   UNL A   1      43.672  28.905  28.017  1.00  0.00     0.167 HD
ATOM     61  C   UNL A   1      44.774  26.597  26.792  1.00  0.00     0.074 A 
ATOM     62  C   UNL A   1      44.904  25.256  26.265  1.00  0.00     0.031 C 
ATOM     63  C   UNL A   1      45.739  27.546  26.704  1.00  0.00     0.037 A 
BRANCH  50  64
ATOM     64  C   UNL A   1      44.143  32.990  29.150  1.00  0.00     0.064 A 
ATOM     65  C   UNL A   1      43.928  34.021  28.223  1.00  0.00     0.173 A 
ATOM     66  C   UNL A   1      44.713  33.332  30.386  1.00  0.00     0.173 A 
ATOM     67  F   UNL A   1      43.406  33.746  27.017  1.00  0.00    -0.203 F 
ATOM     68  C   UNL A   1      44.294  35.333  28.511  1.00  0.00     0.198 A 
ATOM     69  C   UNL A   1      45.045  34.650  30.685  1.00  0.00     0.198 A 
ATOM     70  F   UNL A   1      44.942  32.386  31.310  1.00  0.00    -0.203 F 
ATOM     71  F   UNL A   1      44.130  36.291  27.588  1.00  0.00    -0.200 F 
ATOM     72  C   UNL A   1      44.844  35.648  29.745  1.00  0.00     0.200 A 
ATOM     73  F   UNL A   1      45.564  34.952  31.883  1.00  0.00    -0.200 F 
ATOM     74  F   UNL A   1      45.188  36.912  30.024  1.00  0.00    -0.200 F 
ENDBRANCH  50  64
BRANCH  51  75
ATOM     75  C   UNL A   1      41.178  23.610  27.373  1.00  0.00     0.064 A 
ATOM     76  C   UNL A   1      41.837  22.506  27.932  1.00  0.00     0.173 A 
ATOM     77  C   UNL A   1      40.113  23.354  26.496  1.00  0.00     0.173 A 
ATOM     78  F   UNL A   1      42.880  22.697  28.756  1.00  0.00    -0.203 F 
ATOM     79  C   UNL A   1      41.465  21.204  27.608  1.00  0.00     0.198 A 
ATOM     80  C   UNL A   1      39.720  22.051  26.199  1.00  0.00     0.198 A 
ATOM     81  F   UNL A   1      39.448  24.372  25.929  1.00  0.00    -0.203 F 
ATOM     82  F   UNL A   1      42.150  20.169  28.114  1.00  0.00    -0.200 F 
ATOM     83  C   UNL A   1      40.403  20.976  26.747  1.00  0.00     0.200 A 
ATOM     84  F   UNL A   1      38.683  21.838  25.376  1.00  0.00    -0.200 F 
ATOM     85  F   UNL A   1      40.044  19.723  26.436  1.00  0.00    -0.200 F 
ENDBRANCH  51  75
BRANCH  63  86
ATOM     86  C   UNL A   1      47.048  27.159  26.074  1.00  0.00     0.064 A 
ATOM     87  C   UNL A   1      48.063  26.522  26.802  1.00  0.00     0.173 A 
ATOM     88  C   UNL A   1      47.259  27.373  24.702  1.00  0.00     0.173 A 
ATOM     89  F   UNL A   1      47.916  26.302  28.117  1.00  0.00    -0.203 F 
ATOM     90  C   UNL A   1      49.251  26.137  26.185  1.00  0.00     0.198 A 
ATOM     91  C   UNL A   1      48.432  26.956  24.083  1.00  0.00     0.198 A 
ATOM     92  F   UNL A   1      46.315  27.968  23.957  1.00  0.00    -0.203 F 
ATOM     93  F   UNL A   1      50.227  25.573  26.910  1.00  0.00    -0.200 F 
ATOM     94  C   UNL A   1      49.431  26.345  24.825  1.00  0.00     0.200 A 
ATOM     95  F   UNL A   1      48.595  27.140  22.765  1.00  0.00    -0.200 F 
ATOM     96  F   UNL A   1      50.570  25.962  24.232  1.00  0.00    -0.200 F 
ENDBRANCH  63  86
ENDBRANCH  37  38
ENDBRANCH  30  32
ENDBRANCH  29  30
ENDBRANCH  28  29
ENDBRANCH  27  28
ENDBRANCH   1  27
TORSDOF 16
ENDMDL
MODEL 3
REMARK VINA RESULT:     -13.9      4.588      8.786
REMARK SMILES CC1(C)CCCC[C@@H]1NC(=O)NC1(C(=O)OCCOCCOC(=O)c2ccc(-c3c4nc(c(-c5c(F)c(F)c(F)c(F)c5F)c5ccc([nH]5)c(-c5c(F)c(F)c(F)c(F)c5F)c5nc(c(-c6c(F)c(F)c(F)c(F)c6F)c6ccc3[nH]6)C=C5)C=C4)cc2)CCCCC1
REMARK SMILES IDX 19 1 18 2 17 3 16 4 14 5 15 6 13 7 88 8 92 9 89 10 91 11
REMARK SMILES IDX 90 12 12 13 9 14 10 15 11 17 8 19 1 20 2 21 3 22 4 23 5 24
REMARK SMILES IDX 7 25 6 26 20 27 21 28 22 29 23 30 24 31 25 32 26 33 87 34
REMARK SMILES IDX 27 35 86 36 28 37 29 38 30 39 80 40 31 41 85 42 79 43 81 44
REMARK SMILES IDX 32 45 84 46 78 47 77 48 33 50 65 51 45 52 64 53 46 54 49 55
REMARK SMILES IDX 63 56 82 57 47 58 48 59 62 61 83 62 50 63 34 64 35 65 43 66
REMARK SMILES IDX 36 67 37 68 41 69 44 70 38 71 39 72 42 73 40 74 66 75 67 76
REMARK SMILES IDX 75 77 68 78 69 79 73 80 76 81 70 82 71 83 74 84 72 85 51 86
REMARK SMILES IDX 52 87 60 88 53 89 54 90 58 91 61 92 55 93 56 94 59 95 57 96
REMARK H PARENT 9 16 12 18 81 49 49 60
REMARK Flexibility Score: inf
ROOT
ATOM      1  O   UNL A   1      46.273  26.730  24.617  1.00  0.00    -0.374 OA
ENDROOT
BRANCH   1   2
ATOM      2  C   UNL A   1      46.928  27.927  24.964  1.00  0.00     0.202 C 
BRANCH   2   3
ATOM      3  C   UNL A   1      46.237  29.127  25.748  1.00  0.00     0.261 C 
BRANCH   3   4
ATOM      4  O   UNL A   1      46.785  30.776  26.197  1.00  0.00    -0.461 OA
BRANCH   4   5
ATOM      5  C   UNL A   1      47.056  32.126  27.218  1.00  0.00     0.331 C 
ATOM      6  O   UNL A   1      47.463  32.004  28.399  1.00  0.00    -0.249 OA
BRANCH   5   7
ATOM      7  C   UNL A   1      46.815  33.817  26.816  1.00  0.00     0.139 C 
ATOM      8  C   UNL A   1      48.327  34.261  26.777  1.00  0.00     0.040 C 
ATOM      9  C   UNL A   1      45.901  35.158  26.831  1.00  0.00     0.040 C 
ATOM     10  C   UNL A   1      48.787  35.642  26.327  1.00  0.00     0.003 C 
ATOM     11  C   UNL A   1      46.491  36.418  26.185  1.00  0.00     0.003 C 
ATOM     12  C   UNL A   1      47.847  36.752  26.735  1.00  0.00     0.000 C 
BRANCH   7  13
ATOM     13  N   UNL A   1      46.157  33.279  25.626  1.00  0.00    -0.322 N 
ATOM     14  N   UNL A   1      44.204  33.795  26.834  1.00  0.00    -0.335 N 
ATOM     15  C   UNL A   1      44.774  33.316  25.637  1.00  0.00     0.315 C 
ATOM     16  H   UNL A   1      43.627  34.591  26.780  1.00  0.00     0.165 HD
ATOM     17  O   UNL A   1      44.096  33.031  24.661  1.00  0.00    -0.249 OA
ATOM     18  H   UNL A   1      46.666  32.915  24.866  1.00  0.00     0.166 HD
BRANCH  14  19
ATOM     19  C   UNL A   1      44.412  33.177  28.181  1.00  0.00     0.089 C 
ATOM     20  C   UNL A   1      44.810  30.580  29.384  1.00  0.00     0.013 C 
ATOM     21  C   UNL A   1      43.644  31.450  28.774  1.00  0.00    -0.015 C 
ATOM     22  C   UNL A   1      43.288  30.393  27.693  1.00  0.00     0.013 C 
ATOM     23  C   UNL A   1      42.281  31.515  30.173  1.00  0.00     0.008 C 
ATOM     24  C   UNL A   1      41.819  33.181  31.061  1.00  0.00     0.001 C 
ATOM     25  C   UNL A   1      44.127  34.758  29.240  1.00  0.00     0.025 C 
ATOM     26  C   UNL A   1      42.837  34.796  30.668  1.00  0.00     0.002 C 
ENDBRANCH  14  19
ENDBRANCH   7  13
ENDBRANCH   5   7
ENDBRANCH   4   5
ENDBRANCH   3   4
ENDBRANCH   2   3
ENDBRANCH   1   2
BRANCH   1  27
ATOM     27  C   UNL A   1      46.611  25.541  25.334  1.00  0.00     0.202 C 
BRANCH  27  28
ATOM     28  C   UNL A   1      45.656  24.342  25.170  1.00  0.00     0.261 C 
BRANCH  28  29
ATOM     29  O   UNL A   1      44.483  24.624  24.386  1.00  0.00    -0.460 OA
BRANCH  29  30
ATOM     30  C   UNL A   1      43.354  24.032  24.826  1.00  0.00     0.338 C 
ATOM     31  O   UNL A   1      43.096  22.831  24.807  1.00  0.00    -0.246 OA
BRANCH  30  32
ATOM     32  C   UNL A   1      42.520  25.014  25.530  1.00  0.00     0.060 A 
ATOM     33  C   UNL A   1      42.906  26.360  25.480  1.00  0.00     0.016 A 
ATOM     34  C   UNL A   1      41.426  24.613  26.300  1.00  0.00     0.016 A 
ATOM     35  C   UNL A   1      42.255  27.299  26.273  1.00  0.00     0.010 A 
ATOM     36  C   UNL A   1      40.774  25.555  27.099  1.00  0.00     0.010 A 
ATOM     37  C   UNL A   1      41.238  26.883  27.142  1.00  0.00    -0.014 A 
BRANCH  37  38
ATOM     38  C   UNL A   1      40.914  27.740  28.309  1.00  0.00     0.031 A 
ATOM     39  C   UNL A   1      41.812  27.637  29.516  1.00  0.00     0.074 A 
ATOM     40  C   UNL A   1      39.916  28.639  28.283  1.00  0.00     0.049 A 
ATOM     41  N   UNL A   1      41.727  28.236  30.676  1.00  0.00    -0.248 NA
ATOM     42  C   UNL A   1      42.968  26.733  29.393  1.00  0.00     0.031 C 
ATOM     43  C   UNL A   1      39.036  28.896  27.147  1.00  0.00     0.029 A 
ATOM     44  N   UNL A   1      39.482  29.507  29.253  1.00  0.00    -0.354 N 
ATOM     45  C   UNL A   1      42.806  27.768  31.418  1.00  0.00     0.074 A 
ATOM     46  C   UNL A   1      43.513  26.815  30.596  1.00  0.00     0.031 C 
ATOM     47  C   UNL A   1      38.155  29.851  27.489  1.00  0.00     0.029 A 
ATOM     48  C   UNL A   1      38.384  30.243  28.880  1.00  0.00     0.049 A 
ATOM     49  H   UNL A   1      39.916  29.594  30.133  1.00  0.00     0.167 HD
ATOM     50  C   UNL A   1      43.181  28.112  32.672  1.00  0.00     0.037 A 
ATOM     51  C   UNL A   1      37.639  31.107  29.596  1.00  0.00     0.037 A 
ATOM     52  C   UNL A   1      42.481  29.069  33.485  1.00  0.00     0.049 A 
ATOM     53  C   UNL A   1      38.016  31.400  31.028  1.00  0.00     0.074 A 
ATOM     54  C   UNL A   1      42.774  29.486  34.771  1.00  0.00     0.029 A 
ATOM     55  N   UNL A   1      41.342  29.753  33.090  1.00  0.00    -0.354 N 
ATOM     56  N   UNL A   1      39.030  30.951  31.728  1.00  0.00    -0.248 NA
ATOM     57  C   UNL A   1      37.145  32.324  31.769  1.00  0.00     0.031 C 
ATOM     58  C   UNL A   1      41.777  30.376  35.177  1.00  0.00     0.029 A 
ATOM     59  C   UNL A   1      40.904  30.571  34.118  1.00  0.00     0.049 A 
ATOM     60  H   UNL A   1      40.909  29.671  32.210  1.00  0.00     0.167 HD
ATOM     61  C   UNL A   1      38.942  31.566  32.971  1.00  0.00     0.074 A 
ATOM     62  C   UNL A   1      37.778  32.425  32.929  1.00  0.00     0.031 C 
ATOM     63  C   UNL A   1      39.754  31.437  34.051  1.00  0.00     0.037 A 
BRANCH  50  64
ATOM     64  C   UNL A   1      44.376  27.416  33.254  1.00  0.00     0.064 A 
ATOM     65  C   UNL A   1      45.682  27.891  33.063  1.00  0.00     0.173 A 
ATOM     66  C   UNL A   1      44.208  26.261  34.034  1.00  0.00     0.173 A 
ATOM     67  F   UNL A   1      45.901  28.978  32.308  1.00  0.00    -0.203 F 
ATOM     68  C   UNL A   1      46.776  27.220  33.606  1.00  0.00     0.198 A 
ATOM     69  C   UNL A   1      45.300  25.614  34.605  1.00  0.00     0.198 A 
ATOM     70  F   UNL A   1      42.981  25.762  34.248  1.00  0.00    -0.203 F 
ATOM     71  F   UNL A   1      48.018  27.661  33.363  1.00  0.00    -0.200 F 
ATOM     72  C   UNL A   1      46.583  26.088  34.384  1.00  0.00     0.200 A 
ATOM     73  F   UNL A   1      45.109  24.528  35.367  1.00  0.00    -0.200 F 
ATOM     74  F   UNL A   1      47.635  25.450  34.912  1.00  0.00    -0.200 F 
ENDBRANCH  50  64
BRANCH  51  75
ATOM     75  C   UNL A   1      36.440  31.742  28.984  1.00  0.00     0.064 A 
ATOM     76  C   UNL A   1      36.398  33.118  28.720  1.00  0.00     0.173 A 
ATOM     77  C   UNL A   1      35.295  30.988  28.683  1.00  0.00     0.173 A 
ATOM     78  F   UNL A   1      37.456  33.889  29.015  1.00  0.00    -0.203 F 
ATOM     79  C   UNL A   1      35.252  33.718  28.202  1.00  0.00     0.198 A 
ATOM     80  C   UNL A   1      34.162  31.584  28.134  1.00  0.00     0.198 A 
ATOM     81  F   UNL A   1      35.278  29.667  28.919  1.00  0.00    -0.203 F 
ATOM     82  F   UNL A   1      35.222  35.045  28.013  1.00  0.00    -0.200 F 
ATOM     83  C   UNL A   1      34.138  32.950  27.903  1.00  0.00     0.200 A 
ATOM     84  F   UNL A   1      33.092  30.834  27.835  1.00  0.00    -0.200 F 
ATOM     85  F   UNL A   1      33.036  33.528  27.404  1.00  0.00    -0.200 F 
ENDBRANCH  51  75
BRANCH  63  86
ATOM     86  C   UNL A   1      39.459  32.286  35.255  1.00  0.00     0.064 A 
ATOM     87  C   UNL A   1      39.889  33.617  35.349  1.00  0.00     0.173 A 
ATOM     88  C   UNL A   1      38.677  31.773  36.303  1.00  0.00     0.173 A 
ATOM     89  F   UNL A   1      40.646  34.153  34.381  1.00  0.00    -0.203 F 
ATOM     90  C   UNL A   1      39.568  34.395  36.459  1.00  0.00     0.198 A 
ATOM     91  C   UNL A   1      38.329  32.564  37.393  1.00  0.00     0.198 A 
ATOM     92  F   UNL A   1      38.229  30.509  36.258  1.00  0.00    -0.203 F 
ATOM     93  F   UNL A   1      40.029  35.650  36.550  1.00  0.00    -0.200 F 
ATOM     94  C   UNL A   1      38.781  33.872  37.475  1.00  0.00     0.200 A 
ATOM     95  F   UNL A   1      37.552  32.062  38.363  1.00  0.00    -0.200 F 
ATOM     96  F   UNL A   1      38.462  34.628  38.535  1.00  0.00    -0.200 F 
ENDBRANCH  63  86
ENDBRANCH  37  38
ENDBRANCH  30  32
ENDBRANCH  29  30
ENDBRANCH  28  29
ENDBRANCH  27  28
ENDBRANCH   1  27
TORSDOF 16
ENDMDL
