MODEL 1
REMARK VINA RESULT:     -12.1      0.000      0.000
REMARK SMILES CCOC(=O)C1=NN(c2ccc([N+](=O)[O-])cc2C(F)(F)F)[C@@](C)(C(=O)OCCOCCOC(=O)c2ccc(-c3c4nc(c(-c5c(F)c(F)c(F)c(F)c5F)c5ccc([nH]5)c(-c5c(F)c(F)c(F)c(F)c5F)c5nc(c(-c6c(F)c(F)c(F)c(F)c6F)c6ccc3[nH]6)C=C5)C=C4)cc2)C1
REMARK SMILES IDX 28 1 27 2 26 3 24 4 25 5 22 6 6 7 7 8 98 9 8 10 23 11 4 12
REMARK SMILES IDX 5 13 3 14 2 15 1 16 9 17 10 18 17 19 11 20 16 21 12 22 18 23
REMARK SMILES IDX 19 24 20 25 21 26 13 27 14 28 15 29 29 30 30 31 31 32 32 33
REMARK SMILES IDX 33 34 34 35 35 36 36 37 97 38 37 39 96 40 38 41 39 42 40 43
REMARK SMILES IDX 90 44 41 45 95 46 89 47 91 48 42 49 94 50 88 51 87 52 43 54
REMARK SMILES IDX 75 55 55 56 74 57 56 58 59 59 73 60 92 61 57 62 58 63 72 65
REMARK SMILES IDX 93 66 60 67 44 68 45 69 53 70 46 71 47 72 51 73 54 74 48 75
REMARK SMILES IDX 49 76 52 77 50 78 76 79 77 80 85 81 78 82 79 83 83 84 86 85
REMARK SMILES IDX 80 86 81 87 84 88 82 89 61 90 62 91 70 92 63 93 64 94 68 95
REMARK SMILES IDX 71 96 65 97 66 98 69 99 67 100
REMARK H PARENT 91 53 59 64
REMARK Flexibility Score: inf
ROOT
ATOM      1  C   UNL A   1      32.840  27.663  25.748  1.00  0.00     0.202 C 
ENDROOT
BRANCH   1   2
ATOM      2  C   UNL A   1      32.879  26.284  26.414  1.00  0.00     0.261 C 
BRANCH   2   3
ATOM      3  O   UNL A   1      33.008  25.195  25.482  1.00  0.00    -0.461 OA
BRANCH   3   4
ATOM      4  C   UNL A   1      32.522  24.009  25.943  1.00  0.00     0.334 C 
ATOM      5  O   UNL A   1      32.725  23.589  27.081  1.00  0.00    -0.249 OA
BRANCH   4   6
ATOM      6  C   UNL A   1      31.779  23.173  24.884  1.00  0.00     0.163 C 
ATOM      7  C   UNL A   1      32.223  24.112  22.828  1.00  0.00     0.149 C 
ATOM      8  N   UNL A   1      33.028  23.096  22.872  1.00  0.00    -0.169 NA
ATOM      9  C   UNL A   1      31.162  24.169  23.872  1.00  0.00     0.108 C 
ATOM     10  N   UNL A   1      32.669  22.377  23.985  1.00  0.00    -0.247 N 
ATOM     11  C   UNL A   1      30.728  22.408  25.671  1.00  0.00     0.050 C 
BRANCH   7  12
ATOM     12  C   UNL A   1      32.329  25.181  21.783  1.00  0.00     0.354 C 
ATOM     13  O   UNL A   1      33.278  25.229  21.019  1.00  0.00    -0.245 OA
BRANCH  12  14
ATOM     14  O   UNL A   1      31.254  25.985  21.843  1.00  0.00    -0.461 OA
BRANCH  14  15
ATOM     15  C   UNL A   1      31.494  27.293  22.380  1.00  0.00     0.230 C 
ATOM     16  C   UNL A   1      30.189  27.942  22.799  1.00  0.00     0.049 C 
ENDBRANCH  14  15
ENDBRANCH  12  14
ENDBRANCH   7  12
BRANCH  10  17
ATOM     17  C   UNL A   1      33.110  21.064  24.001  1.00  0.00     0.073 A 
ATOM     18  C   UNL A   1      32.231  20.079  23.488  1.00  0.00     0.036 A 
ATOM     19  C   UNL A   1      34.269  20.598  24.657  1.00  0.00     0.088 A 
ATOM     20  C   UNL A   1      32.501  18.707  23.545  1.00  0.00     0.088 A 
ATOM     21  C   UNL A   1      34.581  19.212  24.648  1.00  0.00     0.101 A 
ATOM     22  C   UNL A   1      33.697  18.278  24.106  1.00  0.00     0.270 A 
BRANCH  19  23
ATOM     23  C   UNL A   1      35.175  21.465  25.496  1.00  0.00     0.418 C 
ATOM     24  F   UNL A   1      34.744  21.573  26.787  1.00  0.00    -0.166 F 
ATOM     25  F   UNL A   1      36.433  20.952  25.587  1.00  0.00    -0.166 F 
ATOM     26  F   UNL A   1      35.309  22.748  25.064  1.00  0.00    -0.166 F 
ENDBRANCH  19  23
BRANCH  22  27
ATOM     27  N   UNL A   1      34.004  16.845  24.185  1.00  0.00     0.062 N 
ATOM     28  O   UNL A   1      34.217  16.362  25.307  1.00  0.00    -0.258 OA
ATOM     29  O   UNL A   1      34.029  16.204  23.125  1.00  0.00    -0.258 OA
ENDBRANCH  22  27
ENDBRANCH  10  17
ENDBRANCH   4   6
ENDBRANCH   3   4
ENDBRANCH   2   3
ENDBRANCH   1   2
BRANCH   1  30
ATOM     30  O   UNL A   1      31.822  28.569  26.158  1.00  0.00    -0.374 OA
BRANCH  30  31
ATOM     31  C   UNL A   1      31.764  29.842  25.515  1.00  0.00     0.202 C 
BRANCH  31  32
ATOM     32  C   UNL A   1      31.791  31.087  26.409  1.00  0.00     0.261 C 
BRANCH  32  33
ATOM     33  O   UNL A   1      32.749  30.967  27.479  1.00  0.00    -0.460 OA
BRANCH  33  34
ATOM     34  C   UNL A   1      33.567  32.036  27.625  1.00  0.00     0.338 C 
ATOM     35  O   UNL A   1      33.249  33.212  27.663  1.00  0.00    -0.246 OA
BRANCH  34  36
ATOM     36  C   UNL A   1      34.941  31.591  27.931  1.00  0.00     0.060 A 
ATOM     37  C   UNL A   1      35.146  30.213  28.066  1.00  0.00     0.016 A 
ATOM     38  C   UNL A   1      35.981  32.490  28.177  1.00  0.00     0.016 A 
ATOM     39  C   UNL A   1      36.368  29.731  28.524  1.00  0.00     0.010 A 
ATOM     40  C   UNL A   1      37.211  32.005  28.640  1.00  0.00     0.010 A 
ATOM     41  C   UNL A   1      37.391  30.627  28.863  1.00  0.00    -0.014 A 
BRANCH  41  42
ATOM     42  C   UNL A   1      38.568  30.111  29.604  1.00  0.00     0.031 A 
ATOM     43  C   UNL A   1      38.794  30.560  31.024  1.00  0.00     0.074 A 
ATOM     44  C   UNL A   1      39.380  29.193  29.050  1.00  0.00     0.049 A 
ATOM     45  N   UNL A   1      39.722  30.199  31.874  1.00  0.00    -0.248 NA
ATOM     46  C   UNL A   1      37.841  31.546  31.561  1.00  0.00     0.031 C 
ATOM     47  C   UNL A   1      39.245  28.656  27.697  1.00  0.00     0.029 A 
ATOM     48  N   UNL A   1      40.475  28.544  29.563  1.00  0.00    -0.354 N 
ATOM     49  C   UNL A   1      39.468  30.913  33.038  1.00  0.00     0.074 A 
ATOM     50  C   UNL A   1      38.319  31.752  32.780  1.00  0.00     0.031 C 
ATOM     51  C   UNL A   1      40.224  27.760  27.485  1.00  0.00     0.029 A 
ATOM     52  C   UNL A   1      41.067  27.678  28.677  1.00  0.00     0.049 A 
ATOM     53  H   UNL A   1      40.806  28.686  30.479  1.00  0.00     0.167 HD
ATOM     54  C   UNL A   1      40.128  30.864  34.220  1.00  0.00     0.037 A 
ATOM     55  C   UNL A   1      42.170  26.916  28.812  1.00  0.00     0.037 A 
ATOM     56  C   UNL A   1      41.264  30.018  34.480  1.00  0.00     0.049 A 
ATOM     57  C   UNL A   1      42.911  26.917  30.124  1.00  0.00     0.074 A 
ATOM     58  C   UNL A   1      41.980  29.874  35.656  1.00  0.00     0.029 A 
ATOM     59  N   UNL A   1      41.852  29.178  33.548  1.00  0.00    -0.354 N 
ATOM     60  N   UNL A   1      42.637  27.563  31.231  1.00  0.00    -0.248 NA
ATOM     61  C   UNL A   1      44.111  26.071  30.207  1.00  0.00     0.031 C 
ATOM     62  C   UNL A   1      43.033  28.986  35.421  1.00  0.00     0.029 A 
ATOM     63  C   UNL A   1      42.940  28.533  34.114  1.00  0.00     0.049 A 
ATOM     64  H   UNL A   1      41.543  29.057  32.621  1.00  0.00     0.167 HD
ATOM     65  C   UNL A   1      43.611  27.182  32.148  1.00  0.00     0.074 A 
ATOM     66  C   UNL A   1      44.469  26.232  31.473  1.00  0.00     0.031 C 
ATOM     67  C   UNL A   1      43.781  27.584  33.431  1.00  0.00     0.037 A 
BRANCH  54  68
ATOM     68  C   UNL A   1      39.653  31.761  35.324  1.00  0.00     0.064 A 
ATOM     69  C   UNL A   1      40.127  33.073  35.465  1.00  0.00     0.173 A 
ATOM     70  C   UNL A   1      38.659  31.323  36.214  1.00  0.00     0.173 A 
ATOM     71  F   UNL A   1      41.084  33.537  34.647  1.00  0.00    -0.203 F 
ATOM     72  C   UNL A   1      39.635  33.910  36.464  1.00  0.00     0.198 A 
ATOM     73  C   UNL A   1      38.151  32.169  37.195  1.00  0.00     0.198 A 
ATOM     74  F   UNL A   1      38.169  30.078  36.119  1.00  0.00    -0.203 F 
ATOM     75  F   UNL A   1      40.125  35.149  36.601  1.00  0.00    -0.200 F 
ATOM     76  C   UNL A   1      38.641  33.460  37.322  1.00  0.00     0.200 A 
ATOM     77  F   UNL A   1      37.182  31.738  38.014  1.00  0.00    -0.200 F 
ATOM     78  F   UNL A   1      38.157  34.271  38.273  1.00  0.00    -0.200 F 
ENDBRANCH  54  68
BRANCH  55  79
ATOM     79  C   UNL A   1      42.656  26.097  27.669  1.00  0.00     0.064 A 
ATOM     80  C   UNL A   1      42.181  24.796  27.452  1.00  0.00     0.173 A 
ATOM     81  C   UNL A   1      43.636  26.587  26.793  1.00  0.00     0.173 A 
ATOM     82  F   UNL A   1      41.261  24.273  28.276  1.00  0.00    -0.203 F 
ATOM     83  C   UNL A   1      42.688  24.008  26.420  1.00  0.00     0.198 A 
ATOM     84  C   UNL A   1      44.118  25.811  25.743  1.00  0.00     0.198 A 
ATOM     85  F   UNL A   1      44.124  27.826  26.957  1.00  0.00    -0.203 F 
ATOM     86  F   UNL A   1      42.258  22.748  26.270  1.00  0.00    -0.200 F 
ATOM     87  C   UNL A   1      43.652  24.517  25.563  1.00  0.00     0.200 A 
ATOM     88  F   UNL A   1      45.040  26.312  24.910  1.00  0.00    -0.200 F 
ATOM     89  F   UNL A   1      44.139  23.758  24.573  1.00  0.00    -0.200 F 
ENDBRANCH  55  79
BRANCH  67  90
ATOM     90  C   UNL A   1      44.917  26.973  34.199  1.00  0.00     0.064 A 
ATOM     91  C   UNL A   1      46.184  27.574  34.245  1.00  0.00     0.173 A 
ATOM     92  C   UNL A   1      44.729  25.782  34.918  1.00  0.00     0.173 A 
ATOM     93  F   UNL A   1      46.418  28.706  33.564  1.00  0.00    -0.203 F 
ATOM     94  C   UNL A   1      47.229  26.988  34.955  1.00  0.00     0.198 A 
ATOM     95  C   UNL A   1      45.767  25.216  35.653  1.00  0.00     0.198 A 
ATOM     96  F   UNL A   1      43.535  25.171  34.915  1.00  0.00    -0.203 F 
ATOM     97  F   UNL A   1      48.445  27.551  34.939  1.00  0.00    -0.200 F 
ATOM     98  C   UNL A   1      47.018  25.815  35.663  1.00  0.00     0.200 A 
ATOM     99  F   UNL A   1      45.558  24.091  36.348  1.00  0.00    -0.200 F 
ATOM    100  F   UNL A   1      48.025  25.253  36.347  1.00  0.00    -0.200 F 
ENDBRANCH  67  90
ENDBRANCH  41  42
ENDBRANCH  34  36
ENDBRANCH  33  34
ENDBRANCH  32  33
ENDBRANCH  31  32
ENDBRANCH  30  31
ENDBRANCH   1  30
TORSDOF 20
ENDMDL
MODEL 2
REMARK VINA RESULT:     -11.8      2.344      3.560
REMARK SMILES CCOC(=O)C1=NN(c2ccc([N+](=O)[O-])cc2C(F)(F)F)[C@@](C)(C(=O)OCCOCCOC(=O)c2ccc(-c3c4nc(c(-c5c(F)c(F)c(F)c(F)c5F)c5ccc([nH]5)c(-c5c(F)c(F)c(F)c(F)c5F)c5nc(c(-c6c(F)c(F)c(F)c(F)c6F)c6ccc3[nH]6)C=C5)C=C4)cc2)C1
REMARK SMILES IDX 28 1 27 2 26 3 24 4 25 5 22 6 6 7 7 8 98 9 8 10 23 11 4 12
REMARK SMILES IDX 5 13 3 14 2 15 1 16 9 17 10 18 17 19 11 20 16 21 12 22 18 23
REMARK SMILES IDX 19 24 20 25 21 26 13 27 14 28 15 29 29 30 30 31 31 32 32 33
REMARK SMILES IDX 33 34 34 35 35 36 36 37 97 38 37 39 96 40 38 41 39 42 40 43
REMARK SMILES IDX 90 44 41 45 95 46 89 47 91 48 42 49 94 50 88 51 87 52 43 54
REMARK SMILES IDX 75 55 55 56 74 57 56 58 59 59 73 60 92 61 57 62 58 63 72 65
REMARK SMILES IDX 93 66 60 67 44 68 45 69 53 70 46 71 47 72 51 73 54 74 48 75
REMARK SMILES IDX 49 76 52 77 50 78 76 79 77 80 85 81 78 82 79 83 83 84 86 85
REMARK SMILES IDX 80 86 81 87 84 88 82 89 61 90 62 91 70 92 63 93 64 94 68 95
REMARK SMILES IDX 71 96 65 97 66 98 69 99 67 100
REMARK H PARENT 91 53 59 64
REMARK Flexibility Score: inf
ROOT
ATOM      1  C   UNL A   1      33.724  29.342  26.933  1.00  0.00     0.202 C 
ENDROOT
BRANCH   1   2
ATOM      2  C   UNL A   1      33.379  28.310  25.856  1.00  0.00     0.261 C 
BRANCH   2   3
ATOM      3  O   UNL A   1      33.288  26.963  26.353  1.00  0.00    -0.461 OA
BRANCH   3   4
ATOM      4  C   UNL A   1      32.020  26.465  26.382  1.00  0.00     0.334 C 
ATOM      5  O   UNL A   1      31.119  26.946  27.067  1.00  0.00    -0.249 OA
BRANCH   4   6
ATOM      6  C   UNL A   1      31.827  25.173  25.566  1.00  0.00     0.163 C 
ATOM      7  C   UNL A   1      31.713  25.771  23.344  1.00  0.00     0.149 C 
ATOM      8  N   UNL A   1      32.931  25.345  23.478  1.00  0.00    -0.169 NA
ATOM      9  C   UNL A   1      30.779  25.483  24.469  1.00  0.00     0.108 C 
ATOM     10  N   UNL A   1      33.002  24.786  24.729  1.00  0.00    -0.247 N 
ATOM     11  C   UNL A   1      31.333  24.153  26.579  1.00  0.00     0.050 C 
BRANCH   7  12
ATOM     12  C   UNL A   1      31.243  26.506  22.126  1.00  0.00     0.354 C 
ATOM     13  O   UNL A   1      31.687  26.249  21.020  1.00  0.00    -0.245 OA
BRANCH  12  14
ATOM     14  O   UNL A   1      30.306  27.406  22.471  1.00  0.00    -0.461 OA
BRANCH  14  15
ATOM     15  C   UNL A   1      30.755  28.767  22.532  1.00  0.00     0.230 C 
ATOM     16  C   UNL A   1      29.572  29.715  22.543  1.00  0.00     0.049 C 
ENDBRANCH  14  15
ENDBRANCH  12  14
ENDBRANCH   7  12
BRANCH  10  17
ATOM     17  C   UNL A   1      34.067  23.920  24.923  1.00  0.00     0.073 A 
ATOM     18  C   UNL A   1      35.281  24.482  25.387  1.00  0.00     0.036 A 
ATOM     19  C   UNL A   1      34.109  22.571  24.516  1.00  0.00     0.088 A 
ATOM     20  C   UNL A   1      36.465  23.747  25.519  1.00  0.00     0.088 A 
ATOM     21  C   UNL A   1      35.287  21.804  24.720  1.00  0.00     0.101 A 
ATOM     22  C   UNL A   1      36.456  22.393  25.207  1.00  0.00     0.270 A 
BRANCH  19  23
ATOM     23  C   UNL A   1      33.008  21.881  23.748  1.00  0.00     0.418 C 
ATOM     24  F   UNL A   1      31.783  22.052  24.326  1.00  0.00    -0.166 F 
ATOM     25  F   UNL A   1      32.876  22.378  22.487  1.00  0.00    -0.166 F 
ATOM     26  F   UNL A   1      33.150  20.533  23.622  1.00  0.00    -0.166 F 
ENDBRANCH  19  23
BRANCH  22  27
ATOM     27  N   UNL A   1      37.683  21.598  25.330  1.00  0.00     0.062 N 
ATOM     28  O   UNL A   1      37.740  20.528  24.708  1.00  0.00    -0.258 OA
ATOM     29  O   UNL A   1      38.589  22.048  26.046  1.00  0.00    -0.258 OA
ENDBRANCH  22  27
ENDBRANCH  10  17
ENDBRANCH   4   6
ENDBRANCH   3   4
ENDBRANCH   2   3
ENDBRANCH   1   2
BRANCH   1  30
ATOM     30  O   UNL A   1      32.913  30.509  27.018  1.00  0.00    -0.374 OA
BRANCH  30  31
ATOM     31  C   UNL A   1      33.443  31.640  27.708  1.00  0.00     0.202 C 
BRANCH  31  32
ATOM     32  C   UNL A   1      32.844  33.012  27.380  1.00  0.00     0.261 C 
BRANCH  32  33
ATOM     33  O   UNL A   1      32.405  33.710  28.562  1.00  0.00    -0.460 OA
BRANCH  33  34
ATOM     34  C   UNL A   1      33.109  34.831  28.849  1.00  0.00     0.338 C 
ATOM     35  O   UNL A   1      32.755  35.987  28.693  1.00  0.00    -0.246 OA
BRANCH  34  36
ATOM     36  C   UNL A   1      34.346  34.487  29.576  1.00  0.00     0.060 A 
ATOM     37  C   UNL A   1      35.549  34.589  28.867  1.00  0.00     0.016 A 
ATOM     38  C   UNL A   1      34.332  33.985  30.879  1.00  0.00     0.016 A 
ATOM     39  C   UNL A   1      36.731  34.116  29.428  1.00  0.00     0.010 A 
ATOM     40  C   UNL A   1      35.522  33.508  31.443  1.00  0.00     0.010 A 
ATOM     41  C   UNL A   1      36.716  33.526  30.698  1.00  0.00    -0.014 A 
BRANCH  41  42
ATOM     42  C   UNL A   1      37.921  32.786  31.150  1.00  0.00     0.031 A 
ATOM     43  C   UNL A   1      38.658  33.266  32.373  1.00  0.00     0.074 A 
ATOM     44  C   UNL A   1      38.307  31.658  30.530  1.00  0.00     0.049 A 
ATOM     45  N   UNL A   1      39.698  32.747  32.975  1.00  0.00    -0.248 NA
ATOM     46  C   UNL A   1      38.150  34.495  33.007  1.00  0.00     0.031 C 
ATOM     47  C   UNL A   1      37.656  31.075  29.358  1.00  0.00     0.029 A 
ATOM     48  N   UNL A   1      39.338  30.795  30.807  1.00  0.00    -0.354 N 
ATOM     49  C   UNL A   1      39.971  33.584  34.050  1.00  0.00     0.074 A 
ATOM     50  C   UNL A   1      39.008  34.662  34.003  1.00  0.00     0.031 C 
ATOM     51  C   UNL A   1      38.305  29.950  29.013  1.00  0.00     0.029 A 
ATOM     52  C   UNL A   1      39.430  29.746  29.924  1.00  0.00     0.049 A 
ATOM     53  H   UNL A   1      39.953  30.915  31.566  1.00  0.00     0.167 HD
ATOM     54  C   UNL A   1      40.930  33.457  34.998  1.00  0.00     0.037 A 
ATOM     55  C   UNL A   1      40.329  28.745  29.855  1.00  0.00     0.037 A 
ATOM     56  C   UNL A   1      41.879  32.376  35.051  1.00  0.00     0.049 A 
ATOM     57  C   UNL A   1      41.414  28.656  30.897  1.00  0.00     0.074 A 
ATOM     58  C   UNL A   1      42.868  32.143  35.991  1.00  0.00     0.029 A 
ATOM     59  N   UNL A   1      41.960  31.350  34.122  1.00  0.00    -0.354 N 
ATOM     60  N   UNL A   1      41.636  29.427  31.933  1.00  0.00    -0.248 NA
ATOM     61  C   UNL A   1      42.369  27.545  30.765  1.00  0.00     0.031 C 
ATOM     62  C   UNL A   1      43.582  31.005  35.603  1.00  0.00     0.029 A 
ATOM     63  C   UNL A   1      43.001  30.496  34.451  1.00  0.00     0.049 A 
ATOM     64  H   UNL A   1      41.366  31.244  33.344  1.00  0.00     0.167 HD
ATOM     65  C   UNL A   1      42.734  28.883  32.589  1.00  0.00     0.074 A 
ATOM     66  C   UNL A   1      43.120  27.702  31.846  1.00  0.00     0.031 C 
ATOM     67  C   UNL A   1      43.368  29.321  33.705  1.00  0.00     0.037 A 
BRANCH  54  68
ATOM     68  C   UNL A   1      41.018  34.522  36.051  1.00  0.00     0.064 A 
ATOM     69  C   UNL A   1      40.298  34.435  37.251  1.00  0.00     0.173 A 
ATOM     70  C   UNL A   1      41.887  35.611  35.884  1.00  0.00     0.173 A 
ATOM     71  F   UNL A   1      39.445  33.420  37.455  1.00  0.00    -0.203 F 
ATOM     72  C   UNL A   1      40.434  35.407  38.240  1.00  0.00     0.198 A 
ATOM     73  C   UNL A   1      42.040  36.567  36.884  1.00  0.00     0.198 A 
ATOM     74  F   UNL A   1      42.602  35.738  34.756  1.00  0.00    -0.203 F 
ATOM     75  F   UNL A   1      39.712  35.322  39.365  1.00  0.00    -0.200 F 
ATOM     76  C   UNL A   1      41.311  36.466  38.059  1.00  0.00     0.200 A 
ATOM     77  F   UNL A   1      42.898  37.582  36.714  1.00  0.00    -0.200 F 
ATOM     78  F   UNL A   1      41.453  37.392  39.018  1.00  0.00    -0.200 F 
ENDBRANCH  54  68
BRANCH  55  79
ATOM     79  C   UNL A   1      40.255  27.750  28.752  1.00  0.00     0.064 A 
ATOM     80  C   UNL A   1      39.564  26.541  28.907  1.00  0.00     0.173 A 
ATOM     81  C   UNL A   1      40.911  27.975  27.532  1.00  0.00     0.173 A 
ATOM     82  F   UNL A   1      38.942  26.268  30.063  1.00  0.00    -0.203 F 
ATOM     83  C   UNL A   1      39.554  25.583  27.894  1.00  0.00     0.198 A 
ATOM     84  C   UNL A   1      40.873  27.031  26.509  1.00  0.00     0.198 A 
ATOM     85  F   UNL A   1      41.586  29.116  27.332  1.00  0.00    -0.203 F 
ATOM     86  F   UNL A   1      38.935  24.412  28.090  1.00  0.00    -0.200 F 
ATOM     87  C   UNL A   1      40.204  25.831  26.695  1.00  0.00     0.200 A 
ATOM     88  F   UNL A   1      41.491  27.281  25.347  1.00  0.00    -0.200 F 
ATOM     89  F   UNL A   1      40.195  24.909  25.722  1.00  0.00    -0.200 F 
ENDBRANCH  55  79
BRANCH  67  90
ATOM     90  C   UNL A   1      44.522  28.502  34.207  1.00  0.00     0.064 A 
ATOM     91  C   UNL A   1      44.333  27.415  35.072  1.00  0.00     0.173 A 
ATOM     92  C   UNL A   1      45.832  28.795  33.796  1.00  0.00     0.173 A 
ATOM     93  F   UNL A   1      43.103  27.103  35.505  1.00  0.00    -0.203 F 
ATOM     94  C   UNL A   1      45.417  26.672  35.535  1.00  0.00     0.198 A 
ATOM     95  C   UNL A   1      46.909  28.030  34.234  1.00  0.00     0.198 A 
ATOM     96  F   UNL A   1      46.067  29.819  32.961  1.00  0.00    -0.203 F 
ATOM     97  F   UNL A   1      45.218  25.674  36.406  1.00  0.00    -0.200 F 
ATOM     98  C   UNL A   1      46.702  26.976  35.111  1.00  0.00     0.200 A 
ATOM     99  F   UNL A   1      48.148  28.315  33.812  1.00  0.00    -0.200 F 
ATOM    100  F   UNL A   1      47.743  26.258  35.557  1.00  0.00    -0.200 F 
ENDBRANCH  67  90
ENDBRANCH  41  42
ENDBRANCH  34  36
ENDBRANCH  33  34
ENDBRANCH  32  33
ENDBRANCH  31  32
ENDBRANCH  30  31
ENDBRANCH   1  30
TORSDOF 20
ENDMDL
MODEL 3
REMARK VINA RESULT:     -11.7      2.336      7.600
REMARK SMILES CCOC(=O)C1=NN(c2ccc([N+](=O)[O-])cc2C(F)(F)F)[C@@](C)(C(=O)OCCOCCOC(=O)c2ccc(-c3c4nc(c(-c5c(F)c(F)c(F)c(F)c5F)c5ccc([nH]5)c(-c5c(F)c(F)c(F)c(F)c5F)c5nc(c(-c6c(F)c(F)c(F)c(F)c6F)c6ccc3[nH]6)C=C5)C=C4)cc2)C1
REMARK SMILES IDX 28 1 27 2 26 3 24 4 25 5 22 6 6 7 7 8 98 9 8 10 23 11 4 12
REMARK SMILES IDX 5 13 3 14 2 15 1 16 9 17 10 18 17 19 11 20 16 21 12 22 18 23
REMARK SMILES IDX 19 24 20 25 21 26 13 27 14 28 15 29 29 30 30 31 31 32 32 33
REMARK SMILES IDX 33 34 34 35 35 36 36 37 97 38 37 39 96 40 38 41 39 42 40 43
REMARK SMILES IDX 90 44 41 45 95 46 89 47 91 48 42 49 94 50 88 51 87 52 43 54
REMARK SMILES IDX 75 55 55 56 74 57 56 58 59 59 73 60 92 61 57 62 58 63 72 65
REMARK SMILES IDX 93 66 60 67 44 68 45 69 53 70 46 71 47 72 51 73 54 74 48 75
REMARK SMILES IDX 49 76 52 77 50 78 76 79 77 80 85 81 78 82 79 83 83 84 86 85
REMARK SMILES IDX 80 86 81 87 84 88 82 89 61 90 62 91 70 92 63 93 64 94 68 95
REMARK SMILES IDX 71 96 65 97 66 98 69 99 67 100
REMARK H PARENT 91 53 59 64
REMARK Flexibility Score: inf
ROOT
ATOM      1  C   UNL A   1      34.025  29.313  26.970  1.00  0.00     0.202 C 
ENDROOT
BRANCH   1   2
ATOM      2  C   UNL A   1      33.606  28.291  25.909  1.00  0.00     0.261 C 
BRANCH   2   3
ATOM      3  O   UNL A   1      33.492  26.948  26.413  1.00  0.00    -0.461 OA
BRANCH   3   4
ATOM      4  C   UNL A   1      32.211  26.487  26.482  1.00  0.00     0.334 C 
ATOM      5  O   UNL A   1      31.363  26.952  27.242  1.00  0.00    -0.249 OA
BRANCH   4   6
ATOM      6  C   UNL A   1      31.933  25.253  25.602  1.00  0.00     0.163 C 
ATOM      7  C   UNL A   1      31.872  25.966  23.413  1.00  0.00     0.149 C 
ATOM      8  N   UNL A   1      33.057  25.451  23.527  1.00  0.00    -0.169 NA
ATOM      9  C   UNL A   1      30.915  25.688  24.520  1.00  0.00     0.108 C 
ATOM     10  N   UNL A   1      33.082  24.827  24.749  1.00  0.00    -0.247 N 
ATOM     11  C   UNL A   1      31.364  24.221  26.563  1.00  0.00     0.050 C 
BRANCH   7  12
ATOM     12  C   UNL A   1      31.460  26.791  22.232  1.00  0.00     0.354 C 
ATOM     13  O   UNL A   1      31.370  26.303  21.118  1.00  0.00    -0.245 OA
BRANCH  12  14
ATOM     14  O   UNL A   1      31.214  28.054  22.621  1.00  0.00    -0.461 OA
BRANCH  14  15
ATOM     15  C   UNL A   1      29.860  28.495  22.455  1.00  0.00     0.230 C 
ATOM     16  C   UNL A   1      29.826  29.923  21.946  1.00  0.00     0.049 C 
ENDBRANCH  14  15
ENDBRANCH  12  14
ENDBRANCH   7  12
BRANCH  10  17
ATOM     17  C   UNL A   1      34.084  23.882  24.902  1.00  0.00     0.073 A 
ATOM     18  C   UNL A   1      35.334  24.336  25.390  1.00  0.00     0.036 A 
ATOM     19  C   UNL A   1      34.033  22.553  24.433  1.00  0.00     0.088 A 
ATOM     20  C   UNL A   1      36.463  23.514  25.486  1.00  0.00     0.088 A 
ATOM     21  C   UNL A   1      35.155  21.696  24.600  1.00  0.00     0.101 A 
ATOM     22  C   UNL A   1      36.360  22.180  25.112  1.00  0.00     0.270 A 
BRANCH  19  23
ATOM     23  C   UNL A   1      32.888  21.978  23.636  1.00  0.00     0.418 C 
ATOM     24  F   UNL A   1      32.832  22.480  22.367  1.00  0.00    -0.166 F 
ATOM     25  F   UNL A   1      33.002  20.630  23.476  1.00  0.00    -0.166 F 
ATOM     26  F   UNL A   1      31.651  22.204  24.156  1.00  0.00    -0.166 F 
ENDBRANCH  19  23
BRANCH  22  27
ATOM     27  N   UNL A   1      37.529  21.297  25.197  1.00  0.00     0.062 N 
ATOM     28  O   UNL A   1      37.365  20.098  24.928  1.00  0.00    -0.258 OA
ATOM     29  O   UNL A   1      38.609  21.804  25.530  1.00  0.00    -0.258 OA
ENDBRANCH  22  27
ENDBRANCH  10  17
ENDBRANCH   4   6
ENDBRANCH   3   4
ENDBRANCH   2   3
ENDBRANCH   1   2
BRANCH   1  30
ATOM     30  O   UNL A   1      33.155  30.414  27.209  1.00  0.00    -0.374 OA
BRANCH  30  31
ATOM     31  C   UNL A   1      33.711  31.585  27.808  1.00  0.00     0.202 C 
BRANCH  31  32
ATOM     32  C   UNL A   1      33.114  32.936  27.403  1.00  0.00     0.261 C 
BRANCH  32  33
ATOM     33  O   UNL A   1      32.521  33.625  28.521  1.00  0.00    -0.460 OA
BRANCH  33  34
ATOM     34  C   UNL A   1      33.173  34.750  28.902  1.00  0.00     0.338 C 
ATOM     35  O   UNL A   1      32.841  35.904  28.694  1.00  0.00    -0.246 OA
BRANCH  34  36
ATOM     36  C   UNL A   1      34.297  34.412  29.798  1.00  0.00     0.060 A 
ATOM     37  C   UNL A   1      35.585  34.482  29.255  1.00  0.00     0.016 A 
ATOM     38  C   UNL A   1      34.099  33.944  31.099  1.00  0.00     0.016 A 
ATOM     39  C   UNL A   1      36.674  34.011  29.982  1.00  0.00     0.010 A 
ATOM     40  C   UNL A   1      35.197  33.469  31.829  1.00  0.00     0.010 A 
ATOM     41  C   UNL A   1      36.480  33.455  31.253  1.00  0.00    -0.014 A 
BRANCH  41  42
ATOM     42  C   UNL A   1      37.602  32.714  31.881  1.00  0.00     0.031 A 
ATOM     43  C   UNL A   1      38.214  31.551  31.146  1.00  0.00     0.074 A 
ATOM     44  C   UNL A   1      38.123  33.122  33.052  1.00  0.00     0.049 A 
ATOM     45  N   UNL A   1      39.231  30.797  31.480  1.00  0.00    -0.248 NA
ATOM     46  C   UNL A   1      37.599  31.190  29.858  1.00  0.00     0.031 C 
ATOM     47  C   UNL A   1      37.640  34.253  33.841  1.00  0.00     0.029 A 
ATOM     48  N   UNL A   1      39.181  32.633  33.776  1.00  0.00    -0.354 N 
ATOM     49  C   UNL A   1      39.374  29.876  30.451  1.00  0.00     0.074 A 
ATOM     50  C   UNL A   1      38.323  30.141  29.494  1.00  0.00     0.031 C 
ATOM     51  C   UNL A   1      38.399  34.371  34.944  1.00  0.00     0.029 A 
ATOM     52  C   UNL A   1      39.405  33.310  34.950  1.00  0.00     0.049 A 
ATOM     53  H   UNL A   1      39.729  31.869  33.483  1.00  0.00     0.167 HD
ATOM     54  C   UNL A   1      40.307  28.904  30.310  1.00  0.00     0.037 A 
ATOM     55  C   UNL A   1      40.310  33.087  35.923  1.00  0.00     0.037 A 
ATOM     56  C   UNL A   1      41.362  28.649  31.256  1.00  0.00     0.049 A 
ATOM     57  C   UNL A   1      41.307  31.968  35.761  1.00  0.00     0.074 A 
ATOM     58  C   UNL A   1      42.373  27.708  31.186  1.00  0.00     0.029 A 
ATOM     59  N   UNL A   1      41.535  29.336  32.448  1.00  0.00    -0.354 N 
ATOM     60  N   UNL A   1      41.460  31.132  34.763  1.00  0.00    -0.248 NA
ATOM     61  C   UNL A   1      42.265  31.772  36.858  1.00  0.00     0.031 C 
ATOM     62  C   UNL A   1      43.129  27.789  32.359  1.00  0.00     0.029 A 
ATOM     63  C   UNL A   1      42.623  28.820  33.135  1.00  0.00     0.049 A 
ATOM     64  H   UNL A   1      40.971  30.080  32.759  1.00  0.00     0.167 HD
ATOM     65  C   UNL A   1      42.544  30.329  35.099  1.00  0.00     0.074 A 
ATOM     66  C   UNL A   1      43.025  30.795  36.383  1.00  0.00     0.031 C 
ATOM     67  C   UNL A   1      43.092  29.299  34.409  1.00  0.00     0.037 A 
BRANCH  54  68
ATOM     68  C   UNL A   1      40.225  28.025  29.097  1.00  0.00     0.064 A 
ATOM     69  C   UNL A   1      40.888  28.349  27.904  1.00  0.00     0.173 A 
ATOM     70  C   UNL A   1      39.527  26.809  29.150  1.00  0.00     0.173 A 
ATOM     71  F   UNL A   1      41.559  29.506  27.798  1.00  0.00    -0.203 F 
ATOM     72  C   UNL A   1      40.843  27.495  26.805  1.00  0.00     0.198 A 
ATOM     73  C   UNL A   1      39.506  25.946  28.059  1.00  0.00     0.198 A 
ATOM     74  F   UNL A   1      38.879  26.450  30.269  1.00  0.00    -0.203 F 
ATOM     75  F   UNL A   1      41.457  27.840  25.665  1.00  0.00    -0.200 F 
ATOM     76  C   UNL A   1      40.160  26.290  26.887  1.00  0.00     0.200 A 
ATOM     77  F   UNL A   1      38.857  24.775  28.144  1.00  0.00    -0.200 F 
ATOM     78  F   UNL A   1      40.132  25.462  25.834  1.00  0.00    -0.200 F 
ENDBRANCH  54  68
BRANCH  55  79
ATOM     79  C   UNL A   1      40.313  33.932  37.148  1.00  0.00     0.064 A 
ATOM     80  C   UNL A   1      41.152  35.049  37.261  1.00  0.00     0.173 A 
ATOM     81  C   UNL A   1      39.502  33.612  38.246  1.00  0.00     0.173 A 
ATOM     82  F   UNL A   1      41.964  35.381  36.246  1.00  0.00    -0.203 F 
ATOM     83  C   UNL A   1      41.199  35.797  38.436  1.00  0.00     0.198 A 
ATOM     84  C   UNL A   1      39.526  34.379  39.409  1.00  0.00     0.198 A 
ATOM     85  F   UNL A   1      38.681  32.553  38.191  1.00  0.00    -0.203 F 
ATOM     86  F   UNL A   1      42.052  36.825  38.538  1.00  0.00    -0.200 F 
ATOM     87  C   UNL A   1      40.383  35.465  39.506  1.00  0.00     0.200 A 
ATOM     88  F   UNL A   1      38.726  34.063  40.435  1.00  0.00    -0.200 F 
ATOM     89  F   UNL A   1      40.431  36.184  40.636  1.00  0.00    -0.200 F 
ENDBRANCH  55  79
BRANCH  67  90
ATOM     90  C   UNL A   1      44.293  28.628  35.013  1.00  0.00     0.064 A 
ATOM     91  C   UNL A   1      44.168  27.519  35.862  1.00  0.00     0.173 A 
ATOM     92  C   UNL A   1      45.586  29.086  34.717  1.00  0.00     0.173 A 
ATOM     93  F   UNL A   1      42.953  27.051  36.186  1.00  0.00    -0.203 F 
ATOM     94  C   UNL A   1      45.291  26.914  36.420  1.00  0.00     0.198 A 
ATOM     95  C   UNL A   1      46.709  28.459  35.250  1.00  0.00     0.198 A 
ATOM     96  F   UNL A   1      45.762  30.137  33.903  1.00  0.00    -0.203 F 
ATOM     97  F   UNL A   1      45.145  25.892  37.274  1.00  0.00    -0.200 F 
ATOM     98  C   UNL A   1      46.560  27.380  36.109  1.00  0.00     0.200 A 
ATOM     99  F   UNL A   1      47.934  28.901  34.937  1.00  0.00    -0.200 F 
ATOM    100  F   UNL A   1      47.640  26.796  36.646  1.00  0.00    -0.200 F 
ENDBRANCH  67  90
ENDBRANCH  41  42
ENDBRANCH  34  36
ENDBRANCH  33  34
ENDBRANCH  32  33
ENDBRANCH  31  32
ENDBRANCH  30  31
ENDBRANCH   1  30
TORSDOF 20
ENDMDL
