MODEL 1
REMARK VINA RESULT:     -11.6      0.000      0.000
REMARK SMILES O=C(OCCOCCOC(=O)c1cc(S(=O)(=O)N2CCCCC2)c(Cl)cc1Cl)c1ccc(-c2c3nc(c(-c4c(F)c(F)c(F)c(F)c4F)c4ccc([nH]4)c(-c4c(F)c(F)c(F)c(F)c4F)c4nc(c(-c5c(F)c(F)c(F)c(F)c5F)c5ccc2[nH]5)C=C4)C=C3)cc1
REMARK SMILES IDX 6 1 5 2 4 3 3 4 2 5 1 6 29 7 30 8 91 9 31 10 90 11 32 12
REMARK SMILES IDX 33 13 34 14 84 15 35 16 89 17 83 18 85 19 36 20 88 21 82 22
REMARK SMILES IDX 81 23 37 25 69 26 49 27 68 28 50 29 53 30 67 31 86 32 51 33
REMARK SMILES IDX 52 34 66 36 87 37 54 38 38 39 39 40 47 41 40 42 41 43 45 44
REMARK SMILES IDX 48 45 42 46 43 47 46 48 44 49 70 50 71 51 79 52 72 53 73 54
REMARK SMILES IDX 77 55 80 56 74 57 75 58 78 59 76 60 55 61 56 62 64 63 57 64
REMARK SMILES IDX 58 65 62 66 65 67 59 68 60 69 63 70 61 71 7 72 8 73 9 74
REMARK SMILES IDX 10 75 11 76 12 77 13 78 27 79 14 80 26 81 28 82 24 83 25 84
REMARK SMILES IDX 15 85 16 86 17 87 18 88 19 89 23 90 20 91 22 92 21 93
REMARK H PARENT 85 24 53 35
REMARK Flexibility Score: inf
ROOT
ATOM      1  O   UNL A   1      31.377  30.979  26.207  1.00  0.00    -0.374 OA
ENDROOT
BRANCH   1   2
ATOM      2  C   UNL A   1      31.298  32.371  26.516  1.00  0.00     0.202 C 
BRANCH   2   3
ATOM      3  C   UNL A   1      32.553  32.954  27.167  1.00  0.00     0.261 C 
BRANCH   3   4
ATOM      4  O   UNL A   1      32.243  34.204  27.806  1.00  0.00    -0.460 OA
BRANCH   4   5
ATOM      5  C   UNL A   1      32.967  34.861  28.741  1.00  0.00     0.338 C 
ATOM      6  O   UNL A   1      32.624  35.991  29.078  1.00  0.00    -0.246 OA
BRANCH   5   7
ATOM      7  C   UNL A   1      34.175  34.275  29.393  1.00  0.00     0.060 A 
ATOM      8  C   UNL A   1      35.489  34.565  29.022  1.00  0.00     0.016 A 
ATOM      9  C   UNL A   1      33.965  33.464  30.519  1.00  0.00     0.016 A 
ATOM     10  C   UNL A   1      36.570  34.002  29.686  1.00  0.00     0.010 A 
ATOM     11  C   UNL A   1      35.047  32.939  31.230  1.00  0.00     0.010 A 
ATOM     12  C   UNL A   1      36.355  33.195  30.800  1.00  0.00    -0.014 A 
BRANCH  12  13
ATOM     13  C   UNL A   1      37.519  32.576  31.458  1.00  0.00     0.031 A 
ATOM     14  C   UNL A   1      38.270  31.510  30.729  1.00  0.00     0.074 A 
ATOM     15  C   UNL A   1      37.934  33.044  32.647  1.00  0.00     0.049 A 
ATOM     16  N   UNL A   1      39.264  30.768  31.136  1.00  0.00    -0.248 NA
ATOM     17  C   UNL A   1      37.850  31.249  29.342  1.00  0.00     0.031 C 
ATOM     18  C   UNL A   1      37.324  34.161  33.372  1.00  0.00     0.029 A 
ATOM     19  N   UNL A   1      38.977  32.658  33.446  1.00  0.00    -0.354 N 
ATOM     20  C   UNL A   1      39.565  29.930  30.073  1.00  0.00     0.074 A 
ATOM     21  C   UNL A   1      38.652  30.254  28.998  1.00  0.00     0.031 C 
ATOM     22  C   UNL A   1      38.017  34.384  34.499  1.00  0.00     0.029 A 
ATOM     23  C   UNL A   1      39.070  33.380  34.610  1.00  0.00     0.049 A 
ATOM     24  H   UNL A   1      39.599  31.933  33.208  1.00  0.00     0.167 HD
ATOM     25  C   UNL A   1      40.514  28.968  30.015  1.00  0.00     0.037 A 
ATOM     26  C   UNL A   1      39.895  33.215  35.661  1.00  0.00     0.037 A 
ATOM     27  C   UNL A   1      41.404  28.673  31.104  1.00  0.00     0.049 A 
ATOM     28  C   UNL A   1      40.891  32.089  35.603  1.00  0.00     0.074 A 
ATOM     29  C   UNL A   1      42.360  27.681  31.203  1.00  0.00     0.029 A 
ATOM     30  N   UNL A   1      41.440  29.389  32.296  1.00  0.00    -0.354 N 
ATOM     31  N   UNL A   1      41.121  31.239  34.629  1.00  0.00    -0.248 NA
ATOM     32  C   UNL A   1      41.726  31.881  36.792  1.00  0.00     0.031 C 
ATOM     33  C   UNL A   1      42.949  27.772  32.470  1.00  0.00     0.029 A 
ATOM     34  C   UNL A   1      42.394  28.851  33.142  1.00  0.00     0.049 A 
ATOM     35  H   UNL A   1      40.871  30.163  32.507  1.00  0.00     0.167 HD
ATOM     36  C   UNL A   1      42.134  30.405  35.079  1.00  0.00     0.074 A 
ATOM     37  C   UNL A   1      42.487  30.864  36.409  1.00  0.00     0.031 C 
ATOM     38  C   UNL A   1      42.716  29.350  34.457  1.00  0.00     0.037 A 
BRANCH  25  39
ATOM     39  C   UNL A   1      40.561  28.135  28.769  1.00  0.00     0.064 A 
ATOM     40  C   UNL A   1      39.854  26.929  28.650  1.00  0.00     0.173 A 
ATOM     41  C   UNL A   1      41.374  28.527  27.694  1.00  0.00     0.173 A 
ATOM     42  F   UNL A   1      39.086  26.495  29.662  1.00  0.00    -0.203 F 
ATOM     43  C   UNL A   1      39.990  26.128  27.519  1.00  0.00     0.198 A 
ATOM     44  C   UNL A   1      41.486  27.736  26.553  1.00  0.00     0.198 A 
ATOM     45  F   UNL A   1      42.077  29.666  27.757  1.00  0.00    -0.203 F 
ATOM     46  F   UNL A   1      39.359  24.946  27.456  1.00  0.00    -0.200 F 
ATOM     47  C   UNL A   1      40.804  26.532  26.471  1.00  0.00     0.200 A 
ATOM     48  F   UNL A   1      42.273  28.129  25.542  1.00  0.00    -0.200 F 
ATOM     49  F   UNL A   1      40.946  25.752  25.390  1.00  0.00    -0.200 F 
ENDBRANCH  25  39
BRANCH  26  50
ATOM     50  C   UNL A   1      39.776  34.098  36.851  1.00  0.00     0.064 A 
ATOM     51  C   UNL A   1      38.952  33.756  37.931  1.00  0.00     0.173 A 
ATOM     52  C   UNL A   1      40.494  35.301  36.940  1.00  0.00     0.173 A 
ATOM     53  F   UNL A   1      38.226  32.629  37.889  1.00  0.00    -0.203 F 
ATOM     54  C   UNL A   1      38.844  34.586  39.048  1.00  0.00     0.198 A 
ATOM     55  C   UNL A   1      40.410  36.115  38.068  1.00  0.00     0.198 A 
ATOM     56  F   UNL A   1      41.296  35.680  35.933  1.00  0.00    -0.203 F 
ATOM     57  F   UNL A   1      38.018  34.254  40.049  1.00  0.00    -0.200 F 
ATOM     58  C   UNL A   1      39.580  35.759  39.119  1.00  0.00     0.200 A 
ATOM     59  F   UNL A   1      41.133  37.241  38.136  1.00  0.00    -0.200 F 
ATOM     60  F   UNL A   1      39.482  36.550  40.195  1.00  0.00    -0.200 F 
ENDBRANCH  26  50
BRANCH  38  61
ATOM     61  C   UNL A   1      43.812  28.650  35.200  1.00  0.00     0.064 A 
ATOM     62  C   UNL A   1      43.545  27.563  36.045  1.00  0.00     0.173 A 
ATOM     63  C   UNL A   1      45.147  29.038  35.019  1.00  0.00     0.173 A 
ATOM     64  F   UNL A   1      42.281  27.169  36.260  1.00  0.00    -0.203 F 
ATOM     65  C   UNL A   1      44.580  26.898  36.697  1.00  0.00     0.198 A 
ATOM     66  C   UNL A   1      46.180  28.353  35.651  1.00  0.00     0.198 A 
ATOM     67  F   UNL A   1      45.450  30.068  34.215  1.00  0.00    -0.203 F 
ATOM     68  F   UNL A   1      44.302  25.886  37.529  1.00  0.00    -0.200 F 
ATOM     69  C   UNL A   1      45.895  27.289  36.492  1.00  0.00     0.200 A 
ATOM     70  F   UNL A   1      47.452  28.722  35.443  1.00  0.00    -0.200 F 
ATOM     71  F   UNL A   1      46.890  26.639  37.112  1.00  0.00    -0.200 F 
ENDBRANCH  38  61
ENDBRANCH  12  13
ENDBRANCH   5   7
ENDBRANCH   4   5
ENDBRANCH   3   4
ENDBRANCH   2   3
ENDBRANCH   1   2
BRANCH   1  72
ATOM     72  C   UNL A   1      32.424  30.257  26.871  1.00  0.00     0.202 C 
BRANCH  72  73
ATOM     73  C   UNL A   1      31.921  28.852  27.216  1.00  0.00     0.261 C 
BRANCH  73  74
ATOM     74  O   UNL A   1      32.102  28.031  26.051  1.00  0.00    -0.460 OA
BRANCH  74  75
ATOM     75  C   UNL A   1      31.306  26.929  25.990  1.00  0.00     0.339 C 
ATOM     76  O   UNL A   1      30.531  26.542  26.844  1.00  0.00    -0.246 OA
BRANCH  75  77
ATOM     77  C   UNL A   1      31.418  26.415  24.603  1.00  0.00     0.080 A 
ATOM     78  C   UNL A   1      32.156  25.242  24.376  1.00  0.00     0.040 A 
ATOM     79  C   UNL A   1      30.945  27.139  23.510  1.00  0.00     0.057 A 
ATOM     80  C   UNL A   1      32.507  24.830  23.076  1.00  0.00     0.102 A 
ATOM     81  C   UNL A   1      31.319  26.750  22.220  1.00  0.00     0.043 A 
ATOM     82  Cl  UNL A   1      29.981  28.565  23.639  1.00  0.00    -0.083 Cl
ATOM     83  C   UNL A   1      32.135  25.628  21.998  1.00  0.00     0.062 A 
ATOM     84  Cl  UNL A   1      32.644  25.434  20.369  1.00  0.00    -0.083 Cl
BRANCH  80  85
ATOM     85  S   UNL A   1      33.409  23.295  23.015  1.00  0.00     0.244 S 
ATOM     86  O   UNL A   1      32.502  22.322  22.449  1.00  0.00    -0.207 OA
ATOM     87  O   UNL A   1      34.657  23.624  22.350  1.00  0.00    -0.207 OA
BRANCH  85  88
ATOM     88  N   UNL A   1      33.838  22.825  24.578  1.00  0.00    -0.198 NA
ATOM     89  C   UNL A   1      34.902  23.580  25.263  1.00  0.00     0.102 C 
ATOM     90  C   UNL A   1      32.877  21.969  25.304  1.00  0.00     0.102 C 
ATOM     91  C   UNL A   1      35.296  23.002  26.611  1.00  0.00     0.017 C 
ATOM     92  C   UNL A   1      33.316  21.546  26.695  1.00  0.00     0.017 C 
ATOM     93  C   UNL A   1      34.073  22.633  27.431  1.00  0.00     0.003 C 
ENDBRANCH  85  88
ENDBRANCH  80  85
ENDBRANCH  75  77
ENDBRANCH  74  75
ENDBRANCH  73  74
ENDBRANCH  72  73
ENDBRANCH   1  72
TORSDOF 16
ENDMDL
MODEL 2
REMARK VINA RESULT:     -11.5      5.517     11.066
REMARK SMILES O=C(OCCOCCOC(=O)c1cc(S(=O)(=O)N2CCCCC2)c(Cl)cc1Cl)c1ccc(-c2c3nc(c(-c4c(F)c(F)c(F)c(F)c4F)c4ccc([nH]4)c(-c4c(F)c(F)c(F)c(F)c4F)c4nc(c(-c5c(F)c(F)c(F)c(F)c5F)c5ccc2[nH]5)C=C4)C=C3)cc1
REMARK SMILES IDX 6 1 5 2 4 3 3 4 2 5 1 6 29 7 30 8 91 9 31 10 90 11 32 12
REMARK SMILES IDX 33 13 34 14 84 15 35 16 89 17 83 18 85 19 36 20 88 21 82 22
REMARK SMILES IDX 81 23 37 25 69 26 49 27 68 28 50 29 53 30 67 31 86 32 51 33
REMARK SMILES IDX 52 34 66 36 87 37 54 38 38 39 39 40 47 41 40 42 41 43 45 44
REMARK SMILES IDX 48 45 42 46 43 47 46 48 44 49 70 50 71 51 79 52 72 53 73 54
REMARK SMILES IDX 77 55 80 56 74 57 75 58 78 59 76 60 55 61 56 62 64 63 57 64
REMARK SMILES IDX 58 65 62 66 65 67 59 68 60 69 63 70 61 71 7 72 8 73 9 74
REMARK SMILES IDX 10 75 11 76 12 77 13 78 27 79 14 80 26 81 28 82 24 83 25 84
REMARK SMILES IDX 15 85 16 86 17 87 18 88 19 89 23 90 20 91 22 92 21 93
REMARK H PARENT 85 24 53 35
REMARK Flexibility Score: inf
ROOT
ATOM      1  O   UNL A   1      39.066  21.855  26.334  1.00  0.00    -0.374 OA
ENDROOT
BRANCH   1   2
ATOM      2  C   UNL A   1      38.983  20.778  25.401  1.00  0.00     0.202 C 
BRANCH   2   3
ATOM      3  C   UNL A   1      39.309  19.401  25.983  1.00  0.00     0.261 C 
BRANCH   3   4
ATOM      4  O   UNL A   1      40.612  18.977  25.549  1.00  0.00    -0.460 OA
BRANCH   4   5
ATOM      5  C   UNL A   1      41.809  19.271  26.106  1.00  0.00     0.338 C 
ATOM      6  O   UNL A   1      42.560  18.354  26.429  1.00  0.00    -0.246 OA
BRANCH   5   7
ATOM      7  C   UNL A   1      42.270  20.669  26.349  1.00  0.00     0.060 A 
ATOM      8  C   UNL A   1      42.532  21.599  25.341  1.00  0.00     0.016 A 
ATOM      9  C   UNL A   1      42.339  21.098  27.684  1.00  0.00     0.016 A 
ATOM     10  C   UNL A   1      42.937  22.893  25.638  1.00  0.00     0.010 A 
ATOM     11  C   UNL A   1      42.689  22.415  27.992  1.00  0.00     0.010 A 
ATOM     12  C   UNL A   1      43.006  23.311  26.964  1.00  0.00    -0.014 A 
BRANCH  12  13
ATOM     13  C   UNL A   1      43.482  24.677  27.249  1.00  0.00     0.031 A 
ATOM     14  C   UNL A   1      42.533  25.650  27.869  1.00  0.00     0.074 A 
ATOM     15  C   UNL A   1      44.772  24.987  27.036  1.00  0.00     0.049 A 
ATOM     16  N   UNL A   1      42.697  26.918  28.129  1.00  0.00    -0.248 NA
ATOM     17  C   UNL A   1      41.217  25.118  28.261  1.00  0.00     0.031 C 
ATOM     18  C   UNL A   1      45.790  24.058  26.541  1.00  0.00     0.029 A 
ATOM     19  N   UNL A   1      45.454  26.158  27.228  1.00  0.00    -0.354 N 
ATOM     20  C   UNL A   1      41.498  27.345  28.681  1.00  0.00     0.074 A 
ATOM     21  C   UNL A   1      40.614  26.202  28.723  1.00  0.00     0.031 C 
ATOM     22  C   UNL A   1      46.973  24.690  26.489  1.00  0.00     0.029 A 
ATOM     23  C   UNL A   1      46.778  26.083  26.875  1.00  0.00     0.049 A 
ATOM     24  H   UNL A   1      45.035  26.975  27.586  1.00  0.00     0.167 HD
ATOM     25  C   UNL A   1      41.171  28.590  29.100  1.00  0.00     0.037 A 
ATOM     26  C   UNL A   1      47.713  27.051  26.834  1.00  0.00     0.037 A 
ATOM     27  C   UNL A   1      42.078  29.703  29.042  1.00  0.00     0.049 A 
ATOM     28  C   UNL A   1      47.304  28.443  27.232  1.00  0.00     0.074 A 
ATOM     29  C   UNL A   1      41.852  31.027  29.367  1.00  0.00     0.029 A 
ATOM     30  N   UNL A   1      43.402  29.609  28.628  1.00  0.00    -0.354 N 
ATOM     31  N   UNL A   1      46.143  28.867  27.677  1.00  0.00    -0.248 NA
ATOM     32  C   UNL A   1      48.319  29.494  27.106  1.00  0.00     0.031 C 
ATOM     33  C   UNL A   1      43.029  31.741  29.112  1.00  0.00     0.029 A 
ATOM     34  C   UNL A   1      44.003  30.855  28.676  1.00  0.00     0.049 A 
ATOM     35  H   UNL A   1      43.846  28.779  28.342  1.00  0.00     0.167 HD
ATOM     36  C   UNL A   1      46.289  30.228  27.895  1.00  0.00     0.074 A 
ATOM     37  C   UNL A   1      47.660  30.556  27.552  1.00  0.00     0.031 C 
ATOM     38  C   UNL A   1      45.376  31.130  28.332  1.00  0.00     0.037 A 
BRANCH  25  39
ATOM     39  C   UNL A   1      39.762  28.799  29.568  1.00  0.00     0.064 A 
ATOM     40  C   UNL A   1      38.740  29.208  28.699  1.00  0.00     0.173 A 
ATOM     41  C   UNL A   1      39.443  28.641  30.926  1.00  0.00     0.173 A 
ATOM     42  F   UNL A   1      39.000  29.404  27.397  1.00  0.00    -0.203 F 
ATOM     43  C   UNL A   1      37.462  29.488  29.177  1.00  0.00     0.198 A 
ATOM     44  C   UNL A   1      38.158  28.895  31.396  1.00  0.00     0.198 A 
ATOM     45  F   UNL A   1      40.384  28.259  31.801  1.00  0.00    -0.203 F 
ATOM     46  F   UNL A   1      36.519  29.944  28.340  1.00  0.00    -0.200 F 
ATOM     47  C   UNL A   1      37.171  29.330  30.524  1.00  0.00     0.200 A 
ATOM     48  F   UNL A   1      37.879  28.741  32.698  1.00  0.00    -0.200 F 
ATOM     49  F   UNL A   1      35.945  29.614  30.986  1.00  0.00    -0.200 F 
ENDBRANCH  25  39
BRANCH  26  50
ATOM     50  C   UNL A   1      49.089  26.743  26.360  1.00  0.00     0.064 A 
ATOM     51  C   UNL A   1      49.451  26.913  25.018  1.00  0.00     0.173 A 
ATOM     52  C   UNL A   1      50.076  26.280  27.245  1.00  0.00     0.173 A 
ATOM     53  F   UNL A   1      48.541  27.331  24.126  1.00  0.00    -0.203 F 
ATOM     54  C   UNL A   1      50.744  26.625  24.578  1.00  0.00     0.198 A 
ATOM     55  C   UNL A   1      51.375  26.021  26.811  1.00  0.00     0.198 A 
ATOM     56  F   UNL A   1      49.784  26.095  28.541  1.00  0.00    -0.203 F 
ATOM     57  F   UNL A   1      51.052  26.759  23.281  1.00  0.00    -0.200 F 
ATOM     58  C   UNL A   1      51.706  26.188  25.476  1.00  0.00     0.200 A 
ATOM     59  F   UNL A   1      52.303  25.612  27.686  1.00  0.00    -0.200 F 
ATOM     60  F   UNL A   1      52.948  25.920  25.053  1.00  0.00    -0.200 F 
ENDBRANCH  26  50
BRANCH  38  61
ATOM     61  C   UNL A   1      45.846  32.544  28.489  1.00  0.00     0.064 A 
ATOM     62  C   UNL A   1      46.445  32.989  29.677  1.00  0.00     0.173 A 
ATOM     63  C   UNL A   1      45.744  33.444  27.419  1.00  0.00     0.173 A 
ATOM     64  F   UNL A   1      46.548  32.166  30.731  1.00  0.00    -0.203 F 
ATOM     65  C   UNL A   1      46.913  34.294  29.791  1.00  0.00     0.198 A 
ATOM     66  C   UNL A   1      46.237  34.740  27.528  1.00  0.00     0.198 A 
ATOM     67  F   UNL A   1      45.184  33.060  26.262  1.00  0.00    -0.203 F 
ATOM     68  F   UNL A   1      47.449  34.712  30.945  1.00  0.00    -0.200 F 
ATOM     69  C   UNL A   1      46.816  35.165  28.714  1.00  0.00     0.200 A 
ATOM     70  F   UNL A   1      46.155  35.577  26.484  1.00  0.00    -0.200 F 
ATOM     71  F   UNL A   1      47.278  36.418  28.824  1.00  0.00    -0.200 F 
ENDBRANCH  38  61
ENDBRANCH  12  13
ENDBRANCH   5   7
ENDBRANCH   4   5
ENDBRANCH   3   4
ENDBRANCH   2   3
ENDBRANCH   1   2
BRANCH   1  72
ATOM     72  C   UNL A   1      38.237  22.990  26.043  1.00  0.00     0.202 C 
BRANCH  72  73
ATOM     73  C   UNL A   1      36.806  22.509  25.782  1.00  0.00     0.261 C 
BRANCH  73  74
ATOM     74  O   UNL A   1      36.167  23.488  24.948  1.00  0.00    -0.460 OA
BRANCH  74  75
ATOM     75  C   UNL A   1      35.999  23.121  23.649  1.00  0.00     0.339 C 
ATOM     76  O   UNL A   1      36.819  22.579  22.932  1.00  0.00    -0.246 OA
BRANCH  75  77
ATOM     77  C   UNL A   1      34.560  23.321  23.346  1.00  0.00     0.080 A 
ATOM     78  C   UNL A   1      34.143  24.564  22.843  1.00  0.00     0.040 A 
ATOM     79  C   UNL A   1      33.597  22.372  23.688  1.00  0.00     0.057 A 
ATOM     80  C   UNL A   1      32.781  24.909  22.760  1.00  0.00     0.102 A 
ATOM     81  C   UNL A   1      32.245  22.724  23.637  1.00  0.00     0.043 A 
ATOM     82  Cl  UNL A   1      33.964  20.788  24.265  1.00  0.00    -0.083 Cl
ATOM     83  C   UNL A   1      31.832  24.001  23.221  1.00  0.00     0.062 A 
ATOM     84  Cl  UNL A   1      30.153  24.301  23.419  1.00  0.00    -0.083 Cl
BRANCH  80  85
ATOM     85  S   UNL A   1      32.475  26.516  22.057  1.00  0.00     0.244 S 
ATOM     86  O   UNL A   1      33.763  27.014  21.626  1.00  0.00    -0.207 OA
ATOM     87  O   UNL A   1      31.402  26.307  21.102  1.00  0.00    -0.207 OA
BRANCH  85  88
ATOM     88  N   UNL A   1      31.840  27.542  23.236  1.00  0.00    -0.198 NA
ATOM     89  C   UNL A   1      32.415  27.482  24.592  1.00  0.00     0.102 C 
ATOM     90  C   UNL A   1      31.044  28.693  22.761  1.00  0.00     0.102 C 
ATOM     91  C   UNL A   1      31.693  28.353  25.605  1.00  0.00     0.017 C 
ATOM     92  C   UNL A   1      30.468  29.573  23.857  1.00  0.00     0.017 C 
ATOM     93  C   UNL A   1      31.403  29.731  25.039  1.00  0.00     0.003 C 
ENDBRANCH  85  88
ENDBRANCH  80  85
ENDBRANCH  75  77
ENDBRANCH  74  75
ENDBRANCH  73  74
ENDBRANCH  72  73
ENDBRANCH   1  72
TORSDOF 16
ENDMDL
MODEL 3
REMARK VINA RESULT:     -11.5      1.333      2.318
REMARK SMILES O=C(OCCOCCOC(=O)c1cc(S(=O)(=O)N2CCCCC2)c(Cl)cc1Cl)c1ccc(-c2c3nc(c(-c4c(F)c(F)c(F)c(F)c4F)c4ccc([nH]4)c(-c4c(F)c(F)c(F)c(F)c4F)c4nc(c(-c5c(F)c(F)c(F)c(F)c5F)c5ccc2[nH]5)C=C4)C=C3)cc1
REMARK SMILES IDX 6 1 5 2 4 3 3 4 2 5 1 6 29 7 30 8 91 9 31 10 90 11 32 12
REMARK SMILES IDX 33 13 34 14 84 15 35 16 89 17 83 18 85 19 36 20 88 21 82 22
REMARK SMILES IDX 81 23 37 25 69 26 49 27 68 28 50 29 53 30 67 31 86 32 51 33
REMARK SMILES IDX 52 34 66 36 87 37 54 38 38 39 39 40 47 41 40 42 41 43 45 44
REMARK SMILES IDX 48 45 42 46 43 47 46 48 44 49 70 50 71 51 79 52 72 53 73 54
REMARK SMILES IDX 77 55 80 56 74 57 75 58 78 59 76 60 55 61 56 62 64 63 57 64
REMARK SMILES IDX 58 65 62 66 65 67 59 68 60 69 63 70 61 71 7 72 8 73 9 74
REMARK SMILES IDX 10 75 11 76 12 77 13 78 27 79 14 80 26 81 28 82 24 83 25 84
REMARK SMILES IDX 15 85 16 86 17 87 18 88 19 89 23 90 20 91 22 92 21 93
REMARK H PARENT 85 24 53 35
REMARK Flexibility Score: inf
ROOT
ATOM      1  O   UNL A   1      31.874  30.583  27.243  1.00  0.00    -0.374 OA
ENDROOT
BRANCH   1   2
ATOM      2  C   UNL A   1      32.623  31.785  27.063  1.00  0.00     0.202 C 
BRANCH   2   3
ATOM      3  C   UNL A   1      31.793  33.069  27.104  1.00  0.00     0.261 C 
BRANCH   3   4
ATOM      4  O   UNL A   1      32.639  34.195  27.392  1.00  0.00    -0.460 OA
BRANCH   4   5
ATOM      5  C   UNL A   1      33.082  34.614  28.599  1.00  0.00     0.338 C 
ATOM      6  O   UNL A   1      32.526  35.564  29.143  1.00  0.00    -0.246 OA
BRANCH   5   7
ATOM      7  C   UNL A   1      34.225  33.972  29.312  1.00  0.00     0.060 A 
ATOM      8  C   UNL A   1      34.096  32.925  30.226  1.00  0.00     0.016 A 
ATOM      9  C   UNL A   1      35.518  34.385  28.953  1.00  0.00     0.016 A 
ATOM     10  C   UNL A   1      35.205  32.357  30.838  1.00  0.00     0.010 A 
ATOM     11  C   UNL A   1      36.642  33.781  29.520  1.00  0.00     0.010 A 
ATOM     12  C   UNL A   1      36.484  32.774  30.480  1.00  0.00    -0.014 A 
BRANCH  12  13
ATOM     13  C   UNL A   1      37.639  32.184  31.179  1.00  0.00     0.031 A 
ATOM     14  C   UNL A   1      38.442  31.138  30.477  1.00  0.00     0.074 A 
ATOM     15  C   UNL A   1      38.000  32.662  32.381  1.00  0.00     0.049 A 
ATOM     16  N   UNL A   1      39.439  30.421  30.920  1.00  0.00    -0.248 NA
ATOM     17  C   UNL A   1      38.078  30.866  29.077  1.00  0.00     0.031 C 
ATOM     18  C   UNL A   1      37.338  33.764  33.083  1.00  0.00     0.029 A 
ATOM     19  N   UNL A   1      39.024  32.303  33.217  1.00  0.00    -0.354 N 
ATOM     20  C   UNL A   1      39.798  29.591  29.868  1.00  0.00     0.074 A 
ATOM     21  C   UNL A   1      38.916  29.892  28.762  1.00  0.00     0.031 C 
ATOM     22  C   UNL A   1      37.985  34.004  34.234  1.00  0.00     0.029 A 
ATOM     23  C   UNL A   1      39.058  33.027  34.382  1.00  0.00     0.049 A 
ATOM     24  H   UNL A   1      39.673  31.594  33.001  1.00  0.00     0.167 HD
ATOM     25  C   UNL A   1      40.773  28.653  29.845  1.00  0.00     0.037 A 
ATOM     26  C   UNL A   1      39.849  32.883  35.461  1.00  0.00     0.037 A 
ATOM     27  C   UNL A   1      41.632  28.380  30.964  1.00  0.00     0.049 A 
ATOM     28  C   UNL A   1      40.875  31.782  35.440  1.00  0.00     0.074 A 
ATOM     29  C   UNL A   1      42.609  27.413  31.098  1.00  0.00     0.029 A 
ATOM     30  N   UNL A   1      41.608  29.097  32.157  1.00  0.00    -0.354 N 
ATOM     31  N   UNL A   1      41.161  30.939  34.475  1.00  0.00    -0.248 NA
ATOM     32  C   UNL A   1      41.672  31.596  36.657  1.00  0.00     0.031 C 
ATOM     33  C   UNL A   1      43.150  27.519  32.384  1.00  0.00     0.029 A 
ATOM     34  C   UNL A   1      42.545  28.584  33.036  1.00  0.00     0.049 A 
ATOM     35  H   UNL A   1      41.012  29.856  32.347  1.00  0.00     0.167 HD
ATOM     36  C   UNL A   1      42.178  30.130  34.961  1.00  0.00     0.074 A 
ATOM     37  C   UNL A   1      42.472  30.598  36.302  1.00  0.00     0.031 C 
ATOM     38  C   UNL A   1      42.808  29.091  34.360  1.00  0.00     0.037 A 
BRANCH  25  39
ATOM     39  C   UNL A   1      40.885  27.822  28.601  1.00  0.00     0.064 A 
ATOM     40  C   UNL A   1      41.716  28.188  27.532  1.00  0.00     0.173 A 
ATOM     41  C   UNL A   1      40.103  26.666  28.457  1.00  0.00     0.173 A 
ATOM     42  F   UNL A   1      42.462  29.301  27.607  1.00  0.00    -0.203 F 
ATOM     43  C   UNL A   1      41.730  27.450  26.351  1.00  0.00     0.198 A 
ATOM     44  C   UNL A   1      40.139  25.915  27.285  1.00  0.00     0.198 A 
ATOM     45  F   UNL A   1      39.285  26.275  29.445  1.00  0.00    -0.203 F 
ATOM     46  F   UNL A   1      42.480  27.857  25.316  1.00  0.00    -0.200 F 
ATOM     47  C   UNL A   1      40.944  26.314  26.228  1.00  0.00     0.200 A 
ATOM     48  F   UNL A   1      39.378  24.818  27.169  1.00  0.00    -0.200 F 
ATOM     49  F   UNL A   1      40.946  25.614  25.085  1.00  0.00    -0.200 F 
ENDBRANCH  25  39
BRANCH  26  50
ATOM     50  C   UNL A   1      39.666  33.762  36.647  1.00  0.00     0.064 A 
ATOM     51  C   UNL A   1      40.299  35.009  36.732  1.00  0.00     0.173 A 
ATOM     52  C   UNL A   1      38.843  33.378  37.718  1.00  0.00     0.173 A 
ATOM     53  F   UNL A   1      41.114  35.416  35.748  1.00  0.00    -0.203 F 
ATOM     54  C   UNL A   1      40.123  35.833  37.845  1.00  0.00     0.198 A 
ATOM     55  C   UNL A   1      38.644  34.213  38.815  1.00  0.00     0.198 A 
ATOM     56  F   UNL A   1      38.215  32.193  37.691  1.00  0.00    -0.203 F 
ATOM     57  F   UNL A   1      40.771  37.003  37.918  1.00  0.00    -0.200 F 
ATOM     58  C   UNL A   1      39.289  35.438  38.881  1.00  0.00     0.200 A 
ATOM     59  F   UNL A   1      37.826  33.832  39.806  1.00  0.00    -0.200 F 
ATOM     60  F   UNL A   1      39.115  36.234  39.944  1.00  0.00    -0.200 F 
ENDBRANCH  26  50
BRANCH  38  61
ATOM     61  C   UNL A   1      43.894  28.418  35.142  1.00  0.00     0.064 A 
ATOM     62  C   UNL A   1      43.624  27.331  35.986  1.00  0.00     0.173 A 
ATOM     63  C   UNL A   1      45.226  28.833  35.000  1.00  0.00     0.173 A 
ATOM     64  F   UNL A   1      42.362  26.911  36.163  1.00  0.00    -0.203 F 
ATOM     65  C   UNL A   1      44.651  26.692  36.674  1.00  0.00     0.198 A 
ATOM     66  C   UNL A   1      46.253  28.175  35.669  1.00  0.00     0.198 A 
ATOM     67  F   UNL A   1      45.532  29.864  34.200  1.00  0.00    -0.203 F 
ATOM     68  F   UNL A   1      44.369  25.679  37.503  1.00  0.00    -0.200 F 
ATOM     69  C   UNL A   1      45.964  27.109  36.507  1.00  0.00     0.200 A 
ATOM     70  F   UNL A   1      47.523  28.569  35.499  1.00  0.00    -0.200 F 
ATOM     71  F   UNL A   1      46.952  26.485  37.163  1.00  0.00    -0.200 F 
ENDBRANCH  38  61
ENDBRANCH  12  13
ENDBRANCH   5   7
ENDBRANCH   4   5
ENDBRANCH   3   4
ENDBRANCH   2   3
ENDBRANCH   1   2
BRANCH   1  72
ATOM     72  C   UNL A   1      31.740  29.757  26.077  1.00  0.00     0.202 C 
BRANCH  72  73
ATOM     73  C   UNL A   1      31.489  28.311  26.516  1.00  0.00     0.261 C 
BRANCH  73  74
ATOM     74  O   UNL A   1      32.699  27.826  27.120  1.00  0.00    -0.460 OA
BRANCH  74  75
ATOM     75  C   UNL A   1      33.797  27.851  26.316  1.00  0.00     0.339 C 
ATOM     76  O   UNL A   1      34.787  28.544  26.456  1.00  0.00    -0.246 OA
BRANCH  75  77
ATOM     77  C   UNL A   1      33.637  26.725  25.363  1.00  0.00     0.080 A 
ATOM     78  C   UNL A   1      33.637  25.413  25.863  1.00  0.00     0.040 A 
ATOM     79  C   UNL A   1      33.642  26.923  23.983  1.00  0.00     0.057 A 
ATOM     80  C   UNL A   1      33.733  24.297  25.011  1.00  0.00     0.102 A 
ATOM     81  C   UNL A   1      33.769  25.818  23.136  1.00  0.00     0.043 A 
ATOM     82  Cl  UNL A   1      33.588  28.474  23.228  1.00  0.00    -0.083 Cl
ATOM     83  C   UNL A   1      33.862  24.510  23.642  1.00  0.00     0.062 A 
ATOM     84  Cl  UNL A   1      34.213  23.317  22.458  1.00  0.00    -0.083 Cl
BRANCH  80  85
ATOM     85  S   UNL A   1      33.675  22.728  25.852  1.00  0.00     0.244 S 
ATOM     86  O   UNL A   1      33.460  23.032  27.249  1.00  0.00    -0.207 OA
ATOM     87  O   UNL A   1      32.711  21.941  25.106  1.00  0.00    -0.207 OA
BRANCH  85  88
ATOM     88  N   UNL A   1      35.151  21.930  25.670  1.00  0.00    -0.198 NA
ATOM     89  C   UNL A   1      35.152  20.615  25.004  1.00  0.00     0.102 C 
ATOM     90  C   UNL A   1      36.373  22.747  25.818  1.00  0.00     0.102 C 
ATOM     91  C   UNL A   1      36.507  19.929  25.000  1.00  0.00     0.017 C 
ATOM     92  C   UNL A   1      37.678  21.983  25.675  1.00  0.00     0.017 C 
ATOM     93  C   UNL A   1      37.613  20.896  24.620  1.00  0.00     0.003 C 
ENDBRANCH  85  88
ENDBRANCH  80  85
ENDBRANCH  75  77
ENDBRANCH  74  75
ENDBRANCH  73  74
ENDBRANCH  72  73
ENDBRANCH   1  72
TORSDOF 16
ENDMDL
