MODEL 1
REMARK VINA RESULT:     -12.2      0.000      0.000
REMARK SMILES O=C(OCCOCCOC(=O)[C@@H]1CC2(CC[NH+](C(=O)C3(c4ccccc4F)CC3)CC2)C[NH2+]1)c1ccc(-c2c3nc(c(-c4c(F)c(F)c(F)c(F)c4F)c4ccc([nH]4)c(-c4c(F)c(F)c(F)c(F)c4F)c4nc(c(-c5c(F)c(F)c(F)c(F)c5F)c5ccc2[nH]5)C=C4)C=C3)cc1
REMARK SMILES IDX 7 1 6 2 5 3 4 4 3 5 2 6 1 7 34 8 35 9 96 10 36 11 95 12
REMARK SMILES IDX 37 13 38 14 39 15 89 16 40 17 94 18 88 19 90 20 41 21 93 22
REMARK SMILES IDX 87 23 86 24 42 26 74 27 54 28 73 29 55 30 58 31 72 32 91 33
REMARK SMILES IDX 56 34 57 35 71 37 92 38 59 39 43 40 44 41 52 42 45 43 46 44
REMARK SMILES IDX 50 45 53 46 47 47 48 48 51 49 49 50 75 51 76 52 84 53 77 54
REMARK SMILES IDX 78 55 82 56 85 57 79 58 80 59 83 60 81 61 60 62 61 63 69 64
REMARK SMILES IDX 62 65 63 66 67 67 70 68 64 69 65 70 68 71 66 72 8 73 9 74
REMARK SMILES IDX 10 75 11 76 12 77 13 78 33 79 14 80 32 81 15 84 31 85 16 86
REMARK SMILES IDX 30 87 17 88 18 90 19 91 20 92 28 93 29 94 21 95 22 96 26 97
REMARK SMILES IDX 23 98 25 99 27 100 24 101
REMARK H PARENT 90 25 58 36 33 82 33 83 17 89
REMARK Flexibility Score: inf
ROOT
ATOM      1  C   UNL A   1      40.890  21.620  26.122  1.00  0.00     0.202 C 
ENDROOT
BRANCH   1   2
ATOM      2  O   UNL A   1      40.860  20.195  26.125  1.00  0.00    -0.374 OA
BRANCH   2   3
ATOM      3  C   UNL A   1      41.818  19.528  26.940  1.00  0.00     0.202 C 
BRANCH   3   4
ATOM      4  C   UNL A   1      42.646  18.429  26.272  1.00  0.00     0.261 C 
BRANCH   4   5
ATOM      5  O   UNL A   1      43.028  18.838  24.948  1.00  0.00    -0.460 OA
BRANCH   5   6
ATOM      6  C   UNL A   1      44.152  19.508  24.594  1.00  0.00     0.338 C 
ATOM      7  O   UNL A   1      44.999  18.951  23.901  1.00  0.00    -0.246 OA
BRANCH   6   8
ATOM      8  C   UNL A   1      44.390  20.920  25.000  1.00  0.00     0.060 A 
ATOM      9  C   UNL A   1      45.047  21.277  26.171  1.00  0.00     0.016 A 
ATOM     10  C   UNL A   1      43.997  21.945  24.131  1.00  0.00     0.016 A 
ATOM     11  C   UNL A   1      45.276  22.577  26.527  1.00  0.00     0.010 A 
ATOM     12  C   UNL A   1      44.261  23.280  24.454  1.00  0.00     0.010 A 
ATOM     13  C   UNL A   1      44.906  23.585  25.657  1.00  0.00    -0.014 A 
BRANCH  13  14
ATOM     14  C   UNL A   1      45.134  24.937  26.162  1.00  0.00     0.031 A 
ATOM     15  C   UNL A   1      46.438  25.579  25.843  1.00  0.00     0.074 A 
ATOM     16  C   UNL A   1      44.079  25.625  26.636  1.00  0.00     0.049 A 
ATOM     17  N   UNL A   1      46.882  26.752  26.190  1.00  0.00    -0.248 NA
ATOM     18  C   UNL A   1      47.362  24.807  24.990  1.00  0.00     0.031 C 
ATOM     19  C   UNL A   1      42.710  25.101  26.737  1.00  0.00     0.029 A 
ATOM     20  N   UNL A   1      43.969  26.920  27.050  1.00  0.00    -0.354 N 
ATOM     21  C   UNL A   1      48.153  26.839  25.647  1.00  0.00     0.074 A 
ATOM     22  C   UNL A   1      48.408  25.615  24.925  1.00  0.00     0.031 C 
ATOM     23  C   UNL A   1      41.894  26.083  27.151  1.00  0.00     0.029 A 
ATOM     24  C   UNL A   1      42.698  27.260  27.442  1.00  0.00     0.049 A 
ATOM     25  H   UNL A   1      44.726  27.549  27.066  1.00  0.00     0.167 HD
ATOM     26  C   UNL A   1      49.024  27.862  25.777  1.00  0.00     0.037 A 
ATOM     27  C   UNL A   1      42.262  28.389  28.025  1.00  0.00     0.037 A 
ATOM     28  C   UNL A   1      48.701  29.058  26.503  1.00  0.00     0.049 A 
ATOM     29  C   UNL A   1      43.286  29.458  28.284  1.00  0.00     0.074 A 
ATOM     30  C   UNL A   1      49.511  30.129  26.817  1.00  0.00     0.029 A 
ATOM     31  N   UNL A   1      47.440  29.334  27.025  1.00  0.00    -0.354 N 
ATOM     32  N   UNL A   1      44.547  29.492  27.916  1.00  0.00    -0.248 NA
ATOM     33  C   UNL A   1      42.853  30.621  29.063  1.00  0.00     0.031 C 
ATOM     34  C   UNL A   1      48.752  31.031  27.570  1.00  0.00     0.029 A 
ATOM     35  C   UNL A   1      47.452  30.551  27.677  1.00  0.00     0.049 A 
ATOM     36  H   UNL A   1      46.654  28.746  26.941  1.00  0.00     0.167 HD
ATOM     37  C   UNL A   1      45.061  30.678  28.412  1.00  0.00     0.074 A 
ATOM     38  C   UNL A   1      43.964  31.345  29.092  1.00  0.00     0.031 C 
ATOM     39  C   UNL A   1      46.322  31.170  28.328  1.00  0.00     0.037 A 
BRANCH  26  40
ATOM     40  C   UNL A   1      50.401  27.665  25.223  1.00  0.00     0.064 A 
ATOM     41  C   UNL A   1      51.443  27.266  26.074  1.00  0.00     0.173 A 
ATOM     42  C   UNL A   1      50.692  27.823  23.861  1.00  0.00     0.173 A 
ATOM     43  F   UNL A   1      51.214  27.079  27.383  1.00  0.00    -0.203 F 
ATOM     44  C   UNL A   1      52.726  27.040  25.583  1.00  0.00     0.198 A 
ATOM     45  C   UNL A   1      51.971  27.572  23.368  1.00  0.00     0.198 A 
ATOM     46  F   UNL A   1      49.722  28.163  22.999  1.00  0.00    -0.203 F 
ATOM     47  F   UNL A   1      53.705  26.666  26.418  1.00  0.00    -0.200 F 
ATOM     48  C   UNL A   1      52.987  27.185  24.229  1.00  0.00     0.200 A 
ATOM     49  F   UNL A   1      52.213  27.673  22.054  1.00  0.00    -0.200 F 
ATOM     50  F   UNL A   1      54.215  26.939  23.753  1.00  0.00    -0.200 F 
ENDBRANCH  26  40
BRANCH  27  51
ATOM     51  C   UNL A   1      40.843  28.510  28.456  1.00  0.00     0.064 A 
ATOM     52  C   UNL A   1      39.858  29.000  27.581  1.00  0.00     0.173 A 
ATOM     53  C   UNL A   1      40.445  28.179  29.756  1.00  0.00     0.173 A 
ATOM     54  F   UNL A   1      40.179  29.329  26.321  1.00  0.00    -0.203 F 
ATOM     55  C   UNL A   1      38.542  29.185  28.001  1.00  0.00     0.198 A 
ATOM     56  C   UNL A   1      39.120  28.335  30.167  1.00  0.00     0.198 A 
ATOM     57  F   UNL A   1      41.340  27.689  30.626  1.00  0.00    -0.203 F 
ATOM     58  F   UNL A   1      37.637  29.697  27.156  1.00  0.00    -0.200 F 
ATOM     59  C   UNL A   1      38.173  28.848  29.292  1.00  0.00     0.200 A 
ATOM     60  F   UNL A   1      38.761  27.986  31.409  1.00  0.00    -0.200 F 
ATOM     61  F   UNL A   1      36.905  29.015  29.694  1.00  0.00    -0.200 F 
ENDBRANCH  27  51
BRANCH  39  62
ATOM     62  C   UNL A   1      46.572  32.500  28.964  1.00  0.00     0.064 A 
ATOM     63  C   UNL A   1      46.436  33.675  28.211  1.00  0.00     0.173 A 
ATOM     64  C   UNL A   1      47.048  32.601  30.278  1.00  0.00     0.173 A 
ATOM     65  F   UNL A   1      45.992  33.619  26.945  1.00  0.00    -0.203 F 
ATOM     66  C   UNL A   1      46.796  34.907  28.744  1.00  0.00     0.198 A 
ATOM     67  C   UNL A   1      47.378  33.840  30.818  1.00  0.00     0.198 A 
ATOM     68  F   UNL A   1      47.180  31.503  31.036  1.00  0.00    -0.203 F 
ATOM     69  F   UNL A   1      46.705  36.011  27.991  1.00  0.00    -0.200 F 
ATOM     70  C   UNL A   1      47.264  34.987  30.046  1.00  0.00     0.200 A 
ATOM     71  F   UNL A   1      47.810  33.922  32.083  1.00  0.00    -0.200 F 
ATOM     72  F   UNL A   1      47.610  36.176  30.559  1.00  0.00    -0.200 F 
ENDBRANCH  39  62
ENDBRANCH  13  14
ENDBRANCH   6   8
ENDBRANCH   5   6
ENDBRANCH   4   5
ENDBRANCH   3   4
ENDBRANCH   2   3
ENDBRANCH   1   2
BRANCH   1  73
ATOM     73  C   UNL A   1      39.511  22.138  26.530  1.00  0.00     0.261 C 
BRANCH  73  74
ATOM     74  O   UNL A   1      38.532  21.708  25.565  1.00  0.00    -0.459 OA
BRANCH  74  75
ATOM     75  C   UNL A   1      37.447  22.498  25.360  1.00  0.00     0.364 C 
ATOM     76  O   UNL A   1      37.476  23.719  25.236  1.00  0.00    -0.245 OA
BRANCH  75  77
ATOM     77  C   UNL A   1      36.160  21.672  25.224  1.00  0.00     0.294 C 
ATOM     78  C   UNL A   1      35.045  22.348  24.459  1.00  0.00     0.090 C 
ATOM     79  N   UNL A   1      35.508  21.329  26.501  1.00  0.00    -0.334 N 
ATOM     80  C   UNL A   1      34.157  23.043  25.519  1.00  0.00     0.036 C 
ATOM     81  C   UNL A   1      34.491  22.327  26.824  1.00  0.00     0.268 C 
ATOM     82  H   UNL A   1      36.207  21.306  27.243  1.00  0.00     0.347 HD
ATOM     83  H   UNL A   1      35.064  20.415  26.415  1.00  0.00     0.347 HD
ATOM     84  C   UNL A   1      32.681  22.862  25.165  1.00  0.00     0.075 C 
ATOM     85  C   UNL A   1      34.364  24.569  25.652  1.00  0.00     0.075 C 
ATOM     86  C   UNL A   1      32.355  23.558  23.851  1.00  0.00     0.271 C 
ATOM     87  C   UNL A   1      34.077  25.282  24.343  1.00  0.00     0.271 C 
ATOM     88  N   UNL A   1      32.731  24.968  23.852  1.00  0.00    -0.271 N 
ATOM     89  H   UNL A   1      33.647  25.050  23.501  1.00  0.00     0.356 HD
BRANCH  88  90
ATOM     90  C   UNL A   1      32.008  26.043  23.335  1.00  0.00     0.322 C 
ATOM     91  O   UNL A   1      32.270  26.445  22.197  1.00  0.00    -0.230 OA
BRANCH  90  92
ATOM     92  C   UNL A   1      30.877  26.758  24.070  1.00  0.00     0.113 C 
ATOM     93  C   UNL A   1      29.532  27.203  23.506  1.00  0.00     0.028 C 
ATOM     94  C   UNL A   1      29.608  25.951  24.327  1.00  0.00     0.028 C 
BRANCH  92  95
ATOM     95  C   UNL A   1      31.409  27.689  25.167  1.00  0.00     0.007 A 
ATOM     96  C   UNL A   1      31.443  27.276  26.512  1.00  0.00     0.008 A 
ATOM     97  C   UNL A   1      31.745  29.023  24.892  1.00  0.00     0.127 A 
ATOM     98  C   UNL A   1      31.778  28.166  27.532  1.00  0.00     0.001 A 
ATOM     99  C   UNL A   1      32.063  29.922  25.904  1.00  0.00     0.039 A 
ATOM    100  F   UNL A   1      31.721  29.464  23.625  1.00  0.00    -0.207 F 
ATOM    101  C   UNL A   1      32.074  29.493  27.229  1.00  0.00     0.003 A 
ENDBRANCH  92  95
ENDBRANCH  90  92
ENDBRANCH  88  90
ENDBRANCH  75  77
ENDBRANCH  74  75
ENDBRANCH  73  74
ENDBRANCH   1  73
TORSDOF 17
ENDMDL
MODEL 2
REMARK VINA RESULT:     -12.2      0.598      7.128
REMARK SMILES O=C(OCCOCCOC(=O)[C@@H]1CC2(CC[NH+](C(=O)C3(c4ccccc4F)CC3)CC2)C[NH2+]1)c1ccc(-c2c3nc(c(-c4c(F)c(F)c(F)c(F)c4F)c4ccc([nH]4)c(-c4c(F)c(F)c(F)c(F)c4F)c4nc(c(-c5c(F)c(F)c(F)c(F)c5F)c5ccc2[nH]5)C=C4)C=C3)cc1
REMARK SMILES IDX 7 1 6 2 5 3 4 4 3 5 2 6 1 7 34 8 35 9 96 10 36 11 95 12
REMARK SMILES IDX 37 13 38 14 39 15 89 16 40 17 94 18 88 19 90 20 41 21 93 22
REMARK SMILES IDX 87 23 86 24 42 26 74 27 54 28 73 29 55 30 58 31 72 32 91 33
REMARK SMILES IDX 56 34 57 35 71 37 92 38 59 39 43 40 44 41 52 42 45 43 46 44
REMARK SMILES IDX 50 45 53 46 47 47 48 48 51 49 49 50 75 51 76 52 84 53 77 54
REMARK SMILES IDX 78 55 82 56 85 57 79 58 80 59 83 60 81 61 60 62 61 63 69 64
REMARK SMILES IDX 62 65 63 66 67 67 70 68 64 69 65 70 68 71 66 72 8 73 9 74
REMARK SMILES IDX 10 75 11 76 12 77 13 78 33 79 14 80 32 81 15 84 31 85 16 86
REMARK SMILES IDX 30 87 17 88 18 90 19 91 20 92 28 93 29 94 21 95 22 96 26 97
REMARK SMILES IDX 23 98 25 99 27 100 24 101
REMARK H PARENT 90 25 58 36 33 82 33 83 17 89
REMARK Flexibility Score: inf
ROOT
ATOM      1  C   UNL A   1      40.836  21.783  26.135  1.00  0.00     0.202 C 
ENDROOT
BRANCH   1   2
ATOM      2  O   UNL A   1      40.755  20.364  26.240  1.00  0.00    -0.374 OA
BRANCH   2   3
ATOM      3  C   UNL A   1      41.757  19.712  27.012  1.00  0.00     0.202 C 
BRANCH   3   4
ATOM      4  C   UNL A   1      42.632  18.689  26.287  1.00  0.00     0.261 C 
BRANCH   4   5
ATOM      5  O   UNL A   1      43.023  19.201  25.001  1.00  0.00    -0.460 OA
BRANCH   5   6
ATOM      6  C   UNL A   1      44.207  19.775  24.677  1.00  0.00     0.338 C 
ATOM      7  O   UNL A   1      45.060  19.118  24.087  1.00  0.00    -0.246 OA
BRANCH   6   8
ATOM      8  C   UNL A   1      44.506  21.198  24.995  1.00  0.00     0.060 A 
ATOM      9  C   UNL A   1      45.158  21.602  26.154  1.00  0.00     0.016 A 
ATOM     10  C   UNL A   1      44.181  22.180  24.051  1.00  0.00     0.016 A 
ATOM     11  C   UNL A   1      45.444  22.910  26.429  1.00  0.00     0.010 A 
ATOM     12  C   UNL A   1      44.505  23.521  24.291  1.00  0.00     0.010 A 
ATOM     13  C   UNL A   1      45.141  23.874  25.485  1.00  0.00    -0.014 A 
BRANCH  13  14
ATOM     14  C   UNL A   1      45.425  25.244  25.905  1.00  0.00     0.031 A 
ATOM     15  C   UNL A   1      44.346  25.982  26.617  1.00  0.00     0.074 A 
ATOM     16  C   UNL A   1      46.703  25.664  25.882  1.00  0.00     0.049 A 
ATOM     17  N   UNL A   1      44.346  27.203  27.067  1.00  0.00    -0.248 NA
ATOM     18  C   UNL A   1      43.102  25.235  26.885  1.00  0.00     0.031 C 
ATOM     19  C   UNL A   1      47.843  24.866  25.413  1.00  0.00     0.029 A 
ATOM     20  N   UNL A   1      47.271  26.824  26.323  1.00  0.00    -0.354 N 
ATOM     21  C   UNL A   1      43.091  27.389  27.623  1.00  0.00     0.074 A 
ATOM     22  C   UNL A   1      42.358  26.154  27.479  1.00  0.00     0.031 C 
ATOM     23  C   UNL A   1      48.977  25.550  25.627  1.00  0.00     0.029 A 
ATOM     24  C   UNL A   1      48.631  26.866  26.145  1.00  0.00     0.049 A 
ATOM     25  H   UNL A   1      46.756  27.558  26.728  1.00  0.00     0.167 HD
ATOM     26  C   UNL A   1      42.609  28.520  28.180  1.00  0.00     0.037 A 
ATOM     27  C   UNL A   1      49.482  27.889  26.333  1.00  0.00     0.037 A 
ATOM     28  C   UNL A   1      43.398  29.714  28.300  1.00  0.00     0.049 A 
ATOM     29  C   UNL A   1      48.892  29.181  26.824  1.00  0.00     0.074 A 
ATOM     30  C   UNL A   1      43.017  30.966  28.736  1.00  0.00     0.029 A 
ATOM     31  N   UNL A   1      44.750  29.787  27.980  1.00  0.00    -0.354 N 
ATOM     32  N   UNL A   1      47.659  29.426  27.207  1.00  0.00    -0.248 NA
ATOM     33  C   UNL A   1      49.783  30.342  26.875  1.00  0.00     0.031 C 
ATOM     34  C   UNL A   1      44.130  31.808  28.635  1.00  0.00     0.029 A 
ATOM     35  C   UNL A   1      45.220  31.068  28.191  1.00  0.00     0.049 A 
ATOM     36  H   UNL A   1      45.294  29.033  27.652  1.00  0.00     0.167 HD
ATOM     37  C   UNL A   1      47.622  30.767  27.550  1.00  0.00     0.074 A 
ATOM     38  C   UNL A   1      48.968  31.276  27.348  1.00  0.00     0.031 C 
ATOM     39  C   UNL A   1      46.576  31.515  27.980  1.00  0.00     0.037 A 
BRANCH  26  40
ATOM     40  C   UNL A   1      41.165  28.527  28.578  1.00  0.00     0.064 A 
ATOM     41  C   UNL A   1      40.801  28.161  29.883  1.00  0.00     0.173 A 
ATOM     42  C   UNL A   1      40.147  28.929  27.701  1.00  0.00     0.173 A 
ATOM     43  F   UNL A   1      41.738  27.788  30.767  1.00  0.00    -0.203 F 
ATOM     44  C   UNL A   1      39.471  28.191  30.293  1.00  0.00     0.198 A 
ATOM     45  C   UNL A   1      38.820  28.983  28.123  1.00  0.00     0.198 A 
ATOM     46  F   UNL A   1      40.447  29.328  26.456  1.00  0.00    -0.203 F 
ATOM     47  F   UNL A   1      39.148  27.830  31.543  1.00  0.00    -0.200 F 
ATOM     48  C   UNL A   1      38.483  28.609  29.416  1.00  0.00     0.200 A 
ATOM     49  F   UNL A   1      37.870  29.426  27.288  1.00  0.00    -0.200 F 
ATOM     50  F   UNL A   1      37.206  28.667  29.821  1.00  0.00    -0.200 F 
ENDBRANCH  26  40
BRANCH  27  51
ATOM     51  C   UNL A   1      50.920  27.740  25.984  1.00  0.00     0.064 A 
ATOM     52  C   UNL A   1      51.365  27.885  24.659  1.00  0.00     0.173 A 
ATOM     53  C   UNL A   1      51.876  27.410  26.953  1.00  0.00     0.173 A 
ATOM     54  F   UNL A   1      50.496  28.204  23.688  1.00  0.00    -0.203 F 
ATOM     55  C   UNL A   1      52.698  27.674  24.313  1.00  0.00     0.198 A 
ATOM     56  C   UNL A   1      53.217  27.229  26.611  1.00  0.00     0.198 A 
ATOM     57  F   UNL A   1      51.510  27.278  28.236  1.00  0.00    -0.203 F 
ATOM     58  F   UNL A   1      53.081  27.775  23.032  1.00  0.00    -0.200 F 
ATOM     59  C   UNL A   1      53.624  27.350  25.290  1.00  0.00     0.200 A 
ATOM     60  F   UNL A   1      54.115  26.940  27.562  1.00  0.00    -0.200 F 
ATOM     61  F   UNL A   1      54.909  27.157  24.961  1.00  0.00    -0.200 F 
ENDBRANCH  27  51
BRANCH  39  62
ATOM     62  C   UNL A   1      46.854  32.953  28.285  1.00  0.00     0.064 A 
ATOM     63  C   UNL A   1      47.237  33.335  29.578  1.00  0.00     0.173 A 
ATOM     64  C   UNL A   1      46.636  33.954  27.330  1.00  0.00     0.173 A 
ATOM     65  F   UNL A   1      47.446  32.406  30.524  1.00  0.00    -0.203 F 
ATOM     66  C   UNL A   1      47.366  34.677  29.914  1.00  0.00     0.198 A 
ATOM     67  C   UNL A   1      46.796  35.295  27.661  1.00  0.00     0.198 A 
ATOM     68  F   UNL A   1      46.282  33.629  26.078  1.00  0.00    -0.203 F 
ATOM     69  F   UNL A   1      47.684  35.024  31.168  1.00  0.00    -0.200 F 
ATOM     70  C   UNL A   1      47.147  35.655  28.955  1.00  0.00     0.200 A 
ATOM     71  F   UNL A   1      46.607  36.240  26.730  1.00  0.00    -0.200 F 
ATOM     72  F   UNL A   1      47.272  36.949  29.280  1.00  0.00    -0.200 F 
ENDBRANCH  39  62
ENDBRANCH  13  14
ENDBRANCH   6   8
ENDBRANCH   5   6
ENDBRANCH   4   5
ENDBRANCH   3   4
ENDBRANCH   2   3
ENDBRANCH   1   2
BRANCH   1  73
ATOM     73  C   UNL A   1      39.476  22.377  26.505  1.00  0.00     0.261 C 
BRANCH  73  74
ATOM     74  O   UNL A   1      38.449  21.759  25.709  1.00  0.00    -0.459 OA
BRANCH  74  75
ATOM     75  C   UNL A   1      37.395  22.523  25.320  1.00  0.00     0.364 C 
ATOM     76  O   UNL A   1      37.462  23.706  24.999  1.00  0.00    -0.245 OA
BRANCH  75  77
ATOM     77  C   UNL A   1      36.096  21.707  25.255  1.00  0.00     0.294 C 
ATOM     78  C   UNL A   1      34.967  22.367  24.495  1.00  0.00     0.090 C 
ATOM     79  N   UNL A   1      35.478  21.423  26.562  1.00  0.00    -0.334 N 
ATOM     80  C   UNL A   1      34.118  23.113  25.552  1.00  0.00     0.036 C 
ATOM     81  C   UNL A   1      34.482  22.445  26.875  1.00  0.00     0.268 C 
ATOM     82  H   UNL A   1      36.199  21.420  27.283  1.00  0.00     0.347 HD
ATOM     83  H   UNL A   1      35.022  20.511  26.525  1.00  0.00     0.347 HD
ATOM     84  C   UNL A   1      32.630  22.936  25.249  1.00  0.00     0.075 C 
ATOM     85  C   UNL A   1      34.345  24.640  25.619  1.00  0.00     0.075 C 
ATOM     86  C   UNL A   1      32.274  23.584  23.918  1.00  0.00     0.271 C 
ATOM     87  C   UNL A   1      34.027  25.305  24.292  1.00  0.00     0.271 C 
ATOM     88  N   UNL A   1      32.665  24.989  23.853  1.00  0.00    -0.271 N 
ATOM     89  H   UNL A   1      33.570  25.045  23.472  1.00  0.00     0.356 HD
BRANCH  88  90
ATOM     90  C   UNL A   1      31.938  26.051  23.314  1.00  0.00     0.322 C 
ATOM     91  O   UNL A   1      32.165  26.399  22.152  1.00  0.00    -0.230 OA
BRANCH  90  92
ATOM     92  C   UNL A   1      30.845  26.815  24.057  1.00  0.00     0.113 C 
ATOM     93  C   UNL A   1      29.519  27.323  23.501  1.00  0.00     0.028 C 
ATOM     94  C   UNL A   1      29.541  26.066  24.318  1.00  0.00     0.028 C 
BRANCH  92  95
ATOM     95  C   UNL A   1      31.425  27.717  25.154  1.00  0.00     0.007 A 
ATOM     96  C   UNL A   1      31.397  27.321  26.505  1.00  0.00     0.008 A 
ATOM     97  C   UNL A   1      31.870  29.016  24.871  1.00  0.00     0.127 A 
ATOM     98  C   UNL A   1      31.778  28.197  27.521  1.00  0.00     0.001 A 
ATOM     99  C   UNL A   1      32.235  29.902  25.878  1.00  0.00     0.039 A 
ATOM    100  F   UNL A   1      31.908  29.440  23.598  1.00  0.00    -0.207 F 
ATOM    101  C   UNL A   1      32.184  29.492  27.208  1.00  0.00     0.003 A 
ENDBRANCH  92  95
ENDBRANCH  90  92
ENDBRANCH  88  90
ENDBRANCH  75  77
ENDBRANCH  74  75
ENDBRANCH  73  74
ENDBRANCH   1  73
TORSDOF 17
ENDMDL
MODEL 3
REMARK VINA RESULT:     -12.2      6.584     11.598
REMARK SMILES O=C(OCCOCCOC(=O)[C@@H]1CC2(CC[NH+](C(=O)C3(c4ccccc4F)CC3)CC2)C[NH2+]1)c1ccc(-c2c3nc(c(-c4c(F)c(F)c(F)c(F)c4F)c4ccc([nH]4)c(-c4c(F)c(F)c(F)c(F)c4F)c4nc(c(-c5c(F)c(F)c(F)c(F)c5F)c5ccc2[nH]5)C=C4)C=C3)cc1
REMARK SMILES IDX 7 1 6 2 5 3 4 4 3 5 2 6 1 7 34 8 35 9 96 10 36 11 95 12
REMARK SMILES IDX 37 13 38 14 39 15 89 16 40 17 94 18 88 19 90 20 41 21 93 22
REMARK SMILES IDX 87 23 86 24 42 26 74 27 54 28 73 29 55 30 58 31 72 32 91 33
REMARK SMILES IDX 56 34 57 35 71 37 92 38 59 39 43 40 44 41 52 42 45 43 46 44
REMARK SMILES IDX 50 45 53 46 47 47 48 48 51 49 49 50 75 51 76 52 84 53 77 54
REMARK SMILES IDX 78 55 82 56 85 57 79 58 80 59 83 60 81 61 60 62 61 63 69 64
REMARK SMILES IDX 62 65 63 66 67 67 70 68 64 69 65 70 68 71 66 72 8 73 9 74
REMARK SMILES IDX 10 75 11 76 12 77 13 78 33 79 14 80 32 81 15 84 31 85 16 86
REMARK SMILES IDX 30 87 17 88 18 90 19 91 20 92 28 93 29 94 21 95 22 96 26 97
REMARK SMILES IDX 23 98 25 99 27 100 24 101
REMARK H PARENT 90 25 58 36 33 82 33 83 17 89
REMARK Flexibility Score: inf
ROOT
ATOM      1  C   UNL A   1      34.443  32.529  28.327  1.00  0.00     0.202 C 
ENDROOT
BRANCH   1   2
ATOM      2  O   UNL A   1      33.724  33.533  29.039  1.00  0.00    -0.374 OA
BRANCH   2   3
ATOM      3  C   UNL A   1      33.830  34.870  28.560  1.00  0.00     0.202 C 
BRANCH   3   4
ATOM      4  C   UNL A   1      33.093  35.949  29.354  1.00  0.00     0.261 C 
BRANCH   4   5
ATOM      5  O   UNL A   1      32.537  35.382  30.553  1.00  0.00    -0.460 OA
BRANCH   5   6
ATOM      6  C   UNL A   1      32.998  35.535  31.817  1.00  0.00     0.338 C 
ATOM      7  O   UNL A   1      32.416  36.292  32.589  1.00  0.00    -0.246 OA
BRANCH   6   8
ATOM      8  C   UNL A   1      34.187  34.793  32.319  1.00  0.00     0.060 A 
ATOM      9  C   UNL A   1      35.483  35.289  32.249  1.00  0.00     0.016 A 
ATOM     10  C   UNL A   1      33.990  33.562  32.958  1.00  0.00     0.016 A 
ATOM     11  C   UNL A   1      36.566  34.607  32.728  1.00  0.00     0.010 A 
ATOM     12  C   UNL A   1      35.079  32.868  33.496  1.00  0.00     0.010 A 
ATOM     13  C   UNL A   1      36.366  33.403  33.377  1.00  0.00    -0.014 A 
BRANCH  13  14
ATOM     14  C   UNL A   1      37.593  32.725  33.789  1.00  0.00     0.031 A 
ATOM     15  C   UNL A   1      38.253  31.835  32.795  1.00  0.00     0.074 A 
ATOM     16  C   UNL A   1      38.203  33.142  34.913  1.00  0.00     0.049 A 
ATOM     17  N   UNL A   1      39.329  31.114  32.926  1.00  0.00    -0.248 NA
ATOM     18  C   UNL A   1      37.635  31.767  31.457  1.00  0.00     0.031 C 
ATOM     19  C   UNL A   1      37.702  34.201  35.800  1.00  0.00     0.029 A 
ATOM     20  N   UNL A   1      39.399  32.788  35.465  1.00  0.00    -0.354 N 
ATOM     21  C   UNL A   1      39.487  30.468  31.712  1.00  0.00     0.074 A 
ATOM     22  C   UNL A   1      38.416  30.894  30.843  1.00  0.00     0.031 C 
ATOM     23  C   UNL A   1      38.607  34.433  36.763  1.00  0.00     0.029 A 
ATOM     24  C   UNL A   1      39.689  33.470  36.621  1.00  0.00     0.049 A 
ATOM     25  H   UNL A   1      39.996  32.109  35.074  1.00  0.00     0.167 HD
ATOM     26  C   UNL A   1      40.446  29.577  31.385  1.00  0.00     0.037 A 
ATOM     27  C   UNL A   1      40.698  33.283  37.489  1.00  0.00     0.037 A 
ATOM     28  C   UNL A   1      41.491  29.204  32.297  1.00  0.00     0.049 A 
ATOM     29  C   UNL A   1      41.675  32.187  37.167  1.00  0.00     0.074 A 
ATOM     30  C   UNL A   1      42.465  28.237  32.154  1.00  0.00     0.029 A 
ATOM     31  N   UNL A   1      41.693  29.806  33.535  1.00  0.00    -0.354 N 
ATOM     32  N   UNL A   1      41.748  31.445  36.084  1.00  0.00    -0.248 NA
ATOM     33  C   UNL A   1      42.680  31.870  38.185  1.00  0.00     0.031 C 
ATOM     34  C   UNL A   1      43.226  28.223  33.328  1.00  0.00     0.029 A 
ATOM     35  C   UNL A   1      42.765  29.220  34.179  1.00  0.00     0.049 A 
ATOM     36  H   UNL A   1      41.150  30.543  33.899  1.00  0.00     0.167 HD
ATOM     37  C   UNL A   1      42.807  30.576  36.284  1.00  0.00     0.074 A 
ATOM     38  C   UNL A   1      43.360  30.900  37.588  1.00  0.00     0.031 C 
ATOM     39  C   UNL A   1      43.276  29.593  35.477  1.00  0.00     0.037 A 
BRANCH  26  40
ATOM     40  C   UNL A   1      40.325  28.894  30.058  1.00  0.00     0.064 A 
ATOM     41  C   UNL A   1      40.959  29.441  28.932  1.00  0.00     0.173 A 
ATOM     42  C   UNL A   1      39.626  27.689  29.895  1.00  0.00     0.173 A 
ATOM     43  F   UNL A   1      41.658  30.581  29.037  1.00  0.00    -0.203 F 
ATOM     44  C   UNL A   1      40.894  28.810  27.692  1.00  0.00     0.198 A 
ATOM     45  C   UNL A   1      39.584  27.047  28.659  1.00  0.00     0.198 A 
ATOM     46  F   UNL A   1      39.036  27.103  30.948  1.00  0.00    -0.203 F 
ATOM     47  F   UNL A   1      41.503  29.357  26.631  1.00  0.00    -0.200 F 
ATOM     48  C   UNL A   1      40.213  27.611  27.558  1.00  0.00     0.200 A 
ATOM     49  F   UNL A   1      38.960  25.867  28.539  1.00  0.00    -0.200 F 
ATOM     50  F   UNL A   1      40.176  26.989  26.371  1.00  0.00    -0.200 F 
ENDBRANCH  26  40
BRANCH  27  51
ATOM     51  C   UNL A   1      40.768  34.085  38.739  1.00  0.00     0.064 A 
ATOM     52  C   UNL A   1      40.079  33.685  39.897  1.00  0.00     0.173 A 
ATOM     53  C   UNL A   1      41.488  35.284  38.798  1.00  0.00     0.173 A 
ATOM     54  F   UNL A   1      39.376  32.544  39.903  1.00  0.00    -0.203 F 
ATOM     55  C   UNL A   1      40.080  34.470  41.049  1.00  0.00     0.198 A 
ATOM     56  C   UNL A   1      41.514  36.054  39.962  1.00  0.00     0.198 A 
ATOM     57  F   UNL A   1      42.180  35.702  37.728  1.00  0.00    -0.203 F 
ATOM     58  F   UNL A   1      39.374  34.084  42.121  1.00  0.00    -0.200 F 
ATOM     59  C   UNL A   1      40.800  35.652  41.082  1.00  0.00     0.200 A 
ATOM     60  F   UNL A   1      42.232  37.184  39.999  1.00  0.00    -0.200 F 
ATOM     61  F   UNL A   1      40.812  36.401  42.193  1.00  0.00    -0.200 F 
ENDBRANCH  27  51
BRANCH  39  62
ATOM     62  C   UNL A   1      44.457  28.819  35.970  1.00  0.00     0.064 A 
ATOM     63  C   UNL A   1      45.756  29.254  35.672  1.00  0.00     0.173 A 
ATOM     64  C   UNL A   1      44.298  27.598  36.639  1.00  0.00     0.173 A 
ATOM     65  F   UNL A   1      45.949  30.413  35.024  1.00  0.00    -0.203 F 
ATOM     66  C   UNL A   1      46.859  28.477  36.003  1.00  0.00     0.198 A 
ATOM     67  C   UNL A   1      45.407  26.837  36.996  1.00  0.00     0.198 A 
ATOM     68  F   UNL A   1      43.073  27.153  36.954  1.00  0.00    -0.203 F 
ATOM     69  F   UNL A   1      48.089  28.886  35.666  1.00  0.00    -0.200 F 
ATOM     70  C   UNL A   1      46.683  27.271  36.666  1.00  0.00     0.200 A 
ATOM     71  F   UNL A   1      45.240  25.684  37.656  1.00  0.00    -0.200 F 
ATOM     72  F   UNL A   1      47.748  26.523  36.985  1.00  0.00    -0.200 F 
ENDBRANCH  39  62
ENDBRANCH  13  14
ENDBRANCH   6   8
ENDBRANCH   5   6
ENDBRANCH   4   5
ENDBRANCH   3   4
ENDBRANCH   2   3
ENDBRANCH   1   2
BRANCH   1  73
ATOM     73  C   UNL A   1      33.439  31.618  27.621  1.00  0.00     0.261 C 
BRANCH  73  74
ATOM     74  O   UNL A   1      34.146  30.636  26.842  1.00  0.00    -0.459 OA
BRANCH  74  75
ATOM     75  C   UNL A   1      33.627  29.383  26.771  1.00  0.00     0.364 C 
ATOM     76  O   UNL A   1      33.806  28.497  27.601  1.00  0.00    -0.245 OA
BRANCH  75  77
ATOM     77  C   UNL A   1      32.713  29.217  25.548  1.00  0.00     0.294 C 
ATOM     78  C   UNL A   1      32.138  27.829  25.366  1.00  0.00     0.090 C 
ATOM     79  N   UNL A   1      33.365  29.464  24.250  1.00  0.00    -0.334 N 
ATOM     80  C   UNL A   1      33.097  27.091  24.403  1.00  0.00     0.036 C 
ATOM     81  C   UNL A   1      33.859  28.207  23.693  1.00  0.00     0.268 C 
ATOM     82  H   UNL A   1      34.147  30.105  24.381  1.00  0.00     0.347 HD
ATOM     83  H   UNL A   1      32.687  29.871  23.607  1.00  0.00     0.347 HD
ATOM     84  C   UNL A   1      32.296  26.261  23.400  1.00  0.00     0.075 C 
ATOM     85  C   UNL A   1      34.068  26.095  25.076  1.00  0.00     0.075 C 
ATOM     86  C   UNL A   1      31.519  25.163  24.112  1.00  0.00     0.271 C 
ATOM     87  C   UNL A   1      33.316  25.008  25.822  1.00  0.00     0.271 C 
ATOM     88  N   UNL A   1      32.372  24.315  24.939  1.00  0.00    -0.271 N 
ATOM     89  H   UNL A   1      32.396  24.688  25.850  1.00  0.00     0.356 HD
BRANCH  88  90
ATOM     90  C   UNL A   1      32.318  22.928  25.077  1.00  0.00     0.322 C 
ATOM     91  O   UNL A   1      31.733  22.448  26.053  1.00  0.00    -0.230 OA
BRANCH  90  92
ATOM     92  C   UNL A   1      32.915  21.936  24.081  1.00  0.00     0.113 C 
ATOM     93  C   UNL A   1      32.317  20.616  23.607  1.00  0.00     0.028 C 
ATOM     94  C   UNL A   1      32.223  21.825  22.725  1.00  0.00     0.028 C 
BRANCH  92  95
ATOM     95  C   UNL A   1      34.448  21.918  24.145  1.00  0.00     0.007 A 
ATOM     96  C   UNL A   1      35.125  20.995  24.965  1.00  0.00     0.008 A 
ATOM     97  C   UNL A   1      35.217  22.901  23.508  1.00  0.00     0.127 A 
ATOM     98  C   UNL A   1      36.505  21.072  25.150  1.00  0.00     0.001 A 
ATOM     99  C   UNL A   1      36.590  22.997  23.700  1.00  0.00     0.039 A 
ATOM    100  F   UNL A   1      34.614  23.807  22.721  1.00  0.00    -0.207 F 
ATOM    101  C   UNL A   1      37.236  22.081  24.527  1.00  0.00     0.003 A 
ENDBRANCH  92  95
ENDBRANCH  90  92
ENDBRANCH  88  90
ENDBRANCH  75  77
ENDBRANCH  74  75
ENDBRANCH  73  74
ENDBRANCH   1  73
TORSDOF 17
ENDMDL
