MODEL 1
REMARK VINA RESULT:     -12.7      0.000      0.000
REMARK SMILES C[C@@H]1CCc2nc(NC(=O)[C@H]3CC=CC[C@@H]3C(=O)OCCOCCOC(=O)c3ccc(-c4c5nc(c(-c6c(F)c(F)c(F)c(F)c6F)c6ccc([nH]6)c(-c6c(F)c(F)c(F)c(F)c6F)c6nc(c(-c7c(F)c(F)c(F)c(F)c7F)c7ccc4[nH]7)C=C6)C=C5)cc3)sc2C1
REMARK SMILES IDX 22 1 21 2 20 3 19 4 17 5 18 6 16 7 11 8 12 9 13 10 15 11
REMARK SMILES IDX 14 12 9 13 8 14 10 16 7 17 1 18 2 19 3 20 93 21 4 22 92 23
REMARK SMILES IDX 5 24 91 25 6 26 23 27 24 28 25 29 26 30 27 31 28 32 29 33
REMARK SMILES IDX 90 34 30 35 89 36 31 37 32 38 33 39 83 40 34 41 88 42 82 43
REMARK SMILES IDX 84 44 35 45 87 46 81 47 80 48 36 50 68 51 48 52 67 53 49 54
REMARK SMILES IDX 52 55 66 56 85 57 50 58 51 59 65 61 86 62 53 63 37 64 38 65
REMARK SMILES IDX 46 66 39 67 40 68 44 69 47 70 41 71 42 72 45 73 43 74 69 75
REMARK SMILES IDX 70 76 78 77 71 78 72 79 76 80 79 81 73 82 74 83 77 84 75 85
REMARK SMILES IDX 54 86 55 87 63 88 56 89 57 90 61 91 64 92 58 93 59 94 62 95
REMARK SMILES IDX 60 96
REMARK H PARENT 8 15 84 49 52 60
REMARK Flexibility Score: inf
ROOT
ATOM      1  O   UNL A   1      41.496  20.358  26.284  1.00  0.00    -0.374 OA
ENDROOT
BRANCH   1   2
ATOM      2  C   UNL A   1      40.082  20.276  26.116  1.00  0.00     0.202 C 
BRANCH   2   3
ATOM      3  C   UNL A   1      39.348  21.619  26.111  1.00  0.00     0.261 C 
BRANCH   3   4
ATOM      4  O   UNL A   1      38.069  21.522  25.463  1.00  0.00    -0.463 OA
BRANCH   4   5
ATOM      5  C   UNL A   1      37.401  22.698  25.272  1.00  0.00     0.310 C 
ATOM      6  O   UNL A   1      37.831  23.798  25.586  1.00  0.00    -0.252 OA
BRANCH   5   7
ATOM      7  C   UNL A   1      36.140  22.466  24.432  1.00  0.00     0.116 C 
ATOM      8  C   UNL A   1      35.204  23.684  24.470  1.00  0.00     0.097 C 
ATOM      9  C   UNL A   1      34.681  23.828  25.934  1.00  0.00     0.041 C 
ATOM     10  C   UNL A   1      34.331  22.519  26.594  1.00  0.00    -0.030 C 
ATOM     11  C   UNL A   1      35.419  21.171  24.819  1.00  0.00     0.043 C 
ATOM     12  C   UNL A   1      34.641  21.320  26.083  1.00  0.00    -0.030 C 
BRANCH   8  13
ATOM     13  C   UNL A   1      34.001  23.918  23.510  1.00  0.00     0.230 C 
ATOM     14  N   UNL A   1      33.271  25.028  23.268  1.00  0.00    -0.302 N 
ATOM     15  H   UNL A   1      32.773  24.972  22.419  1.00  0.00     0.172 HD
ATOM     16  O   UNL A   1      33.680  22.962  22.777  1.00  0.00    -0.274 OA
BRANCH  14  17
ATOM     17  C   UNL A   1      33.060  26.201  23.912  1.00  0.00     0.189 A 
ATOM     18  C   UNL A   1      31.596  30.599  26.537  1.00  0.00     0.008 C 
ATOM     19  C   UNL A   1      32.099  29.345  27.264  1.00  0.00    -0.009 C 
ATOM     20  C   UNL A   1      33.638  29.241  27.308  1.00  0.00     0.010 C 
ATOM     21  C   UNL A   1      31.443  28.090  26.669  1.00  0.00     0.052 C 
ATOM     22  C   UNL A   1      34.290  28.908  25.957  1.00  0.00     0.058 C 
ATOM     23  C   UNL A   1      32.170  27.660  25.471  1.00  0.00     0.030 A 
ATOM     24  C   UNL A   1      33.499  27.891  25.211  1.00  0.00     0.057 A 
ATOM     25  S   UNL A   1      31.498  26.818  24.166  1.00  0.00    -0.101 S 
ATOM     26  N   UNL A   1      34.023  27.026  24.272  1.00  0.00    -0.225 NA
ENDBRANCH  14  17
ENDBRANCH   8  13
ENDBRANCH   5   7
ENDBRANCH   4   5
ENDBRANCH   3   4
ENDBRANCH   2   3
ENDBRANCH   1   2
BRANCH   1  27
ATOM     27  C   UNL A   1      42.177  19.163  26.650  1.00  0.00     0.202 C 
BRANCH  27  28
ATOM     28  C   UNL A   1      43.410  18.841  25.818  1.00  0.00     0.261 C 
BRANCH  28  29
ATOM     29  O   UNL A   1      43.503  19.689  24.672  1.00  0.00    -0.460 OA
BRANCH  29  30
ATOM     30  C   UNL A   1      44.715  20.246  24.400  1.00  0.00     0.338 C 
ATOM     31  O   UNL A   1      45.667  19.721  23.871  1.00  0.00    -0.246 OA
BRANCH  30  32
ATOM     32  C   UNL A   1      44.707  21.604  24.992  1.00  0.00     0.060 A 
ATOM     33  C   UNL A   1      45.612  22.017  25.965  1.00  0.00     0.016 A 
ATOM     34  C   UNL A   1      43.666  22.449  24.631  1.00  0.00     0.016 A 
ATOM     35  C   UNL A   1      45.344  23.197  26.672  1.00  0.00     0.010 A 
ATOM     36  C   UNL A   1      43.507  23.670  25.214  1.00  0.00     0.010 A 
ATOM     37  C   UNL A   1      44.221  23.967  26.338  1.00  0.00    -0.014 A 
BRANCH  37  38
ATOM     38  C   UNL A   1      43.811  25.194  26.996  1.00  0.00     0.031 A 
ATOM     39  C   UNL A   1      44.702  26.306  26.641  1.00  0.00     0.074 A 
ATOM     40  C   UNL A   1      42.648  25.423  27.652  1.00  0.00     0.049 A 
ATOM     41  N   UNL A   1      45.682  26.717  27.363  1.00  0.00    -0.248 NA
ATOM     42  C   UNL A   1      44.665  26.868  25.283  1.00  0.00     0.031 C 
ATOM     43  C   UNL A   1      41.442  24.595  27.778  1.00  0.00     0.029 A 
ATOM     44  N   UNL A   1      42.305  26.540  28.359  1.00  0.00    -0.354 N 
ATOM     45  C   UNL A   1      46.252  27.756  26.656  1.00  0.00     0.074 A 
ATOM     46  C   UNL A   1      45.741  27.660  25.313  1.00  0.00     0.031 C 
ATOM     47  C   UNL A   1      40.452  25.310  28.372  1.00  0.00     0.029 A 
ATOM     48  C   UNL A   1      40.987  26.589  28.810  1.00  0.00     0.049 A 
ATOM     49  H   UNL A   1      42.948  27.263  28.541  1.00  0.00     0.167 HD
ATOM     50  C   UNL A   1      46.876  28.756  27.332  1.00  0.00     0.037 A 
ATOM     51  C   UNL A   1      40.406  27.615  29.491  1.00  0.00     0.037 A 
ATOM     52  C   UNL A   1      47.145  28.363  28.700  1.00  0.00     0.049 A 
ATOM     53  C   UNL A   1      41.508  28.407  30.103  1.00  0.00     0.074 A 
ATOM     54  C   UNL A   1      47.823  27.302  29.278  1.00  0.00     0.029 A 
ATOM     55  N   UNL A   1      46.315  28.842  29.687  1.00  0.00    -0.354 N 
ATOM     56  N   UNL A   1      42.265  27.968  31.067  1.00  0.00    -0.248 NA
ATOM     57  C   UNL A   1      42.065  29.491  29.308  1.00  0.00     0.031 C 
ATOM     58  C   UNL A   1      47.005  26.890  30.373  1.00  0.00     0.029 A 
ATOM     59  C   UNL A   1      45.930  27.774  30.461  1.00  0.00     0.049 A 
ATOM     60  H   UNL A   1      46.046  29.780  29.816  1.00  0.00     0.167 HD
ATOM     61  C   UNL A   1      43.541  28.386  30.723  1.00  0.00     0.074 A 
ATOM     62  C   UNL A   1      43.347  29.373  29.661  1.00  0.00     0.031 C 
ATOM     63  C   UNL A   1      44.644  27.684  31.114  1.00  0.00     0.037 A 
BRANCH  50  64
ATOM     64  C   UNL A   1      46.876  30.188  26.879  1.00  0.00     0.064 A 
ATOM     65  C   UNL A   1      48.081  30.911  26.935  1.00  0.00     0.173 A 
ATOM     66  C   UNL A   1      45.710  30.955  26.663  1.00  0.00     0.173 A 
ATOM     67  F   UNL A   1      49.243  30.282  27.167  1.00  0.00    -0.203 F 
ATOM     68  C   UNL A   1      48.106  32.304  26.851  1.00  0.00     0.198 A 
ATOM     69  C   UNL A   1      45.746  32.338  26.521  1.00  0.00     0.198 A 
ATOM     70  F   UNL A   1      44.483  30.423  26.699  1.00  0.00    -0.203 F 
ATOM     71  F   UNL A   1      49.259  32.957  27.040  1.00  0.00    -0.200 F 
ATOM     72  C   UNL A   1      46.939  33.016  26.646  1.00  0.00     0.200 A 
ATOM     73  F   UNL A   1      44.599  33.011  26.348  1.00  0.00    -0.200 F 
ATOM     74  F   UNL A   1      46.953  34.354  26.622  1.00  0.00    -0.200 F 
ENDBRANCH  50  64
BRANCH  51  75
ATOM     75  C   UNL A   1      39.024  28.165  29.426  1.00  0.00     0.064 A 
ATOM     76  C   UNL A   1      38.254  28.341  30.596  1.00  0.00     0.173 A 
ATOM     77  C   UNL A   1      38.564  28.836  28.279  1.00  0.00     0.173 A 
ATOM     78  F   UNL A   1      38.637  27.771  31.748  1.00  0.00    -0.203 F 
ATOM     79  C   UNL A   1      37.128  29.173  30.625  1.00  0.00     0.198 A 
ATOM     80  C   UNL A   1      37.438  29.666  28.309  1.00  0.00     0.198 A 
ATOM     81  F   UNL A   1      39.259  28.785  27.134  1.00  0.00    -0.203 F 
ATOM     82  F   UNL A   1      36.471  29.375  31.776  1.00  0.00    -0.200 F 
ATOM     83  C   UNL A   1      36.731  29.849  29.484  1.00  0.00     0.200 A 
ATOM     84  F   UNL A   1      37.087  30.345  27.208  1.00  0.00    -0.200 F 
ATOM     85  F   UNL A   1      35.702  30.707  29.527  1.00  0.00    -0.200 F 
ENDBRANCH  51  75
BRANCH  63  86
ATOM     86  C   UNL A   1      44.471  26.603  32.148  1.00  0.00     0.064 A 
ATOM     87  C   UNL A   1      44.262  25.241  31.860  1.00  0.00     0.173 A 
ATOM     88  C   UNL A   1      44.657  26.948  33.495  1.00  0.00     0.173 A 
ATOM     89  F   UNL A   1      44.168  24.807  30.596  1.00  0.00    -0.203 F 
ATOM     90  C   UNL A   1      44.203  24.286  32.876  1.00  0.00     0.198 A 
ATOM     91  C   UNL A   1      44.638  25.988  34.502  1.00  0.00     0.198 A 
ATOM     92  F   UNL A   1      44.905  28.224  33.831  1.00  0.00    -0.203 F 
ATOM     93  F   UNL A   1      43.989  22.996  32.575  1.00  0.00    -0.200 F 
ATOM     94  C   UNL A   1      44.399  24.659  34.194  1.00  0.00     0.200 A 
ATOM     95  F   UNL A   1      44.876  26.350  35.771  1.00  0.00    -0.200 F 
ATOM     96  F   UNL A   1      44.385  23.736  35.167  1.00  0.00    -0.200 F 
ENDBRANCH  63  86
ENDBRANCH  37  38
ENDBRANCH  30  32
ENDBRANCH  29  30
ENDBRANCH  28  29
ENDBRANCH  27  28
ENDBRANCH   1  27
TORSDOF 16
ENDMDL
MODEL 2
REMARK VINA RESULT:     -11.7      4.100      8.224
REMARK SMILES C[C@@H]1CCc2nc(NC(=O)[C@H]3CC=CC[C@@H]3C(=O)OCCOCCOC(=O)c3ccc(-c4c5nc(c(-c6c(F)c(F)c(F)c(F)c6F)c6ccc([nH]6)c(-c6c(F)c(F)c(F)c(F)c6F)c6nc(c(-c7c(F)c(F)c(F)c(F)c7F)c7ccc4[nH]7)C=C6)C=C5)cc3)sc2C1
REMARK SMILES IDX 22 1 21 2 20 3 19 4 17 5 18 6 16 7 11 8 12 9 13 10 15 11
REMARK SMILES IDX 14 12 9 13 8 14 10 16 7 17 1 18 2 19 3 20 93 21 4 22 92 23
REMARK SMILES IDX 5 24 91 25 6 26 23 27 24 28 25 29 26 30 27 31 28 32 29 33
REMARK SMILES IDX 90 34 30 35 89 36 31 37 32 38 33 39 83 40 34 41 88 42 82 43
REMARK SMILES IDX 84 44 35 45 87 46 81 47 80 48 36 50 68 51 48 52 67 53 49 54
REMARK SMILES IDX 52 55 66 56 85 57 50 58 51 59 65 61 86 62 53 63 37 64 38 65
REMARK SMILES IDX 46 66 39 67 40 68 44 69 47 70 41 71 42 72 45 73 43 74 69 75
REMARK SMILES IDX 70 76 78 77 71 78 72 79 76 80 79 81 73 82 74 83 77 84 75 85
REMARK SMILES IDX 54 86 55 87 63 88 56 89 57 90 61 91 64 92 58 93 59 94 62 95
REMARK SMILES IDX 60 96
REMARK H PARENT 8 15 84 49 52 60
REMARK Flexibility Score: inf
ROOT
ATOM      1  O   UNL A   1      42.694  21.175  25.469  1.00  0.00    -0.374 OA
ENDROOT
BRANCH   1   2
ATOM      2  C   UNL A   1      43.394  22.410  25.605  1.00  0.00     0.202 C 
BRANCH   2   3
ATOM      3  C   UNL A   1      43.869  23.036  24.292  1.00  0.00     0.261 C 
BRANCH   3   4
ATOM      4  O   UNL A   1      44.528  24.295  24.513  1.00  0.00    -0.463 OA
BRANCH   4   5
ATOM      5  C   UNL A   1      45.892  24.256  24.578  1.00  0.00     0.310 C 
ATOM      6  O   UNL A   1      46.588  23.405  24.044  1.00  0.00    -0.252 OA
BRANCH   5   7
ATOM      7  C   UNL A   1      46.431  25.530  25.236  1.00  0.00     0.116 C 
ATOM      8  C   UNL A   1      47.680  25.242  26.085  1.00  0.00     0.097 C 
ATOM      9  C   UNL A   1      47.238  24.339  27.279  1.00  0.00     0.041 C 
ATOM     10  C   UNL A   1      45.918  24.732  27.892  1.00  0.00    -0.030 C 
ATOM     11  C   UNL A   1      45.352  26.272  26.030  1.00  0.00     0.043 C 
ATOM     12  C   UNL A   1      45.077  25.619  27.344  1.00  0.00    -0.030 C 
BRANCH   8  13
ATOM     13  C   UNL A   1      48.653  26.324  26.641  1.00  0.00     0.230 C 
ATOM     14  N   UNL A   1      49.288  27.339  26.018  1.00  0.00    -0.302 N 
ATOM     15  H   UNL A   1      49.602  28.029  26.648  1.00  0.00     0.172 HD
ATOM     16  O   UNL A   1      48.840  26.323  27.873  1.00  0.00    -0.274 OA
BRANCH  14  17
ATOM     17  C   UNL A   1      49.598  27.637  24.733  1.00  0.00     0.189 A 
ATOM     18  C   UNL A   1      51.455  28.676  19.849  1.00  0.00     0.008 C 
ATOM     19  C   UNL A   1      51.068  27.259  20.290  1.00  0.00    -0.009 C 
ATOM     20  C   UNL A   1      49.554  26.980  20.186  1.00  0.00     0.010 C 
ATOM     21  C   UNL A   1      51.623  26.971  21.693  1.00  0.00     0.052 C 
ATOM     22  C   UNL A   1      48.701  27.706  21.238  1.00  0.00     0.058 C 
ATOM     23  C   UNL A   1      50.719  27.510  22.714  1.00  0.00     0.030 A 
ATOM     24  C   UNL A   1      49.367  27.702  22.570  1.00  0.00     0.057 A 
ATOM     25  S   UNL A   1      51.182  28.027  24.258  1.00  0.00    -0.101 S 
ATOM     26  N   UNL A   1      48.703  27.789  23.776  1.00  0.00    -0.225 NA
ENDBRANCH  14  17
ENDBRANCH   8  13
ENDBRANCH   5   7
ENDBRANCH   4   5
ENDBRANCH   3   4
ENDBRANCH   2   3
ENDBRANCH   1   2
BRANCH   1  27
ATOM     27  C   UNL A   1      42.411  20.454  26.664  1.00  0.00     0.202 C 
BRANCH  27  28
ATOM     28  C   UNL A   1      40.934  20.317  27.002  1.00  0.00     0.261 C 
BRANCH  28  29
ATOM     29  O   UNL A   1      40.449  21.465  27.699  1.00  0.00    -0.460 OA
BRANCH  29  30
ATOM     30  C   UNL A   1      39.706  22.361  26.993  1.00  0.00     0.338 C 
ATOM     31  O   UNL A   1      38.859  22.125  26.162  1.00  0.00    -0.246 OA
BRANCH  30  32
ATOM     32  C   UNL A   1      40.214  23.708  27.336  1.00  0.00     0.060 A 
ATOM     33  C   UNL A   1      41.373  23.921  28.077  1.00  0.00     0.016 A 
ATOM     34  C   UNL A   1      39.419  24.794  26.995  1.00  0.00     0.016 A 
ATOM     35  C   UNL A   1      41.608  25.199  28.602  1.00  0.00     0.010 A 
ATOM     36  C   UNL A   1      39.744  26.062  27.376  1.00  0.00     0.010 A 
ATOM     37  C   UNL A   1      40.719  26.243  28.313  1.00  0.00    -0.014 A 
BRANCH  37  38
ATOM     38  C   UNL A   1      40.826  27.605  28.803  1.00  0.00     0.031 A 
ATOM     39  C   UNL A   1      41.953  28.306  28.174  1.00  0.00     0.074 A 
ATOM     40  C   UNL A   1      39.915  28.285  29.540  1.00  0.00     0.049 A 
ATOM     41  N   UNL A   1      43.114  28.448  28.704  1.00  0.00    -0.248 NA
ATOM     42  C   UNL A   1      41.877  28.685  26.755  1.00  0.00     0.031 C 
ATOM     43  C   UNL A   1      38.547  27.928  29.934  1.00  0.00     0.029 A 
ATOM     44  N   UNL A   1      40.057  29.527  30.089  1.00  0.00    -0.354 N 
ATOM     45  C   UNL A   1      43.861  29.147  27.777  1.00  0.00     0.074 A 
ATOM     46  C   UNL A   1      43.137  29.070  26.533  1.00  0.00     0.031 C 
ATOM     47  C   UNL A   1      37.939  28.997  30.512  1.00  0.00     0.029 A 
ATOM     48  C   UNL A   1      38.911  30.066  30.672  1.00  0.00     0.049 A 
ATOM     49  H   UNL A   1      40.915  30.010  30.077  1.00  0.00     0.167 HD
ATOM     50  C   UNL A   1      44.866  29.953  28.206  1.00  0.00     0.037 A 
ATOM     51  C   UNL A   1      38.799  31.299  31.237  1.00  0.00     0.037 A 
ATOM     52  C   UNL A   1      45.214  29.656  29.580  1.00  0.00     0.049 A 
ATOM     53  C   UNL A   1      40.176  31.744  31.584  1.00  0.00     0.074 A 
ATOM     54  C   UNL A   1      45.608  28.506  30.243  1.00  0.00     0.029 A 
ATOM     55  N   UNL A   1      44.745  30.497  30.563  1.00  0.00    -0.354 N 
ATOM     56  N   UNL A   1      40.902  31.194  32.515  1.00  0.00    -0.248 NA
ATOM     57  C   UNL A   1      40.911  32.479  30.565  1.00  0.00     0.031 C 
ATOM     58  C   UNL A   1      44.888  28.522  31.477  1.00  0.00     0.029 A 
ATOM     59  C   UNL A   1      44.173  29.718  31.539  1.00  0.00     0.049 A 
ATOM     60  H   UNL A   1      44.809  31.479  30.567  1.00  0.00     0.167 HD
ATOM     61  C   UNL A   1      42.171  31.118  31.966  1.00  0.00     0.074 A 
ATOM     62  C   UNL A   1      42.130  31.982  30.785  1.00  0.00     0.031 C 
ATOM     63  C   UNL A   1      43.046  30.140  32.339  1.00  0.00     0.037 A 
BRANCH  50  64
ATOM     64  C   UNL A   1      45.244  31.239  27.528  1.00  0.00     0.064 A 
ATOM     65  C   UNL A   1      46.551  31.378  27.028  1.00  0.00     0.173 A 
ATOM     66  C   UNL A   1      44.484  32.427  27.596  1.00  0.00     0.173 A 
ATOM     67  F   UNL A   1      47.368  30.316  26.951  1.00  0.00    -0.203 F 
ATOM     68  C   UNL A   1      47.078  32.624  26.688  1.00  0.00     0.198 A 
ATOM     69  C   UNL A   1      44.994  33.660  27.200  1.00  0.00     0.198 A 
ATOM     70  F   UNL A   1      43.268  32.472  28.153  1.00  0.00    -0.203 F 
ATOM     71  F   UNL A   1      48.367  32.724  26.341  1.00  0.00    -0.200 F 
ATOM     72  C   UNL A   1      46.301  33.764  26.776  1.00  0.00     0.200 A 
ATOM     73  F   UNL A   1      44.230  34.756  27.318  1.00  0.00    -0.200 F 
ATOM     74  F   UNL A   1      46.822  34.966  26.505  1.00  0.00    -0.200 F 
ENDBRANCH  50  64
BRANCH  51  75
ATOM     75  C   UNL A   1      37.667  32.267  31.240  1.00  0.00     0.064 A 
ATOM     76  C   UNL A   1      37.342  33.010  30.085  1.00  0.00     0.173 A 
ATOM     77  C   UNL A   1      36.687  32.235  32.248  1.00  0.00     0.173 A 
ATOM     78  F   UNL A   1      38.199  33.067  29.054  1.00  0.00    -0.203 F 
ATOM     79  C   UNL A   1      36.098  33.636  29.931  1.00  0.00     0.198 A 
ATOM     80  C   UNL A   1      35.446  32.861  32.093  1.00  0.00     0.198 A 
ATOM     81  F   UNL A   1      36.873  31.505  33.356  1.00  0.00    -0.203 F 
ATOM     82  F   UNL A   1      35.801  34.265  28.785  1.00  0.00    -0.200 F 
ATOM     83  C   UNL A   1      35.145  33.546  30.929  1.00  0.00     0.200 A 
ATOM     84  F   UNL A   1      34.517  32.734  33.050  1.00  0.00    -0.200 F 
ATOM     85  F   UNL A   1      33.926  34.076  30.754  1.00  0.00    -0.200 F 
ENDBRANCH  51  75
BRANCH  63  86
ATOM     86  C   UNL A   1      42.710  29.308  33.549  1.00  0.00     0.064 A 
ATOM     87  C   UNL A   1      41.947  28.125  33.524  1.00  0.00     0.173 A 
ATOM     88  C   UNL A   1      43.302  29.659  34.771  1.00  0.00     0.173 A 
ATOM     89  F   UNL A   1      41.423  27.663  32.381  1.00  0.00    -0.203 F 
ATOM     90  C   UNL A   1      41.757  27.361  34.676  1.00  0.00     0.198 A 
ATOM     91  C   UNL A   1      43.144  28.873  35.909  1.00  0.00     0.198 A 
ATOM     92  F   UNL A   1      44.078  30.751  34.850  1.00  0.00    -0.203 F 
ATOM     93  F   UNL A   1      41.013  26.244  34.629  1.00  0.00    -0.200 F 
ATOM     94  C   UNL A   1      42.362  27.731  35.865  1.00  0.00     0.200 A 
ATOM     95  F   UNL A   1      43.772  29.213  37.043  1.00  0.00    -0.200 F 
ATOM     96  F   UNL A   1      42.215  26.975  36.962  1.00  0.00    -0.200 F 
ENDBRANCH  63  86
ENDBRANCH  37  38
ENDBRANCH  30  32
ENDBRANCH  29  30
ENDBRANCH  28  29
ENDBRANCH  27  28
ENDBRANCH   1  27
TORSDOF 16
ENDMDL
MODEL 3
REMARK VINA RESULT:     -11.7      3.026      5.384
REMARK SMILES C[C@@H]1CCc2nc(NC(=O)[C@H]3CC=CC[C@@H]3C(=O)OCCOCCOC(=O)c3ccc(-c4c5nc(c(-c6c(F)c(F)c(F)c(F)c6F)c6ccc([nH]6)c(-c6c(F)c(F)c(F)c(F)c6F)c6nc(c(-c7c(F)c(F)c(F)c(F)c7F)c7ccc4[nH]7)C=C6)C=C5)cc3)sc2C1
REMARK SMILES IDX 22 1 21 2 20 3 19 4 17 5 18 6 16 7 11 8 12 9 13 10 15 11
REMARK SMILES IDX 14 12 9 13 8 14 10 16 7 17 1 18 2 19 3 20 93 21 4 22 92 23
REMARK SMILES IDX 5 24 91 25 6 26 23 27 24 28 25 29 26 30 27 31 28 32 29 33
REMARK SMILES IDX 90 34 30 35 89 36 31 37 32 38 33 39 83 40 34 41 88 42 82 43
REMARK SMILES IDX 84 44 35 45 87 46 81 47 80 48 36 50 68 51 48 52 67 53 49 54
REMARK SMILES IDX 52 55 66 56 85 57 50 58 51 59 65 61 86 62 53 63 37 64 38 65
REMARK SMILES IDX 46 66 39 67 40 68 44 69 47 70 41 71 42 72 45 73 43 74 69 75
REMARK SMILES IDX 70 76 78 77 71 78 72 79 76 80 79 81 73 82 74 83 77 84 75 85
REMARK SMILES IDX 54 86 55 87 63 88 56 89 57 90 61 91 64 92 58 93 59 94 62 95
REMARK SMILES IDX 60 96
REMARK H PARENT 8 15 84 49 52 60
REMARK Flexibility Score: inf
ROOT
ATOM      1  O   UNL A   1      37.091  23.048  24.183  1.00  0.00    -0.374 OA
ENDROOT
BRANCH   1   2
ATOM      2  C   UNL A   1      35.805  23.410  23.681  1.00  0.00     0.202 C 
BRANCH   2   3
ATOM      3  C   UNL A   1      35.015  24.383  24.559  1.00  0.00     0.261 C 
BRANCH   3   4
ATOM      4  O   UNL A   1      34.406  25.425  23.779  1.00  0.00    -0.463 OA
BRANCH   4   5
ATOM      5  C   UNL A   1      33.770  26.408  24.482  1.00  0.00     0.310 C 
ATOM      6  O   UNL A   1      33.655  27.566  24.107  1.00  0.00    -0.252 OA
BRANCH   5   7
ATOM      7  C   UNL A   1      33.052  25.816  25.699  1.00  0.00     0.116 C 
ATOM      8  C   UNL A   1      32.097  24.680  25.295  1.00  0.00     0.097 C 
ATOM      9  C   UNL A   1      30.958  25.309  24.434  1.00  0.00     0.041 C 
ATOM     10  C   UNL A   1      30.462  26.638  24.946  1.00  0.00    -0.030 C 
ATOM     11  C   UNL A   1      32.350  26.890  26.535  1.00  0.00     0.043 C 
ATOM     12  C   UNL A   1      31.073  27.342  25.907  1.00  0.00    -0.030 C 
BRANCH   8  13
ATOM     13  C   UNL A   1      31.445  23.667  26.281  1.00  0.00     0.230 C 
ATOM     14  N   UNL A   1      31.649  22.342  26.444  1.00  0.00    -0.302 N 
ATOM     15  H   UNL A   1      31.324  22.017  27.316  1.00  0.00     0.172 HD
ATOM     16  O   UNL A   1      30.652  24.139  27.119  1.00  0.00    -0.274 OA
BRANCH  14  17
ATOM     17  C   UNL A   1      32.195  21.353  25.697  1.00  0.00     0.189 A 
ATOM     18  C   UNL A   1      34.402  17.119  23.335  1.00  0.00     0.008 C 
ATOM     19  C   UNL A   1      32.892  17.219  23.583  1.00  0.00    -0.009 C 
ATOM     20  C   UNL A   1      32.151  18.044  22.510  1.00  0.00     0.010 C 
ATOM     21  C   UNL A   1      32.623  17.730  25.006  1.00  0.00     0.052 C 
ATOM     22  C   UNL A   1      32.418  19.556  22.576  1.00  0.00     0.058 C 
ATOM     23  C   UNL A   1      32.702  19.194  25.040  1.00  0.00     0.030 A 
ATOM     24  C   UNL A   1      32.459  20.037  23.984  1.00  0.00     0.057 A 
ATOM     25  S   UNL A   1      33.137  20.120  26.388  1.00  0.00    -0.101 S 
ATOM     26  N   UNL A   1      32.168  21.327  24.379  1.00  0.00    -0.225 NA
ENDBRANCH  14  17
ENDBRANCH   8  13
ENDBRANCH   5   7
ENDBRANCH   4   5
ENDBRANCH   3   4
ENDBRANCH   2   3
ENDBRANCH   1   2
BRANCH   1  27
ATOM     27  C   UNL A   1      37.303  21.676  24.496  1.00  0.00     0.202 C 
BRANCH  27  28
ATOM     28  C   UNL A   1      38.393  21.409  25.524  1.00  0.00     0.261 C 
BRANCH  28  29
ATOM     29  O   UNL A   1      38.745  22.598  26.233  1.00  0.00    -0.460 OA
BRANCH  29  30
ATOM     30  C   UNL A   1      39.798  22.526  27.094  1.00  0.00     0.338 C 
ATOM     31  O   UNL A   1      40.245  21.540  27.632  1.00  0.00    -0.246 OA
BRANCH  30  32
ATOM     32  C   UNL A   1      40.232  23.916  27.361  1.00  0.00     0.060 A 
ATOM     33  C   UNL A   1      41.484  24.239  27.875  1.00  0.00     0.016 A 
ATOM     34  C   UNL A   1      39.287  24.920  27.197  1.00  0.00     0.016 A 
ATOM     35  C   UNL A   1      41.692  25.533  28.370  1.00  0.00     0.010 A 
ATOM     36  C   UNL A   1      39.556  26.213  27.534  1.00  0.00     0.010 A 
ATOM     37  C   UNL A   1      40.670  26.487  28.274  1.00  0.00    -0.014 A 
BRANCH  37  38
ATOM     38  C   UNL A   1      40.738  27.853  28.761  1.00  0.00     0.031 A 
ATOM     39  C   UNL A   1      41.860  28.577  28.149  1.00  0.00     0.074 A 
ATOM     40  C   UNL A   1      39.799  28.515  29.479  1.00  0.00     0.049 A 
ATOM     41  N   UNL A   1      43.008  28.746  28.699  1.00  0.00    -0.248 NA
ATOM     42  C   UNL A   1      41.801  28.949  26.728  1.00  0.00     0.031 C 
ATOM     43  C   UNL A   1      38.432  28.129  29.850  1.00  0.00     0.029 A 
ATOM     44  N   UNL A   1      39.904  29.761  30.027  1.00  0.00    -0.354 N 
ATOM     45  C   UNL A   1      43.756  29.458  27.783  1.00  0.00     0.074 A 
ATOM     46  C   UNL A   1      43.056  29.361  26.527  1.00  0.00     0.031 C 
ATOM     47  C   UNL A   1      37.791  29.186  30.413  1.00  0.00     0.029 A 
ATOM     48  C   UNL A   1      38.736  30.276  30.586  1.00  0.00     0.049 A 
ATOM     49  H   UNL A   1      40.751  30.263  30.028  1.00  0.00     0.167 HD
ATOM     50  C   UNL A   1      44.735  30.287  28.227  1.00  0.00     0.037 A 
ATOM     51  C   UNL A   1      38.587  31.509  31.146  1.00  0.00     0.037 A 
ATOM     52  C   UNL A   1      45.065  30.003  29.609  1.00  0.00     0.049 A 
ATOM     53  C   UNL A   1      39.947  31.986  31.515  1.00  0.00     0.074 A 
ATOM     54  C   UNL A   1      45.472  28.863  30.283  1.00  0.00     0.029 A 
ATOM     55  N   UNL A   1      44.561  30.836  30.580  1.00  0.00    -0.354 N 
ATOM     56  N   UNL A   1      40.668  31.454  32.461  1.00  0.00    -0.248 NA
ATOM     57  C   UNL A   1      40.684  32.733  30.506  1.00  0.00     0.031 C 
ATOM     58  C   UNL A   1      44.730  28.867  31.503  1.00  0.00     0.029 A 
ATOM     59  C   UNL A   1      43.988  30.047  31.549  1.00  0.00     0.049 A 
ATOM     60  H   UNL A   1      44.602  31.820  30.581  1.00  0.00     0.167 HD
ATOM     61  C   UNL A   1      41.948  31.405  31.934  1.00  0.00     0.074 A 
ATOM     62  C   UNL A   1      41.909  32.263  30.751  1.00  0.00     0.031 C 
ATOM     63  C   UNL A   1      42.838  30.447  32.327  1.00  0.00     0.037 A 
BRANCH  50  64
ATOM     64  C   UNL A   1      45.097  31.579  27.552  1.00  0.00     0.064 A 
ATOM     65  C   UNL A   1      46.387  31.717  27.008  1.00  0.00     0.173 A 
ATOM     66  C   UNL A   1      44.346  32.771  27.660  1.00  0.00     0.173 A 
ATOM     67  F   UNL A   1      47.194  30.651  26.890  1.00  0.00    -0.203 F 
ATOM     68  C   UNL A   1      46.909  32.964  26.664  1.00  0.00     0.198 A 
ATOM     69  C   UNL A   1      44.850  34.005  27.261  1.00  0.00     0.198 A 
ATOM     70  F   UNL A   1      43.151  32.816  28.260  1.00  0.00    -0.203 F 
ATOM     71  F   UNL A   1      48.185  33.062  26.274  1.00  0.00    -0.200 F 
ATOM     72  C   UNL A   1      46.141  34.107  26.793  1.00  0.00     0.200 A 
ATOM     73  F   UNL A   1      44.096  35.104  27.418  1.00  0.00    -0.200 F 
ATOM     74  F   UNL A   1      46.660  35.310  26.518  1.00  0.00    -0.200 F 
ENDBRANCH  50  64
BRANCH  51  75
ATOM     75  C   UNL A   1      37.434  32.452  31.124  1.00  0.00     0.064 A 
ATOM     76  C   UNL A   1      37.157  33.237  29.985  1.00  0.00     0.173 A 
ATOM     77  C   UNL A   1      36.400  32.355  32.073  1.00  0.00     0.173 A 
ATOM     78  F   UNL A   1      38.068  33.356  29.008  1.00  0.00    -0.203 F 
ATOM     79  C   UNL A   1      35.909  33.842  29.787  1.00  0.00     0.198 A 
ATOM     80  C   UNL A   1      35.155  32.961  31.875  1.00  0.00     0.198 A 
ATOM     81  F   UNL A   1      36.541  31.582  33.159  1.00  0.00    -0.203 F 
ATOM     82  F   UNL A   1      35.661  34.513  28.654  1.00  0.00    -0.200 F 
ATOM     83  C   UNL A   1      34.903  33.689  30.725  1.00  0.00     0.200 A 
ATOM     84  F   UNL A   1      34.177  32.773  32.771  1.00  0.00    -0.200 F 
ATOM     85  F   UNL A   1      33.684  34.200  30.503  1.00  0.00    -0.200 F 
ENDBRANCH  51  75
BRANCH  63  86
ATOM     86  C   UNL A   1      42.498  29.612  33.533  1.00  0.00     0.064 A 
ATOM     87  C   UNL A   1      41.827  28.375  33.491  1.00  0.00     0.173 A 
ATOM     88  C   UNL A   1      42.996  30.025  34.778  1.00  0.00     0.173 A 
ATOM     89  F   UNL A   1      41.402  27.857  32.332  1.00  0.00    -0.203 F 
ATOM     90  C   UNL A   1      41.632  27.617  34.647  1.00  0.00     0.198 A 
ATOM     91  C   UNL A   1      42.834  29.248  35.921  1.00  0.00     0.198 A 
ATOM     92  F   UNL A   1      43.684  31.174  34.876  1.00  0.00    -0.203 F 
ATOM     93  F   UNL A   1      40.976  26.448  34.582  1.00  0.00    -0.200 F 
ATOM     94  C   UNL A   1      42.142  28.051  35.859  1.00  0.00     0.200 A 
ATOM     95  F   UNL A   1      43.373  29.652  37.080  1.00  0.00    -0.200 F 
ATOM     96  F   UNL A   1      41.992  27.303  36.961  1.00  0.00    -0.200 F 
ENDBRANCH  63  86
ENDBRANCH  37  38
ENDBRANCH  30  32
ENDBRANCH  29  30
ENDBRANCH  28  29
ENDBRANCH  27  28
ENDBRANCH   1  27
TORSDOF 16
ENDMDL
