MODEL 1
REMARK VINA RESULT:     -12.5      0.000      0.000
REMARK SMILES NS(=O)(=O)c1ccc(-n2nc(C(F)(F)F)cc2-c2ccc(C(=O)OCCOCCOC(=O)c3ccc(-c4c5nc(c(-c6c(F)c(F)c(F)c(F)c6F)c6ccc([nH]6)c(-c6c(F)c(F)c(F)c(F)c6F)c6nc(c(-c7c(F)c(F)c(F)c(F)c7F)c7ccc4[nH]7)C=C6)C=C5)cc3)cc2)cc1
REMARK SMILES IDX 26 1 25 2 24 3 22 4 23 5 21 6 18 7 19 8 97 9 20 10 96 11
REMARK SMILES IDX 17 12 9 13 10 14 11 15 16 16 8 17 5 18 6 19 99 20 7 21 98 22
REMARK SMILES IDX 2 23 3 24 4 25 1 26 12 29 13 30 14 31 15 32 27 33 28 34
REMARK SMILES IDX 29 35 30 36 31 37 32 38 33 39 34 40 95 41 35 42 94 43 36 44
REMARK SMILES IDX 37 45 38 46 88 47 39 48 93 49 87 50 89 51 40 52 92 53 86 54
REMARK SMILES IDX 85 55 41 57 73 58 53 59 72 60 54 61 57 62 71 63 90 64 55 65
REMARK SMILES IDX 56 66 70 68 91 69 58 70 42 71 43 72 51 73 44 74 45 75 49 76
REMARK SMILES IDX 52 77 46 78 47 79 50 80 48 81 74 82 75 83 83 84 76 85 77 86
REMARK SMILES IDX 81 87 84 88 78 89 79 90 82 91 80 92 59 93 60 94 68 95 61 96
REMARK SMILES IDX 62 97 66 98 69 99 63 100 64 101 67 102 65 103
REMARK H PARENT 1 27 1 28 89 56 57 67
REMARK Flexibility Score: inf
ROOT
ATOM      1  C   UNL A   1      32.478  33.319  27.501  1.00  0.00     0.202 C 
ENDROOT
BRANCH   1   2
ATOM      2  C   UNL A   1      33.571  32.253  27.608  1.00  0.00     0.261 C 
BRANCH   2   3
ATOM      3  O   UNL A   1      33.106  30.933  27.291  1.00  0.00    -0.460 OA
BRANCH   3   4
ATOM      4  C   UNL A   1      33.968  29.953  27.653  1.00  0.00     0.338 C 
ATOM      5  O   UNL A   1      34.884  30.041  28.456  1.00  0.00    -0.246 OA
BRANCH   4   6
ATOM      6  C   UNL A   1      33.555  28.660  27.076  1.00  0.00     0.060 A 
ATOM      7  C   UNL A   1      32.815  26.356  25.688  1.00  0.00     0.000 A 
ATOM      8  C   UNL A   1      34.125  26.844  25.589  1.00  0.00     0.011 A 
ATOM      9  C   UNL A   1      31.900  26.990  26.540  1.00  0.00     0.011 A 
ATOM     10  C   UNL A   1      34.492  27.994  26.277  1.00  0.00     0.016 A 
ATOM     11  C   UNL A   1      32.272  28.136  27.249  1.00  0.00     0.016 A 
BRANCH   7  12
ATOM     12  C   UNL A   1      32.389  25.259  24.828  1.00  0.00     0.075 A 
ATOM     13  N   UNL A   1      31.272  25.257  24.006  1.00  0.00    -0.233 N 
ATOM     14  N   UNL A   1      30.944  24.002  23.601  1.00  0.00    -0.163 NA
ATOM     15  C   UNL A   1      31.980  23.230  23.992  1.00  0.00     0.167 A 
ATOM     16  C   UNL A   1      32.881  23.971  24.791  1.00  0.00     0.064 A 
BRANCH  13  17
ATOM     17  C   UNL A   1      30.521  26.380  23.574  1.00  0.00     0.065 A 
ATOM     18  C   UNL A   1      29.089  28.642  22.812  1.00  0.00     0.082 A 
ATOM     19  C   UNL A   1      30.433  28.529  22.454  1.00  0.00     0.024 A 
ATOM     20  C   UNL A   1      28.449  27.625  23.533  1.00  0.00     0.024 A 
ATOM     21  C   UNL A   1      31.153  27.403  22.848  1.00  0.00     0.030 A 
ATOM     22  C   UNL A   1      29.160  26.474  23.888  1.00  0.00     0.030 A 
BRANCH  18  23
ATOM     23  S   UNL A   1      28.187  30.099  22.374  1.00  0.00     0.238 S 
ATOM     24  O   UNL A   1      27.101  30.283  23.300  1.00  0.00    -0.207 OA
ATOM     25  O   UNL A   1      28.014  30.112  20.937  1.00  0.00    -0.207 OA
BRANCH  23  26
ATOM     26  N   UNL A   1      29.271  31.343  22.719  1.00  0.00    -0.225 NA
ATOM     27  H   UNL A   1      29.956  31.415  21.966  1.00  0.00     0.137 HD
ATOM     28  H   UNL A   1      29.750  31.142  23.596  1.00  0.00     0.137 HD
ENDBRANCH  23  26
ENDBRANCH  18  23
ENDBRANCH  13  17
BRANCH  15  29
ATOM     29  C   UNL A   1      32.125  21.775  23.632  1.00  0.00     0.435 C 
ATOM     30  F   UNL A   1      31.613  20.938  24.569  1.00  0.00    -0.164 F 
ATOM     31  F   UNL A   1      31.520  21.481  22.450  1.00  0.00    -0.164 F 
ATOM     32  F   UNL A   1      33.435  21.430  23.481  1.00  0.00    -0.164 F 
ENDBRANCH  15  29
ENDBRANCH   7  12
ENDBRANCH   4   6
ENDBRANCH   3   4
ENDBRANCH   2   3
ENDBRANCH   1   2
BRANCH   1  33
ATOM     33  O   UNL A   1      32.487  34.430  28.394  1.00  0.00    -0.374 OA
BRANCH  33  34
ATOM     34  C   UNL A   1      33.685  35.155  28.651  1.00  0.00     0.202 C 
BRANCH  34  35
ATOM     35  C   UNL A   1      34.452  34.872  29.931  1.00  0.00     0.261 C 
BRANCH  35  36
ATOM     36  O   UNL A   1      33.607  34.366  30.947  1.00  0.00    -0.460 OA
BRANCH  36  37
ATOM     37  C   UNL A   1      33.824  34.906  32.167  1.00  0.00     0.338 C 
ATOM     38  O   UNL A   1      33.378  35.949  32.612  1.00  0.00    -0.246 OA
BRANCH  37  39
ATOM     39  C   UNL A   1      34.854  34.103  32.833  1.00  0.00     0.060 A 
ATOM     40  C   UNL A   1      36.032  34.773  33.163  1.00  0.00     0.016 A 
ATOM     41  C   UNL A   1      34.801  32.713  32.680  1.00  0.00     0.016 A 
ATOM     42  C   UNL A   1      37.216  34.100  32.970  1.00  0.00     0.010 A 
ATOM     43  C   UNL A   1      35.979  32.046  32.501  1.00  0.00     0.010 A 
ATOM     44  C   UNL A   1      37.157  32.785  32.497  1.00  0.00    -0.014 A 
BRANCH  44  45
ATOM     45  C   UNL A   1      38.377  32.096  32.139  1.00  0.00     0.031 A 
ATOM     46  C   UNL A   1      39.179  31.863  33.357  1.00  0.00     0.074 A 
ATOM     47  C   UNL A   1      38.622  31.637  30.893  1.00  0.00     0.049 A 
ATOM     48  N   UNL A   1      40.183  32.564  33.768  1.00  0.00    -0.248 NA
ATOM     49  C   UNL A   1      38.612  30.974  34.390  1.00  0.00     0.031 C 
ATOM     50  C   UNL A   1      37.743  31.629  29.719  1.00  0.00     0.029 A 
ATOM     51  N   UNL A   1      39.735  30.991  30.433  1.00  0.00    -0.354 N 
ATOM     52  C   UNL A   1      40.522  32.002  34.991  1.00  0.00     0.074 A 
ATOM     53  C   UNL A   1      39.357  31.303  35.445  1.00  0.00     0.031 C 
ATOM     54  C   UNL A   1      38.256  30.808  28.768  1.00  0.00     0.029 A 
ATOM     55  C   UNL A   1      39.560  30.345  29.201  1.00  0.00     0.049 A 
ATOM     56  H   UNL A   1      40.587  30.980  30.925  1.00  0.00     0.167 HD
ATOM     57  C   UNL A   1      41.830  31.797  35.302  1.00  0.00     0.037 A 
ATOM     58  C   UNL A   1      40.434  29.452  28.658  1.00  0.00     0.037 A 
ATOM     59  C   UNL A   1      42.674  32.604  34.452  1.00  0.00     0.049 A 
ATOM     60  C   UNL A   1      41.739  29.673  29.340  1.00  0.00     0.074 A 
ATOM     61  C   UNL A   1      42.843  33.956  34.237  1.00  0.00     0.029 A 
ATOM     62  N   UNL A   1      43.196  31.972  33.353  1.00  0.00    -0.354 N 
ATOM     63  N   UNL A   1      42.430  30.775  29.228  1.00  0.00    -0.248 NA
ATOM     64  C   UNL A   1      41.986  28.892  30.543  1.00  0.00     0.031 C 
ATOM     65  C   UNL A   1      43.077  34.087  32.835  1.00  0.00     0.029 A 
ATOM     66  C   UNL A   1      43.138  32.810  32.275  1.00  0.00     0.049 A 
ATOM     67  H   UNL A   1      43.556  31.056  33.340  1.00  0.00     0.167 HD
ATOM     68  C   UNL A   1      42.855  31.052  30.520  1.00  0.00     0.074 A 
ATOM     69  C   UNL A   1      42.587  29.831  31.279  1.00  0.00     0.031 C 
ATOM     70  C   UNL A   1      43.093  32.339  30.909  1.00  0.00     0.037 A 
BRANCH  57  71
ATOM     71  C   UNL A   1      42.344  30.539  35.978  1.00  0.00     0.064 A 
ATOM     72  C   UNL A   1      43.301  30.683  37.000  1.00  0.00     0.173 A 
ATOM     73  C   UNL A   1      42.183  29.220  35.490  1.00  0.00     0.173 A 
ATOM     74  F   UNL A   1      43.554  31.888  37.532  1.00  0.00    -0.203 F 
ATOM     75  C   UNL A   1      44.090  29.613  37.432  1.00  0.00     0.198 A 
ATOM     76  C   UNL A   1      42.936  28.147  35.959  1.00  0.00     0.198 A 
ATOM     77  F   UNL A   1      41.381  28.907  34.469  1.00  0.00    -0.203 F 
ATOM     78  F   UNL A   1      45.074  29.829  38.314  1.00  0.00    -0.200 F 
ATOM     79  C   UNL A   1      43.911  28.348  36.906  1.00  0.00     0.200 A 
ATOM     80  F   UNL A   1      42.756  26.934  35.416  1.00  0.00    -0.200 F 
ATOM     81  F   UNL A   1      44.705  27.334  37.273  1.00  0.00    -0.200 F 
ENDBRANCH  57  71
BRANCH  58  82
ATOM     82  C   UNL A   1      40.151  28.178  27.941  1.00  0.00     0.064 A 
ATOM     83  C   UNL A   1      40.816  27.841  26.746  1.00  0.00     0.173 A 
ATOM     84  C   UNL A   1      39.465  27.128  28.581  1.00  0.00     0.173 A 
ATOM     85  F   UNL A   1      41.548  28.762  26.102  1.00  0.00    -0.203 F 
ATOM     86  C   UNL A   1      40.808  26.536  26.235  1.00  0.00     0.198 A 
ATOM     87  C   UNL A   1      39.459  25.825  28.072  1.00  0.00     0.198 A 
ATOM     88  F   UNL A   1      38.876  27.323  29.769  1.00  0.00    -0.203 F 
ATOM     89  F   UNL A   1      41.503  26.242  25.127  1.00  0.00    -0.200 F 
ATOM     90  C   UNL A   1      40.138  25.527  26.906  1.00  0.00     0.200 A 
ATOM     91  F   UNL A   1      38.850  24.848  28.758  1.00  0.00    -0.200 F 
ATOM     92  F   UNL A   1      40.186  24.263  26.458  1.00  0.00    -0.200 F 
ENDBRANCH  58  82
BRANCH  70  93
ATOM     93  C   UNL A   1      43.163  33.395  29.841  1.00  0.00     0.064 A 
ATOM     94  C   UNL A   1      42.081  34.197  29.437  1.00  0.00     0.173 A 
ATOM     95  C   UNL A   1      44.431  33.720  29.343  1.00  0.00     0.173 A 
ATOM     96  F   UNL A   1      40.851  33.996  29.930  1.00  0.00    -0.203 F 
ATOM     97  C   UNL A   1      42.269  35.269  28.561  1.00  0.00     0.198 A 
ATOM     98  C   UNL A   1      44.620  34.808  28.499  1.00  0.00     0.198 A 
ATOM     99  F   UNL A   1      45.502  33.012  29.735  1.00  0.00    -0.203 F 
ATOM    100  F   UNL A   1      41.227  36.030  28.191  1.00  0.00    -0.200 F 
ATOM    101  C   UNL A   1      43.541  35.579  28.104  1.00  0.00     0.200 A 
ATOM    102  F   UNL A   1      45.858  35.131  28.102  1.00  0.00    -0.200 F 
ATOM    103  F   UNL A   1      43.731  36.640  27.307  1.00  0.00    -0.200 F 
ENDBRANCH  70  93
ENDBRANCH  44  45
ENDBRANCH  37  39
ENDBRANCH  36  37
ENDBRANCH  35  36
ENDBRANCH  34  35
ENDBRANCH  33  34
ENDBRANCH   1  33
TORSDOF 19
ENDMDL
MODEL 2
REMARK VINA RESULT:     -12.5      5.481     10.274
REMARK SMILES NS(=O)(=O)c1ccc(-n2nc(C(F)(F)F)cc2-c2ccc(C(=O)OCCOCCOC(=O)c3ccc(-c4c5nc(c(-c6c(F)c(F)c(F)c(F)c6F)c6ccc([nH]6)c(-c6c(F)c(F)c(F)c(F)c6F)c6nc(c(-c7c(F)c(F)c(F)c(F)c7F)c7ccc4[nH]7)C=C6)C=C5)cc3)cc2)cc1
REMARK SMILES IDX 26 1 25 2 24 3 22 4 23 5 21 6 18 7 19 8 97 9 20 10 96 11
REMARK SMILES IDX 17 12 9 13 10 14 11 15 16 16 8 17 5 18 6 19 99 20 7 21 98 22
REMARK SMILES IDX 2 23 3 24 4 25 1 26 12 29 13 30 14 31 15 32 27 33 28 34
REMARK SMILES IDX 29 35 30 36 31 37 32 38 33 39 34 40 95 41 35 42 94 43 36 44
REMARK SMILES IDX 37 45 38 46 88 47 39 48 93 49 87 50 89 51 40 52 92 53 86 54
REMARK SMILES IDX 85 55 41 57 73 58 53 59 72 60 54 61 57 62 71 63 90 64 55 65
REMARK SMILES IDX 56 66 70 68 91 69 58 70 42 71 43 72 51 73 44 74 45 75 49 76
REMARK SMILES IDX 52 77 46 78 47 79 50 80 48 81 74 82 75 83 83 84 76 85 77 86
REMARK SMILES IDX 81 87 84 88 78 89 79 90 82 91 80 92 59 93 60 94 68 95 61 96
REMARK SMILES IDX 62 97 66 98 69 99 63 100 64 101 67 102 65 103
REMARK H PARENT 1 27 1 28 89 56 57 67
REMARK Flexibility Score: inf
ROOT
ATOM      1  C   UNL A   1      42.563  21.014  26.924  1.00  0.00     0.202 C 
ENDROOT
BRANCH   1   2
ATOM      2  C   UNL A   1      41.228  21.470  27.518  1.00  0.00     0.261 C 
BRANCH   2   3
ATOM      3  O   UNL A   1      40.411  22.189  26.583  1.00  0.00    -0.460 OA
BRANCH   3   4
ATOM      4  C   UNL A   1      39.512  21.408  25.935  1.00  0.00     0.338 C 
ATOM      5  O   UNL A   1      39.577  20.202  25.764  1.00  0.00    -0.246 OA
BRANCH   4   6
ATOM      6  C   UNL A   1      38.304  22.183  25.593  1.00  0.00     0.060 A 
ATOM      7  C   UNL A   1      35.918  23.588  25.254  1.00  0.00     0.000 A 
ATOM      8  C   UNL A   1      36.881  24.050  26.160  1.00  0.00     0.011 A 
ATOM      9  C   UNL A   1      36.188  22.457  24.470  1.00  0.00     0.011 A 
ATOM     10  C   UNL A   1      38.068  23.348  26.333  1.00  0.00     0.016 A 
ATOM     11  C   UNL A   1      37.389  21.760  24.626  1.00  0.00     0.016 A 
BRANCH   7  12
ATOM     12  C   UNL A   1      34.607  24.224  25.210  1.00  0.00     0.075 A 
ATOM     13  N   UNL A   1      33.436  23.642  24.748  1.00  0.00    -0.233 N 
ATOM     14  N   UNL A   1      32.471  24.568  24.508  1.00  0.00    -0.163 NA
ATOM     15  C   UNL A   1      32.959  25.717  25.020  1.00  0.00     0.167 A 
ATOM     16  C   UNL A   1      34.302  25.550  25.432  1.00  0.00     0.064 A 
BRANCH  13  17
ATOM     17  C   UNL A   1      33.184  22.260  24.546  1.00  0.00     0.065 A 
ATOM     18  C   UNL A   1      32.800  19.535  24.134  1.00  0.00     0.082 A 
ATOM     19  C   UNL A   1      33.214  19.987  25.388  1.00  0.00     0.024 A 
ATOM     20  C   UNL A   1      32.560  20.437  23.088  1.00  0.00     0.024 A 
ATOM     21  C   UNL A   1      33.419  21.350  25.589  1.00  0.00     0.030 A 
ATOM     22  C   UNL A   1      32.721  21.808  23.304  1.00  0.00     0.030 A 
BRANCH  18  23
ATOM     23  S   UNL A   1      32.602  17.800  23.852  1.00  0.00     0.238 S 
ATOM     24  O   UNL A   1      31.608  17.282  24.755  1.00  0.00    -0.207 OA
ATOM     25  O   UNL A   1      33.915  17.211  23.698  1.00  0.00    -0.207 OA
BRANCH  23  26
ATOM     26  N   UNL A   1      31.885  17.735  22.328  1.00  0.00    -0.225 NA
ATOM     27  H   UNL A   1      31.875  18.669  21.918  1.00  0.00     0.137 HD
ATOM     28  H   UNL A   1      30.929  17.392  22.417  1.00  0.00     0.137 HD
ENDBRANCH  23  26
ENDBRANCH  18  23
ENDBRANCH  13  17
BRANCH  15  29
ATOM     29  C   UNL A   1      32.170  26.997  25.112  1.00  0.00     0.435 C 
ATOM     30  F   UNL A   1      30.846  26.829  24.867  1.00  0.00    -0.164 F 
ATOM     31  F   UNL A   1      32.287  27.579  26.335  1.00  0.00    -0.164 F 
ATOM     32  F   UNL A   1      32.615  27.919  24.212  1.00  0.00    -0.164 F 
ENDBRANCH  15  29
ENDBRANCH   7  12
ENDBRANCH   4   6
ENDBRANCH   3   4
ENDBRANCH   2   3
ENDBRANCH   1   2
BRANCH   1  33
ATOM     33  O   UNL A   1      42.796  19.626  26.698  1.00  0.00    -0.374 OA
BRANCH  33  34
ATOM     34  C   UNL A   1      42.948  19.113  25.379  1.00  0.00     0.202 C 
BRANCH  34  35
ATOM     35  C   UNL A   1      44.279  19.295  24.671  1.00  0.00     0.261 C 
BRANCH  35  36
ATOM     36  O   UNL A   1      44.405  20.592  24.119  1.00  0.00    -0.460 OA
BRANCH  36  37
ATOM     37  C   UNL A   1      45.568  21.212  24.423  1.00  0.00     0.338 C 
ATOM     38  O   UNL A   1      46.599  20.706  24.827  1.00  0.00    -0.246 OA
BRANCH  37  39
ATOM     39  C   UNL A   1      45.334  22.657  24.352  1.00  0.00     0.060 A 
ATOM     40  C   UNL A   1      46.403  23.467  24.734  1.00  0.00     0.016 A 
ATOM     41  C   UNL A   1      44.009  23.108  24.369  1.00  0.00     0.016 A 
ATOM     42  C   UNL A   1      46.112  24.585  25.481  1.00  0.00     0.010 A 
ATOM     43  C   UNL A   1      43.725  24.225  25.100  1.00  0.00     0.010 A 
ATOM     44  C   UNL A   1      44.770  24.854  25.770  1.00  0.00    -0.014 A 
BRANCH  44  45
ATOM     45  C   UNL A   1      44.433  25.930  26.674  1.00  0.00     0.031 A 
ATOM     46  C   UNL A   1      45.373  27.051  26.469  1.00  0.00     0.074 A 
ATOM     47  C   UNL A   1      43.333  25.913  27.458  1.00  0.00     0.049 A 
ATOM     48  N   UNL A   1      46.412  27.328  27.183  1.00  0.00    -0.248 NA
ATOM     49  C   UNL A   1      45.353  27.729  25.158  1.00  0.00     0.031 C 
ATOM     50  C   UNL A   1      42.244  24.931  27.506  1.00  0.00     0.029 A 
ATOM     51  N   UNL A   1      42.921  26.856  28.358  1.00  0.00    -0.354 N 
ATOM     52  C   UNL A   1      47.006  28.400  26.530  1.00  0.00     0.074 A 
ATOM     53  C   UNL A   1      46.527  28.360  25.180  1.00  0.00     0.031 C 
ATOM     54  C   UNL A   1      41.197  25.443  28.201  1.00  0.00     0.029 A 
ATOM     55  C   UNL A   1      41.585  26.720  28.765  1.00  0.00     0.049 A 
ATOM     56  H   UNL A   1      43.510  27.569  28.692  1.00  0.00     0.167 HD
ATOM     57  C   UNL A   1      47.477  29.454  27.250  1.00  0.00     0.037 A 
ATOM     58  C   UNL A   1      40.884  27.658  29.460  1.00  0.00     0.037 A 
ATOM     59  C   UNL A   1      47.655  29.071  28.630  1.00  0.00     0.049 A 
ATOM     60  C   UNL A   1      41.892  28.558  30.087  1.00  0.00     0.074 A 
ATOM     61  C   UNL A   1      48.430  28.148  29.301  1.00  0.00     0.029 A 
ATOM     62  N   UNL A   1      46.628  29.398  29.479  1.00  0.00    -0.354 N 
ATOM     63  N   UNL A   1      42.732  28.164  31.006  1.00  0.00    -0.248 NA
ATOM     64  C   UNL A   1      42.302  29.718  29.311  1.00  0.00     0.031 C 
ATOM     65  C   UNL A   1      47.601  27.653  30.352  1.00  0.00     0.029 A 
ATOM     66  C   UNL A   1      46.398  28.361  30.338  1.00  0.00     0.049 A 
ATOM     67  H   UNL A   1      46.131  30.248  29.470  1.00  0.00     0.167 HD
ATOM     68  C   UNL A   1      43.944  28.731  30.635  1.00  0.00     0.074 A 
ATOM     69  C   UNL A   1      43.605  29.714  29.606  1.00  0.00     0.031 C 
ATOM     70  C   UNL A   1      45.122  28.130  30.975  1.00  0.00     0.037 A 
BRANCH  57  71
ATOM     71  C   UNL A   1      47.288  30.902  26.838  1.00  0.00     0.064 A 
ATOM     72  C   UNL A   1      48.397  31.765  26.927  1.00  0.00     0.173 A 
ATOM     73  C   UNL A   1      46.041  31.547  26.654  1.00  0.00     0.173 A 
ATOM     74  F   UNL A   1      49.630  31.271  27.118  1.00  0.00    -0.203 F 
ATOM     75  C   UNL A   1      48.256  33.155  26.921  1.00  0.00     0.198 A 
ATOM     76  C   UNL A   1      45.912  32.932  26.598  1.00  0.00     0.198 A 
ATOM     77  F   UNL A   1      44.875  30.898  26.628  1.00  0.00    -0.203 F 
ATOM     78  F   UNL A   1      49.326  33.930  27.139  1.00  0.00    -0.200 F 
ATOM     79  C   UNL A   1      47.013  33.738  26.764  1.00  0.00     0.200 A 
ATOM     80  F   UNL A   1      44.691  33.471  26.466  1.00  0.00    -0.200 F 
ATOM     81  F   UNL A   1      46.867  35.067  26.819  1.00  0.00    -0.200 F 
ENDBRANCH  57  71
BRANCH  58  82
ATOM     82  C   UNL A   1      39.471  28.095  29.286  1.00  0.00     0.064 A 
ATOM     83  C   UNL A   1      38.602  28.234  30.386  1.00  0.00     0.173 A 
ATOM     84  C   UNL A   1      39.044  28.690  28.084  1.00  0.00     0.173 A 
ATOM     85  F   UNL A   1      38.955  27.754  31.587  1.00  0.00    -0.203 F 
ATOM     86  C   UNL A   1      37.393  28.938  30.291  1.00  0.00     0.198 A 
ATOM     87  C   UNL A   1      37.839  29.394  27.990  1.00  0.00     0.198 A 
ATOM     88  F   UNL A   1      39.839  28.693  27.004  1.00  0.00    -0.203 F 
ATOM     89  F   UNL A   1      36.621  29.099  31.375  1.00  0.00    -0.200 F 
ATOM     90  C   UNL A   1      37.019  29.526  29.095  1.00  0.00     0.200 A 
ATOM     91  F   UNL A   1      37.514  30.003  26.841  1.00  0.00    -0.200 F 
ATOM     92  F   UNL A   1      35.897  30.259  29.018  1.00  0.00    -0.200 F 
ENDBRANCH  58  82
BRANCH  70  93
ATOM     93  C   UNL A   1      45.078  27.022  31.991  1.00  0.00     0.064 A 
ATOM     94  C   UNL A   1      45.044  27.215  33.383  1.00  0.00     0.173 A 
ATOM     95  C   UNL A   1      44.882  25.721  31.511  1.00  0.00     0.173 A 
ATOM     96  F   UNL A   1      45.146  28.441  33.913  1.00  0.00    -0.203 F 
ATOM     97  C   UNL A   1      44.832  26.141  34.251  1.00  0.00     0.198 A 
ATOM     98  C   UNL A   1      44.638  24.660  32.377  1.00  0.00     0.198 A 
ATOM     99  F   UNL A   1      44.863  25.493  30.189  1.00  0.00    -0.203 F 
ATOM    100  F   UNL A   1      44.793  26.343  35.578  1.00  0.00    -0.200 F 
ATOM    101  C   UNL A   1      44.617  24.868  33.745  1.00  0.00     0.200 A 
ATOM    102  F   UNL A   1      44.383  23.444  31.877  1.00  0.00    -0.200 F 
ATOM    103  F   UNL A   1      44.360  23.846  34.574  1.00  0.00    -0.200 F 
ENDBRANCH  70  93
ENDBRANCH  44  45
ENDBRANCH  37  39
ENDBRANCH  36  37
ENDBRANCH  35  36
ENDBRANCH  34  35
ENDBRANCH  33  34
ENDBRANCH   1  33
TORSDOF 19
ENDMDL
MODEL 3
REMARK VINA RESULT:     -12.4      2.369      3.450
REMARK SMILES NS(=O)(=O)c1ccc(-n2nc(C(F)(F)F)cc2-c2ccc(C(=O)OCCOCCOC(=O)c3ccc(-c4c5nc(c(-c6c(F)c(F)c(F)c(F)c6F)c6ccc([nH]6)c(-c6c(F)c(F)c(F)c(F)c6F)c6nc(c(-c7c(F)c(F)c(F)c(F)c7F)c7ccc4[nH]7)C=C6)C=C5)cc3)cc2)cc1
REMARK SMILES IDX 26 1 25 2 24 3 22 4 23 5 21 6 18 7 19 8 97 9 20 10 96 11
REMARK SMILES IDX 17 12 9 13 10 14 11 15 16 16 8 17 5 18 6 19 99 20 7 21 98 22
REMARK SMILES IDX 2 23 3 24 4 25 1 26 12 29 13 30 14 31 15 32 27 33 28 34
REMARK SMILES IDX 29 35 30 36 31 37 32 38 33 39 34 40 95 41 35 42 94 43 36 44
REMARK SMILES IDX 37 45 38 46 88 47 39 48 93 49 87 50 89 51 40 52 92 53 86 54
REMARK SMILES IDX 85 55 41 57 73 58 53 59 72 60 54 61 57 62 71 63 90 64 55 65
REMARK SMILES IDX 56 66 70 68 91 69 58 70 42 71 43 72 51 73 44 74 45 75 49 76
REMARK SMILES IDX 52 77 46 78 47 79 50 80 48 81 74 82 75 83 83 84 76 85 77 86
REMARK SMILES IDX 81 87 84 88 78 89 79 90 82 91 80 92 59 93 60 94 68 95 61 96
REMARK SMILES IDX 62 97 66 98 69 99 63 100 64 101 67 102 65 103
REMARK H PARENT 1 27 1 28 89 56 57 67
REMARK Flexibility Score: inf
ROOT
ATOM      1  C   UNL A   1      34.049  34.078  27.891  1.00  0.00     0.202 C 
ENDROOT
BRANCH   1   2
ATOM      2  C   UNL A   1      32.843  33.144  28.018  1.00  0.00     0.261 C 
BRANCH   2   3
ATOM      3  O   UNL A   1      32.922  31.999  27.158  1.00  0.00    -0.460 OA
BRANCH   3   4
ATOM      4  C   UNL A   1      33.817  31.069  27.574  1.00  0.00     0.338 C 
ATOM      5  O   UNL A   1      34.776  31.251  28.308  1.00  0.00    -0.246 OA
BRANCH   4   6
ATOM      6  C   UNL A   1      33.390  29.718  27.164  1.00  0.00     0.060 A 
ATOM      7  C   UNL A   1      32.654  27.255  26.081  1.00  0.00     0.000 A 
ATOM      8  C   UNL A   1      33.990  27.674  26.027  1.00  0.00     0.011 A 
ATOM      9  C   UNL A   1      31.704  28.047  26.740  1.00  0.00     0.011 A 
ATOM     10  C   UNL A   1      34.356  28.903  26.563  1.00  0.00     0.016 A 
ATOM     11  C   UNL A   1      32.072  29.275  27.298  1.00  0.00     0.016 A 
BRANCH   7  12
ATOM     12  C   UNL A   1      32.247  26.054  25.361  1.00  0.00     0.075 A 
ATOM     13  N   UNL A   1      31.176  25.954  24.486  1.00  0.00    -0.233 N 
ATOM     14  N   UNL A   1      30.838  24.660  24.245  1.00  0.00    -0.163 NA
ATOM     15  C   UNL A   1      31.832  23.935  24.799  1.00  0.00     0.167 A 
ATOM     16  C   UNL A   1      32.707  24.766  25.536  1.00  0.00     0.064 A 
BRANCH  13  17
ATOM     17  C   UNL A   1      30.478  27.018  23.857  1.00  0.00     0.065 A 
ATOM     18  C   UNL A   1      29.125  29.165  22.715  1.00  0.00     0.082 A 
ATOM     19  C   UNL A   1      30.521  29.133  22.674  1.00  0.00     0.024 A 
ATOM     20  C   UNL A   1      28.400  28.123  23.307  1.00  0.00     0.024 A 
ATOM     21  C   UNL A   1      31.197  28.065  23.259  1.00  0.00     0.030 A 
ATOM     22  C   UNL A   1      29.078  27.028  23.852  1.00  0.00     0.030 A 
BRANCH  18  23
ATOM     23  S   UNL A   1      28.263  30.551  22.035  1.00  0.00     0.238 S 
ATOM     24  O   UNL A   1      27.266  30.998  22.971  1.00  0.00    -0.207 OA
ATOM     25  O   UNL A   1      27.975  30.270  20.645  1.00  0.00    -0.207 OA
BRANCH  23  26
ATOM     26  N   UNL A   1      29.430  31.767  22.027  1.00  0.00    -0.225 NA
ATOM     27  H   UNL A   1      30.202  31.501  22.639  1.00  0.00     0.137 HD
ATOM     28  H   UNL A   1      29.017  32.638  22.359  1.00  0.00     0.137 HD
ENDBRANCH  23  26
ENDBRANCH  18  23
ENDBRANCH  13  17
BRANCH  15  29
ATOM     29  C   UNL A   1      31.959  22.441  24.658  1.00  0.00     0.435 C 
ATOM     30  F   UNL A   1      33.215  21.986  24.893  1.00  0.00    -0.164 F 
ATOM     31  F   UNL A   1      31.122  21.778  25.500  1.00  0.00    -0.164 F 
ATOM     32  F   UNL A   1      31.629  22.031  23.401  1.00  0.00    -0.164 F 
ENDBRANCH  15  29
ENDBRANCH   7  12
ENDBRANCH   4   6
ENDBRANCH   3   4
ENDBRANCH   2   3
ENDBRANCH   1   2
BRANCH   1  33
ATOM     33  O   UNL A   1      34.748  34.488  29.064  1.00  0.00    -0.374 OA
BRANCH  33  34
ATOM     34  C   UNL A   1      34.115  34.472  30.339  1.00  0.00     0.202 C 
BRANCH  34  35
ATOM     35  C   UNL A   1      34.830  33.807  31.503  1.00  0.00     0.261 C 
BRANCH  35  36
ATOM     36  O   UNL A   1      34.824  32.397  31.384  1.00  0.00    -0.460 OA
BRANCH  36  37
ATOM     37  C   UNL A   1      35.890  31.789  31.955  1.00  0.00     0.338 C 
ATOM     38  O   UNL A   1      36.236  31.833  33.121  1.00  0.00    -0.246 OA
BRANCH  37  39
ATOM     39  C   UNL A   1      36.689  31.190  30.882  1.00  0.00     0.060 A 
ATOM     40  C   UNL A   1      36.581  29.808  30.740  1.00  0.00     0.016 A 
ATOM     41  C   UNL A   1      37.794  31.908  30.409  1.00  0.00     0.016 A 
ATOM     42  C   UNL A   1      37.734  29.109  30.468  1.00  0.00     0.010 A 
ATOM     43  C   UNL A   1      38.933  31.211  30.128  1.00  0.00     0.010 A 
ATOM     44  C   UNL A   1      38.921  29.832  30.313  1.00  0.00    -0.014 A 
BRANCH  44  45
ATOM     45  C   UNL A   1      40.177  29.129  30.177  1.00  0.00     0.031 A 
ATOM     46  C   UNL A   1      40.820  29.021  31.503  1.00  0.00     0.074 A 
ATOM     47  C   UNL A   1      40.578  28.558  29.021  1.00  0.00     0.049 A 
ATOM     48  N   UNL A   1      41.763  29.771  31.967  1.00  0.00    -0.248 NA
ATOM     49  C   UNL A   1      40.129  28.225  32.536  1.00  0.00     0.031 C 
ATOM     50  C   UNL A   1      39.853  28.429  27.752  1.00  0.00     0.029 A 
ATOM     51  N   UNL A   1      41.741  27.886  28.767  1.00  0.00    -0.354 N 
ATOM     52  C   UNL A   1      41.947  29.329  33.271  1.00  0.00     0.074 A 
ATOM     53  C   UNL A   1      40.734  28.661  33.640  1.00  0.00     0.031 C 
ATOM     54  C   UNL A   1      40.483  27.529  26.955  1.00  0.00     0.029 A 
ATOM     55  C   UNL A   1      41.723  27.126  27.589  1.00  0.00     0.049 A 
ATOM     56  H   UNL A   1      42.524  27.932  29.360  1.00  0.00     0.167 HD
ATOM     57  C   UNL A   1      43.206  29.171  33.761  1.00  0.00     0.037 A 
ATOM     58  C   UNL A   1      42.659  26.197  27.246  1.00  0.00     0.037 A 
ATOM     59  C   UNL A   1      44.149  29.906  32.952  1.00  0.00     0.049 A 
ATOM     60  C   UNL A   1      43.867  26.498  28.063  1.00  0.00     0.074 A 
ATOM     61  C   UNL A   1      44.342  31.234  32.632  1.00  0.00     0.029 A 
ATOM     62  N   UNL A   1      44.805  29.181  31.991  1.00  0.00    -0.354 N 
ATOM     63  N   UNL A   1      44.565  27.594  27.934  1.00  0.00    -0.248 NA
ATOM     64  C   UNL A   1      43.962  25.836  29.355  1.00  0.00     0.031 C 
ATOM     65  C   UNL A   1      44.750  31.236  31.265  1.00  0.00     0.029 A 
ATOM     66  C   UNL A   1      44.883  29.914  30.840  1.00  0.00     0.049 A 
ATOM     67  H   UNL A   1      45.165  28.272  32.110  1.00  0.00     0.167 HD
ATOM     68  C   UNL A   1      44.825  27.995  29.237  1.00  0.00     0.074 A 
ATOM     69  C   UNL A   1      44.465  26.847  30.069  1.00  0.00     0.031 C 
ATOM     70  C   UNL A   1      45.010  29.317  29.530  1.00  0.00     0.037 A 
BRANCH  57  71
ATOM     71  C   UNL A   1      43.631  27.989  34.612  1.00  0.00     0.064 A 
ATOM     72  C   UNL A   1      43.471  26.697  34.076  1.00  0.00     0.173 A 
ATOM     73  C   UNL A   1      43.898  28.031  36.002  1.00  0.00     0.173 A 
ATOM     74  F   UNL A   1      43.199  26.529  32.773  1.00  0.00    -0.203 F 
ATOM     75  C   UNL A   1      43.489  25.554  34.880  1.00  0.00     0.198 A 
ATOM     76  C   UNL A   1      43.965  26.885  36.790  1.00  0.00     0.198 A 
ATOM     77  F   UNL A   1      44.000  29.167  36.696  1.00  0.00    -0.203 F 
ATOM     78  F   UNL A   1      43.202  24.361  34.342  1.00  0.00    -0.200 F 
ATOM     79  C   UNL A   1      43.728  25.650  36.237  1.00  0.00     0.200 A 
ATOM     80  F   UNL A   1      44.178  27.010  38.108  1.00  0.00    -0.200 F 
ATOM     81  F   UNL A   1      43.685  24.564  37.020  1.00  0.00    -0.200 F 
ENDBRANCH  57  71
BRANCH  58  82
ATOM     82  C   UNL A   1      42.469  24.858  26.623  1.00  0.00     0.064 A 
ATOM     83  C   UNL A   1      43.182  24.475  25.470  1.00  0.00     0.173 A 
ATOM     84  C   UNL A   1      41.832  23.819  27.327  1.00  0.00     0.173 A 
ATOM     85  F   UNL A   1      43.873  25.388  24.772  1.00  0.00    -0.203 F 
ATOM     86  C   UNL A   1      43.264  23.137  25.060  1.00  0.00     0.198 A 
ATOM     87  C   UNL A   1      41.916  22.484  26.919  1.00  0.00     0.198 A 
ATOM     88  F   UNL A   1      41.204  24.066  28.486  1.00  0.00    -0.203 F 
ATOM     89  F   UNL A   1      44.002  22.804  23.991  1.00  0.00    -0.200 F 
ATOM     90  C   UNL A   1      42.639  22.141  25.792  1.00  0.00     0.200 A 
ATOM     91  F   UNL A   1      41.350  21.525  27.666  1.00  0.00    -0.200 F 
ATOM     92  F   UNL A   1      42.773  20.853  25.443  1.00  0.00    -0.200 F 
ENDBRANCH  58  82
BRANCH  70  93
ATOM     93  C   UNL A   1      45.213  30.269  28.384  1.00  0.00     0.064 A 
ATOM     94  C   UNL A   1      44.179  30.943  27.712  1.00  0.00     0.173 A 
ATOM     95  C   UNL A   1      46.530  30.640  28.086  1.00  0.00     0.173 A 
ATOM     96  F   UNL A   1      42.893  30.697  28.000  1.00  0.00    -0.203 F 
ATOM     97  C   UNL A   1      44.461  31.938  26.774  1.00  0.00     0.198 A 
ATOM     98  C   UNL A   1      46.807  31.655  27.176  1.00  0.00     0.198 A 
ATOM     99  F   UNL A   1      47.550  30.057  28.733  1.00  0.00    -0.203 F 
ATOM    100  F   UNL A   1      43.462  32.580  26.147  1.00  0.00    -0.200 F 
ATOM    101  C   UNL A   1      45.775  32.301  26.517  1.00  0.00     0.200 A 
ATOM    102  F   UNL A   1      48.076  32.032  26.971  1.00  0.00    -0.200 F 
ATOM    103  F   UNL A   1      46.047  33.293  25.657  1.00  0.00    -0.200 F 
ENDBRANCH  70  93
ENDBRANCH  44  45
ENDBRANCH  37  39
ENDBRANCH  36  37
ENDBRANCH  35  36
ENDBRANCH  34  35
ENDBRANCH  33  34
ENDBRANCH   1  33
TORSDOF 19
ENDMDL
