MODEL 1
REMARK VINA RESULT:     -11.0      0.000      0.000
REMARK SMILES CCC(CC)([NH2+]Cc1ccc(Cl)cc1[N+](=O)[O-])C(=O)OCCOCCOC(=O)c1ccc(-c2c3nc(c(-c4c(F)c(F)c(F)c(F)c4F)c4ccc([nH]4)c(-c4c(F)c(F)c(F)c(F)c4F)c4nc(c(-c5c(F)c(F)c(F)c(F)c5F)c5ccc2[nH]5)C=C4)C=C3)cc1
REMARK SMILES IDX 22 1 21 2 20 3 18 4 19 5 3 6 2 7 1 8 4 9 5 10 6 11 7 14 8 15
REMARK SMILES IDX 9 16 14 17 10 18 13 19 11 20 12 21 15 22 16 23 17 24 23 25
REMARK SMILES IDX 24 26 25 27 26 28 27 29 28 30 29 31 30 32 91 33 31 34 90 35
REMARK SMILES IDX 32 36 33 37 34 38 84 39 35 40 89 41 83 42 85 43 36 44 88 45
REMARK SMILES IDX 82 46 81 47 37 49 69 50 49 51 68 52 50 53 53 54 67 55 86 56
REMARK SMILES IDX 51 57 52 58 66 60 87 61 54 62 38 63 39 64 47 65 40 66 41 67
REMARK SMILES IDX 45 68 48 69 42 70 43 71 46 72 44 73 70 74 71 75 79 76 72 77
REMARK SMILES IDX 73 78 77 79 80 80 74 81 75 82 78 83 76 84 55 85 56 86 64 87
REMARK SMILES IDX 57 88 58 89 62 90 65 91 59 92 60 93 63 94 61 95
REMARK H PARENT 6 12 6 13 85 48 53 59
REMARK Flexibility Score: inf
ROOT
ATOM      1  C   UNL A   1      33.471  27.310  25.123  1.00  0.00     0.202 C 
ENDROOT
BRANCH   1   2
ATOM      2  C   UNL A   1      33.467  25.949  25.817  1.00  0.00     0.261 C 
BRANCH   2   3
ATOM      3  O   UNL A   1      34.557  25.141  25.337  1.00  0.00    -0.459 OA
BRANCH   3   4
ATOM      4  C   UNL A   1      34.473  23.817  25.601  1.00  0.00     0.368 C 
ATOM      5  O   UNL A   1      34.634  23.359  26.731  1.00  0.00    -0.245 OA
BRANCH   4   6
ATOM      6  C   UNL A   1      34.159  22.901  24.381  1.00  0.00     0.194 C 
BRANCH   6   7
ATOM      7  C   UNL A   1      34.533  21.429  24.791  1.00  0.00     0.077 C 
ATOM      8  C   UNL A   1      33.460  20.354  24.636  1.00  0.00     0.011 C 
ENDBRANCH   6   7
BRANCH   6   9
ATOM      9  C   UNL A   1      35.090  23.404  23.245  1.00  0.00     0.077 C 
ATOM     10  C   UNL A   1      36.537  22.921  23.294  1.00  0.00     0.011 C 
ENDBRANCH   6   9
BRANCH   6  11
ATOM     11  N   UNL A   1      32.737  22.736  23.946  1.00  0.00    -0.328 N 
ATOM     12  H   UNL A   1      32.187  22.996  24.766  1.00  0.00     0.347 HD
ATOM     13  H   UNL A   1      32.808  21.795  23.561  1.00  0.00     0.347 HD
BRANCH  11  14
ATOM     14  C   UNL A   1      32.046  23.370  22.828  1.00  0.00     0.305 C 
BRANCH  14  15
ATOM     15  C   UNL A   1      31.443  24.757  22.992  1.00  0.00     0.084 A 
ATOM     16  C   UNL A   1      30.474  25.009  23.972  1.00  0.00     0.018 A 
ATOM     17  C   UNL A   1      31.812  25.869  22.190  1.00  0.00     0.279 A 
ATOM     18  C   UNL A   1      29.736  26.195  24.014  1.00  0.00     0.021 A 
ATOM     19  C   UNL A   1      31.080  27.075  22.234  1.00  0.00     0.106 A 
ATOM     20  C   UNL A   1      30.016  27.209  23.114  1.00  0.00     0.047 A 
ATOM     21  Cl  UNL A   1      29.072  28.643  23.125  1.00  0.00    -0.084 Cl
BRANCH  17  22
ATOM     22  N   UNL A   1      33.029  25.879  21.351  1.00  0.00     0.063 N 
ATOM     23  O   UNL A   1      33.992  26.550  21.751  1.00  0.00    -0.258 OA
ATOM     24  O   UNL A   1      33.048  25.207  20.315  1.00  0.00    -0.258 OA
ENDBRANCH  17  22
ENDBRANCH  14  15
ENDBRANCH  11  14
ENDBRANCH   6  11
ENDBRANCH   4   6
ENDBRANCH   3   4
ENDBRANCH   2   3
ENDBRANCH   1   2
BRANCH   1  25
ATOM     25  O   UNL A   1      33.129  28.422  25.952  1.00  0.00    -0.374 OA
BRANCH  25  26
ATOM     26  C   UNL A   1      32.181  29.349  25.418  1.00  0.00     0.202 C 
BRANCH  26  27
ATOM     27  C   UNL A   1      31.995  30.650  26.203  1.00  0.00     0.261 C 
BRANCH  27  28
ATOM     28  O   UNL A   1      32.774  30.646  27.411  1.00  0.00    -0.460 OA
BRANCH  28  29
ATOM     29  C   UNL A   1      33.539  31.749  27.590  1.00  0.00     0.338 C 
ATOM     30  O   UNL A   1      33.168  32.909  27.616  1.00  0.00    -0.246 OA
BRANCH  29  31
ATOM     31  C   UNL A   1      34.916  31.357  27.952  1.00  0.00     0.060 A 
ATOM     32  C   UNL A   1      35.133  30.005  28.242  1.00  0.00     0.016 A 
ATOM     33  C   UNL A   1      35.958  32.280  28.061  1.00  0.00     0.016 A 
ATOM     34  C   UNL A   1      36.375  29.582  28.705  1.00  0.00     0.010 A 
ATOM     35  C   UNL A   1      37.207  31.854  28.528  1.00  0.00     0.010 A 
ATOM     36  C   UNL A   1      37.405  30.512  28.893  1.00  0.00    -0.014 A 
BRANCH  36  37
ATOM     37  C   UNL A   1      38.626  30.080  29.616  1.00  0.00     0.031 A 
ATOM     38  C   UNL A   1      38.869  30.596  31.008  1.00  0.00     0.074 A 
ATOM     39  C   UNL A   1      39.456  29.171  29.075  1.00  0.00     0.049 A 
ATOM     40  N   UNL A   1      39.825  30.296  31.850  1.00  0.00    -0.248 NA
ATOM     41  C   UNL A   1      37.900  31.578  31.523  1.00  0.00     0.031 C 
ATOM     42  C   UNL A   1      39.307  28.576  27.749  1.00  0.00     0.029 A 
ATOM     43  N   UNL A   1      40.587  28.583  29.585  1.00  0.00    -0.354 N 
ATOM     44  C   UNL A   1      39.564  31.038  32.995  1.00  0.00     0.074 A 
ATOM     45  C   UNL A   1      38.386  31.834  32.728  1.00  0.00     0.031 C 
ATOM     46  C   UNL A   1      40.312  27.708  27.546  1.00  0.00     0.029 A 
ATOM     47  C   UNL A   1      41.183  27.700  28.720  1.00  0.00     0.049 A 
ATOM     48  H   UNL A   1      40.936  28.776  30.484  1.00  0.00     0.167 HD
ATOM     49  C   UNL A   1      40.237  31.041  34.171  1.00  0.00     0.037 A 
ATOM     50  C   UNL A   1      42.310  26.976  28.861  1.00  0.00     0.037 A 
ATOM     51  C   UNL A   1      41.415  30.257  34.434  1.00  0.00     0.049 A 
ATOM     52  C   UNL A   1      43.074  27.047  30.158  1.00  0.00     0.074 A 
ATOM     53  C   UNL A   1      42.170  30.195  35.592  1.00  0.00     0.029 A 
ATOM     54  N   UNL A   1      42.012  29.402  33.520  1.00  0.00    -0.354 N 
ATOM     55  N   UNL A   1      42.803  27.727  31.246  1.00  0.00    -0.248 NA
ATOM     56  C   UNL A   1      44.296  26.235  30.250  1.00  0.00     0.031 C 
ATOM     57  C   UNL A   1      43.250  29.333  35.364  1.00  0.00     0.029 A 
ATOM     58  C   UNL A   1      43.138  28.821  34.082  1.00  0.00     0.049 A 
ATOM     59  H   UNL A   1      41.685  29.233  32.607  1.00  0.00     0.167 HD
ATOM     60  C   UNL A   1      43.805  27.412  32.155  1.00  0.00     0.074 A 
ATOM     61  C   UNL A   1      44.676  26.458  31.500  1.00  0.00     0.031 C 
ATOM     62  C   UNL A   1      43.993  27.874  33.416  1.00  0.00     0.037 A 
BRANCH  49  63
ATOM     63  C   UNL A   1      39.719  31.927  35.265  1.00  0.00     0.064 A 
ATOM     64  C   UNL A   1      40.141  33.260  35.388  1.00  0.00     0.173 A 
ATOM     65  C   UNL A   1      38.753  31.458  36.166  1.00  0.00     0.173 A 
ATOM     66  F   UNL A   1      41.074  33.752  34.558  1.00  0.00    -0.203 F 
ATOM     67  C   UNL A   1      39.623  34.085  36.383  1.00  0.00     0.198 A 
ATOM     68  C   UNL A   1      38.220  32.293  37.144  1.00  0.00     0.198 A 
ATOM     69  F   UNL A   1      38.315  30.192  36.089  1.00  0.00    -0.203 F 
ATOM     70  F   UNL A   1      40.064  35.345  36.502  1.00  0.00    -0.200 F 
ATOM     71  C   UNL A   1      38.658  33.605  37.254  1.00  0.00     0.200 A 
ATOM     72  F   UNL A   1      37.279  31.830  37.978  1.00  0.00    -0.200 F 
ATOM     73  F   UNL A   1      38.151  34.404  38.202  1.00  0.00    -0.200 F 
ENDBRANCH  49  63
BRANCH  50  74
ATOM     74  C   UNL A   1      42.797  26.128  27.741  1.00  0.00     0.064 A 
ATOM     75  C   UNL A   1      43.716  26.616  26.802  1.00  0.00     0.173 A 
ATOM     76  C   UNL A   1      42.318  24.821  27.567  1.00  0.00     0.173 A 
ATOM     77  F   UNL A   1      44.183  27.868  26.911  1.00  0.00    -0.203 F 
ATOM     78  C   UNL A   1      44.116  25.839  25.717  1.00  0.00     0.198 A 
ATOM     79  C   UNL A   1      42.743  24.034  26.499  1.00  0.00     0.198 A 
ATOM     80  F   UNL A   1      41.436  24.307  28.437  1.00  0.00    -0.203 F 
ATOM     81  F   UNL A   1      44.952  26.349  24.802  1.00  0.00    -0.200 F 
ATOM     82  C   UNL A   1      43.633  24.547  25.569  1.00  0.00     0.200 A 
ATOM     83  F   UNL A   1      42.281  22.783  26.367  1.00  0.00    -0.200 F 
ATOM     84  F   UNL A   1      44.016  23.801  24.524  1.00  0.00    -0.200 F 
ENDBRANCH  50  74
BRANCH  62  85
ATOM     85  C   UNL A   1      45.173  27.335  34.172  1.00  0.00     0.064 A 
ATOM     86  C   UNL A   1      45.079  26.170  34.947  1.00  0.00     0.173 A 
ATOM     87  C   UNL A   1      46.416  27.983  34.108  1.00  0.00     0.173 A 
ATOM     88  F   UNL A   1      43.909  25.522  35.052  1.00  0.00    -0.203 F 
ATOM     89  C   UNL A   1      46.176  25.694  35.661  1.00  0.00     0.198 A 
ATOM     90  C   UNL A   1      47.518  27.487  34.798  1.00  0.00     0.198 A 
ATOM     91  F   UNL A   1      46.562  29.097  33.374  1.00  0.00    -0.203 F 
ATOM     92  F   UNL A   1      46.047  24.613  36.441  1.00  0.00    -0.200 F 
ATOM     93  C   UNL A   1      47.395  26.350  35.581  1.00  0.00     0.200 A 
ATOM     94  F   UNL A   1      48.699  28.114  34.710  1.00  0.00    -0.200 F 
ATOM     95  F   UNL A   1      48.450  25.892  36.271  1.00  0.00    -0.200 F 
ENDBRANCH  62  85
ENDBRANCH  36  37
ENDBRANCH  29  31
ENDBRANCH  28  29
ENDBRANCH  27  28
ENDBRANCH  26  27
ENDBRANCH  25  26
ENDBRANCH   1  25
TORSDOF 20
ENDMDL
MODEL 2
REMARK VINA RESULT:     -10.5      4.237      9.557
REMARK SMILES CCC(CC)([NH2+]Cc1ccc(Cl)cc1[N+](=O)[O-])C(=O)OCCOCCOC(=O)c1ccc(-c2c3nc(c(-c4c(F)c(F)c(F)c(F)c4F)c4ccc([nH]4)c(-c4c(F)c(F)c(F)c(F)c4F)c4nc(c(-c5c(F)c(F)c(F)c(F)c5F)c5ccc2[nH]5)C=C4)C=C3)cc1
REMARK SMILES IDX 22 1 21 2 20 3 18 4 19 5 3 6 2 7 1 8 4 9 5 10 6 11 7 14 8 15
REMARK SMILES IDX 9 16 14 17 10 18 13 19 11 20 12 21 15 22 16 23 17 24 23 25
REMARK SMILES IDX 24 26 25 27 26 28 27 29 28 30 29 31 30 32 91 33 31 34 90 35
REMARK SMILES IDX 32 36 33 37 34 38 84 39 35 40 89 41 83 42 85 43 36 44 88 45
REMARK SMILES IDX 82 46 81 47 37 49 69 50 49 51 68 52 50 53 53 54 67 55 86 56
REMARK SMILES IDX 51 57 52 58 66 60 87 61 54 62 38 63 39 64 47 65 40 66 41 67
REMARK SMILES IDX 45 68 48 69 42 70 43 71 46 72 44 73 70 74 71 75 79 76 72 77
REMARK SMILES IDX 73 78 77 79 80 80 74 81 75 82 78 83 76 84 55 85 56 86 64 87
REMARK SMILES IDX 57 88 58 89 62 90 65 91 59 92 60 93 63 94 61 95
REMARK H PARENT 6 12 6 13 85 48 53 59
REMARK Flexibility Score: inf
ROOT
ATOM      1  C   UNL A   1      35.887  22.877  23.494  1.00  0.00     0.202 C 
ENDROOT
BRANCH   1   2
ATOM      2  C   UNL A   1      35.208  24.239  23.637  1.00  0.00     0.261 C 
BRANCH   2   3
ATOM      3  O   UNL A   1      34.061  24.318  22.770  1.00  0.00    -0.459 OA
BRANCH   3   4
ATOM      4  C   UNL A   1      33.557  25.556  22.568  1.00  0.00     0.368 C 
ATOM      5  O   UNL A   1      33.795  26.206  21.551  1.00  0.00    -0.245 OA
BRANCH   4   6
ATOM      6  C   UNL A   1      32.655  26.116  23.708  1.00  0.00     0.194 C 
BRANCH   6   7
ATOM      7  C   UNL A   1      31.416  26.808  23.030  1.00  0.00     0.077 C 
ATOM      8  C   UNL A   1      30.531  27.693  23.903  1.00  0.00     0.011 C 
ENDBRANCH   6   7
BRANCH   6   9
ATOM      9  C   UNL A   1      33.532  27.165  24.444  1.00  0.00     0.077 C 
ATOM     10  C   UNL A   1      33.578  27.058  25.966  1.00  0.00     0.011 C 
ENDBRANCH   6   9
BRANCH   6  11
ATOM     11  N   UNL A   1      31.985  25.153  24.638  1.00  0.00    -0.328 N 
ATOM     12  H   UNL A   1      31.332  25.727  25.173  1.00  0.00     0.347 HD
ATOM     13  H   UNL A   1      32.822  24.707  25.016  1.00  0.00     0.347 HD
BRANCH  11  14
ATOM     14  C   UNL A   1      31.232  23.946  24.314  1.00  0.00     0.305 C 
BRANCH  14  15
ATOM     15  C   UNL A   1      31.899  22.583  24.408  1.00  0.00     0.084 A 
ATOM     16  C   UNL A   1      31.999  21.752  23.283  1.00  0.00     0.018 A 
ATOM     17  C   UNL A   1      32.459  22.068  25.606  1.00  0.00     0.279 A 
ATOM     18  C   UNL A   1      32.398  20.416  23.369  1.00  0.00     0.021 A 
ATOM     19  C   UNL A   1      32.874  20.722  25.699  1.00  0.00     0.106 A 
ATOM     20  C   UNL A   1      32.794  19.894  24.588  1.00  0.00     0.047 A 
ATOM     21  Cl  UNL A   1      33.226  18.237  24.707  1.00  0.00    -0.084 Cl
BRANCH  17  22
ATOM     22  N   UNL A   1      32.742  22.916  26.784  1.00  0.00     0.063 N 
ATOM     23  O   UNL A   1      33.843  23.483  26.827  1.00  0.00    -0.258 OA
ATOM     24  O   UNL A   1      31.872  23.046  27.651  1.00  0.00    -0.258 OA
ENDBRANCH  17  22
ENDBRANCH  14  15
ENDBRANCH  11  14
ENDBRANCH   6  11
ENDBRANCH   4   6
ENDBRANCH   3   4
ENDBRANCH   2   3
ENDBRANCH   1   2
BRANCH   1  25
ATOM     25  O   UNL A   1      36.538  22.391  24.670  1.00  0.00    -0.374 OA
BRANCH  25  26
ATOM     26  C   UNL A   1      36.475  20.982  24.897  1.00  0.00     0.202 C 
BRANCH  26  27
ATOM     27  C   UNL A   1      37.809  20.283  25.171  1.00  0.00     0.261 C 
BRANCH  27  28
ATOM     28  O   UNL A   1      38.886  21.231  25.254  1.00  0.00    -0.460 OA
BRANCH  28  29
ATOM     29  C   UNL A   1      39.774  20.988  26.248  1.00  0.00     0.338 C 
ATOM     30  O   UNL A   1      40.318  19.930  26.510  1.00  0.00    -0.246 OA
BRANCH  29  31
ATOM     31  C   UNL A   1      40.166  22.255  26.898  1.00  0.00     0.060 A 
ATOM     32  C   UNL A   1      39.557  23.423  26.424  1.00  0.00     0.016 A 
ATOM     33  C   UNL A   1      41.136  22.319  27.899  1.00  0.00     0.016 A 
ATOM     34  C   UNL A   1      39.963  24.664  26.903  1.00  0.00     0.010 A 
ATOM     35  C   UNL A   1      41.546  23.568  28.380  1.00  0.00     0.010 A 
ATOM     36  C   UNL A   1      40.991  24.746  27.852  1.00  0.00    -0.014 A 
BRANCH  36  37
ATOM     37  C   UNL A   1      41.569  26.077  28.157  1.00  0.00     0.031 A 
ATOM     38  C   UNL A   1      42.948  26.404  27.655  1.00  0.00     0.074 A 
ATOM     39  C   UNL A   1      40.839  27.010  28.793  1.00  0.00     0.049 A 
ATOM     40  N   UNL A   1      43.619  27.526  27.738  1.00  0.00    -0.248 NA
ATOM     41  C   UNL A   1      43.667  25.325  26.958  1.00  0.00     0.031 C 
ATOM     42  C   UNL A   1      39.481  26.819  29.298  1.00  0.00     0.029 A 
ATOM     43  N   UNL A   1      41.140  28.311  29.112  1.00  0.00    -0.354 N 
ATOM     44  C   UNL A   1      44.826  27.291  27.094  1.00  0.00     0.074 A 
ATOM     45  C   UNL A   1      44.817  25.911  26.660  1.00  0.00     0.031 C 
ATOM     46  C   UNL A   1      39.066  27.962  29.869  1.00  0.00     0.029 A 
ATOM     47  C   UNL A   1      40.133  28.957  29.784  1.00  0.00     0.049 A 
ATOM     48  H   UNL A   1      41.996  28.738  28.881  1.00  0.00     0.167 HD
ATOM     49  C   UNL A   1      45.845  28.155  26.868  1.00  0.00     0.037 A 
ATOM     50  C   UNL A   1      40.087  30.208  30.281  1.00  0.00     0.037 A 
ATOM     51  C   UNL A   1      45.859  29.525  27.308  1.00  0.00     0.049 A 
ATOM     52  C   UNL A   1      41.261  31.129  30.069  1.00  0.00     0.074 A 
ATOM     53  C   UNL A   1      46.847  30.479  27.132  1.00  0.00     0.029 A 
ATOM     54  N   UNL A   1      44.837  30.135  28.019  1.00  0.00    -0.354 N 
ATOM     55  N   UNL A   1      42.385  30.909  29.432  1.00  0.00    -0.248 NA
ATOM     56  C   UNL A   1      41.151  32.482  30.636  1.00  0.00     0.031 C 
ATOM     57  C   UNL A   1      46.439  31.654  27.773  1.00  0.00     0.029 A 
ATOM     58  C   UNL A   1      45.178  31.448  28.305  1.00  0.00     0.049 A 
ATOM     59  H   UNL A   1      43.994  29.700  28.282  1.00  0.00     0.167 HD
ATOM     60  C   UNL A   1      43.106  32.094  29.504  1.00  0.00     0.074 A 
ATOM     61  C   UNL A   1      42.279  33.041  30.223  1.00  0.00     0.031 C 
ATOM     62  C   UNL A   1      44.342  32.375  29.023  1.00  0.00     0.037 A 
BRANCH  49  63
ATOM     63  C   UNL A   1      47.037  27.642  26.115  1.00  0.00     0.064 A 
ATOM     64  C   UNL A   1      47.095  27.695  24.714  1.00  0.00     0.173 A 
ATOM     65  C   UNL A   1      48.153  27.142  26.802  1.00  0.00     0.173 A 
ATOM     66  F   UNL A   1      46.048  28.152  24.011  1.00  0.00    -0.203 F 
ATOM     67  C   UNL A   1      48.224  27.252  24.029  1.00  0.00     0.198 A 
ATOM     68  C   UNL A   1      49.288  26.724  26.114  1.00  0.00     0.198 A 
ATOM     69  F   UNL A   1      48.147  27.073  28.142  1.00  0.00    -0.203 F 
ATOM     70  F   UNL A   1      48.245  27.282  22.689  1.00  0.00    -0.200 F 
ATOM     71  C   UNL A   1      49.322  26.775  24.728  1.00  0.00     0.200 A 
ATOM     72  F   UNL A   1      50.353  26.274  26.792  1.00  0.00    -0.200 F 
ATOM     73  F   UNL A   1      50.412  26.363  24.067  1.00  0.00    -0.200 F 
ENDBRANCH  49  63
BRANCH  50  74
ATOM     74  C   UNL A   1      38.894  30.666  31.039  1.00  0.00     0.064 A 
ATOM     75  C   UNL A   1      37.799  31.255  30.392  1.00  0.00     0.173 A 
ATOM     76  C   UNL A   1      38.844  30.559  32.438  1.00  0.00     0.173 A 
ATOM     77  F   UNL A   1      37.810  31.404  29.059  1.00  0.00    -0.203 F 
ATOM     78  C   UNL A   1      36.713  31.744  31.116  1.00  0.00     0.198 A 
ATOM     79  C   UNL A   1      37.744  31.019  33.157  1.00  0.00     0.198 A 
ATOM     80  F   UNL A   1      39.866  30.004  33.106  1.00  0.00    -0.203 F 
ATOM     81  F   UNL A   1      35.705  32.354  30.477  1.00  0.00    -0.200 F 
ATOM     82  C   UNL A   1      36.685  31.622  32.497  1.00  0.00     0.200 A 
ATOM     83  F   UNL A   1      37.716  30.889  34.490  1.00  0.00    -0.200 F 
ATOM     84  F   UNL A   1      35.641  32.094  33.192  1.00  0.00    -0.200 F 
ENDBRANCH  50  74
BRANCH  62  85
ATOM     85  C   UNL A   1      44.862  33.766  29.244  1.00  0.00     0.064 A 
ATOM     86  C   UNL A   1      45.626  34.095  30.373  1.00  0.00     0.173 A 
ATOM     87  C   UNL A   1      44.604  34.779  28.307  1.00  0.00     0.173 A 
ATOM     88  F   UNL A   1      45.887  33.165  31.304  1.00  0.00    -0.203 F 
ATOM     89  C   UNL A   1      46.082  35.394  30.575  1.00  0.00     0.198 A 
ATOM     90  C   UNL A   1      45.089  36.070  28.498  1.00  0.00     0.198 A 
ATOM     91  F   UNL A   1      43.886  34.516  27.205  1.00  0.00    -0.203 F 
ATOM     92  F   UNL A   1      46.761  35.698  31.690  1.00  0.00    -0.200 F 
ATOM     93  C   UNL A   1      45.818  36.379  29.635  1.00  0.00     0.200 A 
ATOM     94  F   UNL A   1      44.844  37.018  27.582  1.00  0.00    -0.200 F 
ATOM     95  F   UNL A   1      46.257  37.631  29.833  1.00  0.00    -0.200 F 
ENDBRANCH  62  85
ENDBRANCH  36  37
ENDBRANCH  29  31
ENDBRANCH  28  29
ENDBRANCH  27  28
ENDBRANCH  26  27
ENDBRANCH  25  26
ENDBRANCH   1  25
TORSDOF 20
ENDMDL
MODEL 3
REMARK VINA RESULT:     -10.5      1.842      3.664
REMARK SMILES CCC(CC)([NH2+]Cc1ccc(Cl)cc1[N+](=O)[O-])C(=O)OCCOCCOC(=O)c1ccc(-c2c3nc(c(-c4c(F)c(F)c(F)c(F)c4F)c4ccc([nH]4)c(-c4c(F)c(F)c(F)c(F)c4F)c4nc(c(-c5c(F)c(F)c(F)c(F)c5F)c5ccc2[nH]5)C=C4)C=C3)cc1
REMARK SMILES IDX 22 1 21 2 20 3 18 4 19 5 3 6 2 7 1 8 4 9 5 10 6 11 7 14 8 15
REMARK SMILES IDX 9 16 14 17 10 18 13 19 11 20 12 21 15 22 16 23 17 24 23 25
REMARK SMILES IDX 24 26 25 27 26 28 27 29 28 30 29 31 30 32 91 33 31 34 90 35
REMARK SMILES IDX 32 36 33 37 34 38 84 39 35 40 89 41 83 42 85 43 36 44 88 45
REMARK SMILES IDX 82 46 81 47 37 49 69 50 49 51 68 52 50 53 53 54 67 55 86 56
REMARK SMILES IDX 51 57 52 58 66 60 87 61 54 62 38 63 39 64 47 65 40 66 41 67
REMARK SMILES IDX 45 68 48 69 42 70 43 71 46 72 44 73 70 74 71 75 79 76 72 77
REMARK SMILES IDX 73 78 77 79 80 80 74 81 75 82 78 83 76 84 55 85 56 86 64 87
REMARK SMILES IDX 57 88 58 89 62 90 65 91 59 92 60 93 63 94 61 95
REMARK H PARENT 6 12 6 13 85 48 53 59
REMARK Flexibility Score: inf
ROOT
ATOM      1  C   UNL A   1      31.193  27.763  24.065  1.00  0.00     0.202 C 
ENDROOT
BRANCH   1   2
ATOM      2  C   UNL A   1      31.394  27.081  22.713  1.00  0.00     0.261 C 
BRANCH   2   3
ATOM      3  O   UNL A   1      31.991  25.783  22.893  1.00  0.00    -0.459 OA
BRANCH   3   4
ATOM      4  C   UNL A   1      31.196  24.839  23.445  1.00  0.00     0.368 C 
ATOM      5  O   UNL A   1      30.014  24.707  23.131  1.00  0.00    -0.245 OA
BRANCH   4   6
ATOM      6  C   UNL A   1      31.870  23.923  24.510  1.00  0.00     0.194 C 
BRANCH   6   7
ATOM      7  C   UNL A   1      31.143  24.183  25.880  1.00  0.00     0.077 C 
ATOM      8  C   UNL A   1      30.531  22.984  26.598  1.00  0.00     0.011 C 
ENDBRANCH   6   7
BRANCH   6   9
ATOM      9  C   UNL A   1      33.347  24.396  24.577  1.00  0.00     0.077 C 
ATOM     10  C   UNL A   1      33.878  24.758  25.962  1.00  0.00     0.011 C 
ENDBRANCH   6   9
BRANCH   6  11
ATOM     11  N   UNL A   1      31.734  22.439  24.378  1.00  0.00    -0.328 N 
ATOM     12  H   UNL A   1      30.733  22.264  24.473  1.00  0.00     0.347 HD
ATOM     13  H   UNL A   1      32.445  22.164  25.055  1.00  0.00     0.347 HD
BRANCH  11  14
ATOM     14  C   UNL A   1      32.151  21.579  23.275  1.00  0.00     0.305 C 
BRANCH  14  15
ATOM     15  C   UNL A   1      32.621  20.159  23.551  1.00  0.00     0.084 A 
ATOM     16  C   UNL A   1      32.261  19.104  22.700  1.00  0.00     0.018 A 
ATOM     17  C   UNL A   1      33.440  19.808  24.655  1.00  0.00     0.279 A 
ATOM     18  C   UNL A   1      32.478  17.765  23.030  1.00  0.00     0.021 A 
ATOM     19  C   UNL A   1      33.674  18.457  24.990  1.00  0.00     0.106 A 
ATOM     20  C   UNL A   1      33.149  17.445  24.198  1.00  0.00     0.047 A 
ATOM     21  Cl  UNL A   1      33.364  15.799  24.636  1.00  0.00    -0.084 Cl
BRANCH  17  22
ATOM     22  N   UNL A   1      34.180  20.810  25.451  1.00  0.00     0.063 N 
ATOM     23  O   UNL A   1      35.290  21.167  25.030  1.00  0.00    -0.258 OA
ATOM     24  O   UNL A   1      33.658  21.267  26.473  1.00  0.00    -0.258 OA
ENDBRANCH  17  22
ENDBRANCH  14  15
ENDBRANCH  11  14
ENDBRANCH   6  11
ENDBRANCH   4   6
ENDBRANCH   3   4
ENDBRANCH   2   3
ENDBRANCH   1   2
BRANCH   1  25
ATOM     25  O   UNL A   1      31.504  29.158  24.101  1.00  0.00    -0.374 OA
BRANCH  25  26
ATOM     26  C   UNL A   1      32.356  29.595  25.162  1.00  0.00     0.202 C 
BRANCH  26  27
ATOM     27  C   UNL A   1      31.839  30.765  26.002  1.00  0.00     0.261 C 
BRANCH  27  28
ATOM     28  O   UNL A   1      32.490  30.814  27.283  1.00  0.00    -0.460 OA
BRANCH  28  29
ATOM     29  C   UNL A   1      33.257  31.913  27.481  1.00  0.00     0.338 C 
ATOM     30  O   UNL A   1      32.891  33.074  27.513  1.00  0.00    -0.246 OA
BRANCH  29  31
ATOM     31  C   UNL A   1      34.629  31.512  27.856  1.00  0.00     0.060 A 
ATOM     32  C   UNL A   1      34.841  30.153  28.114  1.00  0.00     0.016 A 
ATOM     33  C   UNL A   1      35.667  32.433  28.006  1.00  0.00     0.016 A 
ATOM     34  C   UNL A   1      36.075  29.719  28.587  1.00  0.00     0.010 A 
ATOM     35  C   UNL A   1      36.909  31.995  28.484  1.00  0.00     0.010 A 
ATOM     36  C   UNL A   1      37.102  30.644  28.817  1.00  0.00    -0.014 A 
BRANCH  36  37
ATOM     37  C   UNL A   1      38.310  30.194  29.549  1.00  0.00     0.031 A 
ATOM     38  C   UNL A   1      38.531  30.677  30.956  1.00  0.00     0.074 A 
ATOM     39  C   UNL A   1      39.148  29.297  29.001  1.00  0.00     0.049 A 
ATOM     40  N   UNL A   1      39.473  30.356  31.807  1.00  0.00    -0.248 NA
ATOM     41  C   UNL A   1      37.555  31.648  31.479  1.00  0.00     0.031 C 
ATOM     42  C   UNL A   1      39.020  28.734  27.658  1.00  0.00     0.029 A 
ATOM     43  N   UNL A   1      40.270  28.696  29.514  1.00  0.00    -0.354 N 
ATOM     44  C   UNL A   1      39.194  31.071  32.965  1.00  0.00     0.074 A 
ATOM     45  C   UNL A   1      38.022  31.874  32.698  1.00  0.00     0.031 C 
ATOM     46  C   UNL A   1      40.028  27.870  27.451  1.00  0.00     0.029 A 
ATOM     47  C   UNL A   1      40.880  27.833  28.639  1.00  0.00     0.049 A 
ATOM     48  H   UNL A   1      40.605  28.868  30.424  1.00  0.00     0.167 HD
ATOM     49  C   UNL A   1      39.848  31.046  34.151  1.00  0.00     0.037 A 
ATOM     50  C   UNL A   1      42.004  27.105  28.780  1.00  0.00     0.037 A 
ATOM     51  C   UNL A   1      41.021  30.255  34.414  1.00  0.00     0.049 A 
ATOM     52  C   UNL A   1      42.747  27.144  30.091  1.00  0.00     0.074 A 
ATOM     53  C   UNL A   1      41.758  30.164  35.583  1.00  0.00     0.029 A 
ATOM     54  N   UNL A   1      41.633  29.421  33.490  1.00  0.00    -0.354 N 
ATOM     55  N   UNL A   1      42.459  27.799  31.190  1.00  0.00    -0.248 NA
ATOM     56  C   UNL A   1      43.967  26.329  30.184  1.00  0.00     0.031 C 
ATOM     57  C   UNL A   1      42.840  29.307  35.352  1.00  0.00     0.029 A 
ATOM     58  C   UNL A   1      42.749  28.825  34.057  1.00  0.00     0.049 A 
ATOM     59  H   UNL A   1      41.320  29.273  32.568  1.00  0.00     0.167 HD
ATOM     60  C   UNL A   1      43.446  27.462  32.107  1.00  0.00     0.074 A 
ATOM     61  C   UNL A   1      44.327  26.522  31.445  1.00  0.00     0.031 C 
ATOM     62  C   UNL A   1      43.613  27.893  33.382  1.00  0.00     0.037 A 
BRANCH  49  63
ATOM     63  C   UNL A   1      39.313  31.906  35.257  1.00  0.00     0.064 A 
ATOM     64  C   UNL A   1      38.512  31.372  36.278  1.00  0.00     0.173 A 
ATOM     65  C   UNL A   1      39.648  33.267  35.327  1.00  0.00     0.173 A 
ATOM     66  F   UNL A   1      38.153  30.080  36.248  1.00  0.00    -0.203 F 
ATOM     67  C   UNL A   1      38.054  32.174  37.321  1.00  0.00     0.198 A 
ATOM     68  C   UNL A   1      39.210  34.058  36.385  1.00  0.00     0.198 A 
ATOM     69  F   UNL A   1      40.414  33.824  34.377  1.00  0.00    -0.203 F 
ATOM     70  F   UNL A   1      37.263  31.650  38.267  1.00  0.00    -0.200 F 
ATOM     71  C   UNL A   1      38.410  33.513  37.379  1.00  0.00     0.200 A 
ATOM     72  F   UNL A   1      39.563  35.349  36.445  1.00  0.00    -0.200 F 
ATOM     73  F   UNL A   1      37.980  34.279  38.390  1.00  0.00    -0.200 F 
ENDBRANCH  49  63
BRANCH  50  74
ATOM     74  C   UNL A   1      42.509  26.283  27.649  1.00  0.00     0.064 A 
ATOM     75  C   UNL A   1      42.057  24.973  27.441  1.00  0.00     0.173 A 
ATOM     76  C   UNL A   1      43.487  26.783  26.776  1.00  0.00     0.173 A 
ATOM     77  F   UNL A   1      41.142  24.442  28.264  1.00  0.00    -0.203 F 
ATOM     78  C   UNL A   1      42.584  24.185  26.420  1.00  0.00     0.198 A 
ATOM     79  C   UNL A   1      43.990  26.005  25.737  1.00  0.00     0.198 A 
ATOM     80  F   UNL A   1      43.954  28.030  26.933  1.00  0.00    -0.203 F 
ATOM     81  F   UNL A   1      42.176  22.916  26.277  1.00  0.00    -0.200 F 
ATOM     82  C   UNL A   1      43.547  24.703  25.566  1.00  0.00     0.200 A 
ATOM     83  F   UNL A   1      44.912  26.513  24.908  1.00  0.00    -0.200 F 
ATOM     84  F   UNL A   1      44.055  23.943  24.585  1.00  0.00    -0.200 F 
ENDBRANCH  50  74
BRANCH  62  85
ATOM     85  C   UNL A   1      44.781  27.335  34.144  1.00  0.00     0.064 A 
ATOM     86  C   UNL A   1      46.026  27.980  34.157  1.00  0.00     0.173 A 
ATOM     87  C   UNL A   1      44.647  26.150  34.884  1.00  0.00     0.173 A 
ATOM     88  F   UNL A   1      46.209  29.109  33.454  1.00  0.00    -0.203 F 
ATOM     89  C   UNL A   1      47.105  27.440  34.850  1.00  0.00     0.198 A 
ATOM     90  C   UNL A   1      45.720  25.630  35.602  1.00  0.00     0.198 A 
ATOM     91  F   UNL A   1      43.475  25.499  34.913  1.00  0.00    -0.203 F 
ATOM     92  F   UNL A   1      48.301  28.042  34.799  1.00  0.00    -0.200 F 
ATOM     93  C   UNL A   1      46.950  26.268  35.576  1.00  0.00     0.200 A 
ATOM     94  F   UNL A   1      45.565  24.505  36.313  1.00  0.00    -0.200 F 
ATOM     95  F   UNL A   1      47.991  25.748  36.242  1.00  0.00    -0.200 F 
ENDBRANCH  62  85
ENDBRANCH  36  37
ENDBRANCH  29  31
ENDBRANCH  28  29
ENDBRANCH  27  28
ENDBRANCH  26  27
ENDBRANCH  25  26
ENDBRANCH   1  25
TORSDOF 20
ENDMDL
