MODEL 1
REMARK VINA RESULT:     -12.5      0.000      0.000
REMARK SMILES O=C(OCCOCCOC(=O)c1ccccc1-c1ccc(/C=C2\C(=O)N(c3cccc(Br)c3)C(=O)N=C2O)o1)c1ccc(-c2c3nc(c(-c4c(F)c(F)c(F)c(F)c4F)c4ccc([nH]4)c(-c4c(F)c(F)c(F)c(F)c4F)c4nc(c(-c5c(F)c(F)c(F)c(F)c5F)c5ccc2[nH]5)C=C4)C=C3)cc1
REMARK SMILES IDX 7 1 6 2 5 3 4 4 3 5 2 6 1 7 40 8 41 9 102 10 42 11 101 12
REMARK SMILES IDX 43 13 44 14 45 15 95 16 46 17 100 18 94 19 96 20 47 21 99 22
REMARK SMILES IDX 93 23 92 24 48 26 80 27 60 28 79 29 61 30 64 31 78 32 97 33
REMARK SMILES IDX 62 34 63 35 77 37 98 38 65 39 49 40 50 41 58 42 51 43 52 44
REMARK SMILES IDX 56 45 59 46 53 47 54 48 57 49 55 50 81 51 82 52 90 53 83 54
REMARK SMILES IDX 84 55 88 56 91 57 85 58 86 59 89 60 87 61 66 62 67 63 75 64
REMARK SMILES IDX 68 65 69 66 73 67 76 68 70 69 71 70 74 71 72 72 8 73 9 74
REMARK SMILES IDX 10 75 11 76 12 77 13 78 17 79 14 80 16 81 15 82 18 83 19 84
REMARK SMILES IDX 39 85 20 86 21 87 22 88 23 89 24 90 37 91 25 92 26 93 36 94
REMARK SMILES IDX 34 95 35 96 38 97 27 99 28 100 33 101 29 102 31 103 30 104
REMARK SMILES IDX 32 105
REMARK H PARENT 96 25 64 36 38 98
REMARK Flexibility Score: inf
ROOT
ATOM      1  C   UNL A   1      34.027  35.012  30.450  1.00  0.00     0.202 C 
ENDROOT
BRANCH   1   2
ATOM      2  O   UNL A   1      33.467  34.299  31.558  1.00  0.00    -0.374 OA
BRANCH   2   3
ATOM      3  C   UNL A   1      34.208  34.389  32.776  1.00  0.00     0.202 C 
BRANCH   3   4
ATOM      4  C   UNL A   1      34.919  33.081  33.135  1.00  0.00     0.261 C 
BRANCH   4   5
ATOM      5  O   UNL A   1      36.283  33.327  33.520  1.00  0.00    -0.460 OA
BRANCH   5   6
ATOM      6  C   UNL A   1      37.243  32.447  33.883  1.00  0.00     0.338 C 
ATOM      7  O   UNL A   1      37.286  32.086  35.059  1.00  0.00    -0.246 OA
BRANCH   6   8
ATOM      8  C   UNL A   1      38.261  31.865  32.950  1.00  0.00     0.060 A 
ATOM      9  C   UNL A   1      39.141  30.826  33.254  1.00  0.00     0.016 A 
ATOM     10  C   UNL A   1      38.267  32.356  31.631  1.00  0.00     0.016 A 
ATOM     11  C   UNL A   1      40.006  30.299  32.311  1.00  0.00     0.010 A 
ATOM     12  C   UNL A   1      39.134  31.831  30.665  1.00  0.00     0.010 A 
ATOM     13  C   UNL A   1      40.014  30.805  31.017  1.00  0.00    -0.014 A 
BRANCH  13  14
ATOM     14  C   UNL A   1      41.087  30.328  30.134  1.00  0.00     0.031 A 
ATOM     15  C   UNL A   1      42.322  31.165  30.028  1.00  0.00     0.074 A 
ATOM     16  C   UNL A   1      41.019  29.084  29.631  1.00  0.00     0.049 A 
ATOM     17  N   UNL A   1      43.424  30.938  29.368  1.00  0.00    -0.248 NA
ATOM     18  C   UNL A   1      42.326  32.419  30.801  1.00  0.00     0.031 C 
ATOM     19  C   UNL A   1      39.909  28.153  29.839  1.00  0.00     0.029 A 
ATOM     20  N   UNL A   1      41.922  28.369  28.893  1.00  0.00    -0.354 N 
ATOM     21  C   UNL A   1      44.238  32.033  29.621  1.00  0.00     0.074 A 
ATOM     22  C   UNL A   1      43.512  32.920  30.499  1.00  0.00     0.031 C 
ATOM     23  C   UNL A   1      40.212  26.975  29.270  1.00  0.00     0.029 A 
ATOM     24  C   UNL A   1      41.505  27.093  28.604  1.00  0.00     0.049 A 
ATOM     25  H   UNL A   1      42.787  28.735  28.596  1.00  0.00     0.167 HD
ATOM     26  C   UNL A   1      45.481  32.270  29.143  1.00  0.00     0.037 A 
ATOM     27  C   UNL A   1      42.105  26.147  27.860  1.00  0.00     0.037 A 
ATOM     28  C   UNL A   1      46.169  31.361  28.269  1.00  0.00     0.049 A 
ATOM     29  C   UNL A   1      43.440  26.482  27.249  1.00  0.00     0.074 A 
ATOM     30  C   UNL A   1      47.393  31.509  27.647  1.00  0.00     0.029 A 
ATOM     31  N   UNL A   1      45.674  30.116  27.895  1.00  0.00    -0.354 N 
ATOM     32  N   UNL A   1      44.178  27.555  27.415  1.00  0.00    -0.248 NA
ATOM     33  C   UNL A   1      44.015  25.490  26.336  1.00  0.00     0.031 C 
ATOM     34  C   UNL A   1      47.616  30.375  26.857  1.00  0.00     0.029 A 
ATOM     35  C   UNL A   1      46.557  29.494  27.032  1.00  0.00     0.049 A 
ATOM     36  H   UNL A   1      44.819  29.733  28.200  1.00  0.00     0.167 HD
ATOM     37  C   UNL A   1      45.314  27.362  26.643  1.00  0.00     0.074 A 
ATOM     38  C   UNL A   1      45.173  26.058  26.025  1.00  0.00     0.031 C 
ATOM     39  C   UNL A   1      46.376  28.186  26.451  1.00  0.00     0.037 A 
BRANCH  26  40
ATOM     40  C   UNL A   1      46.095  33.596  29.481  1.00  0.00     0.064 A 
ATOM     41  C   UNL A   1      45.839  34.754  28.731  1.00  0.00     0.173 A 
ATOM     42  C   UNL A   1      47.015  33.689  30.537  1.00  0.00     0.173 A 
ATOM     43  F   UNL A   1      44.994  34.711  27.689  1.00  0.00    -0.203 F 
ATOM     44  C   UNL A   1      46.509  35.946  29.002  1.00  0.00     0.198 A 
ATOM     45  C   UNL A   1      47.661  34.888  30.822  1.00  0.00     0.198 A 
ATOM     46  F   UNL A   1      47.304  32.609  31.277  1.00  0.00    -0.203 F 
ATOM     47  F   UNL A   1      46.303  37.020  28.228  1.00  0.00    -0.200 F 
ATOM     48  C   UNL A   1      47.418  36.012  30.047  1.00  0.00     0.200 A 
ATOM     49  F   UNL A   1      48.539  34.949  31.833  1.00  0.00    -0.200 F 
ATOM     50  F   UNL A   1      48.075  37.153  30.297  1.00  0.00    -0.200 F 
ENDBRANCH  26  40
BRANCH  27  51
ATOM     51  C   UNL A   1      41.440  24.837  27.619  1.00  0.00     0.064 A 
ATOM     52  C   UNL A   1      41.877  23.667  28.256  1.00  0.00     0.173 A 
ATOM     53  C   UNL A   1      40.359  24.724  26.730  1.00  0.00     0.173 A 
ATOM     54  F   UNL A   1      42.921  23.713  29.097  1.00  0.00    -0.203 F 
ATOM     55  C   UNL A   1      41.273  22.436  28.000  1.00  0.00     0.198 A 
ATOM     56  C   UNL A   1      39.735  23.499  26.499  1.00  0.00     0.198 A 
ATOM     57  F   UNL A   1      39.901  25.807  26.085  1.00  0.00    -0.203 F 
ATOM     58  F   UNL A   1      41.744  21.326  28.585  1.00  0.00    -0.200 F 
ATOM     59  C   UNL A   1      40.198  22.354  27.127  1.00  0.00     0.200 A 
ATOM     60  F   UNL A   1      38.690  23.428  25.663  1.00  0.00    -0.200 F 
ATOM     61  F   UNL A   1      39.617  21.172  26.883  1.00  0.00    -0.200 F 
ENDBRANCH  27  51
BRANCH  39  62
ATOM     62  C   UNL A   1      47.473  27.672  25.571  1.00  0.00     0.064 A 
ATOM     63  C   UNL A   1      47.428  27.819  24.178  1.00  0.00     0.173 A 
ATOM     64  C   UNL A   1      48.604  27.065  26.138  1.00  0.00     0.173 A 
ATOM     65  F   UNL A   1      46.359  28.379  23.592  1.00  0.00    -0.203 F 
ATOM     66  C   UNL A   1      48.466  27.350  23.379  1.00  0.00     0.198 A 
ATOM     67  C   UNL A   1      49.653  26.627  25.338  1.00  0.00     0.198 A 
ATOM     68  F   UNL A   1      48.694  26.910  27.467  1.00  0.00    -0.203 F 
ATOM     69  F   UNL A   1      48.381  27.455  22.046  1.00  0.00    -0.200 F 
ATOM     70  C   UNL A   1      49.580  26.763  23.961  1.00  0.00     0.200 A 
ATOM     71  F   UNL A   1      50.736  26.073  25.902  1.00  0.00    -0.200 F 
ATOM     72  F   UNL A   1      50.583  26.319  23.190  1.00  0.00    -0.200 F 
ENDBRANCH  39  62
ENDBRANCH  13  14
ENDBRANCH   6   8
ENDBRANCH   5   6
ENDBRANCH   4   5
ENDBRANCH   3   4
ENDBRANCH   2   3
ENDBRANCH   1   2
BRANCH   1  73
ATOM     73  C   UNL A   1      33.525  34.377  29.164  1.00  0.00     0.261 C 
BRANCH  73  74
ATOM     74  O   UNL A   1      34.098  33.072  29.087  1.00  0.00    -0.460 OA
BRANCH  74  75
ATOM     75  C   UNL A   1      33.797  32.307  28.010  1.00  0.00     0.338 C 
ATOM     76  O   UNL A   1      32.853  32.418  27.247  1.00  0.00    -0.246 OA
BRANCH  75  77
ATOM     77  C   UNL A   1      34.936  31.382  27.822  1.00  0.00     0.071 A 
ATOM     78  C   UNL A   1      36.201  31.851  28.201  1.00  0.00     0.016 A 
ATOM     79  C   UNL A   1      34.743  30.045  27.428  1.00  0.00     0.032 A 
ATOM     80  C   UNL A   1      37.275  30.967  28.263  1.00  0.00     0.001 A 
ATOM     81  C   UNL A   1      35.833  29.168  27.503  1.00  0.00     0.013 A 
ATOM     82  C   UNL A   1      37.087  29.626  27.928  1.00  0.00     0.001 A 
BRANCH  79  83
ATOM     83  C   UNL A   1      33.425  29.572  27.018  1.00  0.00     0.135 A 
ATOM     84  C   UNL A   1      32.386  28.954  27.678  1.00  0.00     0.051 A 
ATOM     85  O   UNL A   1      33.201  29.543  25.679  1.00  0.00    -0.457 OA
ATOM     86  C   UNL A   1      31.555  28.413  26.669  1.00  0.00     0.051 A 
ATOM     87  C   UNL A   1      32.095  28.761  25.438  1.00  0.00     0.128 A 
BRANCH  87  88
ATOM     88  C   UNL A   1      31.604  28.445  24.143  1.00  0.00     0.066 C 
ATOM     89  C   UNL A   1      31.623  27.216  23.601  1.00  0.00     0.106 C 
ATOM     90  C   UNL A   1      32.010  25.944  24.259  1.00  0.00     0.272 C 
ATOM     91  C   UNL A   1      31.360  27.070  22.183  1.00  0.00     0.228 C 
ATOM     92  O   UNL A   1      31.667  25.715  25.416  1.00  0.00    -0.268 OA
ATOM     93  N   UNL A   1      32.710  25.082  23.408  1.00  0.00    -0.226 N 
ATOM     94  N   UNL A   1      31.804  26.136  21.436  1.00  0.00    -0.156 NA
ATOM     95  C   UNL A   1      32.648  25.204  22.000  1.00  0.00     0.358 C 
ATOM     96  O   UNL A   1      33.283  24.476  21.241  1.00  0.00    -0.245 OA
BRANCH  91  97
ATOM     97  O   UNL A   1      30.573  27.999  21.628  1.00  0.00    -0.493 OA
ATOM     98  H   UNL A   1      29.805  28.292  22.078  1.00  0.00     0.295 HD
ENDBRANCH  91  97
BRANCH  93  99
ATOM     99  C   UNL A   1      33.485  24.011  23.985  1.00  0.00     0.055 A 
ATOM    100  C   UNL A   1      34.750  24.267  24.544  1.00  0.00     0.027 A 
ATOM    101  C   UNL A   1      32.997  22.696  24.045  1.00  0.00     0.042 A 
ATOM    102  C   UNL A   1      35.499  23.251  25.146  1.00  0.00     0.003 A 
ATOM    103  C   UNL A   1      33.754  21.681  24.638  1.00  0.00     0.020 A 
ATOM    104  C   UNL A   1      35.000  21.953  25.193  1.00  0.00     0.016 A 
ATOM    105  Br  UNL A   1      33.076  19.915  24.683  1.00  0.00    -0.051 Br
ENDBRANCH  93  99
ENDBRANCH  87  88
ENDBRANCH  79  83
ENDBRANCH  75  77
ENDBRANCH  74  75
ENDBRANCH  73  74
ENDBRANCH   1  73
TORSDOF 18
ENDMDL
MODEL 2
REMARK VINA RESULT:     -12.4      3.622      9.143
REMARK SMILES O=C(OCCOCCOC(=O)c1ccccc1-c1ccc(/C=C2\C(=O)N(c3cccc(Br)c3)C(=O)N=C2O)o1)c1ccc(-c2c3nc(c(-c4c(F)c(F)c(F)c(F)c4F)c4ccc([nH]4)c(-c4c(F)c(F)c(F)c(F)c4F)c4nc(c(-c5c(F)c(F)c(F)c(F)c5F)c5ccc2[nH]5)C=C4)C=C3)cc1
REMARK SMILES IDX 7 1 6 2 5 3 4 4 3 5 2 6 1 7 40 8 41 9 102 10 42 11 101 12
REMARK SMILES IDX 43 13 44 14 45 15 95 16 46 17 100 18 94 19 96 20 47 21 99 22
REMARK SMILES IDX 93 23 92 24 48 26 80 27 60 28 79 29 61 30 64 31 78 32 97 33
REMARK SMILES IDX 62 34 63 35 77 37 98 38 65 39 49 40 50 41 58 42 51 43 52 44
REMARK SMILES IDX 56 45 59 46 53 47 54 48 57 49 55 50 81 51 82 52 90 53 83 54
REMARK SMILES IDX 84 55 88 56 91 57 85 58 86 59 89 60 87 61 66 62 67 63 75 64
REMARK SMILES IDX 68 65 69 66 73 67 76 68 70 69 71 70 74 71 72 72 8 73 9 74
REMARK SMILES IDX 10 75 11 76 12 77 13 78 17 79 14 80 16 81 15 82 18 83 19 84
REMARK SMILES IDX 39 85 20 86 21 87 22 88 23 89 24 90 37 91 25 92 26 93 36 94
REMARK SMILES IDX 34 95 35 96 38 97 27 99 28 100 33 101 29 102 31 103 30 104
REMARK SMILES IDX 32 105
REMARK H PARENT 96 25 64 36 38 98
REMARK Flexibility Score: inf
ROOT
ATOM      1  C   UNL A   1      38.195  21.492  25.384  1.00  0.00     0.202 C 
ENDROOT
BRANCH   1   2
ATOM      2  O   UNL A   1      38.136  20.265  24.648  1.00  0.00    -0.374 OA
BRANCH   2   3
ATOM      3  C   UNL A   1      38.729  19.138  25.297  1.00  0.00     0.202 C 
BRANCH   3   4
ATOM      4  C   UNL A   1      39.937  19.518  26.159  1.00  0.00     0.261 C 
BRANCH   4   5
ATOM      5  O   UNL A   1      41.129  18.864  25.688  1.00  0.00    -0.460 OA
BRANCH   5   6
ATOM      6  C   UNL A   1      42.409  19.299  25.707  1.00  0.00     0.338 C 
ATOM      7  O   UNL A   1      43.292  18.522  25.346  1.00  0.00    -0.246 OA
BRANCH   6   8
ATOM      8  C   UNL A   1      42.835  20.673  26.128  1.00  0.00     0.060 A 
ATOM      9  C   UNL A   1      42.818  21.165  27.433  1.00  0.00     0.016 A 
ATOM     10  C   UNL A   1      43.375  21.504  25.128  1.00  0.00     0.016 A 
ATOM     11  C   UNL A   1      43.294  22.426  27.748  1.00  0.00     0.010 A 
ATOM     12  C   UNL A   1      43.864  22.780  25.432  1.00  0.00     0.010 A 
ATOM     13  C   UNL A   1      43.809  23.242  26.748  1.00  0.00    -0.014 A 
BRANCH  13  14
ATOM     14  C   UNL A   1      44.113  24.628  27.128  1.00  0.00     0.031 A 
ATOM     15  C   UNL A   1      45.492  25.136  26.855  1.00  0.00     0.074 A 
ATOM     16  C   UNL A   1      43.111  25.442  27.501  1.00  0.00     0.049 A 
ATOM     17  N   UNL A   1      45.991  26.327  27.042  1.00  0.00    -0.248 NA
ATOM     18  C   UNL A   1      46.433  24.173  26.257  1.00  0.00     0.031 C 
ATOM     19  C   UNL A   1      41.707  25.045  27.625  1.00  0.00     0.029 A 
ATOM     20  N   UNL A   1      43.106  26.781  27.786  1.00  0.00    -0.354 N 
ATOM     21  C   UNL A   1      47.308  26.247  26.614  1.00  0.00     0.074 A 
ATOM     22  C   UNL A   1      47.534  24.898  26.151  1.00  0.00     0.031 C 
ATOM     23  C   UNL A   1      40.971  26.126  27.929  1.00  0.00     0.029 A 
ATOM     24  C   UNL A   1      41.860  27.272  28.084  1.00  0.00     0.049 A 
ATOM     25  H   UNL A   1      43.919  27.336  27.779  1.00  0.00     0.167 HD
ATOM     26  C   UNL A   1      48.245  27.224  26.626  1.00  0.00     0.037 A 
ATOM     27  C   UNL A   1      41.499  28.511  28.464  1.00  0.00     0.037 A 
ATOM     28  C   UNL A   1      47.980  28.555  27.097  1.00  0.00     0.049 A 
ATOM     29  C   UNL A   1      42.584  29.550  28.573  1.00  0.00     0.074 A 
ATOM     30  C   UNL A   1      48.851  29.617  27.240  1.00  0.00     0.029 A 
ATOM     31  N   UNL A   1      46.728  29.001  27.506  1.00  0.00    -0.354 N 
ATOM     32  N   UNL A   1      43.853  29.457  28.253  1.00  0.00    -0.248 NA
ATOM     33  C   UNL A   1      42.194  30.856  29.115  1.00  0.00     0.031 C 
ATOM     34  C   UNL A   1      48.135  30.691  27.782  1.00  0.00     0.029 A 
ATOM     35  C   UNL A   1      46.806  30.316  27.923  1.00  0.00     0.049 A 
ATOM     36  H   UNL A   1      45.905  28.459  27.498  1.00  0.00     0.167 HD
ATOM     37  C   UNL A   1      44.413  30.693  28.534  1.00  0.00     0.074 A 
ATOM     38  C   UNL A   1      43.336  31.527  29.033  1.00  0.00     0.031 C 
ATOM     39  C   UNL A   1      45.699  31.108  28.402  1.00  0.00     0.037 A 
BRANCH  26  40
ATOM     40  C   UNL A   1      49.633  26.835  26.215  1.00  0.00     0.064 A 
ATOM     41  C   UNL A   1      50.566  26.311  27.124  1.00  0.00     0.173 A 
ATOM     42  C   UNL A   1      50.059  27.060  24.896  1.00  0.00     0.173 A 
ATOM     43  F   UNL A   1      50.221  26.110  28.404  1.00  0.00    -0.203 F 
ATOM     44  C   UNL A   1      51.882  26.063  26.736  1.00  0.00     0.198 A 
ATOM     45  C   UNL A   1      51.366  26.785  24.506  1.00  0.00     0.198 A 
ATOM     46  F   UNL A   1      49.211  27.570  23.991  1.00  0.00    -0.203 F 
ATOM     47  F   UNL A   1      52.774  25.632  27.638  1.00  0.00    -0.200 F 
ATOM     48  C   UNL A   1      52.281  26.299  25.429  1.00  0.00     0.200 A 
ATOM     49  F   UNL A   1      51.749  27.013  23.242  1.00  0.00    -0.200 F 
ATOM     50  F   UNL A   1      53.550  26.077  25.062  1.00  0.00    -0.200 F 
ENDBRANCH  26  40
BRANCH  27  51
ATOM     51  C   UNL A   1      40.083  28.818  28.805  1.00  0.00     0.064 A 
ATOM     52  C   UNL A   1      39.598  28.671  30.112  1.00  0.00     0.173 A 
ATOM     53  C   UNL A   1      39.177  29.250  27.824  1.00  0.00     0.173 A 
ATOM     54  F   UNL A   1      40.414  28.237  31.085  1.00  0.00    -0.203 F 
ATOM     55  C   UNL A   1      38.262  28.927  30.420  1.00  0.00     0.198 A 
ATOM     56  C   UNL A   1      37.849  29.537  28.138  1.00  0.00     0.198 A 
ATOM     57  F   UNL A   1      39.580  29.403  26.554  1.00  0.00    -0.203 F 
ATOM     58  F   UNL A   1      37.814  28.729  31.668  1.00  0.00    -0.200 F 
ATOM     59  C   UNL A   1      37.390  29.366  29.435  1.00  0.00     0.200 A 
ATOM     60  F   UNL A   1      37.015  29.972  27.184  1.00  0.00    -0.200 F 
ATOM     61  F   UNL A   1      36.107  29.612  29.731  1.00  0.00    -0.200 F 
ENDBRANCH  27  51
BRANCH  39  62
ATOM     62  C   UNL A   1      45.986  32.532  28.767  1.00  0.00     0.064 A 
ATOM     63  C   UNL A   1      46.362  32.896  30.067  1.00  0.00     0.173 A 
ATOM     64  C   UNL A   1      45.925  33.536  27.788  1.00  0.00     0.173 A 
ATOM     65  F   UNL A   1      46.418  31.972  31.038  1.00  0.00    -0.203 F 
ATOM     66  C   UNL A   1      46.641  34.222  30.381  1.00  0.00     0.198 A 
ATOM     67  C   UNL A   1      46.236  34.854  28.100  1.00  0.00     0.198 A 
ATOM     68  F   UNL A   1      45.577  33.232  26.529  1.00  0.00    -0.203 F 
ATOM     69  F   UNL A   1      46.950  34.558  31.642  1.00  0.00    -0.200 F 
ATOM     70  C   UNL A   1      46.586  35.197  29.397  1.00  0.00     0.200 A 
ATOM     71  F   UNL A   1      46.196  35.793  27.144  1.00  0.00    -0.200 F 
ATOM     72  F   UNL A   1      46.863  36.473  29.700  1.00  0.00    -0.200 F 
ENDBRANCH  39  62
ENDBRANCH  13  14
ENDBRANCH   6   8
ENDBRANCH   5   6
ENDBRANCH   4   5
ENDBRANCH   3   4
ENDBRANCH   2   3
ENDBRANCH   1   2
BRANCH   1  73
ATOM     73  C   UNL A   1      37.028  22.367  24.957  1.00  0.00     0.261 C 
BRANCH  73  74
ATOM     74  O   UNL A   1      35.991  21.495  24.509  1.00  0.00    -0.460 OA
BRANCH  74  75
ATOM     75  C   UNL A   1      35.182  20.935  25.441  1.00  0.00     0.338 C 
ATOM     76  O   UNL A   1      34.975  21.311  26.581  1.00  0.00    -0.246 OA
BRANCH  75  77
ATOM     77  C   UNL A   1      34.449  19.847  24.759  1.00  0.00     0.071 A 
ATOM     78  C   UNL A   1      35.078  18.596  24.705  1.00  0.00     0.016 A 
ATOM     79  C   UNL A   1      33.121  20.015  24.321  1.00  0.00     0.032 A 
ATOM     80  C   UNL A   1      34.359  17.480  24.282  1.00  0.00     0.001 A 
ATOM     81  C   UNL A   1      32.413  18.881  23.905  1.00  0.00     0.013 A 
ATOM     82  C   UNL A   1      33.026  17.621  23.897  1.00  0.00     0.001 A 
BRANCH  79  83
ATOM     83  C   UNL A   1      32.482  21.326  24.365  1.00  0.00     0.135 A 
ATOM     84  C   UNL A   1      31.510  21.887  25.164  1.00  0.00     0.051 A 
ATOM     85  O   UNL A   1      32.727  22.136  23.302  1.00  0.00    -0.457 OA
ATOM     86  C   UNL A   1      31.057  23.036  24.473  1.00  0.00     0.051 A 
ATOM     87  C   UNL A   1      31.802  23.154  23.306  1.00  0.00     0.128 A 
BRANCH  87  88
ATOM     88  C   UNL A   1      31.706  24.153  22.302  1.00  0.00     0.066 C 
ATOM     89  C   UNL A   1      31.920  25.463  22.510  1.00  0.00     0.106 C 
ATOM     90  C   UNL A   1      32.424  26.113  23.744  1.00  0.00     0.272 C 
ATOM     91  C   UNL A   1      31.519  26.411  21.487  1.00  0.00     0.228 C 
ATOM     92  O   UNL A   1      33.328  25.594  24.393  1.00  0.00    -0.268 OA
ATOM     93  N   UNL A   1      31.809  27.343  24.001  1.00  0.00    -0.226 N 
ATOM     94  N   UNL A   1      31.184  27.625  21.688  1.00  0.00    -0.156 NA
ATOM     95  C   UNL A   1      31.149  28.078  22.989  1.00  0.00     0.358 C 
ATOM     96  O   UNL A   1      30.576  29.144  23.207  1.00  0.00    -0.245 OA
BRANCH  91  97
ATOM     97  O   UNL A   1      31.515  25.957  20.228  1.00  0.00    -0.493 OA
ATOM     98  H   UNL A   1      32.314  25.921  19.741  1.00  0.00     0.295 HD
ENDBRANCH  91  97
BRANCH  93  99
ATOM     99  C   UNL A   1      31.889  27.897  25.331  1.00  0.00     0.055 A 
ATOM    100  C   UNL A   1      31.127  27.350  26.379  1.00  0.00     0.027 A 
ATOM    101  C   UNL A   1      32.747  28.966  25.634  1.00  0.00     0.042 A 
ATOM    102  C   UNL A   1      31.222  27.844  27.683  1.00  0.00     0.003 A 
ATOM    103  C   UNL A   1      32.831  29.465  26.938  1.00  0.00     0.020 A 
ATOM    104  C   UNL A   1      32.076  28.907  27.964  1.00  0.00     0.016 A 
ATOM    105  Br  UNL A   1      33.981  30.921  27.310  1.00  0.00    -0.051 Br
ENDBRANCH  93  99
ENDBRANCH  87  88
ENDBRANCH  79  83
ENDBRANCH  75  77
ENDBRANCH  74  75
ENDBRANCH  73  74
ENDBRANCH   1  73
TORSDOF 18
ENDMDL
MODEL 3
REMARK VINA RESULT:     -12.3      3.604      9.663
REMARK SMILES O=C(OCCOCCOC(=O)c1ccccc1-c1ccc(/C=C2\C(=O)N(c3cccc(Br)c3)C(=O)N=C2O)o1)c1ccc(-c2c3nc(c(-c4c(F)c(F)c(F)c(F)c4F)c4ccc([nH]4)c(-c4c(F)c(F)c(F)c(F)c4F)c4nc(c(-c5c(F)c(F)c(F)c(F)c5F)c5ccc2[nH]5)C=C4)C=C3)cc1
REMARK SMILES IDX 7 1 6 2 5 3 4 4 3 5 2 6 1 7 40 8 41 9 102 10 42 11 101 12
REMARK SMILES IDX 43 13 44 14 45 15 95 16 46 17 100 18 94 19 96 20 47 21 99 22
REMARK SMILES IDX 93 23 92 24 48 26 80 27 60 28 79 29 61 30 64 31 78 32 97 33
REMARK SMILES IDX 62 34 63 35 77 37 98 38 65 39 49 40 50 41 58 42 51 43 52 44
REMARK SMILES IDX 56 45 59 46 53 47 54 48 57 49 55 50 81 51 82 52 90 53 83 54
REMARK SMILES IDX 84 55 88 56 91 57 85 58 86 59 89 60 87 61 66 62 67 63 75 64
REMARK SMILES IDX 68 65 69 66 73 67 76 68 70 69 71 70 74 71 72 72 8 73 9 74
REMARK SMILES IDX 10 75 11 76 12 77 13 78 17 79 14 80 16 81 15 82 18 83 19 84
REMARK SMILES IDX 39 85 20 86 21 87 22 88 23 89 24 90 37 91 25 92 26 93 36 94
REMARK SMILES IDX 34 95 35 96 38 97 27 99 28 100 33 101 29 102 31 103 30 104
REMARK SMILES IDX 32 105
REMARK H PARENT 96 25 64 36 38 98
REMARK Flexibility Score: inf
ROOT
ATOM      1  C   UNL A   1      38.378  21.431  25.376  1.00  0.00     0.202 C 
ENDROOT
BRANCH   1   2
ATOM      2  O   UNL A   1      38.223  20.151  24.752  1.00  0.00    -0.374 OA
BRANCH   2   3
ATOM      3  C   UNL A   1      38.934  19.080  25.376  1.00  0.00     0.202 C 
BRANCH   3   4
ATOM      4  C   UNL A   1      40.121  19.565  26.213  1.00  0.00     0.261 C 
BRANCH   4   5
ATOM      5  O   UNL A   1      41.349  18.975  25.752  1.00  0.00    -0.460 OA
BRANCH   5   6
ATOM      6  C   UNL A   1      42.611  19.458  25.822  1.00  0.00     0.338 C 
ATOM      7  O   UNL A   1      43.544  18.663  25.714  1.00  0.00    -0.246 OA
BRANCH   6   8
ATOM      8  C   UNL A   1      42.960  20.903  26.011  1.00  0.00     0.060 A 
ATOM      9  C   UNL A   1      43.100  21.845  24.991  1.00  0.00     0.016 A 
ATOM     10  C   UNL A   1      43.074  21.360  27.337  1.00  0.00     0.016 A 
ATOM     11  C   UNL A   1      43.357  23.178  25.256  1.00  0.00     0.010 A 
ATOM     12  C   UNL A   1      43.330  22.707  27.620  1.00  0.00     0.010 A 
ATOM     13  C   UNL A   1      43.484  23.613  26.569  1.00  0.00    -0.014 A 
BRANCH  13  14
ATOM     14  C   UNL A   1      43.946  24.995  26.759  1.00  0.00     0.031 A 
ATOM     15  C   UNL A   1      42.999  25.962  27.394  1.00  0.00     0.074 A 
ATOM     16  C   UNL A   1      45.242  25.287  26.561  1.00  0.00     0.049 A 
ATOM     17  N   UNL A   1      43.183  27.212  27.720  1.00  0.00    -0.248 NA
ATOM     18  C   UNL A   1      41.666  25.436  27.738  1.00  0.00     0.031 C 
ATOM     19  C   UNL A   1      46.257  24.338  26.100  1.00  0.00     0.029 A 
ATOM     20  N   UNL A   1      45.940  26.445  26.776  1.00  0.00    -0.354 N 
ATOM     21  C   UNL A   1      41.983  27.628  28.278  1.00  0.00     0.074 A 
ATOM     22  C   UNL A   1      41.078  26.502  28.256  1.00  0.00     0.031 C 
ATOM     23  C   UNL A   1      47.456  24.944  26.099  1.00  0.00     0.029 A 
ATOM     24  C   UNL A   1      47.279  26.337  26.495  1.00  0.00     0.049 A 
ATOM     25  H   UNL A   1      45.521  27.275  27.099  1.00  0.00     0.167 HD
ATOM     26  C   UNL A   1      41.671  28.856  28.753  1.00  0.00     0.037 A 
ATOM     27  C   UNL A   1      48.239  27.279  26.536  1.00  0.00     0.037 A 
ATOM     28  C   UNL A   1      42.600  29.952  28.757  1.00  0.00     0.049 A 
ATOM     29  C   UNL A   1      47.836  28.666  26.965  1.00  0.00     0.074 A 
ATOM     30  C   UNL A   1      42.395  31.265  29.132  1.00  0.00     0.029 A 
ATOM     31  N   UNL A   1      43.928  29.848  28.357  1.00  0.00    -0.354 N 
ATOM     32  N   UNL A   1      46.677  29.089  27.412  1.00  0.00    -0.248 NA
ATOM     33  C   UNL A   1      48.864  29.707  26.876  1.00  0.00     0.031 C 
ATOM     34  C   UNL A   1      43.587  31.967  28.912  1.00  0.00     0.029 A 
ATOM     35  C   UNL A   1      44.551  31.078  28.454  1.00  0.00     0.049 A 
ATOM     36  H   UNL A   1      44.361  29.018  28.049  1.00  0.00     0.167 HD
ATOM     37  C   UNL A   1      46.837  30.440  27.676  1.00  0.00     0.074 A 
ATOM     38  C   UNL A   1      48.216  30.760  27.357  1.00  0.00     0.031 C 
ATOM     39  C   UNL A   1      45.932  31.342  28.134  1.00  0.00     0.037 A 
BRANCH  26  40
ATOM     40  C   UNL A   1      40.254  29.071  29.196  1.00  0.00     0.064 A 
ATOM     41  C   UNL A   1      39.872  29.005  30.545  1.00  0.00     0.173 A 
ATOM     42  C   UNL A   1      39.249  29.277  28.239  1.00  0.00     0.173 A 
ATOM     43  F   UNL A   1      40.789  28.775  31.496  1.00  0.00    -0.203 F 
ATOM     44  C   UNL A   1      38.531  29.099  30.915  1.00  0.00     0.198 A 
ATOM     45  C   UNL A   1      37.914  29.399  28.614  1.00  0.00     0.198 A 
ATOM     46  F   UNL A   1      39.559  29.337  26.936  1.00  0.00    -0.203 F 
ATOM     47  F   UNL A   1      38.181  28.961  32.200  1.00  0.00    -0.200 F 
ATOM     48  C   UNL A   1      37.554  29.297  29.950  1.00  0.00     0.200 A 
ATOM     49  F   UNL A   1      36.972  29.591  27.681  1.00  0.00    -0.200 F 
ATOM     50  F   UNL A   1      36.264  29.371  30.304  1.00  0.00    -0.200 F 
ENDBRANCH  26  40
BRANCH  27  51
ATOM     51  C   UNL A   1      49.633  26.960  26.125  1.00  0.00     0.064 A 
ATOM     52  C   UNL A   1      50.033  27.032  24.783  1.00  0.00     0.173 A 
ATOM     53  C   UNL A   1      50.594  26.557  27.066  1.00  0.00     0.173 A 
ATOM     54  F   UNL A   1      49.150  27.387  23.838  1.00  0.00    -0.203 F 
ATOM     55  C   UNL A   1      51.332  26.698  24.398  1.00  0.00     0.198 A 
ATOM     56  C   UNL A   1      51.901  26.255  26.685  1.00  0.00     0.198 A 
ATOM     57  F   UNL A   1      50.268  26.462  28.363  1.00  0.00    -0.203 F 
ATOM     58  F   UNL A   1      51.673  26.728  23.102  1.00  0.00    -0.200 F 
ATOM     59  C   UNL A   1      52.266  26.317  25.350  1.00  0.00     0.200 A 
ATOM     60  F   UNL A   1      52.801  25.898  27.611  1.00  0.00    -0.200 F 
ATOM     61  F   UNL A   1      53.514  25.998  24.979  1.00  0.00    -0.200 F 
ENDBRANCH  27  51
BRANCH  39  62
ATOM     62  C   UNL A   1      46.427  32.740  28.349  1.00  0.00     0.064 A 
ATOM     63  C   UNL A   1      47.008  33.136  29.561  1.00  0.00     0.173 A 
ATOM     64  C   UNL A   1      46.355  33.679  27.309  1.00  0.00     0.173 A 
ATOM     65  F   UNL A   1      47.083  32.275  30.587  1.00  0.00    -0.203 F 
ATOM     66  C   UNL A   1      47.477  34.434  29.734  1.00  0.00     0.198 A 
ATOM     67  C   UNL A   1      46.854  34.966  27.476  1.00  0.00     0.198 A 
ATOM     68  F   UNL A   1      45.813  33.342  26.129  1.00  0.00    -0.203 F 
ATOM     69  F   UNL A   1      47.984  34.808  30.917  1.00  0.00    -0.200 F 
ATOM     70  C   UNL A   1      47.407  35.344  28.690  1.00  0.00     0.200 A 
ATOM     71  F   UNL A   1      46.799  35.840  26.462  1.00  0.00    -0.200 F 
ATOM     72  F   UNL A   1      47.867  36.592  28.856  1.00  0.00    -0.200 F 
ENDBRANCH  39  62
ENDBRANCH  13  14
ENDBRANCH   6   8
ENDBRANCH   5   6
ENDBRANCH   4   5
ENDBRANCH   3   4
ENDBRANCH   2   3
ENDBRANCH   1   2
BRANCH   1  73
ATOM     73  C   UNL A   1      37.161  22.279  25.046  1.00  0.00     0.261 C 
BRANCH  73  74
ATOM     74  O   UNL A   1      36.156  21.396  24.547  1.00  0.00    -0.460 OA
BRANCH  74  75
ATOM     75  C   UNL A   1      35.255  20.895  25.425  1.00  0.00     0.338 C 
ATOM     76  O   UNL A   1      34.980  21.306  26.539  1.00  0.00    -0.246 OA
BRANCH  75  77
ATOM     77  C   UNL A   1      34.524  19.826  24.710  1.00  0.00     0.071 A 
ATOM     78  C   UNL A   1      35.153  18.577  24.626  1.00  0.00     0.016 A 
ATOM     79  C   UNL A   1      33.199  20.007  24.269  1.00  0.00     0.032 A 
ATOM     80  C   UNL A   1      34.436  17.473  24.170  1.00  0.00     0.001 A 
ATOM     81  C   UNL A   1      32.493  18.884  23.819  1.00  0.00     0.013 A 
ATOM     82  C   UNL A   1      33.105  17.625  23.780  1.00  0.00     0.001 A 
BRANCH  79  83
ATOM     83  C   UNL A   1      32.561  21.316  24.343  1.00  0.00     0.135 A 
ATOM     84  C   UNL A   1      31.625  21.875  25.186  1.00  0.00     0.051 A 
ATOM     85  O   UNL A   1      32.757  22.129  23.273  1.00  0.00    -0.457 OA
ATOM     86  C   UNL A   1      31.140  23.024  24.519  1.00  0.00     0.051 A 
ATOM     87  C   UNL A   1      31.832  23.145  23.320  1.00  0.00     0.128 A 
BRANCH  87  88
ATOM     88  C   UNL A   1      31.689  24.146  22.323  1.00  0.00     0.066 C 
ATOM     89  C   UNL A   1      31.902  25.457  22.525  1.00  0.00     0.106 C 
ATOM     90  C   UNL A   1      32.450  26.108  23.741  1.00  0.00     0.272 C 
ATOM     91  C   UNL A   1      31.454  26.404  21.522  1.00  0.00     0.228 C 
ATOM     92  O   UNL A   1      33.383  25.593  24.352  1.00  0.00    -0.268 OA
ATOM     93  N   UNL A   1      31.838  27.333  24.025  1.00  0.00    -0.226 N 
ATOM     94  N   UNL A   1      31.119  27.616  21.739  1.00  0.00    -0.156 NA
ATOM     95  C   UNL A   1      31.133  28.066  23.042  1.00  0.00     0.358 C 
ATOM     96  O   UNL A   1      30.563  29.127  23.285  1.00  0.00    -0.245 OA
BRANCH  91  97
ATOM     97  O   UNL A   1      31.403  25.953  20.263  1.00  0.00    -0.493 OA
ATOM     98  H   UNL A   1      31.245  25.045  20.097  1.00  0.00     0.295 HD
ENDBRANCH  91  97
BRANCH  93  99
ATOM     99  C   UNL A   1      31.967  27.884  25.352  1.00  0.00     0.055 A 
ATOM    100  C   UNL A   1      31.257  27.325  26.429  1.00  0.00     0.027 A 
ATOM    101  C   UNL A   1      32.825  28.963  25.622  1.00  0.00     0.042 A 
ATOM    102  C   UNL A   1      31.401  27.817  27.730  1.00  0.00     0.003 A 
ATOM    103  C   UNL A   1      32.957  29.460  26.923  1.00  0.00     0.020 A 
ATOM    104  C   UNL A   1      32.253  28.890  27.978  1.00  0.00     0.016 A 
ATOM    105  Br  UNL A   1      34.105  30.928  27.251  1.00  0.00    -0.051 Br
ENDBRANCH  93  99
ENDBRANCH  87  88
ENDBRANCH  79  83
ENDBRANCH  75  77
ENDBRANCH  74  75
ENDBRANCH  73  74
ENDBRANCH   1  73
TORSDOF 18
ENDMDL
