MODEL 1
REMARK VINA RESULT:     -11.7      0.000      0.000
REMARK SMILES N#Cc1ccccc1S(=O)(=O)N1CCC(C(=O)OCCOCCOC(=O)c2ccc(-c3c4nc(c(-c5c(F)c(F)c(F)c(F)c5F)c5ccc([nH]5)c(-c5c(F)c(F)c(F)c(F)c5F)c5nc(c(-c6c(F)c(F)c(F)c(F)c6F)c6ccc3[nH]6)C=C5)C=C4)cc2)CC1
REMARK SMILES IDX 20 1 19 2 18 3 16 4 17 5 15 6 12 7 13 8 91 9 14 10 90 11
REMARK SMILES IDX 9 12 10 13 11 14 8 15 3 16 4 17 5 18 7 19 6 20 2 21 1 22
REMARK SMILES IDX 21 23 22 24 23 25 24 26 25 27 26 28 27 29 28 30 89 31 29 32
REMARK SMILES IDX 88 33 30 34 31 35 32 36 82 37 33 38 87 39 81 40 83 41 34 42
REMARK SMILES IDX 86 43 80 44 79 45 35 47 67 48 47 49 66 50 48 51 51 52 65 53
REMARK SMILES IDX 84 54 49 55 50 56 64 58 85 59 52 60 36 61 37 62 45 63 38 64
REMARK SMILES IDX 39 65 43 66 46 67 40 68 41 69 44 70 42 71 68 72 69 73 77 74
REMARK SMILES IDX 70 75 71 76 75 77 78 78 72 79 73 80 76 81 74 82 53 83 54 84
REMARK SMILES IDX 62 85 55 86 56 87 60 88 63 89 57 90 58 91 61 92 59 93
REMARK H PARENT 83 46 51 57
REMARK Flexibility Score: inf
ROOT
ATOM      1  C   UNL A   1      39.967  21.671  26.515  1.00  0.00     0.202 C 
ENDROOT
BRANCH   1   2
ATOM      2  C   UNL A   1      38.845  20.961  25.756  1.00  0.00     0.261 C 
BRANCH   2   3
ATOM      3  O   UNL A   1      37.766  21.845  25.436  1.00  0.00    -0.463 OA
BRANCH   3   4
ATOM      4  C   UNL A   1      36.570  21.231  25.257  1.00  0.00     0.309 C 
ATOM      5  O   UNL A   1      36.418  20.054  24.952  1.00  0.00    -0.252 OA
BRANCH   4   6
ATOM      6  C   UNL A   1      35.399  22.160  25.459  1.00  0.00     0.102 C 
ATOM      7  N   UNL A   1      33.245  24.011  25.109  1.00  0.00    -0.198 NA
ATOM      8  C   UNL A   1      34.476  24.521  25.746  1.00  0.00     0.103 C 
ATOM      9  C   UNL A   1      33.094  22.607  24.688  1.00  0.00     0.103 C 
ATOM     10  C   UNL A   1      35.712  23.648  25.573  1.00  0.00     0.032 C 
ATOM     11  C   UNL A   1      34.412  21.955  24.331  1.00  0.00     0.032 C 
BRANCH   7  12
ATOM     12  S   UNL A   1      31.841  24.928  25.300  1.00  0.00     0.244 S 
ATOM     13  O   UNL A   1      31.517  24.879  26.712  1.00  0.00    -0.207 OA
ATOM     14  O   UNL A   1      30.885  24.496  24.302  1.00  0.00    -0.207 OA
BRANCH  12  15
ATOM     15  C   UNL A   1      32.150  26.652  24.954  1.00  0.00     0.100 A 
ATOM     16  C   UNL A   1      32.794  27.205  23.846  1.00  0.00     0.072 A 
ATOM     17  C   UNL A   1      32.983  28.602  23.788  1.00  0.00     0.021 A 
ATOM     18  C   UNL A   1      32.503  29.443  24.789  1.00  0.00     0.001 A 
ATOM     19  C   UNL A   1      31.661  27.517  25.957  1.00  0.00     0.023 A 
ATOM     20  C   UNL A   1      31.827  28.898  25.870  1.00  0.00     0.001 A 
BRANCH  16  21
ATOM     21  C   UNL A   1      33.252  26.511  22.689  1.00  0.00     0.101 C 
ATOM     22  N   UNL A   1      33.644  26.059  21.693  1.00  0.00    -0.192 NA
ENDBRANCH  16  21
ENDBRANCH  12  15
ENDBRANCH   7  12
ENDBRANCH   4   6
ENDBRANCH   3   4
ENDBRANCH   2   3
ENDBRANCH   1   2
BRANCH   1  23
ATOM     23  O   UNL A   1      41.081  20.912  26.968  1.00  0.00    -0.374 OA
BRANCH  23  24
ATOM     24  C   UNL A   1      42.116  20.584  26.043  1.00  0.00     0.202 C 
BRANCH  24  25
ATOM     25  C   UNL A   1      43.197  21.633  25.728  1.00  0.00     0.261 C 
BRANCH  25  26
ATOM     26  O   UNL A   1      42.724  22.733  24.927  1.00  0.00    -0.460 OA
BRANCH  26  27
ATOM     27  C   UNL A   1      43.465  23.864  25.039  1.00  0.00     0.338 C 
ATOM     28  O   UNL A   1      44.463  24.162  24.404  1.00  0.00    -0.246 OA
BRANCH  27  29
ATOM     29  C   UNL A   1      42.788  24.838  25.915  1.00  0.00     0.060 A 
ATOM     30  C   UNL A   1      43.316  26.135  25.974  1.00  0.00     0.016 A 
ATOM     31  C   UNL A   1      41.741  24.458  26.753  1.00  0.00     0.016 A 
ATOM     32  C   UNL A   1      42.828  27.047  26.903  1.00  0.00     0.010 A 
ATOM     33  C   UNL A   1      41.257  25.374  27.694  1.00  0.00     0.010 A 
ATOM     34  C   UNL A   1      41.824  26.658  27.799  1.00  0.00    -0.014 A 
BRANCH  34  35
ATOM     35  C   UNL A   1      41.471  27.552  28.930  1.00  0.00     0.031 A 
ATOM     36  C   UNL A   1      42.293  27.504  30.188  1.00  0.00     0.074 A 
ATOM     37  C   UNL A   1      40.452  28.421  28.821  1.00  0.00     0.049 A 
ATOM     38  N   UNL A   1      42.133  28.159  31.312  1.00  0.00    -0.248 NA
ATOM     39  C   UNL A   1      43.449  26.594  30.183  1.00  0.00     0.031 C 
ATOM     40  C   UNL A   1      39.615  28.594  27.636  1.00  0.00     0.029 A 
ATOM     41  N   UNL A   1      39.944  29.319  29.727  1.00  0.00    -0.354 N 
ATOM     42  C   UNL A   1      43.157  27.729  32.147  1.00  0.00     0.074 A 
ATOM     43  C   UNL A   1      43.910  26.734  31.416  1.00  0.00     0.031 C 
ATOM     44  C   UNL A   1      38.690  29.535  27.889  1.00  0.00     0.029 A 
ATOM     45  C   UNL A   1      38.842  29.996  29.267  1.00  0.00     0.049 A 
ATOM     46  H   UNL A   1      40.333  29.462  30.620  1.00  0.00     0.167 HD
ATOM     47  C   UNL A   1      43.444  28.136  33.408  1.00  0.00     0.037 A 
ATOM     48  C   UNL A   1      38.032  30.867  29.899  1.00  0.00     0.037 A 
ATOM     49  C   UNL A   1      42.689  29.128  34.129  1.00  0.00     0.049 A 
ATOM     50  C   UNL A   1      38.323  31.238  31.331  1.00  0.00     0.074 A 
ATOM     51  C   UNL A   1      42.910  29.625  35.401  1.00  0.00     0.029 A 
ATOM     52  N   UNL A   1      41.554  29.765  33.645  1.00  0.00    -0.354 N 
ATOM     53  N   UNL A   1      39.305  30.850  32.106  1.00  0.00    -0.248 NA
ATOM     54  C   UNL A   1      37.390  32.175  31.974  1.00  0.00     0.031 C 
ATOM     55  C   UNL A   1      41.869  30.504  35.716  1.00  0.00     0.029 A 
ATOM     56  C   UNL A   1      41.043  30.621  34.609  1.00  0.00     0.049 A 
ATOM     57  H   UNL A   1      41.168  29.628  32.749  1.00  0.00     0.167 HD
ATOM     58  C   UNL A   1      39.130  31.518  33.311  1.00  0.00     0.074 A 
ATOM     59  C   UNL A   1      37.956  32.351  33.158  1.00  0.00     0.031 C 
ATOM     60  C   UNL A   1      39.875  31.450  34.444  1.00  0.00     0.037 A 
BRANCH  47  61
ATOM     61  C   UNL A   1      44.605  27.482  34.105  1.00  0.00     0.064 A 
ATOM     62  C   UNL A   1      44.461  26.291  34.834  1.00  0.00     0.173 A 
ATOM     63  C   UNL A   1      45.890  28.038  34.010  1.00  0.00     0.173 A 
ATOM     64  F   UNL A   1      43.254  25.720  34.964  1.00  0.00    -0.203 F 
ATOM     65  C   UNL A   1      45.553  25.700  35.466  1.00  0.00     0.198 A 
ATOM     66  C   UNL A   1      46.986  27.424  34.612  1.00  0.00     0.198 A 
ATOM     67  F   UNL A   1      46.089  29.172  33.320  1.00  0.00    -0.203 F 
ATOM     68  F   UNL A   1      45.382  24.593  36.201  1.00  0.00    -0.200 F 
ATOM     69  C   UNL A   1      46.816  26.262  35.347  1.00  0.00     0.200 A 
ATOM     70  F   UNL A   1      48.208  27.960  34.479  1.00  0.00    -0.200 F 
ATOM     71  F   UNL A   1      47.867  25.687  35.948  1.00  0.00    -0.200 F 
ENDBRANCH  47  61
BRANCH  48  72
ATOM     72  C   UNL A   1      36.853  31.435  29.191  1.00  0.00     0.064 A 
ATOM     73  C   UNL A   1      36.819  32.781  28.803  1.00  0.00     0.173 A 
ATOM     74  C   UNL A   1      35.726  30.648  28.907  1.00  0.00     0.173 A 
ATOM     75  F   UNL A   1      37.862  33.581  29.071  1.00  0.00    -0.203 F 
ATOM     76  C   UNL A   1      35.695  33.326  28.184  1.00  0.00     0.198 A 
ATOM     77  C   UNL A   1      34.618  31.184  28.255  1.00  0.00     0.198 A 
ATOM     78  F   UNL A   1      35.704  29.352  29.255  1.00  0.00    -0.203 F 
ATOM     79  F   UNL A   1      35.668  34.630  27.879  1.00  0.00    -0.200 F 
ATOM     80  C   UNL A   1      34.599  32.524  27.905  1.00  0.00     0.200 A 
ATOM     81  F   UNL A   1      33.567  30.402  27.972  1.00  0.00    -0.200 F 
ATOM     82  F   UNL A   1      33.519  33.048  27.307  1.00  0.00    -0.200 F 
ENDBRANCH  48  72
BRANCH  60  83
ATOM     83  C   UNL A   1      39.474  32.334  35.593  1.00  0.00     0.064 A 
ATOM     84  C   UNL A   1      38.606  31.893  36.603  1.00  0.00     0.173 A 
ATOM     85  C   UNL A   1      39.999  33.632  35.705  1.00  0.00     0.173 A 
ATOM     86  F   UNL A   1      38.066  30.665  36.542  1.00  0.00    -0.203 F 
ATOM     87  C   UNL A   1      38.250  32.728  37.659  1.00  0.00     0.198 A 
ATOM     88  C   UNL A   1      39.673  34.450  36.783  1.00  0.00     0.198 A 
ATOM     89  F   UNL A   1      40.842  34.104  34.773  1.00  0.00    -0.203 F 
ATOM     90  F   UNL A   1      37.369  32.307  38.577  1.00  0.00    -0.200 F 
ATOM     91  C   UNL A   1      38.789  34.003  37.753  1.00  0.00     0.200 A 
ATOM     92  F   UNL A   1      40.213  35.673  36.882  1.00  0.00    -0.200 F 
ATOM     93  F   UNL A   1      38.453  34.801  38.774  1.00  0.00    -0.200 F 
ENDBRANCH  60  83
ENDBRANCH  34  35
ENDBRANCH  27  29
ENDBRANCH  26  27
ENDBRANCH  25  26
ENDBRANCH  24  25
ENDBRANCH  23  24
ENDBRANCH   1  23
TORSDOF 17
ENDMDL
MODEL 2
REMARK VINA RESULT:     -11.6      1.517      2.294
REMARK SMILES N#Cc1ccccc1S(=O)(=O)N1CCC(C(=O)OCCOCCOC(=O)c2ccc(-c3c4nc(c(-c5c(F)c(F)c(F)c(F)c5F)c5ccc([nH]5)c(-c5c(F)c(F)c(F)c(F)c5F)c5nc(c(-c6c(F)c(F)c(F)c(F)c6F)c6ccc3[nH]6)C=C5)C=C4)cc2)CC1
REMARK SMILES IDX 20 1 19 2 18 3 16 4 17 5 15 6 12 7 13 8 91 9 14 10 90 11
REMARK SMILES IDX 9 12 10 13 11 14 8 15 3 16 4 17 5 18 7 19 6 20 2 21 1 22
REMARK SMILES IDX 21 23 22 24 23 25 24 26 25 27 26 28 27 29 28 30 89 31 29 32
REMARK SMILES IDX 88 33 30 34 31 35 32 36 82 37 33 38 87 39 81 40 83 41 34 42
REMARK SMILES IDX 86 43 80 44 79 45 35 47 67 48 47 49 66 50 48 51 51 52 65 53
REMARK SMILES IDX 84 54 49 55 50 56 64 58 85 59 52 60 36 61 37 62 45 63 38 64
REMARK SMILES IDX 39 65 43 66 46 67 40 68 41 69 44 70 42 71 68 72 69 73 77 74
REMARK SMILES IDX 70 75 71 76 75 77 78 78 72 79 73 80 76 81 74 82 53 83 54 84
REMARK SMILES IDX 62 85 55 86 56 87 60 88 63 89 57 90 58 91 61 92 59 93
REMARK H PARENT 83 46 51 57
REMARK Flexibility Score: inf
ROOT
ATOM      1  C   UNL A   1      41.882  20.175  26.092  1.00  0.00     0.202 C 
ENDROOT
BRANCH   1   2
ATOM      2  C   UNL A   1      41.070  21.461  26.256  1.00  0.00     0.261 C 
BRANCH   2   3
ATOM      3  O   UNL A   1      39.684  21.266  25.958  1.00  0.00    -0.463 OA
BRANCH   3   4
ATOM      4  C   UNL A   1      38.908  22.361  26.154  1.00  0.00     0.309 C 
ATOM      5  O   UNL A   1      39.197  23.314  26.867  1.00  0.00    -0.252 OA
BRANCH   4   6
ATOM      6  C   UNL A   1      37.601  22.294  25.403  1.00  0.00     0.102 C 
ATOM      7  N   UNL A   1      34.856  22.447  24.611  1.00  0.00    -0.198 NA
ATOM      8  C   UNL A   1      35.402  21.105  24.897  1.00  0.00     0.103 C 
ATOM      9  C   UNL A   1      35.674  23.669  24.693  1.00  0.00     0.103 C 
ATOM     10  C   UNL A   1      36.713  21.084  25.671  1.00  0.00     0.032 C 
ATOM     11  C   UNL A   1      36.809  23.552  25.687  1.00  0.00     0.032 C 
BRANCH   7  12
ATOM     12  S   UNL A   1      33.420  22.523  23.728  1.00  0.00     0.244 S 
ATOM     13  O   UNL A   1      32.827  21.203  23.808  1.00  0.00    -0.207 OA
ATOM     14  O   UNL A   1      33.713  23.128  22.446  1.00  0.00    -0.207 OA
BRANCH  12  15
ATOM     15  C   UNL A   1      32.242  23.609  24.513  1.00  0.00     0.100 A 
ATOM     16  C   UNL A   1      31.925  23.700  25.870  1.00  0.00     0.072 A 
ATOM     17  C   UNL A   1      30.918  24.598  26.282  1.00  0.00     0.021 A 
ATOM     18  C   UNL A   1      30.265  25.425  25.373  1.00  0.00     0.001 A 
ATOM     19  C   UNL A   1      31.577  24.461  23.603  1.00  0.00     0.023 A 
ATOM     20  C   UNL A   1      30.607  25.367  24.030  1.00  0.00     0.001 A 
BRANCH  16  21
ATOM     21  C   UNL A   1      32.560  23.010  26.943  1.00  0.00     0.101 C 
ATOM     22  N   UNL A   1      32.961  22.418  27.859  1.00  0.00    -0.192 NA
ENDBRANCH  16  21
ENDBRANCH  12  15
ENDBRANCH   7  12
ENDBRANCH   4   6
ENDBRANCH   3   4
ENDBRANCH   2   3
ENDBRANCH   1   2
BRANCH   1  23
ATOM     23  O   UNL A   1      43.067  20.203  25.308  1.00  0.00    -0.374 OA
BRANCH  23  24
ATOM     24  C   UNL A   1      44.003  21.260  25.508  1.00  0.00     0.202 C 
BRANCH  24  25
ATOM     25  C   UNL A   1      44.211  22.297  24.390  1.00  0.00     0.261 C 
BRANCH  25  26
ATOM     26  O   UNL A   1      43.460  23.511  24.578  1.00  0.00    -0.460 OA
BRANCH  26  27
ATOM     27  C   UNL A   1      44.199  24.561  25.019  1.00  0.00     0.338 C 
ATOM     28  O   UNL A   1      45.298  24.912  24.625  1.00  0.00    -0.246 OA
BRANCH  27  29
ATOM     29  C   UNL A   1      43.404  25.398  25.936  1.00  0.00     0.060 A 
ATOM     30  C   UNL A   1      43.768  26.746  26.066  1.00  0.00     0.016 A 
ATOM     31  C   UNL A   1      42.408  24.851  26.743  1.00  0.00     0.016 A 
ATOM     32  C   UNL A   1      43.169  27.543  27.035  1.00  0.00     0.010 A 
ATOM     33  C   UNL A   1      41.813  25.651  27.725  1.00  0.00     0.010 A 
ATOM     34  C   UNL A   1      42.217  26.988  27.901  1.00  0.00    -0.014 A 
BRANCH  34  35
ATOM     35  C   UNL A   1      41.753  27.772  29.071  1.00  0.00     0.031 A 
ATOM     36  C   UNL A   1      42.495  27.657  30.374  1.00  0.00     0.074 A 
ATOM     37  C   UNL A   1      40.704  28.606  28.963  1.00  0.00     0.049 A 
ATOM     38  N   UNL A   1      42.235  28.212  31.532  1.00  0.00    -0.248 NA
ATOM     39  C   UNL A   1      43.690  26.798  30.374  1.00  0.00     0.031 C 
ATOM     40  C   UNL A   1      39.936  28.839  27.742  1.00  0.00     0.029 A 
ATOM     41  N   UNL A   1      40.099  29.406  29.900  1.00  0.00    -0.354 N 
ATOM     42  C   UNL A   1      43.223  27.758  32.397  1.00  0.00     0.074 A 
ATOM     43  C   UNL A   1      44.066  26.857  31.642  1.00  0.00     0.031 C 
ATOM     44  C   UNL A   1      38.955  29.718  28.006  1.00  0.00     0.029 A 
ATOM     45  C   UNL A   1      38.998  30.072  29.423  1.00  0.00     0.049 A 
ATOM     46  H   UNL A   1      40.424  29.492  30.826  1.00  0.00     0.167 HD
ATOM     47  C   UNL A   1      43.411  28.073  33.702  1.00  0.00     0.037 A 
ATOM     48  C   UNL A   1      38.111  30.855  30.065  1.00  0.00     0.037 A 
ATOM     49  C   UNL A   1      42.568  28.972  34.446  1.00  0.00     0.049 A 
ATOM     50  C   UNL A   1      38.294  31.122  31.538  1.00  0.00     0.074 A 
ATOM     51  C   UNL A   1      42.686  29.373  35.765  1.00  0.00     0.029 A 
ATOM     52  N   UNL A   1      41.437  29.599  33.940  1.00  0.00    -0.354 N 
ATOM     53  N   UNL A   1      39.243  30.713  32.344  1.00  0.00    -0.248 NA
ATOM     54  C   UNL A   1      37.281  31.965  32.189  1.00  0.00     0.031 C 
ATOM     55  C   UNL A   1      41.588  30.182  36.078  1.00  0.00     0.029 A 
ATOM     56  C   UNL A   1      40.829  30.353  34.931  1.00  0.00     0.049 A 
ATOM     57  H   UNL A   1      41.115  29.520  33.012  1.00  0.00     0.167 HD
ATOM     58  C   UNL A   1      38.962  31.274  33.583  1.00  0.00     0.074 A 
ATOM     59  C   UNL A   1      37.762  32.067  33.418  1.00  0.00     0.031 C 
ATOM     60  C   UNL A   1      39.637  31.144  34.754  1.00  0.00     0.037 A 
BRANCH  47  61
ATOM     61  C   UNL A   1      44.555  27.414  34.422  1.00  0.00     0.064 A 
ATOM     62  C   UNL A   1      44.411  26.181  35.078  1.00  0.00     0.173 A 
ATOM     63  C   UNL A   1      45.827  28.007  34.422  1.00  0.00     0.173 A 
ATOM     64  F   UNL A   1      43.215  25.572  35.116  1.00  0.00    -0.203 F 
ATOM     65  C   UNL A   1      45.487  25.586  35.732  1.00  0.00     0.198 A 
ATOM     66  C   UNL A   1      46.909  27.391  35.045  1.00  0.00     0.198 A 
ATOM     67  F   UNL A   1      46.026  29.182  33.804  1.00  0.00    -0.203 F 
ATOM     68  F   UNL A   1      45.311  24.436  36.398  1.00  0.00    -0.200 F 
ATOM     69  C   UNL A   1      46.737  26.186  35.708  1.00  0.00     0.200 A 
ATOM     70  F   UNL A   1      48.120  27.965  35.003  1.00  0.00    -0.200 F 
ATOM     71  F   UNL A   1      47.773  25.607  36.330  1.00  0.00    -0.200 F 
ENDBRANCH  47  61
BRANCH  48  72
ATOM     72  C   UNL A   1      36.955  31.430  29.327  1.00  0.00     0.064 A 
ATOM     73  C   UNL A   1      36.921  32.785  28.972  1.00  0.00     0.173 A 
ATOM     74  C   UNL A   1      35.847  30.640  28.980  1.00  0.00     0.173 A 
ATOM     75  F   UNL A   1      37.944  33.588  29.301  1.00  0.00    -0.203 F 
ATOM     76  C   UNL A   1      35.816  33.335  28.325  1.00  0.00     0.198 A 
ATOM     77  C   UNL A   1      34.759  31.182  28.299  1.00  0.00     0.198 A 
ATOM     78  F   UNL A   1      35.826  29.336  29.294  1.00  0.00    -0.203 F 
ATOM     79  F   UNL A   1      35.787  34.646  28.052  1.00  0.00    -0.200 F 
ATOM     80  C   UNL A   1      34.739  32.531  27.983  1.00  0.00     0.200 A 
ATOM     81  F   UNL A   1      33.728  30.397  27.957  1.00  0.00    -0.200 F 
ATOM     82  F   UNL A   1      33.678  33.059  27.358  1.00  0.00    -0.200 F 
ENDBRANCH  48  72
BRANCH  60  83
ATOM     83  C   UNL A   1      39.124  31.916  35.940  1.00  0.00     0.064 A 
ATOM     84  C   UNL A   1      39.512  33.241  36.189  1.00  0.00     0.173 A 
ATOM     85  C   UNL A   1      38.200  31.331  36.820  1.00  0.00     0.173 A 
ATOM     86  F   UNL A   1      40.402  33.847  35.387  1.00  0.00    -0.203 F 
ATOM     87  C   UNL A   1      39.024  33.937  37.292  1.00  0.00     0.198 A 
ATOM     88  C   UNL A   1      37.682  32.042  37.899  1.00  0.00     0.198 A 
ATOM     89  F   UNL A   1      37.785  30.069  36.625  1.00  0.00    -0.203 F 
ATOM     90  F   UNL A   1      39.458  35.179  37.545  1.00  0.00    -0.200 F 
ATOM     91  C   UNL A   1      38.103  33.340  38.141  1.00  0.00     0.200 A 
ATOM     92  F   UNL A   1      36.776  31.470  38.704  1.00  0.00    -0.200 F 
ATOM     93  F   UNL A   1      37.627  34.014  39.196  1.00  0.00    -0.200 F 
ENDBRANCH  60  83
ENDBRANCH  34  35
ENDBRANCH  27  29
ENDBRANCH  26  27
ENDBRANCH  25  26
ENDBRANCH  24  25
ENDBRANCH  23  24
ENDBRANCH   1  23
TORSDOF 17
ENDMDL
MODEL 3
REMARK VINA RESULT:     -11.5      4.387      6.464
REMARK SMILES N#Cc1ccccc1S(=O)(=O)N1CCC(C(=O)OCCOCCOC(=O)c2ccc(-c3c4nc(c(-c5c(F)c(F)c(F)c(F)c5F)c5ccc([nH]5)c(-c5c(F)c(F)c(F)c(F)c5F)c5nc(c(-c6c(F)c(F)c(F)c(F)c6F)c6ccc3[nH]6)C=C5)C=C4)cc2)CC1
REMARK SMILES IDX 20 1 19 2 18 3 16 4 17 5 15 6 12 7 13 8 91 9 14 10 90 11
REMARK SMILES IDX 9 12 10 13 11 14 8 15 3 16 4 17 5 18 7 19 6 20 2 21 1 22
REMARK SMILES IDX 21 23 22 24 23 25 24 26 25 27 26 28 27 29 28 30 89 31 29 32
REMARK SMILES IDX 88 33 30 34 31 35 32 36 82 37 33 38 87 39 81 40 83 41 34 42
REMARK SMILES IDX 86 43 80 44 79 45 35 47 67 48 47 49 66 50 48 51 51 52 65 53
REMARK SMILES IDX 84 54 49 55 50 56 64 58 85 59 52 60 36 61 37 62 45 63 38 64
REMARK SMILES IDX 39 65 43 66 46 67 40 68 41 69 44 70 42 71 68 72 69 73 77 74
REMARK SMILES IDX 70 75 71 76 75 77 78 78 72 79 73 80 76 81 74 82 53 83 54 84
REMARK SMILES IDX 62 85 55 86 56 87 60 88 63 89 57 90 58 91 61 92 59 93
REMARK H PARENT 83 46 51 57
REMARK Flexibility Score: inf
ROOT
ATOM      1  C   UNL A   1      36.170  21.264  24.623  1.00  0.00     0.202 C 
ENDROOT
BRANCH   1   2
ATOM      2  C   UNL A   1      35.127  20.274  25.144  1.00  0.00     0.261 C 
BRANCH   2   3
ATOM      3  O   UNL A   1      33.986  20.190  24.285  1.00  0.00    -0.463 OA
BRANCH   3   4
ATOM      4  C   UNL A   1      32.802  20.059  24.934  1.00  0.00     0.309 C 
ATOM      5  O   UNL A   1      32.305  18.998  25.290  1.00  0.00    -0.252 OA
BRANCH   4   6
ATOM      6  C   UNL A   1      32.118  21.382  25.175  1.00  0.00     0.102 C 
ATOM      7  N   UNL A   1      31.444  24.158  25.336  1.00  0.00    -0.198 NA
ATOM      8  C   UNL A   1      31.794  23.475  26.597  1.00  0.00     0.103 C 
ATOM      9  C   UNL A   1      31.406  23.458  24.040  1.00  0.00     0.103 C 
ATOM     10  C   UNL A   1      32.506  22.138  26.441  1.00  0.00     0.032 C 
ATOM     11  C   UNL A   1      32.353  22.280  23.980  1.00  0.00     0.032 C 
BRANCH   7  12
ATOM     12  S   UNL A   1      30.624  25.629  25.457  1.00  0.00     0.244 S 
ATOM     13  O   UNL A   1      29.794  25.531  26.641  1.00  0.00    -0.207 OA
ATOM     14  O   UNL A   1      30.044  25.926  24.165  1.00  0.00    -0.207 OA
BRANCH  12  15
ATOM     15  C   UNL A   1      31.757  26.967  25.793  1.00  0.00     0.100 A 
ATOM     16  C   UNL A   1      32.900  27.327  25.078  1.00  0.00     0.072 A 
ATOM     17  C   UNL A   1      33.694  28.396  25.544  1.00  0.00     0.021 A 
ATOM     18  C   UNL A   1      33.339  29.125  26.676  1.00  0.00     0.001 A 
ATOM     19  C   UNL A   1      31.405  27.720  26.934  1.00  0.00     0.023 A 
ATOM     20  C   UNL A   1      32.182  28.795  27.364  1.00  0.00     0.001 A 
BRANCH  16  21
ATOM     21  C   UNL A   1      33.352  26.764  23.849  1.00  0.00     0.101 C 
ATOM     22  N   UNL A   1      33.602  26.258  22.833  1.00  0.00    -0.192 NA
ENDBRANCH  16  21
ENDBRANCH  12  15
ENDBRANCH   7  12
ENDBRANCH   4   6
ENDBRANCH   3   4
ENDBRANCH   2   3
ENDBRANCH   1   2
BRANCH   1  23
ATOM     23  O   UNL A   1      37.546  21.012  24.875  1.00  0.00    -0.374 OA
BRANCH  23  24
ATOM     24  C   UNL A   1      37.997  19.661  24.959  1.00  0.00     0.202 C 
BRANCH  24  25
ATOM     25  C   UNL A   1      39.275  19.348  25.757  1.00  0.00     0.261 C 
BRANCH  25  26
ATOM     26  O   UNL A   1      40.182  20.462  25.862  1.00  0.00    -0.460 OA
BRANCH  26  27
ATOM     27  C   UNL A   1      40.843  20.534  27.045  1.00  0.00     0.338 C 
ATOM     28  O   UNL A   1      41.398  19.626  27.640  1.00  0.00    -0.246 OA
BRANCH  27  29
ATOM     29  C   UNL A   1      41.000  21.940  27.461  1.00  0.00     0.060 A 
ATOM     30  C   UNL A   1      40.420  22.926  26.650  1.00  0.00     0.016 A 
ATOM     31  C   UNL A   1      41.800  22.293  28.546  1.00  0.00     0.016 A 
ATOM     32  C   UNL A   1      40.674  24.271  26.893  1.00  0.00     0.010 A 
ATOM     33  C   UNL A   1      42.063  23.646  28.785  1.00  0.00     0.010 A 
ATOM     34  C   UNL A   1      41.533  24.638  27.937  1.00  0.00    -0.014 A 
BRANCH  34  35
ATOM     35  C   UNL A   1      41.980  26.049  28.050  1.00  0.00     0.031 A 
ATOM     36  C   UNL A   1      43.306  26.448  27.463  1.00  0.00     0.074 A 
ATOM     37  C   UNL A   1      41.196  26.969  28.636  1.00  0.00     0.049 A 
ATOM     38  N   UNL A   1      43.912  27.608  27.489  1.00  0.00    -0.248 NA
ATOM     39  C   UNL A   1      44.052  25.396  26.754  1.00  0.00     0.031 C 
ATOM     40  C   UNL A   1      39.871  26.714  29.198  1.00  0.00     0.029 A 
ATOM     41  N   UNL A   1      41.407  28.307  28.863  1.00  0.00    -0.354 N 
ATOM     42  C   UNL A   1      45.113  27.422  26.815  1.00  0.00     0.074 A 
ATOM     43  C   UNL A   1      45.166  26.031  26.422  1.00  0.00     0.031 C 
ATOM     44  C   UNL A   1      39.389  27.857  29.713  1.00  0.00     0.029 A 
ATOM     45  C   UNL A   1      40.389  28.911  29.557  1.00  0.00     0.049 A 
ATOM     46  H   UNL A   1      42.211  28.786  28.556  1.00  0.00     0.167 HD
ATOM     47  C   UNL A   1      46.078  28.334  26.544  1.00  0.00     0.037 A 
ATOM     48  C   UNL A   1      40.291  30.165  30.039  1.00  0.00     0.037 A 
ATOM     49  C   UNL A   1      46.017  29.718  26.938  1.00  0.00     0.049 A 
ATOM     50  C   UNL A   1      41.418  31.137  29.797  1.00  0.00     0.074 A 
ATOM     51  C   UNL A   1      46.932  30.726  26.693  1.00  0.00     0.029 A 
ATOM     52  N   UNL A   1      44.987  30.286  27.676  1.00  0.00    -0.354 N 
ATOM     53  N   UNL A   1      42.536  30.964  29.137  1.00  0.00    -0.248 NA
ATOM     54  C   UNL A   1      41.263  32.484  30.366  1.00  0.00     0.031 C 
ATOM     55  C   UNL A   1      46.494  31.884  27.346  1.00  0.00     0.029 A 
ATOM     56  C   UNL A   1      45.265  31.621  27.927  1.00  0.00     0.049 A 
ATOM     57  H   UNL A   1      44.179  29.810  27.977  1.00  0.00     0.167 HD
ATOM     58  C   UNL A   1      43.201  32.183  29.182  1.00  0.00     0.074 A 
ATOM     59  C   UNL A   1      42.350  33.093  29.920  1.00  0.00     0.031 C 
ATOM     60  C   UNL A   1      44.407  32.520  28.659  1.00  0.00     0.037 A 
BRANCH  47  61
ATOM     61  C   UNL A   1      47.303  27.858  25.813  1.00  0.00     0.064 A 
ATOM     62  C   UNL A   1      48.460  27.441  26.491  1.00  0.00     0.173 A 
ATOM     63  C   UNL A   1      47.305  27.780  24.412  1.00  0.00     0.173 A 
ATOM     64  F   UNL A   1      48.517  27.502  27.831  1.00  0.00    -0.203 F 
ATOM     65  C   UNL A   1      49.580  26.998  25.793  1.00  0.00     0.198 A 
ATOM     66  C   UNL A   1      48.414  27.300  23.719  1.00  0.00     0.198 A 
ATOM     67  F   UNL A   1      46.224  28.157  23.711  1.00  0.00    -0.203 F 
ATOM     68  F   UNL A   1      50.692  26.658  26.460  1.00  0.00    -0.200 F 
ATOM     69  C   UNL A   1      49.554  26.919  24.409  1.00  0.00     0.200 A 
ATOM     70  F   UNL A   1      48.377  27.208  22.382  1.00  0.00    -0.200 F 
ATOM     71  F   UNL A   1      50.629  26.482  23.739  1.00  0.00    -0.200 F 
ENDBRANCH  47  61
BRANCH  48  72
ATOM     72  C   UNL A   1      39.090  30.572  30.817  1.00  0.00     0.064 A 
ATOM     73  C   UNL A   1      39.053  30.447  32.212  1.00  0.00     0.173 A 
ATOM     74  C   UNL A   1      37.944  31.073  30.178  1.00  0.00     0.173 A 
ATOM     75  F   UNL A   1      40.113  29.951  32.868  1.00  0.00    -0.203 F 
ATOM     76  C   UNL A   1      37.910  30.780  32.936  1.00  0.00     0.198 A 
ATOM     77  C   UNL A   1      36.816  31.442  30.907  1.00  0.00     0.198 A 
ATOM     78  F   UNL A   1      37.925  31.215  28.844  1.00  0.00    -0.203 F 
ATOM     79  F   UNL A   1      37.882  30.594  34.263  1.00  0.00    -0.200 F 
ATOM     80  C   UNL A   1      36.795  31.284  32.283  1.00  0.00     0.200 A 
ATOM     81  F   UNL A   1      35.747  31.944  30.273  1.00  0.00    -0.200 F 
ATOM     82  F   UNL A   1      35.697  31.608  32.981  1.00  0.00    -0.200 F 
ENDBRANCH  48  72
BRANCH  60  83
ATOM     83  C   UNL A   1      44.861  33.946  28.821  1.00  0.00     0.064 A 
ATOM     84  C   UNL A   1      44.534  34.941  27.887  1.00  0.00     0.173 A 
ATOM     85  C   UNL A   1      45.603  34.329  29.950  1.00  0.00     0.173 A 
ATOM     86  F   UNL A   1      43.837  34.629  26.783  1.00  0.00    -0.203 F 
ATOM     87  C   UNL A   1      44.964  36.254  28.057  1.00  0.00     0.198 A 
ATOM     88  C   UNL A   1      45.996  35.651  30.139  1.00  0.00     0.198 A 
ATOM     89  F   UNL A   1      45.936  33.422  30.881  1.00  0.00    -0.203 F 
ATOM     90  F   UNL A   1      44.695  37.173  27.120  1.00  0.00    -0.200 F 
ATOM     91  C   UNL A   1      45.687  36.610  29.187  1.00  0.00     0.200 A 
ATOM     92  F   UNL A   1      46.675  35.996  31.241  1.00  0.00    -0.200 F 
ATOM     93  F   UNL A   1      46.091  37.876  29.354  1.00  0.00    -0.200 F 
ENDBRANCH  60  83
ENDBRANCH  34  35
ENDBRANCH  27  29
ENDBRANCH  26  27
ENDBRANCH  25  26
ENDBRANCH  24  25
ENDBRANCH  23  24
ENDBRANCH   1  23
TORSDOF 17
ENDMDL
