MODEL 1
REMARK VINA RESULT:     -11.2      0.000      0.000
REMARK SMILES CCC[C@@]1(C(=O)OCCOCCOC(=O)c2ccc(-c3c4nc(c(-c5c(F)c(F)c(F)c(F)c5F)c5ccc([nH]5)c(-c5c(F)c(F)c(F)c(F)c5F)c5nc(c(-c6c(F)c(F)c(F)c(F)c6F)c6ccc3[nH]6)C=C5)C=C4)cc2)CCN(C(=O)NC[C@]2(C)CCCO2)C1
REMARK SMILES IDX 9 1 8 2 7 3 5 4 6 5 4 6 79 7 92 8 80 9 81 10 3 11 2 12 1 13
REMARK SMILES IDX 82 14 83 15 84 16 85 18 86 19 88 20 91 21 87 22 89 23 90 24
REMARK SMILES IDX 10 25 11 26 12 27 13 28 14 29 15 30 16 31 17 32 78 33 18 34
REMARK SMILES IDX 77 35 19 36 20 37 21 38 71 39 22 40 76 41 70 42 72 43 23 44
REMARK SMILES IDX 75 45 69 46 68 47 24 49 56 50 36 51 55 52 37 53 40 54 54 55
REMARK SMILES IDX 73 56 38 57 39 58 53 60 74 61 41 62 25 63 26 64 34 65 27 66
REMARK SMILES IDX 28 67 32 68 35 69 29 70 30 71 33 72 31 73 57 74 58 75 66 76
REMARK SMILES IDX 59 77 60 78 64 79 67 80 61 81 62 82 65 83 63 84 42 85 43 86
REMARK SMILES IDX 51 87 44 88 45 89 49 90 52 91 46 92 47 93 50 94 48 95
REMARK H PARENT 84 17 72 48 40 59
REMARK Flexibility Score: inf
ROOT
ATOM      1  C   UNL A   1      33.894  27.807  25.511  1.00  0.00     0.202 C 
ENDROOT
BRANCH   1   2
ATOM      2  C   UNL A   1      32.868  26.695  25.293  1.00  0.00     0.261 C 
BRANCH   2   3
ATOM      3  O   UNL A   1      33.522  25.417  25.195  1.00  0.00    -0.463 OA
BRANCH   3   4
ATOM      4  C   UNL A   1      33.889  25.027  23.945  1.00  0.00     0.314 C 
ATOM      5  O   UNL A   1      33.765  25.737  22.955  1.00  0.00    -0.252 OA
BRANCH   4   6
ATOM      6  C   UNL A   1      34.562  23.636  23.931  1.00  0.00     0.087 C 
ATOM      7  C   UNL A   1      34.067  22.841  22.712  1.00  0.00     0.042 C 
ATOM      8  C   UNL A   1      33.950  22.818  25.087  1.00  0.00     0.140 C 
ATOM      9  C   UNL A   1      32.680  22.383  23.110  1.00  0.00     0.122 C 
ATOM     10  N   UNL A   1      32.802  22.105  24.523  1.00  0.00    -0.324 N 
BRANCH   6  11
ATOM     11  C   UNL A   1      36.110  23.735  24.037  1.00  0.00     0.020 C 
BRANCH  11  12
ATOM     12  C   UNL A   1      36.733  23.703  25.442  1.00  0.00    -0.002 C 
ATOM     13  C   UNL A   1      37.725  22.556  25.629  1.00  0.00     0.004 C 
ENDBRANCH  11  12
ENDBRANCH   6  11
BRANCH  10  14
ATOM     14  C   UNL A   1      32.068  21.278  25.313  1.00  0.00     0.317 C 
ATOM     15  O   UNL A   1      30.973  21.626  25.759  1.00  0.00    -0.249 OA
ATOM     16  N   UNL A   1      32.508  20.051  25.659  1.00  0.00    -0.335 N 
ATOM     17  H   UNL A   1      31.967  19.634  26.367  1.00  0.00     0.165 HD
BRANCH  16  18
ATOM     18  C   UNL A   1      33.610  19.210  25.214  1.00  0.00     0.152 C 
BRANCH  18  19
ATOM     19  C   UNL A   1      33.209  18.034  24.269  1.00  0.00     0.083 C 
ATOM     20  C   UNL A   1      32.377  16.972  24.997  1.00  0.00     0.039 C 
ATOM     21  O   UNL A   1      34.425  17.332  23.908  1.00  0.00    -0.373 OA
ATOM     22  C   UNL A   1      32.530  18.471  22.969  1.00  0.00     0.044 C 
ATOM     23  C   UNL A   1      33.426  16.195  25.752  1.00  0.00     0.031 C 
ATOM     24  C   UNL A   1      34.596  16.210  24.791  1.00  0.00     0.161 C 
ENDBRANCH  18  19
ENDBRANCH  16  18
ENDBRANCH  10  14
ENDBRANCH   4   6
ENDBRANCH   3   4
ENDBRANCH   2   3
ENDBRANCH   1   2
BRANCH   1  25
ATOM     25  O   UNL A   1      33.503  29.098  25.047  1.00  0.00    -0.374 OA
BRANCH  25  26
ATOM     26  C   UNL A   1      32.114  29.402  25.166  1.00  0.00     0.202 C 
BRANCH  26  27
ATOM     27  C   UNL A   1      31.765  30.590  26.068  1.00  0.00     0.261 C 
BRANCH  27  28
ATOM     28  O   UNL A   1      32.607  30.611  27.232  1.00  0.00    -0.460 OA
BRANCH  28  29
ATOM     29  C   UNL A   1      33.337  31.737  27.386  1.00  0.00     0.338 C 
ATOM     30  O   UNL A   1      32.951  32.894  27.308  1.00  0.00    -0.246 OA
BRANCH  29  31
ATOM     31  C   UNL A   1      34.676  31.370  27.877  1.00  0.00     0.060 A 
ATOM     32  C   UNL A   1      34.903  30.030  28.220  1.00  0.00     0.016 A 
ATOM     33  C   UNL A   1      35.681  32.327  28.026  1.00  0.00     0.016 A 
ATOM     34  C   UNL A   1      36.125  29.649  28.766  1.00  0.00     0.010 A 
ATOM     35  C   UNL A   1      36.901  31.946  28.585  1.00  0.00     0.010 A 
ATOM     36  C   UNL A   1      37.111  30.615  28.992  1.00  0.00    -0.014 A 
BRANCH  36  37
ATOM     37  C   UNL A   1      38.289  30.297  29.829  1.00  0.00     0.031 A 
ATOM     38  C   UNL A   1      39.304  29.332  29.285  1.00  0.00     0.074 A 
ATOM     39  C   UNL A   1      38.440  30.835  31.050  1.00  0.00     0.049 A 
ATOM     40  N   UNL A   1      40.330  28.780  29.877  1.00  0.00    -0.248 NA
ATOM     41  C   UNL A   1      39.126  28.926  27.881  1.00  0.00     0.031 C 
ATOM     42  C   UNL A   1      37.547  31.821  31.656  1.00  0.00     0.029 A 
ATOM     43  N   UNL A   1      39.393  30.604  32.009  1.00  0.00    -0.354 N 
ATOM     44  C   UNL A   1      40.905  27.945  28.927  1.00  0.00     0.074 A 
ATOM     45  C   UNL A   1      40.100  28.042  27.730  1.00  0.00     0.031 C 
ATOM     46  C   UNL A   1      37.982  32.093  32.899  1.00  0.00     0.029 A 
ATOM     47  C   UNL A   1      39.153  31.267  33.187  1.00  0.00     0.049 A 
ATOM     48  H   UNL A   1      40.172  30.020  31.867  1.00  0.00     0.167 HD
ATOM     49  C   UNL A   1      42.008  27.171  29.048  1.00  0.00     0.037 A 
ATOM     50  C   UNL A   1      39.790  31.182  34.371  1.00  0.00     0.037 A 
ATOM     51  C   UNL A   1      42.802  27.087  30.244  1.00  0.00     0.049 A 
ATOM     52  C   UNL A   1      40.973  30.255  34.504  1.00  0.00     0.074 A 
ATOM     53  C   UNL A   1      43.945  26.343  30.472  1.00  0.00     0.029 A 
ATOM     54  N   UNL A   1      42.525  27.767  31.422  1.00  0.00    -0.354 N 
ATOM     55  N   UNL A   1      41.520  29.474  33.604  1.00  0.00    -0.248 NA
ATOM     56  C   UNL A   1      41.627  30.199  35.819  1.00  0.00     0.031 C 
ATOM     57  C   UNL A   1      44.329  26.530  31.802  1.00  0.00     0.029 A 
ATOM     58  C   UNL A   1      43.465  27.445  32.386  1.00  0.00     0.049 A 
ATOM     59  H   UNL A   1      41.771  28.389  31.552  1.00  0.00     0.167 HD
ATOM     60  C   UNL A   1      42.605  28.869  34.228  1.00  0.00     0.074 A 
ATOM     61  C   UNL A   1      42.640  29.376  35.584  1.00  0.00     0.031 C 
ATOM     62  C   UNL A   1      43.497  27.982  33.722  1.00  0.00     0.037 A 
BRANCH  49  63
ATOM     63  C   UNL A   1      42.400  26.330  27.867  1.00  0.00     0.064 A 
ATOM     64  C   UNL A   1      41.793  25.093  27.602  1.00  0.00     0.173 A 
ATOM     65  C   UNL A   1      43.382  26.783  26.972  1.00  0.00     0.173 A 
ATOM     66  F   UNL A   1      40.862  24.606  28.435  1.00  0.00    -0.203 F 
ATOM     67  C   UNL A   1      42.176  24.328  26.503  1.00  0.00     0.198 A 
ATOM     68  C   UNL A   1      43.736  26.031  25.855  1.00  0.00     0.198 A 
ATOM     69  F   UNL A   1      43.994  27.959  27.176  1.00  0.00    -0.203 F 
ATOM     70  F   UNL A   1      41.621  23.125  26.301  1.00  0.00    -0.200 F 
ATOM     71  C   UNL A   1      43.140  24.801  25.626  1.00  0.00     0.200 A 
ATOM     72  F   UNL A   1      44.659  26.496  25.002  1.00  0.00    -0.200 F 
ATOM     73  F   UNL A   1      43.499  24.067  24.564  1.00  0.00    -0.200 F 
ENDBRANCH  49  63
BRANCH  50  74
ATOM     74  C   UNL A   1      39.318  31.985  35.530  1.00  0.00     0.064 A 
ATOM     75  C   UNL A   1      39.735  33.312  35.707  1.00  0.00     0.173 A 
ATOM     76  C   UNL A   1      38.458  31.439  36.495  1.00  0.00     0.173 A 
ATOM     77  F   UNL A   1      40.576  33.871  34.825  1.00  0.00    -0.203 F 
ATOM     78  C   UNL A   1      39.329  34.053  36.815  1.00  0.00     0.198 A 
ATOM     79  C   UNL A   1      38.027  32.191  37.586  1.00  0.00     0.198 A 
ATOM     80  F   UNL A   1      38.029  30.174  36.374  1.00  0.00    -0.203 F 
ATOM     81  F   UNL A   1      39.785  35.301  36.986  1.00  0.00    -0.200 F 
ATOM     82  C   UNL A   1      38.470  33.494  37.750  1.00  0.00     0.200 A 
ATOM     83  F   UNL A   1      37.187  31.651  38.479  1.00  0.00    -0.200 F 
ATOM     84  F   UNL A   1      38.079  34.208  38.813  1.00  0.00    -0.200 F 
ENDBRANCH  50  74
BRANCH  62  85
ATOM     85  C   UNL A   1      44.631  27.552  34.609  1.00  0.00     0.064 A 
ATOM     86  C   UNL A   1      45.828  28.277  34.692  1.00  0.00     0.173 A 
ATOM     87  C   UNL A   1      44.485  26.428  35.439  1.00  0.00     0.173 A 
ATOM     88  F   UNL A   1      46.022  29.351  33.912  1.00  0.00    -0.203 F 
ATOM     89  C   UNL A   1      46.844  27.882  35.557  1.00  0.00     0.198 A 
ATOM     90  C   UNL A   1      45.489  26.055  36.327  1.00  0.00     0.198 A 
ATOM     91  F   UNL A   1      43.355  25.705  35.404  1.00  0.00    -0.203 F 
ATOM     92  F   UNL A   1      47.997  28.564  35.590  1.00  0.00    -0.200 F 
ATOM     93  C   UNL A   1      46.671  26.778  36.381  1.00  0.00     0.200 A 
ATOM     94  F   UNL A   1      45.310  25.001  37.134  1.00  0.00    -0.200 F 
ATOM     95  F   UNL A   1      47.644  26.409  37.224  1.00  0.00    -0.200 F 
ENDBRANCH  62  85
ENDBRANCH  36  37
ENDBRANCH  29  31
ENDBRANCH  28  29
ENDBRANCH  27  28
ENDBRANCH  26  27
ENDBRANCH  25  26
ENDBRANCH   1  25
TORSDOF 19
ENDMDL
MODEL 2
REMARK VINA RESULT:     -10.8      1.283      7.599
REMARK SMILES CCC[C@@]1(C(=O)OCCOCCOC(=O)c2ccc(-c3c4nc(c(-c5c(F)c(F)c(F)c(F)c5F)c5ccc([nH]5)c(-c5c(F)c(F)c(F)c(F)c5F)c5nc(c(-c6c(F)c(F)c(F)c(F)c6F)c6ccc3[nH]6)C=C5)C=C4)cc2)CCN(C(=O)NC[C@]2(C)CCCO2)C1
REMARK SMILES IDX 9 1 8 2 7 3 5 4 6 5 4 6 79 7 92 8 80 9 81 10 3 11 2 12 1 13
REMARK SMILES IDX 82 14 83 15 84 16 85 18 86 19 88 20 91 21 87 22 89 23 90 24
REMARK SMILES IDX 10 25 11 26 12 27 13 28 14 29 15 30 16 31 17 32 78 33 18 34
REMARK SMILES IDX 77 35 19 36 20 37 21 38 71 39 22 40 76 41 70 42 72 43 23 44
REMARK SMILES IDX 75 45 69 46 68 47 24 49 56 50 36 51 55 52 37 53 40 54 54 55
REMARK SMILES IDX 73 56 38 57 39 58 53 60 74 61 41 62 25 63 26 64 34 65 27 66
REMARK SMILES IDX 28 67 32 68 35 69 29 70 30 71 33 72 31 73 57 74 58 75 66 76
REMARK SMILES IDX 59 77 60 78 64 79 67 80 61 81 62 82 65 83 63 84 42 85 43 86
REMARK SMILES IDX 51 87 44 88 45 89 49 90 52 91 46 92 47 93 50 94 48 95
REMARK H PARENT 84 17 72 48 40 59
REMARK Flexibility Score: inf
ROOT
ATOM      1  C   UNL A   1      32.840  29.792  26.270  1.00  0.00     0.202 C 
ENDROOT
BRANCH   1   2
ATOM      2  C   UNL A   1      32.089  28.998  25.201  1.00  0.00     0.261 C 
BRANCH   2   3
ATOM      3  O   UNL A   1      32.278  27.586  25.394  1.00  0.00    -0.463 OA
BRANCH   3   4
ATOM      4  C   UNL A   1      31.363  26.962  26.185  1.00  0.00     0.314 C 
ATOM      5  O   UNL A   1      31.038  27.375  27.291  1.00  0.00    -0.252 OA
BRANCH   4   6
ATOM      6  C   UNL A   1      30.718  25.739  25.494  1.00  0.00     0.087 C 
ATOM      7  C   UNL A   1      30.797  24.524  26.432  1.00  0.00     0.042 C 
ATOM      8  C   UNL A   1      31.666  25.300  24.359  1.00  0.00     0.140 C 
ATOM      9  C   UNL A   1      32.238  24.070  26.327  1.00  0.00     0.122 C 
ATOM     10  N   UNL A   1      32.573  24.308  24.941  1.00  0.00    -0.324 N 
BRANCH   6  11
ATOM     11  C   UNL A   1      29.285  26.049  24.977  1.00  0.00     0.020 C 
BRANCH  11  12
ATOM     12  C   UNL A   1      29.130  26.445  23.499  1.00  0.00    -0.002 C 
ATOM     13  C   UNL A   1      29.326  27.940  23.259  1.00  0.00     0.004 C 
ENDBRANCH  11  12
ENDBRANCH   6  11
BRANCH  10  14
ATOM     14  C   UNL A   1      33.519  23.721  24.162  1.00  0.00     0.317 C 
ATOM     15  O   UNL A   1      34.489  24.357  23.745  1.00  0.00    -0.249 OA
ATOM     16  N   UNL A   1      33.433  22.426  23.796  1.00  0.00    -0.335 N 
ATOM     17  H   UNL A   1      34.081  22.180  23.097  1.00  0.00     0.165 HD
BRANCH  16  18
ATOM     18  C   UNL A   1      32.589  21.313  24.206  1.00  0.00     0.152 C 
BRANCH  18  19
ATOM     19  C   UNL A   1      33.231  20.340  25.245  1.00  0.00     0.083 C 
ATOM     20  C   UNL A   1      34.381  19.530  24.635  1.00  0.00     0.039 C 
ATOM     21  O   UNL A   1      32.238  19.336  25.573  1.00  0.00    -0.373 OA
ATOM     22  C   UNL A   1      33.660  21.005  26.554  1.00  0.00     0.044 C 
ATOM     23  C   UNL A   1      33.653  18.456  23.867  1.00  0.00     0.031 C 
ATOM     24  C   UNL A   1      32.457  18.176  24.751  1.00  0.00     0.161 C 
ENDBRANCH  18  19
ENDBRANCH  16  18
ENDBRANCH  10  14
ENDBRANCH   4   6
ENDBRANCH   3   4
ENDBRANCH   2   3
ENDBRANCH   1   2
BRANCH   1  25
ATOM     25  O   UNL A   1      32.025  30.609  27.109  1.00  0.00    -0.374 OA
BRANCH  25  26
ATOM     26  C   UNL A   1      31.421  31.736  26.475  1.00  0.00     0.202 C 
BRANCH  26  27
ATOM     27  C   UNL A   1      31.966  33.107  26.888  1.00  0.00     0.261 C 
BRANCH  27  28
ATOM     28  O   UNL A   1      32.864  32.983  28.002  1.00  0.00    -0.460 OA
BRANCH  28  29
ATOM     29  C   UNL A   1      33.995  33.716  27.905  1.00  0.00     0.338 C 
ATOM     30  O   UNL A   1      34.094  34.914  27.690  1.00  0.00    -0.246 OA
BRANCH  29  31
ATOM     31  C   UNL A   1      35.138  32.877  28.305  1.00  0.00     0.060 A 
ATOM     32  C   UNL A   1      34.877  31.552  28.683  1.00  0.00     0.016 A 
ATOM     33  C   UNL A   1      36.436  33.388  28.339  1.00  0.00     0.016 A 
ATOM     34  C   UNL A   1      35.910  30.745  29.148  1.00  0.00     0.010 A 
ATOM     35  C   UNL A   1      37.468  32.581  28.817  1.00  0.00     0.010 A 
ATOM     36  C   UNL A   1      37.201  31.272  29.260  1.00  0.00    -0.014 A 
BRANCH  36  37
ATOM     37  C   UNL A   1      38.242  30.542  30.016  1.00  0.00     0.031 A 
ATOM     38  C   UNL A   1      38.453  30.903  31.459  1.00  0.00     0.074 A 
ATOM     39  C   UNL A   1      38.995  29.599  29.428  1.00  0.00     0.049 A 
ATOM     40  N   UNL A   1      39.392  30.523  32.284  1.00  0.00    -0.248 NA
ATOM     41  C   UNL A   1      37.473  31.832  32.046  1.00  0.00     0.031 C 
ATOM     42  C   UNL A   1      38.844  29.131  28.052  1.00  0.00     0.029 A 
ATOM     43  N   UNL A   1      40.059  28.882  29.915  1.00  0.00    -0.354 N 
ATOM     44  C   UNL A   1      39.130  31.183  33.478  1.00  0.00     0.074 A 
ATOM     45  C   UNL A   1      37.962  32.007  33.263  1.00  0.00     0.031 C 
ATOM     46  C   UNL A   1      39.798  28.221  27.795  1.00  0.00     0.029 A 
ATOM     47  C   UNL A   1      40.652  28.079  28.974  1.00  0.00     0.049 A 
ATOM     48  H   UNL A   1      40.367  28.939  30.848  1.00  0.00     0.167 HD
ATOM     49  C   UNL A   1      39.806  31.104  34.647  1.00  0.00     0.037 A 
ATOM     50  C   UNL A   1      41.778  27.343  29.052  1.00  0.00     0.037 A 
ATOM     51  C   UNL A   1      40.966  30.277  34.849  1.00  0.00     0.049 A 
ATOM     52  C   UNL A   1      42.558  27.329  30.343  1.00  0.00     0.074 A 
ATOM     53  C   UNL A   1      41.721  30.111  35.995  1.00  0.00     0.029 A 
ATOM     54  N   UNL A   1      41.543  29.480  33.870  1.00  0.00    -0.354 N 
ATOM     55  N   UNL A   1      42.305  27.945  31.472  1.00  0.00    -0.248 NA
ATOM     56  C   UNL A   1      43.780  26.513  30.371  1.00  0.00     0.031 C 
ATOM     57  C   UNL A   1      42.787  29.259  35.696  1.00  0.00     0.029 A 
ATOM     58  C   UNL A   1      42.658  28.837  34.382  1.00  0.00     0.049 A 
ATOM     59  H   UNL A   1      41.210  29.386  32.948  1.00  0.00     0.167 HD
ATOM     60  C   UNL A   1      43.307  27.560  32.355  1.00  0.00     0.074 A 
ATOM     61  C   UNL A   1      44.173  26.654  31.629  1.00  0.00     0.031 C 
ATOM     62  C   UNL A   1      43.490  27.917  33.650  1.00  0.00     0.037 A 
BRANCH  49  63
ATOM     63  C   UNL A   1      39.328  31.956  35.787  1.00  0.00     0.064 A 
ATOM     64  C   UNL A   1      38.362  31.503  36.698  1.00  0.00     0.173 A 
ATOM     65  C   UNL A   1      39.864  33.238  35.985  1.00  0.00     0.173 A 
ATOM     66  F   UNL A   1      37.805  30.292  36.545  1.00  0.00    -0.203 F 
ATOM     67  C   UNL A   1      37.930  32.312  37.747  1.00  0.00     0.198 A 
ATOM     68  C   UNL A   1      39.455  34.030  37.055  1.00  0.00     0.198 A 
ATOM     69  F   UNL A   1      40.791  33.722  35.145  1.00  0.00    -0.203 F 
ATOM     70  F   UNL A   1      36.967  31.878  38.572  1.00  0.00    -0.200 F 
ATOM     71  C   UNL A   1      38.483  33.571  37.929  1.00  0.00     0.200 A 
ATOM     72  F   UNL A   1      39.999  35.241  37.236  1.00  0.00    -0.200 F 
ATOM     73  F   UNL A   1      38.072  34.343  38.944  1.00  0.00    -0.200 F 
ENDBRANCH  49  63
BRANCH  50  74
ATOM     74  C   UNL A   1      42.247  26.571  27.871  1.00  0.00     0.064 A 
ATOM     75  C   UNL A   1      41.811  25.258  27.647  1.00  0.00     0.173 A 
ATOM     76  C   UNL A   1      43.154  27.121  26.952  1.00  0.00     0.173 A 
ATOM     77  F   UNL A   1      40.962  24.680  28.510  1.00  0.00    -0.203 F 
ATOM     78  C   UNL A   1      42.281  24.516  26.566  1.00  0.00     0.198 A 
ATOM     79  C   UNL A   1      43.600  26.389  25.853  1.00  0.00     0.198 A 
ATOM     80  F   UNL A   1      43.604  28.373  27.119  1.00  0.00    -0.203 F 
ATOM     81  F   UNL A   1      41.888  23.245  26.407  1.00  0.00    -0.200 F 
ATOM     82  C   UNL A   1      43.171  25.085  25.666  1.00  0.00     0.200 A 
ATOM     83  F   UNL A   1      44.448  26.948  24.979  1.00  0.00    -0.200 F 
ATOM     84  F   UNL A   1      43.621  24.372  24.625  1.00  0.00    -0.200 F 
ENDBRANCH  50  74
BRANCH  62  85
ATOM     85  C   UNL A   1      44.626  27.276  34.395  1.00  0.00     0.064 A 
ATOM     86  C   UNL A   1      45.861  27.918  34.567  1.00  0.00     0.173 A 
ATOM     87  C   UNL A   1      44.447  26.023  35.003  1.00  0.00     0.173 A 
ATOM     88  F   UNL A   1      46.087  29.111  33.997  1.00  0.00    -0.203 F 
ATOM     89  C   UNL A   1      46.881  27.320  35.302  1.00  0.00     0.198 A 
ATOM     90  C   UNL A   1      45.457  25.443  35.765  1.00  0.00     0.198 A 
ATOM     91  F   UNL A   1      43.281  25.371  34.876  1.00  0.00    -0.203 F 
ATOM     92  F   UNL A   1      48.068  27.930  35.418  1.00  0.00    -0.200 F 
ATOM     93  C   UNL A   1      46.676  26.088  35.909  1.00  0.00     0.200 A 
ATOM     94  F   UNL A   1      45.248  24.263  36.365  1.00  0.00    -0.200 F 
ATOM     95  F   UNL A   1      47.653  25.522  36.629  1.00  0.00    -0.200 F 
ENDBRANCH  62  85
ENDBRANCH  36  37
ENDBRANCH  29  31
ENDBRANCH  28  29
ENDBRANCH  27  28
ENDBRANCH  26  27
ENDBRANCH  25  26
ENDBRANCH   1  25
TORSDOF 19
ENDMDL
MODEL 3
REMARK VINA RESULT:     -10.8      2.523      4.575
REMARK SMILES CCC[C@@]1(C(=O)OCCOCCOC(=O)c2ccc(-c3c4nc(c(-c5c(F)c(F)c(F)c(F)c5F)c5ccc([nH]5)c(-c5c(F)c(F)c(F)c(F)c5F)c5nc(c(-c6c(F)c(F)c(F)c(F)c6F)c6ccc3[nH]6)C=C5)C=C4)cc2)CCN(C(=O)NC[C@]2(C)CCCO2)C1
REMARK SMILES IDX 9 1 8 2 7 3 5 4 6 5 4 6 79 7 92 8 80 9 81 10 3 11 2 12 1 13
REMARK SMILES IDX 82 14 83 15 84 16 85 18 86 19 88 20 91 21 87 22 89 23 90 24
REMARK SMILES IDX 10 25 11 26 12 27 13 28 14 29 15 30 16 31 17 32 78 33 18 34
REMARK SMILES IDX 77 35 19 36 20 37 21 38 71 39 22 40 76 41 70 42 72 43 23 44
REMARK SMILES IDX 75 45 69 46 68 47 24 49 56 50 36 51 55 52 37 53 40 54 54 55
REMARK SMILES IDX 73 56 38 57 39 58 53 60 74 61 41 62 25 63 26 64 34 65 27 66
REMARK SMILES IDX 28 67 32 68 35 69 29 70 30 71 33 72 31 73 57 74 58 75 66 76
REMARK SMILES IDX 59 77 60 78 64 79 67 80 61 81 62 82 65 83 63 84 42 85 43 86
REMARK SMILES IDX 51 87 44 88 45 89 49 90 52 91 46 92 47 93 50 94 48 95
REMARK H PARENT 84 17 72 48 40 59
REMARK Flexibility Score: inf
ROOT
ATOM      1  C   UNL A   1      32.793  28.978  27.247  1.00  0.00     0.202 C 
ENDROOT
BRANCH   1   2
ATOM      2  C   UNL A   1      32.116  27.955  26.334  1.00  0.00     0.261 C 
BRANCH   2   3
ATOM      3  O   UNL A   1      32.737  26.665  26.475  1.00  0.00    -0.463 OA
BRANCH   3   4
ATOM      4  C   UNL A   1      31.940  25.588  26.237  1.00  0.00     0.314 C 
ATOM      5  O   UNL A   1      30.781  25.511  26.624  1.00  0.00    -0.252 OA
BRANCH   4   6
ATOM      6  C   UNL A   1      32.627  24.525  25.350  1.00  0.00     0.087 C 
ATOM      7  C   UNL A   1      34.081  24.947  25.081  1.00  0.00     0.042 C 
ATOM      8  C   UNL A   1      32.018  24.642  23.938  1.00  0.00     0.140 C 
ATOM      9  C   UNL A   1      33.961  26.030  24.031  1.00  0.00     0.122 C 
ATOM     10  N   UNL A   1      32.862  25.588  23.203  1.00  0.00    -0.324 N 
BRANCH   6  11
ATOM     11  C   UNL A   1      32.481  23.093  25.936  1.00  0.00     0.020 C 
BRANCH  11  12
ATOM     12  C   UNL A   1      32.897  22.874  27.400  1.00  0.00    -0.002 C 
ATOM     13  C   UNL A   1      34.006  21.835  27.555  1.00  0.00     0.004 C 
ENDBRANCH  11  12
ENDBRANCH   6  11
BRANCH  10  14
ATOM     14  C   UNL A   1      32.579  25.878  21.907  1.00  0.00     0.317 C 
ATOM     15  O   UNL A   1      33.197  25.345  20.983  1.00  0.00    -0.249 OA
ATOM     16  N   UNL A   1      31.625  26.770  21.571  1.00  0.00    -0.335 N 
ATOM     17  H   UNL A   1      31.644  27.013  20.617  1.00  0.00     0.165 HD
BRANCH  16  18
ATOM     18  C   UNL A   1      30.574  27.453  22.311  1.00  0.00     0.152 C 
BRANCH  18  19
ATOM     19  C   UNL A   1      30.848  28.959  22.617  1.00  0.00     0.083 C 
ATOM     20  C   UNL A   1      29.950  29.486  23.743  1.00  0.00     0.039 C 
ATOM     21  O   UNL A   1      30.430  29.722  21.457  1.00  0.00    -0.373 OA
ATOM     22  C   UNL A   1      32.317  29.294  22.880  1.00  0.00     0.044 C 
ATOM     23  C   UNL A   1      28.641  29.722  23.034  1.00  0.00     0.031 C 
ATOM     24  C   UNL A   1      29.090  30.198  21.669  1.00  0.00     0.161 C 
ENDBRANCH  18  19
ENDBRANCH  16  18
ENDBRANCH  10  14
ENDBRANCH   4   6
ENDBRANCH   3   4
ENDBRANCH   2   3
ENDBRANCH   1   2
BRANCH   1  25
ATOM     25  O   UNL A   1      32.931  30.288  26.699  1.00  0.00    -0.374 OA
BRANCH  25  26
ATOM     26  C   UNL A   1      31.719  31.029  26.556  1.00  0.00     0.202 C 
BRANCH  26  27
ATOM     27  C   UNL A   1      31.791  32.509  26.943  1.00  0.00     0.261 C 
BRANCH  27  28
ATOM     28  O   UNL A   1      33.126  32.870  27.329  1.00  0.00    -0.460 OA
BRANCH  28  29
ATOM     29  C   UNL A   1      33.208  33.905  28.194  1.00  0.00     0.338 C 
ATOM     30  O   UNL A   1      32.417  34.825  28.336  1.00  0.00    -0.246 OA
BRANCH  29  31
ATOM     31  C   UNL A   1      34.326  33.659  29.121  1.00  0.00     0.060 A 
ATOM     32  C   UNL A   1      35.568  34.232  28.815  1.00  0.00     0.016 A 
ATOM     33  C   UNL A   1      34.168  32.858  30.252  1.00  0.00     0.016 A 
ATOM     34  C   UNL A   1      36.675  33.962  29.613  1.00  0.00     0.010 A 
ATOM     35  C   UNL A   1      35.280  32.578  31.045  1.00  0.00     0.010 A 
ATOM     36  C   UNL A   1      36.543  33.097  30.705  1.00  0.00    -0.014 A 
BRANCH  36  37
ATOM     37  C   UNL A   1      37.746  32.567  31.386  1.00  0.00     0.031 A 
ATOM     38  C   UNL A   1      38.504  31.455  30.719  1.00  0.00     0.074 A 
ATOM     39  C   UNL A   1      38.139  33.048  32.576  1.00  0.00     0.049 A 
ATOM     40  N   UNL A   1      39.486  30.725  31.177  1.00  0.00    -0.248 NA
ATOM     41  C   UNL A   1      38.083  31.112  29.350  1.00  0.00     0.031 C 
ATOM     42  C   UNL A   1      37.513  34.159  33.289  1.00  0.00     0.029 A 
ATOM     43  N   UNL A   1      39.152  32.639  33.406  1.00  0.00    -0.354 N 
ATOM     44  C   UNL A   1      39.785  29.823  30.163  1.00  0.00     0.074 A 
ATOM     45  C   UNL A   1      38.865  30.078  29.078  1.00  0.00     0.031 C 
ATOM     46  C   UNL A   1      38.141  34.329  34.465  1.00  0.00     0.029 A 
ATOM     47  C   UNL A   1      39.180  33.311  34.603  1.00  0.00     0.049 A 
ATOM     48  H   UNL A   1      39.796  31.934  33.167  1.00  0.00     0.167 HD
ATOM     49  C   UNL A   1      40.746  28.870  30.144  1.00  0.00     0.037 A 
ATOM     50  C   UNL A   1      39.937  33.096  35.696  1.00  0.00     0.037 A 
ATOM     51  C   UNL A   1      41.658  28.628  31.229  1.00  0.00     0.049 A 
ATOM     52  C   UNL A   1      40.951  31.978  35.680  1.00  0.00     0.074 A 
ATOM     53  C   UNL A   1      42.677  27.697  31.311  1.00  0.00     0.029 A 
ATOM     54  N   UNL A   1      41.653  29.323  32.431  1.00  0.00    -0.354 N 
ATOM     55  N   UNL A   1      41.238  31.133  34.719  1.00  0.00    -0.248 NA
ATOM     56  C   UNL A   1      41.747  31.787  36.901  1.00  0.00     0.031 C 
ATOM     57  C   UNL A   1      43.251  27.790  32.581  1.00  0.00     0.029 A 
ATOM     58  C   UNL A   1      42.638  28.827  33.268  1.00  0.00     0.049 A 
ATOM     59  H   UNL A   1      41.039  30.061  32.654  1.00  0.00     0.167 HD
ATOM     60  C   UNL A   1      42.274  30.341  35.201  1.00  0.00     0.074 A 
ATOM     61  C   UNL A   1      42.565  30.808  36.540  1.00  0.00     0.031 C 
ATOM     62  C   UNL A   1      42.929  29.324  34.588  1.00  0.00     0.037 A 
BRANCH  49  63
ATOM     63  C   UNL A   1      40.836  27.998  28.924  1.00  0.00     0.064 A 
ATOM     64  C   UNL A   1      40.029  26.861  28.764  1.00  0.00     0.173 A 
ATOM     65  C   UNL A   1      41.728  28.320  27.890  1.00  0.00     0.173 A 
ATOM     66  F   UNL A   1      39.172  26.499  29.730  1.00  0.00    -0.203 F 
ATOM     67  C   UNL A   1      40.133  26.064  27.626  1.00  0.00     0.198 A 
ATOM     68  C   UNL A   1      41.803  27.540  26.738  1.00  0.00     0.198 A 
ATOM     69  F   UNL A   1      42.523  29.396  27.990  1.00  0.00    -0.203 F 
ATOM     70  F   UNL A   1      39.390  24.954  27.519  1.00  0.00    -0.200 F 
ATOM     71  C   UNL A   1      41.013  26.409  26.611  1.00  0.00     0.200 A 
ATOM     72  F   UNL A   1      42.645  27.883  25.754  1.00  0.00    -0.200 F 
ATOM     73  F   UNL A   1      41.104  25.646  25.513  1.00  0.00    -0.200 F 
ENDBRANCH  49  63
BRANCH  50  74
ATOM     74  C   UNL A   1      39.760  33.944  36.904  1.00  0.00     0.064 A 
ATOM     75  C   UNL A   1      38.951  33.524  37.969  1.00  0.00     0.173 A 
ATOM     76  C   UNL A   1      40.377  35.199  37.013  1.00  0.00     0.173 A 
ATOM     77  F   UNL A   1      38.320  32.341  37.903  1.00  0.00    -0.203 F 
ATOM     78  C   UNL A   1      38.747  34.334  39.084  1.00  0.00     0.198 A 
ATOM     79  C   UNL A   1      40.198  35.996  38.142  1.00  0.00     0.198 A 
ATOM     80  F   UNL A   1      41.161  35.651  36.023  1.00  0.00    -0.203 F 
ATOM     81  F   UNL A   1      37.927  33.928  40.063  1.00  0.00    -0.200 F 
ATOM     82  C   UNL A   1      39.377  35.567  39.172  1.00  0.00     0.200 A 
ATOM     83  F   UNL A   1      40.820  37.180  38.229  1.00  0.00    -0.200 F 
ATOM     84  F   UNL A   1      39.182  36.345  40.246  1.00  0.00    -0.200 F 
ENDBRANCH  50  74
BRANCH  62  85
ATOM     85  C   UNL A   1      44.076  28.691  35.324  1.00  0.00     0.064 A 
ATOM     86  C   UNL A   1      45.394  29.147  35.183  1.00  0.00     0.173 A 
ATOM     87  C   UNL A   1      43.834  27.651  36.236  1.00  0.00     0.173 A 
ATOM     88  F   UNL A   1      45.680  30.130  34.317  1.00  0.00    -0.203 F 
ATOM     89  C   UNL A   1      46.431  28.571  35.913  1.00  0.00     0.198 A 
ATOM     90  C   UNL A   1      44.867  27.100  36.988  1.00  0.00     0.198 A 
ATOM     91  F   UNL A   1      42.589  27.184  36.414  1.00  0.00    -0.203 F 
ATOM     92  F   UNL A   1      47.689  28.992  35.733  1.00  0.00    -0.200 F 
ATOM     93  C   UNL A   1      46.166  27.556  36.822  1.00  0.00     0.200 A 
ATOM     94  F   UNL A   1      44.604  26.134  37.879  1.00  0.00    -0.200 F 
ATOM     95  F   UNL A   1      47.163  27.014  37.534  1.00  0.00    -0.200 F 
ENDBRANCH  62  85
ENDBRANCH  36  37
ENDBRANCH  29  31
ENDBRANCH  28  29
ENDBRANCH  27  28
ENDBRANCH  26  27
ENDBRANCH  25  26
ENDBRANCH   1  25
TORSDOF 19
ENDMDL
