MODEL 1
REMARK VINA RESULT:     -12.0      0.000      0.000
REMARK SMILES COc1ccc(OCc2nc(C)no2)c(/C=C/C(=O)OCCOCCOC(=O)c2ccc(-c3c4nc(c(-c5c(F)c(F)c(F)c(F)c5F)c5ccc([nH]5)c(-c5c(F)c(F)c(F)c(F)c5F)c5nc(c(-c6c(F)c(F)c(F)c(F)c6F)c6ccc3[nH]6)C=C5)C=C4)cc2)c1
REMARK SMILES IDX 22 1 21 2 20 3 18 4 19 5 17 6 16 7 15 8 3 9 4 10 92 11 5 12
REMARK SMILES IDX 6 13 2 14 1 15 7 16 8 17 9 18 10 19 14 20 11 21 13 22 12 23
REMARK SMILES IDX 23 24 24 25 25 26 26 27 27 28 28 29 29 30 30 31 91 32 31 33
REMARK SMILES IDX 90 34 32 35 33 36 34 37 84 38 35 39 89 40 83 41 85 42 36 43
REMARK SMILES IDX 88 44 82 45 81 46 37 48 69 49 49 50 68 51 50 52 53 53 67 54
REMARK SMILES IDX 86 55 51 56 52 57 66 59 87 60 54 61 38 62 39 63 47 64 40 65
REMARK SMILES IDX 41 66 45 67 48 68 42 69 43 70 46 71 44 72 70 73 71 74 79 75
REMARK SMILES IDX 72 76 73 77 77 78 80 79 74 80 75 81 78 82 76 83 55 84 56 85
REMARK SMILES IDX 64 86 57 87 58 88 62 89 65 90 59 91 60 92 63 93 61 94
REMARK H PARENT 85 47 53 58
REMARK Flexibility Score: inf
ROOT
ATOM      1  C   UNL A   1      40.646  20.296  26.372  1.00  0.00     0.202 C 
ENDROOT
BRANCH   1   2
ATOM      2  C   UNL A   1      39.845  21.595  26.235  1.00  0.00     0.261 C 
BRANCH   2   3
ATOM      3  O   UNL A   1      38.631  21.408  25.494  1.00  0.00    -0.460 OA
BRANCH   3   4
ATOM      4  C   UNL A   1      37.822  22.488  25.484  1.00  0.00     0.330 C 
ATOM      5  O   UNL A   1      37.961  23.509  26.142  1.00  0.00    -0.247 OA
BRANCH   4   6
ATOM      6  C   UNL A   1      36.849  22.400  24.389  1.00  0.00     0.094 C 
ATOM      7  C   UNL A   1      35.608  22.019  24.714  1.00  0.00     0.019 C 
BRANCH   7   8
ATOM      8  C   UNL A   1      34.415  22.586  24.054  1.00  0.00     0.020 A 
ATOM      9  C   UNL A   1      33.490  24.324  22.643  1.00  0.00     0.119 A 
ATOM     10  C   UNL A   1      32.310  23.591  22.498  1.00  0.00     0.050 A 
ATOM     11  C   UNL A   1      34.530  23.835  23.436  1.00  0.00     0.058 A 
ATOM     12  C   UNL A   1      32.184  22.333  23.091  1.00  0.00     0.051 A 
ATOM     13  C   UNL A   1      33.244  21.820  23.838  1.00  0.00     0.127 A 
BRANCH   9  14
ATOM     14  O   UNL A   1      33.539  25.536  22.006  1.00  0.00    -0.497 OA
ATOM     15  C   UNL A   1      32.714  25.592  20.842  1.00  0.00     0.278 C 
ENDBRANCH   9  14
BRANCH  13  16
ATOM     16  O   UNL A   1      33.125  20.599  24.455  1.00  0.00    -0.483 OA
BRANCH  16  17
ATOM     17  C   UNL A   1      32.654  19.503  23.643  1.00  0.00     0.329 C 
BRANCH  17  18
ATOM     18  C   UNL A   1      33.447  18.249  23.800  1.00  0.00     0.264 A 
ATOM     19  N   UNL A   1      34.419  17.924  24.625  1.00  0.00    -0.193 NA
ATOM     20  O   UNL A   1      33.093  17.215  22.974  1.00  0.00    -0.336 OA
ATOM     21  C   UNL A   1      34.568  16.586  24.395  1.00  0.00     0.169 A 
ATOM     22  N   UNL A   1      33.852  16.108  23.370  1.00  0.00    -0.063 NA
ATOM     23  C   UNL A   1      35.371  15.729  25.285  1.00  0.00     0.093 C 
ENDBRANCH  17  18
ENDBRANCH  16  17
ENDBRANCH  13  16
ENDBRANCH   7   8
ENDBRANCH   4   6
ENDBRANCH   3   4
ENDBRANCH   2   3
ENDBRANCH   1   2
BRANCH   1  24
ATOM     24  O   UNL A   1      41.979  20.258  25.871  1.00  0.00    -0.374 OA
BRANCH  24  25
ATOM     25  C   UNL A   1      42.870  21.329  26.166  1.00  0.00     0.202 C 
BRANCH  25  26
ATOM     26  C   UNL A   1      43.656  21.978  25.016  1.00  0.00     0.261 C 
BRANCH  26  27
ATOM     27  O   UNL A   1      43.144  23.258  24.606  1.00  0.00    -0.460 OA
BRANCH  27  28
ATOM     28  C   UNL A   1      43.896  24.320  24.985  1.00  0.00     0.338 C 
ATOM     29  O   UNL A   1      45.012  24.617  24.592  1.00  0.00    -0.246 OA
BRANCH  28  30
ATOM     30  C   UNL A   1      43.121  25.221  25.856  1.00  0.00     0.060 A 
ATOM     31  C   UNL A   1      43.659  26.487  26.122  1.00  0.00     0.016 A 
ATOM     32  C   UNL A   1      41.974  24.783  26.519  1.00  0.00     0.016 A 
ATOM     33  C   UNL A   1      43.069  27.309  27.079  1.00  0.00     0.010 A 
ATOM     34  C   UNL A   1      41.393  25.604  27.494  1.00  0.00     0.010 A 
ATOM     35  C   UNL A   1      41.957  26.855  27.801  1.00  0.00    -0.014 A 
BRANCH  35  36
ATOM     36  C   UNL A   1      41.498  27.636  28.976  1.00  0.00     0.031 A 
ATOM     37  C   UNL A   1      42.261  27.529  30.268  1.00  0.00     0.074 A 
ATOM     38  C   UNL A   1      40.459  28.482  28.873  1.00  0.00     0.049 A 
ATOM     39  N   UNL A   1      42.050  28.133  31.411  1.00  0.00    -0.248 NA
ATOM     40  C   UNL A   1      43.424  26.628  30.270  1.00  0.00     0.031 C 
ATOM     41  C   UNL A   1      39.674  28.712  27.661  1.00  0.00     0.029 A 
ATOM     42  N   UNL A   1      39.889  29.312  29.806  1.00  0.00    -0.354 N 
ATOM     43  C   UNL A   1      43.058  27.696  32.261  1.00  0.00     0.074 A 
ATOM     44  C   UNL A   1      43.859  26.748  31.516  1.00  0.00     0.031 C 
ATOM     45  C   UNL A   1      38.719  29.619  27.927  1.00  0.00     0.029 A 
ATOM     46  C   UNL A   1      38.810  30.014  29.332  1.00  0.00     0.049 A 
ATOM     47  H   UNL A   1      40.223  29.395  30.729  1.00  0.00     0.167 HD
ATOM     48  C   UNL A   1      43.304  28.065  33.540  1.00  0.00     0.037 A 
ATOM     49  C   UNL A   1      37.982  30.867  29.967  1.00  0.00     0.037 A 
ATOM     50  C   UNL A   1      42.501  28.996  34.287  1.00  0.00     0.049 A 
ATOM     51  C   UNL A   1      38.225  31.189  31.420  1.00  0.00     0.074 A 
ATOM     52  C   UNL A   1      42.652  29.413  35.599  1.00  0.00     0.029 A 
ATOM     53  N   UNL A   1      41.388  29.655  33.785  1.00  0.00    -0.354 N 
ATOM     54  N   UNL A   1      39.185  30.777  32.212  1.00  0.00    -0.248 NA
ATOM     55  C   UNL A   1      37.268  32.100  32.064  1.00  0.00     0.031 C 
ATOM     56  C   UNL A   1      41.611  30.298  35.901  1.00  0.00     0.029 A 
ATOM     57  C   UNL A   1      40.836  30.465  34.765  1.00  0.00     0.049 A 
ATOM     58  H   UNL A   1      41.042  29.562  32.868  1.00  0.00     0.167 HD
ATOM     59  C   UNL A   1      38.967  31.402  33.433  1.00  0.00     0.074 A 
ATOM     60  C   UNL A   1      37.791  32.231  33.275  1.00  0.00     0.031 C 
ATOM     61  C   UNL A   1      39.676  31.298  34.583  1.00  0.00     0.037 A 
BRANCH  48  62
ATOM     62  C   UNL A   1      44.489  27.449  34.221  1.00  0.00     0.064 A 
ATOM     63  C   UNL A   1      45.739  28.088  34.232  1.00  0.00     0.173 A 
ATOM     64  C   UNL A   1      44.368  26.231  34.905  1.00  0.00     0.173 A 
ATOM     65  F   UNL A   1      45.908  29.249  33.581  1.00  0.00    -0.203 F 
ATOM     66  C   UNL A   1      46.828  27.521  34.889  1.00  0.00     0.198 A 
ATOM     67  C   UNL A   1      45.453  25.678  35.581  1.00  0.00     0.198 A 
ATOM     68  F   UNL A   1      43.194  25.581  34.927  1.00  0.00    -0.203 F 
ATOM     69  F   UNL A   1      48.020  28.131  34.857  1.00  0.00    -0.200 F 
ATOM     70  C   UNL A   1      46.682  26.321  35.569  1.00  0.00     0.200 A 
ATOM     71  F   UNL A   1      45.309  24.524  36.246  1.00  0.00    -0.200 F 
ATOM     72  F   UNL A   1      47.728  25.780  36.207  1.00  0.00    -0.200 F 
ENDBRANCH  48  62
BRANCH  49  73
ATOM     73  C   UNL A   1      36.833  31.473  29.244  1.00  0.00     0.064 A 
ATOM     74  C   UNL A   1      36.807  32.841  28.941  1.00  0.00     0.173 A 
ATOM     75  C   UNL A   1      35.717  30.704  28.885  1.00  0.00     0.173 A 
ATOM     76  F   UNL A   1      37.840  33.624  29.288  1.00  0.00    -0.203 F 
ATOM     77  C   UNL A   1      35.698  33.422  28.328  1.00  0.00     0.198 A 
ATOM     78  C   UNL A   1      34.621  31.280  28.247  1.00  0.00     0.198 A 
ATOM     79  F   UNL A   1      35.689  29.390  29.157  1.00  0.00    -0.203 F 
ATOM     80  F   UNL A   1      35.676  34.742  28.101  1.00  0.00    -0.200 F 
ATOM     81  C   UNL A   1      34.607  32.640  27.980  1.00  0.00     0.200 A 
ATOM     82  F   UNL A   1      33.572  30.519  27.904  1.00  0.00    -0.200 F 
ATOM     83  F   UNL A   1      33.538  33.200  27.398  1.00  0.00    -0.200 F 
ENDBRANCH  49  73
BRANCH  61  84
ATOM     84  C   UNL A   1      39.226  32.133  35.747  1.00  0.00     0.064 A 
ATOM     85  C   UNL A   1      38.350  31.630  36.720  1.00  0.00     0.173 A 
ATOM     86  C   UNL A   1      39.704  33.442  35.906  1.00  0.00     0.173 A 
ATOM     87  F   UNL A   1      37.853  30.389  36.604  1.00  0.00    -0.203 F 
ATOM     88  C   UNL A   1      37.947  32.418  37.794  1.00  0.00     0.198 A 
ATOM     89  C   UNL A   1      39.321  34.218  36.998  1.00  0.00     0.198 A 
ATOM     90  F   UNL A   1      40.550  33.968  35.007  1.00  0.00    -0.203 F 
ATOM     91  F   UNL A   1      37.070  31.933  38.686  1.00  0.00    -0.200 F 
ATOM     92  C   UNL A   1      38.436  33.708  37.936  1.00  0.00     0.200 A 
ATOM     93  F   UNL A   1      39.804  35.459  37.138  1.00  0.00    -0.200 F 
ATOM     94  F   UNL A   1      38.050  34.462  38.973  1.00  0.00    -0.200 F 
ENDBRANCH  61  84
ENDBRANCH  35  36
ENDBRANCH  28  30
ENDBRANCH  27  28
ENDBRANCH  26  27
ENDBRANCH  25  26
ENDBRANCH  24  25
ENDBRANCH   1  24
TORSDOF 19
ENDMDL
MODEL 2
REMARK VINA RESULT:     -11.5      2.975      8.643
REMARK SMILES COc1ccc(OCc2nc(C)no2)c(/C=C/C(=O)OCCOCCOC(=O)c2ccc(-c3c4nc(c(-c5c(F)c(F)c(F)c(F)c5F)c5ccc([nH]5)c(-c5c(F)c(F)c(F)c(F)c5F)c5nc(c(-c6c(F)c(F)c(F)c(F)c6F)c6ccc3[nH]6)C=C5)C=C4)cc2)c1
REMARK SMILES IDX 22 1 21 2 20 3 18 4 19 5 17 6 16 7 15 8 3 9 4 10 92 11 5 12
REMARK SMILES IDX 6 13 2 14 1 15 7 16 8 17 9 18 10 19 14 20 11 21 13 22 12 23
REMARK SMILES IDX 23 24 24 25 25 26 26 27 27 28 28 29 29 30 30 31 91 32 31 33
REMARK SMILES IDX 90 34 32 35 33 36 34 37 84 38 35 39 89 40 83 41 85 42 36 43
REMARK SMILES IDX 88 44 82 45 81 46 37 48 69 49 49 50 68 51 50 52 53 53 67 54
REMARK SMILES IDX 86 55 51 56 52 57 66 59 87 60 54 61 38 62 39 63 47 64 40 65
REMARK SMILES IDX 41 66 45 67 48 68 42 69 43 70 46 71 44 72 70 73 71 74 79 75
REMARK SMILES IDX 72 76 73 77 77 78 80 79 74 80 75 81 78 82 76 83 55 84 56 85
REMARK SMILES IDX 64 86 57 87 58 88 62 89 65 90 59 91 60 92 63 93 61 94
REMARK H PARENT 85 47 53 58
REMARK Flexibility Score: inf
ROOT
ATOM      1  C   UNL A   1      33.502  28.303  24.085  1.00  0.00     0.202 C 
ENDROOT
BRANCH   1   2
ATOM      2  C   UNL A   1      32.766  27.257  23.240  1.00  0.00     0.261 C 
BRANCH   2   3
ATOM      3  O   UNL A   1      33.549  26.813  22.123  1.00  0.00    -0.460 OA
BRANCH   3   4
ATOM      4  C   UNL A   1      33.263  25.559  21.716  1.00  0.00     0.330 C 
ATOM      5  O   UNL A   1      33.174  25.170  20.560  1.00  0.00    -0.247 OA
BRANCH   4   6
ATOM      6  C   UNL A   1      33.297  24.624  22.847  1.00  0.00     0.094 C 
ATOM      7  C   UNL A   1      33.833  23.419  22.618  1.00  0.00     0.019 C 
BRANCH   7   8
ATOM      8  C   UNL A   1      34.641  22.715  23.633  1.00  0.00     0.020 A 
ATOM      9  C   UNL A   1      36.622  22.708  25.026  1.00  0.00     0.119 A 
ATOM     10  C   UNL A   1      36.106  21.646  25.771  1.00  0.00     0.050 A 
ATOM     11  C   UNL A   1      35.904  23.226  23.946  1.00  0.00     0.058 A 
ATOM     12  C   UNL A   1      34.838  21.135  25.486  1.00  0.00     0.051 A 
ATOM     13  C   UNL A   1      34.096  21.689  24.443  1.00  0.00     0.127 A 
BRANCH   9  14
ATOM     14  O   UNL A   1      37.862  23.164  25.390  1.00  0.00    -0.497 OA
ATOM     15  C   UNL A   1      38.697  22.144  25.937  1.00  0.00     0.278 C 
ENDBRANCH   9  14
BRANCH  13  16
ATOM     16  O   UNL A   1      32.862  21.178  24.127  1.00  0.00    -0.483 OA
BRANCH  16  17
ATOM     17  C   UNL A   1      31.861  21.206  25.166  1.00  0.00     0.329 C 
BRANCH  17  18
ATOM     18  C   UNL A   1      31.508  22.581  25.629  1.00  0.00     0.264 A 
ATOM     19  N   UNL A   1      30.884  23.574  25.032  1.00  0.00    -0.193 NA
ATOM     20  O   UNL A   1      31.847  22.877  26.923  1.00  0.00    -0.336 OA
ATOM     21  C   UNL A   1      30.702  24.464  26.051  1.00  0.00     0.169 A 
ATOM     22  N   UNL A   1      31.314  24.142  27.196  1.00  0.00    -0.063 NA
ATOM     23  C   UNL A   1      29.807  25.627  25.916  1.00  0.00     0.093 C 
ENDBRANCH  17  18
ENDBRANCH  16  17
ENDBRANCH  13  16
ENDBRANCH   7   8
ENDBRANCH   4   6
ENDBRANCH   3   4
ENDBRANCH   2   3
ENDBRANCH   1   2
BRANCH   1  24
ATOM     24  O   UNL A   1      32.876  29.561  24.314  1.00  0.00    -0.374 OA
BRANCH  24  25
ATOM     25  C   UNL A   1      31.796  29.650  25.237  1.00  0.00     0.202 C 
BRANCH  25  26
ATOM     26  C   UNL A   1      31.798  30.782  26.277  1.00  0.00     0.261 C 
BRANCH  26  27
ATOM     27  O   UNL A   1      32.764  30.608  27.329  1.00  0.00    -0.460 OA
BRANCH  27  28
ATOM     28  C   UNL A   1      33.539  31.692  27.574  1.00  0.00     0.338 C 
ATOM     29  O   UNL A   1      33.182  32.854  27.673  1.00  0.00    -0.246 OA
BRANCH  28  30
ATOM     30  C   UNL A   1      34.921  31.283  27.882  1.00  0.00     0.060 A 
ATOM     31  C   UNL A   1      35.155  29.923  28.127  1.00  0.00     0.016 A 
ATOM     32  C   UNL A   1      35.933  32.224  28.080  1.00  0.00     0.016 A 
ATOM     33  C   UNL A   1      36.395  29.502  28.602  1.00  0.00     0.010 A 
ATOM     34  C   UNL A   1      37.172  31.801  28.575  1.00  0.00     0.010 A 
ATOM     35  C   UNL A   1      37.397  30.444  28.870  1.00  0.00    -0.014 A 
BRANCH  35  36
ATOM     36  C   UNL A   1      38.613  30.009  29.601  1.00  0.00     0.031 A 
ATOM     37  C   UNL A   1      38.863  30.544  30.984  1.00  0.00     0.074 A 
ATOM     38  C   UNL A   1      39.443  29.096  29.069  1.00  0.00     0.049 A 
ATOM     39  N   UNL A   1      39.847  30.286  31.810  1.00  0.00    -0.248 NA
ATOM     40  C   UNL A   1      37.867  31.489  31.513  1.00  0.00     0.031 C 
ATOM     41  C   UNL A   1      39.278  28.466  27.760  1.00  0.00     0.029 A 
ATOM     42  N   UNL A   1      40.591  28.536  29.570  1.00  0.00    -0.354 N 
ATOM     43  C   UNL A   1      39.582  31.025  32.956  1.00  0.00     0.074 A 
ATOM     44  C   UNL A   1      38.366  31.770  32.708  1.00  0.00     0.031 C 
ATOM     45  C   UNL A   1      40.293  27.608  27.559  1.00  0.00     0.029 A 
ATOM     46  C   UNL A   1      41.191  27.649  28.712  1.00  0.00     0.049 A 
ATOM     47  H   UNL A   1      40.951  28.750  30.462  1.00  0.00     0.167 HD
ATOM     48  C   UNL A   1      40.279  31.065  34.116  1.00  0.00     0.037 A 
ATOM     49  C   UNL A   1      42.342  26.960  28.840  1.00  0.00     0.037 A 
ATOM     50  C   UNL A   1      41.496  30.336  34.360  1.00  0.00     0.049 A 
ATOM     51  C   UNL A   1      43.148  27.096  30.107  1.00  0.00     0.074 A 
ATOM     52  C   UNL A   1      42.291  30.333  35.493  1.00  0.00     0.029 A 
ATOM     53  N   UNL A   1      42.096  29.480  33.448  1.00  0.00    -0.354 N 
ATOM     54  N   UNL A   1      42.884  27.790  31.187  1.00  0.00    -0.248 NA
ATOM     55  C   UNL A   1      44.410  26.345  30.172  1.00  0.00     0.031 C 
ATOM     56  C   UNL A   1      43.391  29.502  35.254  1.00  0.00     0.029 A 
ATOM     57  C   UNL A   1      43.258  28.954  33.989  1.00  0.00     0.049 A 
ATOM     58  H   UNL A   1      41.748  29.276  32.550  1.00  0.00     0.167 HD
ATOM     59  C   UNL A   1      43.926  27.534  32.070  1.00  0.00     0.074 A 
ATOM     60  C   UNL A   1      44.821  26.612  31.403  1.00  0.00     0.031 C 
ATOM     61  C   UNL A   1      44.127  28.022  33.318  1.00  0.00     0.037 A 
BRANCH  48  62
ATOM     62  C   UNL A   1      39.746  31.938  35.212  1.00  0.00     0.064 A 
ATOM     63  C   UNL A   1      40.114  33.288  35.317  1.00  0.00     0.173 A 
ATOM     64  C   UNL A   1      38.825  31.434  36.142  1.00  0.00     0.173 A 
ATOM     65  F   UNL A   1      41.002  33.813  34.459  1.00  0.00    -0.203 F 
ATOM     66  C   UNL A   1      39.594  34.097  36.323  1.00  0.00     0.198 A 
ATOM     67  C   UNL A   1      38.287  32.252  37.133  1.00  0.00     0.198 A 
ATOM     68  F   UNL A   1      38.437  30.151  36.084  1.00  0.00    -0.203 F 
ATOM     69  F   UNL A   1      39.987  35.374  36.426  1.00  0.00    -0.200 F 
ATOM     70  C   UNL A   1      38.676  33.580  37.225  1.00  0.00     0.200 A 
ATOM     71  F   UNL A   1      37.392  31.755  37.998  1.00  0.00    -0.200 F 
ATOM     72  F   UNL A   1      38.169  34.362  38.189  1.00  0.00    -0.200 F 
ENDBRANCH  48  62
BRANCH  49  73
ATOM     73  C   UNL A   1      42.819  26.087  27.735  1.00  0.00     0.064 A 
ATOM     74  C   UNL A   1      42.420  24.747  27.646  1.00  0.00     0.173 A 
ATOM     75  C   UNL A   1      43.723  26.565  26.775  1.00  0.00     0.173 A 
ATOM     76  F   UNL A   1      41.579  24.237  28.557  1.00  0.00    -0.203 F 
ATOM     77  C   UNL A   1      42.925  23.910  26.653  1.00  0.00     0.198 A 
ATOM     78  C   UNL A   1      44.205  25.735  25.765  1.00  0.00     0.198 A 
ATOM     79  F   UNL A   1      44.140  27.839  26.817  1.00  0.00    -0.203 F 
ATOM     80  F   UNL A   1      42.570  22.618  26.624  1.00  0.00    -0.200 F 
ATOM     81  C   UNL A   1      43.815  24.406  25.711  1.00  0.00     0.200 A 
ATOM     82  F   UNL A   1      45.057  26.221  24.852  1.00  0.00    -0.200 F 
ATOM     83  F   UNL A   1      44.305  23.599  24.761  1.00  0.00    -0.200 F 
ENDBRANCH  49  73
BRANCH  61  84
ATOM     84  C   UNL A   1      45.335  27.533  34.062  1.00  0.00     0.064 A 
ATOM     85  C   UNL A   1      46.562  28.211  34.003  1.00  0.00     0.173 A 
ATOM     86  C   UNL A   1      45.255  26.388  34.870  1.00  0.00     0.173 A 
ATOM     87  F   UNL A   1      46.693  29.301  33.232  1.00  0.00    -0.203 F 
ATOM     88  C   UNL A   1      47.671  27.744  34.703  1.00  0.00     0.198 A 
ATOM     89  C   UNL A   1      46.359  25.941  35.591  1.00  0.00     0.198 A 
ATOM     90  F   UNL A   1      44.103  25.708  34.966  1.00  0.00    -0.203 F 
ATOM     91  F   UNL A   1      48.846  28.381  34.593  1.00  0.00    -0.200 F 
ATOM     92  C   UNL A   1      47.568  26.614  35.500  1.00  0.00     0.200 A 
ATOM     93  F   UNL A   1      46.254  24.855  36.369  1.00  0.00    -0.200 F 
ATOM     94  F   UNL A   1      48.636  26.170  36.176  1.00  0.00    -0.200 F 
ENDBRANCH  61  84
ENDBRANCH  35  36
ENDBRANCH  28  30
ENDBRANCH  27  28
ENDBRANCH  26  27
ENDBRANCH  25  26
ENDBRANCH  24  25
ENDBRANCH   1  24
TORSDOF 19
ENDMDL
MODEL 3
REMARK VINA RESULT:     -11.5      2.939      8.132
REMARK SMILES COc1ccc(OCc2nc(C)no2)c(/C=C/C(=O)OCCOCCOC(=O)c2ccc(-c3c4nc(c(-c5c(F)c(F)c(F)c(F)c5F)c5ccc([nH]5)c(-c5c(F)c(F)c(F)c(F)c5F)c5nc(c(-c6c(F)c(F)c(F)c(F)c6F)c6ccc3[nH]6)C=C5)C=C4)cc2)c1
REMARK SMILES IDX 22 1 21 2 20 3 18 4 19 5 17 6 16 7 15 8 3 9 4 10 92 11 5 12
REMARK SMILES IDX 6 13 2 14 1 15 7 16 8 17 9 18 10 19 14 20 11 21 13 22 12 23
REMARK SMILES IDX 23 24 24 25 25 26 26 27 27 28 28 29 29 30 30 31 91 32 31 33
REMARK SMILES IDX 90 34 32 35 33 36 34 37 84 38 35 39 89 40 83 41 85 42 36 43
REMARK SMILES IDX 88 44 82 45 81 46 37 48 69 49 49 50 68 51 50 52 53 53 67 54
REMARK SMILES IDX 86 55 51 56 52 57 66 59 87 60 54 61 38 62 39 63 47 64 40 65
REMARK SMILES IDX 41 66 45 67 48 68 42 69 43 70 46 71 44 72 70 73 71 74 79 75
REMARK SMILES IDX 72 76 73 77 77 78 80 79 74 80 75 81 78 82 76 83 55 84 56 85
REMARK SMILES IDX 64 86 57 87 58 88 62 89 65 90 59 91 60 92 63 93 61 94
REMARK H PARENT 85 47 53 58
REMARK Flexibility Score: inf
ROOT
ATOM      1  C   UNL A   1      33.643  27.986  24.767  1.00  0.00     0.202 C 
ENDROOT
BRANCH   1   2
ATOM      2  C   UNL A   1      33.621  27.811  23.244  1.00  0.00     0.261 C 
BRANCH   2   3
ATOM      3  O   UNL A   1      32.631  26.861  22.822  1.00  0.00    -0.460 OA
BRANCH   3   4
ATOM      4  C   UNL A   1      33.143  25.756  22.241  1.00  0.00     0.330 C 
ATOM      5  O   UNL A   1      33.646  25.685  21.129  1.00  0.00    -0.247 OA
BRANCH   4   6
ATOM      6  C   UNL A   1      33.246  24.658  23.209  1.00  0.00     0.094 C 
ATOM      7  C   UNL A   1      33.679  23.481  22.742  1.00  0.00     0.019 C 
BRANCH   7   8
ATOM      8  C   UNL A   1      34.551  22.594  23.537  1.00  0.00     0.020 A 
ATOM      9  C   UNL A   1      36.670  22.287  24.669  1.00  0.00     0.119 A 
ATOM     10  C   UNL A   1      36.176  21.146  25.304  1.00  0.00     0.050 A 
ATOM     11  C   UNL A   1      35.869  22.996  23.771  1.00  0.00     0.058 A 
ATOM     12  C   UNL A   1      34.856  20.739  25.098  1.00  0.00     0.051 A 
ATOM     13  C   UNL A   1      34.038  21.479  24.244  1.00  0.00     0.127 A 
BRANCH   9  14
ATOM     14  O   UNL A   1      37.967  22.629  24.947  1.00  0.00    -0.497 OA
ATOM     15  C   UNL A   1      38.630  21.680  25.783  1.00  0.00     0.278 C 
ENDBRANCH   9  14
BRANCH  13  16
ATOM     16  O   UNL A   1      32.748  21.076  24.005  1.00  0.00    -0.483 OA
BRANCH  16  17
ATOM     17  C   UNL A   1      31.838  21.106  25.125  1.00  0.00     0.329 C 
BRANCH  17  18
ATOM     18  C   UNL A   1      31.541  22.480  25.626  1.00  0.00     0.264 A 
ATOM     19  N   UNL A   1      30.838  23.467  25.114  1.00  0.00    -0.193 NA
ATOM     20  O   UNL A   1      32.047  22.784  26.863  1.00  0.00    -0.336 OA
ATOM     21  C   UNL A   1      30.787  24.361  26.145  1.00  0.00     0.169 A 
ATOM     22  N   UNL A   1      31.547  24.046  27.200  1.00  0.00    -0.063 NA
ATOM     23  C   UNL A   1      29.875  25.518  26.126  1.00  0.00     0.093 C 
ENDBRANCH  17  18
ENDBRANCH  16  17
ENDBRANCH  13  16
ENDBRANCH   7   8
ENDBRANCH   4   6
ENDBRANCH   3   4
ENDBRANCH   2   3
ENDBRANCH   1   2
BRANCH   1  24
ATOM     24  O   UNL A   1      32.433  28.332  25.433  1.00  0.00    -0.374 OA
BRANCH  24  25
ATOM     25  C   UNL A   1      31.663  29.433  24.964  1.00  0.00     0.202 C 
BRANCH  25  26
ATOM     26  C   UNL A   1      31.560  30.694  25.837  1.00  0.00     0.261 C 
BRANCH  26  27
ATOM     27  O   UNL A   1      32.362  30.646  27.031  1.00  0.00    -0.460 OA
BRANCH  27  28
ATOM     28  C   UNL A   1      33.123  31.745  27.248  1.00  0.00     0.338 C 
ATOM     29  O   UNL A   1      32.770  32.912  27.212  1.00  0.00    -0.246 OA
BRANCH  28  30
ATOM     30  C   UNL A   1      34.467  31.362  27.715  1.00  0.00     0.060 A 
ATOM     31  C   UNL A   1      34.684  30.014  28.031  1.00  0.00     0.016 A 
ATOM     32  C   UNL A   1      35.446  32.320  27.985  1.00  0.00     0.016 A 
ATOM     33  C   UNL A   1      35.869  29.623  28.649  1.00  0.00     0.010 A 
ATOM     34  C   UNL A   1      36.629  31.928  28.622  1.00  0.00     0.010 A 
ATOM     35  C   UNL A   1      36.831  30.584  28.987  1.00  0.00    -0.014 A 
BRANCH  35  36
ATOM     36  C   UNL A   1      37.966  30.188  29.858  1.00  0.00     0.031 A 
ATOM     37  C   UNL A   1      39.009  29.250  29.317  1.00  0.00     0.074 A 
ATOM     38  C   UNL A   1      38.102  30.713  31.088  1.00  0.00     0.049 A 
ATOM     39  N   UNL A   1      40.090  28.787  29.892  1.00  0.00    -0.248 NA
ATOM     40  C   UNL A   1      38.813  28.775  27.937  1.00  0.00     0.031 C 
ATOM     41  C   UNL A   1      37.186  31.672  31.702  1.00  0.00     0.029 A 
ATOM     42  N   UNL A   1      39.071  30.515  32.039  1.00  0.00    -0.354 N 
ATOM     43  C   UNL A   1      40.708  27.981  28.944  1.00  0.00     0.074 A 
ATOM     44  C   UNL A   1      39.863  27.986  27.769  1.00  0.00     0.031 C 
ATOM     45  C   UNL A   1      37.635  31.976  32.932  1.00  0.00     0.029 A 
ATOM     46  C   UNL A   1      38.854  31.214  33.200  1.00  0.00     0.049 A 
ATOM     47  H   UNL A   1      39.850  29.928  31.901  1.00  0.00     0.167 HD
ATOM     48  C   UNL A   1      41.881  27.311  29.039  1.00  0.00     0.037 A 
ATOM     49  C   UNL A   1      39.553  31.223  34.351  1.00  0.00     0.037 A 
ATOM     50  C   UNL A   1      42.715  27.293  30.212  1.00  0.00     0.049 A 
ATOM     51  C   UNL A   1      40.808  30.394  34.461  1.00  0.00     0.074 A 
ATOM     52  C   UNL A   1      43.908  26.621  30.415  1.00  0.00     0.029 A 
ATOM     53  N   UNL A   1      42.438  27.979  31.385  1.00  0.00    -0.354 N 
ATOM     54  N   UNL A   1      41.387  29.642  33.557  1.00  0.00    -0.248 NA
ATOM     55  C   UNL A   1      41.508  30.421  35.754  1.00  0.00     0.031 C 
ATOM     56  C   UNL A   1      44.336  26.873  31.724  1.00  0.00     0.029 A 
ATOM     57  C   UNL A   1      43.431  27.736  32.320  1.00  0.00     0.049 A 
ATOM     58  H   UNL A   1      41.653  28.554  31.532  1.00  0.00     0.167 HD
ATOM     59  C   UNL A   1      42.532  29.135  34.158  1.00  0.00     0.074 A 
ATOM     60  C   UNL A   1      42.573  29.674  35.501  1.00  0.00     0.031 C 
ATOM     61  C   UNL A   1      43.465  28.296  33.646  1.00  0.00     0.037 A 
BRANCH  48  62
ATOM     62  C   UNL A   1      42.329  26.530  27.840  1.00  0.00     0.064 A 
ATOM     63  C   UNL A   1      41.869  25.226  27.603  1.00  0.00     0.173 A 
ATOM     64  C   UNL A   1      43.192  27.104  26.896  1.00  0.00     0.173 A 
ATOM     65  F   UNL A   1      41.052  24.629  28.484  1.00  0.00    -0.203 F 
ATOM     66  C   UNL A   1      42.271  24.518  26.474  1.00  0.00     0.198 A 
ATOM     67  C   UNL A   1      43.574  26.403  25.754  1.00  0.00     0.198 A 
ATOM     68  F   UNL A   1      43.658  28.350  27.074  1.00  0.00    -0.203 F 
ATOM     69  F   UNL A   1      41.847  23.261  26.285  1.00  0.00    -0.200 F 
ATOM     70  C   UNL A   1      43.116  25.110  25.547  1.00  0.00     0.200 A 
ATOM     71  F   UNL A   1      44.382  26.979  24.854  1.00  0.00    -0.200 F 
ATOM     72  F   UNL A   1      43.496  24.431  24.456  1.00  0.00    -0.200 F 
ENDBRANCH  48  62
BRANCH  49  73
ATOM     73  C   UNL A   1      39.083  32.033  35.506  1.00  0.00     0.064 A 
ATOM     74  C   UNL A   1      39.444  33.380  35.643  1.00  0.00     0.173 A 
ATOM     75  C   UNL A   1      38.303  31.460  36.521  1.00  0.00     0.173 A 
ATOM     76  F   UNL A   1      40.213  33.964  34.712  1.00  0.00    -0.203 F 
ATOM     77  C   UNL A   1      39.065  34.117  36.762  1.00  0.00     0.198 A 
ATOM     78  C   UNL A   1      37.899  32.206  37.626  1.00  0.00     0.198 A 
ATOM     79  F   UNL A   1      37.933  30.173  36.441  1.00  0.00    -0.203 F 
ATOM     80  F   UNL A   1      39.471  35.387  36.895  1.00  0.00    -0.200 F 
ATOM     81  C   UNL A   1      38.290  33.531  37.752  1.00  0.00     0.200 A 
ATOM     82  F   UNL A   1      37.143  31.638  38.575  1.00  0.00    -0.200 F 
ATOM     83  F   UNL A   1      37.930  34.237  38.831  1.00  0.00    -0.200 F 
ENDBRANCH  49  73
BRANCH  61  84
ATOM     84  C   UNL A   1      44.631  27.946  34.524  1.00  0.00     0.064 A 
ATOM     85  C   UNL A   1      44.617  26.812  35.351  1.00  0.00     0.173 A 
ATOM     86  C   UNL A   1      45.790  28.737  34.512  1.00  0.00     0.173 A 
ATOM     87  F   UNL A   1      43.527  26.033  35.408  1.00  0.00    -0.203 F 
ATOM     88  C   UNL A   1      45.710  26.502  36.154  1.00  0.00     0.198 A 
ATOM     89  C   UNL A   1      46.892  28.406  35.297  1.00  0.00     0.198 A 
ATOM     90  F   UNL A   1      45.856  29.828  33.734  1.00  0.00    -0.203 F 
ATOM     91  F   UNL A   1      45.656  25.441  36.973  1.00  0.00    -0.200 F 
ATOM     92  C   UNL A   1      46.848  27.295  36.123  1.00  0.00     0.200 A 
ATOM     93  F   UNL A   1      47.994  29.168  35.256  1.00  0.00    -0.200 F 
ATOM     94  F   UNL A   1      47.899  26.990  36.895  1.00  0.00    -0.200 F 
ENDBRANCH  61  84
ENDBRANCH  35  36
ENDBRANCH  28  30
ENDBRANCH  27  28
ENDBRANCH  26  27
ENDBRANCH  25  26
ENDBRANCH  24  25
ENDBRANCH   1  24
TORSDOF 19
ENDMDL
