MODEL 1
REMARK VINA RESULT:     -10.6      0.000      0.000
REMARK SMILES Nc1cc(C(=O)OCCOCCOC(=O)c2ccc(-c3c4nc(c(-c5c(F)c(F)c(F)c(F)c5F)c5ccc([nH]5)c(-c5c(F)c(F)c(F)c(F)c5F)c5nc(c(-c6c(F)c(F)c(F)c(F)c6F)c6ccc3[nH]6)C=C5)C=C4)cc2)nc2ccc(F)cc12
REMARK SMILES IDX 11 1 10 2 9 3 8 4 7 5 5 6 6 7 4 8 2 9 3 10 86 11 80 12 85 13
REMARK SMILES IDX 79 14 81 15 83 16 82 17 84 18 1 19 12 22 13 23 14 24 15 25
REMARK SMILES IDX 16 26 17 27 78 28 18 29 77 30 19 31 20 32 21 33 71 34 22 35
REMARK SMILES IDX 76 36 70 37 72 38 23 39 75 40 69 41 68 42 24 44 56 45 36 46
REMARK SMILES IDX 55 47 37 48 40 49 54 50 73 51 38 52 39 53 53 55 74 56 41 57
REMARK SMILES IDX 25 58 26 59 34 60 27 61 28 62 32 63 35 64 29 65 30 66 33 67
REMARK SMILES IDX 31 68 57 69 58 70 66 71 59 72 60 73 64 74 67 75 61 76 62 77
REMARK SMILES IDX 65 78 63 79 42 80 43 81 51 82 44 83 45 84 49 85 52 86 46 87
REMARK SMILES IDX 47 88 50 89 48 90
REMARK H PARENT 1 20 1 21 72 43 40 54
REMARK Flexibility Score: inf
ROOT
ATOM      1  C   UNL A   1      40.953  19.674  26.126  1.00  0.00     0.202 C 
ENDROOT
BRANCH   1   2
ATOM      2  O   UNL A   1      42.228  19.594  25.488  1.00  0.00    -0.374 OA
BRANCH   2   3
ATOM      3  C   UNL A   1      43.039  18.453  25.752  1.00  0.00     0.202 C 
BRANCH   3   4
ATOM      4  C   UNL A   1      44.555  18.612  25.595  1.00  0.00     0.261 C 
BRANCH   4   5
ATOM      5  O   UNL A   1      44.891  19.437  24.469  1.00  0.00    -0.459 OA
BRANCH   5   6
ATOM      6  C   UNL A   1      45.988  20.223  24.653  1.00  0.00     0.357 C 
ATOM      7  O   UNL A   1      47.150  19.852  24.628  1.00  0.00    -0.244 OA
BRANCH   6   8
ATOM      8  C   UNL A   1      45.575  21.653  24.756  1.00  0.00     0.151 A 
ATOM      9  C   UNL A   1      43.940  23.388  24.915  1.00  0.00     0.043 A 
ATOM     10  C   UNL A   1      44.243  22.032  24.780  1.00  0.00     0.062 A 
ATOM     11  C   UNL A   1      45.002  24.317  25.084  1.00  0.00     0.026 A 
ATOM     12  C   UNL A   1      46.324  23.824  24.984  1.00  0.00     0.073 A 
ATOM     13  C   UNL A   1      44.822  25.694  25.354  1.00  0.00     0.051 A 
ATOM     14  N   UNL A   1      46.603  22.531  24.817  1.00  0.00    -0.241 NA
ATOM     15  C   UNL A   1      47.395  24.702  25.080  1.00  0.00     0.032 A 
ATOM     16  C   UNL A   1      45.917  26.540  25.480  1.00  0.00     0.124 A 
ATOM     17  C   UNL A   1      47.205  26.061  25.327  1.00  0.00     0.041 A 
ATOM     18  F   UNL A   1      45.722  27.836  25.755  1.00  0.00    -0.207 F 
BRANCH   9  19
ATOM     19  N   UNL A   1      42.600  23.765  25.001  1.00  0.00    -0.398 N 
ATOM     20  H   UNL A   1      42.231  24.082  25.857  1.00  0.00     0.156 HD
ATOM     21  H   UNL A   1      42.023  23.714  24.205  1.00  0.00     0.156 HD
ENDBRANCH   9  19
ENDBRANCH   6   8
ENDBRANCH   5   6
ENDBRANCH   4   5
ENDBRANCH   3   4
ENDBRANCH   2   3
ENDBRANCH   1   2
BRANCH   1  22
ATOM     22  C   UNL A   1      40.652  20.940  26.940  1.00  0.00     0.261 C 
BRANCH  22  23
ATOM     23  O   UNL A   1      40.476  22.101  26.108  1.00  0.00    -0.460 OA
BRANCH  23  24
ATOM     24  C   UNL A   1      39.299  22.754  26.269  1.00  0.00     0.338 C 
ATOM     25  O   UNL A   1      38.173  22.305  26.126  1.00  0.00    -0.246 OA
BRANCH  24  26
ATOM     26  C   UNL A   1      39.561  24.084  26.854  1.00  0.00     0.060 A 
ATOM     27  C   UNL A   1      39.354  24.334  28.210  1.00  0.00     0.016 A 
ATOM     28  C   UNL A   1      40.056  25.090  26.013  1.00  0.00     0.016 A 
ATOM     29  C   UNL A   1      39.666  25.595  28.727  1.00  0.00     0.010 A 
ATOM     30  C   UNL A   1      40.367  26.347  26.531  1.00  0.00     0.010 A 
ATOM     31  C   UNL A   1      40.192  26.604  27.898  1.00  0.00    -0.014 A 
BRANCH  31  32
ATOM     32  C   UNL A   1      40.664  27.882  28.488  1.00  0.00     0.031 A 
ATOM     33  C   UNL A   1      42.120  28.140  28.738  1.00  0.00     0.074 A 
ATOM     34  C   UNL A   1      39.750  28.823  28.795  1.00  0.00     0.049 A 
ATOM     35  N   UNL A   1      42.698  29.230  29.178  1.00  0.00    -0.248 NA
ATOM     36  C   UNL A   1      43.051  27.035  28.463  1.00  0.00     0.031 C 
ATOM     37  C   UNL A   1      38.305  28.674  28.620  1.00  0.00     0.029 A 
ATOM     38  N   UNL A   1      39.897  30.091  29.297  1.00  0.00    -0.354 N 
ATOM     39  C   UNL A   1      44.059  28.957  29.199  1.00  0.00     0.074 A 
ATOM     40  C   UNL A   1      44.218  27.578  28.788  1.00  0.00     0.031 C 
ATOM     41  C   UNL A   1      37.701  29.822  28.964  1.00  0.00     0.029 A 
ATOM     42  C   UNL A   1      38.710  30.774  29.419  1.00  0.00     0.049 A 
ATOM     43  H   UNL A   1      40.768  30.475  29.549  1.00  0.00     0.167 HD
ATOM     44  C   UNL A   1      45.080  29.794  29.505  1.00  0.00     0.037 A 
ATOM     45  C   UNL A   1      38.465  32.030  29.841  1.00  0.00     0.037 A 
ATOM     46  C   UNL A   1      44.916  31.160  29.936  1.00  0.00     0.049 A 
ATOM     47  C   UNL A   1      39.617  32.904  30.256  1.00  0.00     0.074 A 
ATOM     48  C   UNL A   1      45.895  32.083  30.266  1.00  0.00     0.029 A 
ATOM     49  N   UNL A   1      43.696  31.800  30.102  1.00  0.00    -0.354 N 
ATOM     50  N   UNL A   1      40.903  32.657  30.211  1.00  0.00    -0.248 NA
ATOM     51  C   UNL A   1      39.282  34.237  30.780  1.00  0.00     0.031 C 
ATOM     52  C   UNL A   1      45.268  33.262  30.676  1.00  0.00     0.029 A 
ATOM     53  C   UNL A   1      43.899  33.096  30.549  1.00  0.00     0.049 A 
ATOM     54  H   UNL A   1      42.817  31.393  29.929  1.00  0.00     0.167 HD
ATOM     55  C   UNL A   1      41.530  33.808  30.664  1.00  0.00     0.074 A 
ATOM     56  C   UNL A   1      40.485  34.764  30.963  1.00  0.00     0.031 C 
ATOM     57  C   UNL A   1      42.854  34.049  30.825  1.00  0.00     0.037 A 
BRANCH  44  58
ATOM     58  C   UNL A   1      46.483  29.279  29.357  1.00  0.00     0.064 A 
ATOM     59  C   UNL A   1      47.221  29.528  28.190  1.00  0.00     0.173 A 
ATOM     60  C   UNL A   1      47.136  28.643  30.424  1.00  0.00     0.173 A 
ATOM     61  F   UNL A   1      46.641  30.129  27.140  1.00  0.00    -0.203 F 
ATOM     62  C   UNL A   1      48.559  29.155  28.095  1.00  0.00     0.198 A 
ATOM     63  C   UNL A   1      48.482  28.296  30.335  1.00  0.00     0.198 A 
ATOM     64  F   UNL A   1      46.479  28.392  31.566  1.00  0.00    -0.203 F 
ATOM     65  F   UNL A   1      49.237  29.387  26.963  1.00  0.00    -0.200 F 
ATOM     66  C   UNL A   1      49.192  28.552  29.171  1.00  0.00     0.200 A 
ATOM     67  F   UNL A   1      49.098  27.731  31.382  1.00  0.00    -0.200 F 
ATOM     68  F   UNL A   1      50.487  28.220  29.088  1.00  0.00    -0.200 F 
ENDBRANCH  44  58
BRANCH  45  69
ATOM     69  C   UNL A   1      37.073  32.554  29.857  1.00  0.00     0.064 A 
ATOM     70  C   UNL A   1      36.559  33.251  28.753  1.00  0.00     0.173 A 
ATOM     71  C   UNL A   1      36.237  32.390  30.970  1.00  0.00     0.173 A 
ATOM     72  F   UNL A   1      37.326  33.452  27.672  1.00  0.00    -0.203 F 
ATOM     73  C   UNL A   1      35.272  33.783  28.773  1.00  0.00     0.198 A 
ATOM     74  C   UNL A   1      34.938  32.892  30.976  1.00  0.00     0.198 A 
ATOM     75  F   UNL A   1      36.679  31.728  32.051  1.00  0.00    -0.203 F 
ATOM     76  F   UNL A   1      34.826  34.490  27.726  1.00  0.00    -0.200 F 
ATOM     77  C   UNL A   1      34.461  33.597  29.882  1.00  0.00     0.200 A 
ATOM     78  F   UNL A   1      34.152  32.698  32.043  1.00  0.00    -0.200 F 
ATOM     79  F   UNL A   1      33.222  34.108  29.900  1.00  0.00    -0.200 F 
ENDBRANCH  45  69
BRANCH  57  80
ATOM     80  C   UNL A   1      43.264  35.409  31.317  1.00  0.00     0.064 A 
ATOM     81  C   UNL A   1      43.331  35.706  32.686  1.00  0.00     0.173 A 
ATOM     82  C   UNL A   1      43.664  36.402  30.410  1.00  0.00     0.173 A 
ATOM     83  F   UNL A   1      42.946  34.796  33.594  1.00  0.00    -0.203 F 
ATOM     84  C   UNL A   1      43.767  36.952  33.128  1.00  0.00     0.198 A 
ATOM     85  C   UNL A   1      44.132  37.635  30.857  1.00  0.00     0.198 A 
ATOM     86  F   UNL A   1      43.627  36.168  29.090  1.00  0.00    -0.203 F 
ATOM     87  F   UNL A   1      43.785  37.226  34.440  1.00  0.00    -0.200 F 
ATOM     88  C   UNL A   1      44.177  37.911  32.215  1.00  0.00     0.200 A 
ATOM     89  F   UNL A   1      44.546  38.554  29.974  1.00  0.00    -0.200 F 
ATOM     90  F   UNL A   1      44.616  39.102  32.643  1.00  0.00    -0.200 F 
ENDBRANCH  57  80
ENDBRANCH  31  32
ENDBRANCH  24  26
ENDBRANCH  23  24
ENDBRANCH  22  23
ENDBRANCH   1  22
TORSDOF 15
ENDMDL
MODEL 2
REMARK VINA RESULT:     -10.6      0.214      1.633
REMARK SMILES Nc1cc(C(=O)OCCOCCOC(=O)c2ccc(-c3c4nc(c(-c5c(F)c(F)c(F)c(F)c5F)c5ccc([nH]5)c(-c5c(F)c(F)c(F)c(F)c5F)c5nc(c(-c6c(F)c(F)c(F)c(F)c6F)c6ccc3[nH]6)C=C5)C=C4)cc2)nc2ccc(F)cc12
REMARK SMILES IDX 11 1 10 2 9 3 8 4 7 5 5 6 6 7 4 8 2 9 3 10 86 11 80 12 85 13
REMARK SMILES IDX 79 14 81 15 83 16 82 17 84 18 1 19 12 22 13 23 14 24 15 25
REMARK SMILES IDX 16 26 17 27 78 28 18 29 77 30 19 31 20 32 21 33 71 34 22 35
REMARK SMILES IDX 76 36 70 37 72 38 23 39 75 40 69 41 68 42 24 44 56 45 36 46
REMARK SMILES IDX 55 47 37 48 40 49 54 50 73 51 38 52 39 53 53 55 74 56 41 57
REMARK SMILES IDX 25 58 26 59 34 60 27 61 28 62 32 63 35 64 29 65 30 66 33 67
REMARK SMILES IDX 31 68 57 69 58 70 66 71 59 72 60 73 64 74 67 75 61 76 62 77
REMARK SMILES IDX 65 78 63 79 42 80 43 81 51 82 44 83 45 84 49 85 52 86 46 87
REMARK SMILES IDX 47 88 50 89 48 90
REMARK H PARENT 1 20 1 21 72 43 40 54
REMARK Flexibility Score: inf
ROOT
ATOM      1  C   UNL A   1      41.169  19.870  26.475  1.00  0.00     0.202 C 
ENDROOT
BRANCH   1   2
ATOM      2  O   UNL A   1      42.580  19.654  26.461  1.00  0.00    -0.374 OA
BRANCH   2   3
ATOM      3  C   UNL A   1      43.078  18.521  25.756  1.00  0.00     0.202 C 
BRANCH   3   4
ATOM      4  C   UNL A   1      44.575  18.490  25.434  1.00  0.00     0.261 C 
BRANCH   4   5
ATOM      5  O   UNL A   1      44.911  19.396  24.371  1.00  0.00    -0.459 OA
BRANCH   5   6
ATOM      6  C   UNL A   1      45.987  20.190  24.626  1.00  0.00     0.357 C 
ATOM      7  O   UNL A   1      47.154  19.833  24.649  1.00  0.00    -0.244 OA
BRANCH   6   8
ATOM      8  C   UNL A   1      45.552  21.613  24.739  1.00  0.00     0.151 A 
ATOM      9  C   UNL A   1      43.890  23.321  24.912  1.00  0.00     0.043 A 
ATOM     10  C   UNL A   1      44.214  21.971  24.766  1.00  0.00     0.062 A 
ATOM     11  C   UNL A   1      44.937  24.265  25.086  1.00  0.00     0.026 A 
ATOM     12  C   UNL A   1      46.266  23.793  24.982  1.00  0.00     0.073 A 
ATOM     13  C   UNL A   1      44.736  25.637  25.366  1.00  0.00     0.051 A 
ATOM     14  N   UNL A   1      46.566  22.507  24.805  1.00  0.00    -0.241 NA
ATOM     15  C   UNL A   1      47.324  24.688  25.083  1.00  0.00     0.032 A 
ATOM     16  C   UNL A   1      45.818  26.500  25.497  1.00  0.00     0.124 A 
ATOM     17  C   UNL A   1      47.113  26.042  25.339  1.00  0.00     0.041 A 
ATOM     18  F   UNL A   1      45.603  27.790  25.781  1.00  0.00    -0.207 F 
BRANCH   9  19
ATOM     19  N   UNL A   1      42.544  23.677  25.001  1.00  0.00    -0.398 N 
ATOM     20  H   UNL A   1      41.939  23.170  25.590  1.00  0.00     0.156 HD
ATOM     21  H   UNL A   1      42.199  24.433  24.475  1.00  0.00     0.156 HD
ENDBRANCH   9  19
ENDBRANCH   6   8
ENDBRANCH   5   6
ENDBRANCH   4   5
ENDBRANCH   3   4
ENDBRANCH   2   3
ENDBRANCH   1   2
BRANCH   1  22
ATOM     22  C   UNL A   1      40.664  21.173  27.110  1.00  0.00     0.261 C 
BRANCH  22  23
ATOM     23  O   UNL A   1      40.405  22.197  26.133  1.00  0.00    -0.460 OA
BRANCH  23  24
ATOM     24  C   UNL A   1      39.234  22.862  26.290  1.00  0.00     0.338 C 
ATOM     25  O   UNL A   1      38.104  22.425  26.143  1.00  0.00    -0.246 OA
BRANCH  24  26
ATOM     26  C   UNL A   1      39.508  24.190  26.874  1.00  0.00     0.060 A 
ATOM     27  C   UNL A   1      39.273  24.452  28.223  1.00  0.00     0.016 A 
ATOM     28  C   UNL A   1      40.042  25.182  26.039  1.00  0.00     0.016 A 
ATOM     29  C   UNL A   1      39.598  25.709  28.742  1.00  0.00     0.010 A 
ATOM     30  C   UNL A   1      40.364  26.436  26.559  1.00  0.00     0.010 A 
ATOM     31  C   UNL A   1      40.162  26.704  27.920  1.00  0.00    -0.014 A 
BRANCH  31  32
ATOM     32  C   UNL A   1      40.644  27.975  28.515  1.00  0.00     0.031 A 
ATOM     33  C   UNL A   1      42.102  28.219  28.770  1.00  0.00     0.074 A 
ATOM     34  C   UNL A   1      39.739  28.925  28.822  1.00  0.00     0.049 A 
ATOM     35  N   UNL A   1      42.689  29.302  29.214  1.00  0.00    -0.248 NA
ATOM     36  C   UNL A   1      43.023  27.106  28.495  1.00  0.00     0.031 C 
ATOM     37  C   UNL A   1      38.293  28.790  28.642  1.00  0.00     0.029 A 
ATOM     38  N   UNL A   1      39.896  30.190  29.328  1.00  0.00    -0.354 N 
ATOM     39  C   UNL A   1      44.047  29.017  29.239  1.00  0.00     0.074 A 
ATOM     40  C   UNL A   1      44.195  27.637  28.825  1.00  0.00     0.031 C 
ATOM     41  C   UNL A   1      37.699  29.943  28.987  1.00  0.00     0.029 A 
ATOM     42  C   UNL A   1      38.715  30.884  29.447  1.00  0.00     0.049 A 
ATOM     43  H   UNL A   1      40.770  30.564  29.582  1.00  0.00     0.167 HD
ATOM     44  C   UNL A   1      45.075  29.843  29.550  1.00  0.00     0.037 A 
ATOM     45  C   UNL A   1      38.481  32.140  29.872  1.00  0.00     0.037 A 
ATOM     46  C   UNL A   1      44.923  31.209  29.984  1.00  0.00     0.049 A 
ATOM     47  C   UNL A   1      39.640  33.002  30.292  1.00  0.00     0.074 A 
ATOM     48  C   UNL A   1      45.909  32.121  30.319  1.00  0.00     0.029 A 
ATOM     49  N   UNL A   1      43.708  31.860  30.148  1.00  0.00    -0.354 N 
ATOM     50  N   UNL A   1      40.924  32.743  30.251  1.00  0.00    -0.248 NA
ATOM     51  C   UNL A   1      39.316  34.337  30.819  1.00  0.00     0.031 C 
ATOM     52  C   UNL A   1      45.293  33.306  30.731  1.00  0.00     0.029 A 
ATOM     53  C   UNL A   1      43.923  33.153  30.599  1.00  0.00     0.049 A 
ATOM     54  H   UNL A   1      42.826  31.462  29.971  1.00  0.00     0.167 HD
ATOM     55  C   UNL A   1      41.560  33.888  30.709  1.00  0.00     0.074 A 
ATOM     56  C   UNL A   1      40.523  34.853  31.007  1.00  0.00     0.031 C 
ATOM     57  C   UNL A   1      42.886  34.116  30.875  1.00  0.00     0.037 A 
BRANCH  44  58
ATOM     58  C   UNL A   1      46.474  29.315  29.405  1.00  0.00     0.064 A 
ATOM     59  C   UNL A   1      47.089  28.608  30.449  1.00  0.00     0.173 A 
ATOM     60  C   UNL A   1      47.157  29.407  28.182  1.00  0.00     0.173 A 
ATOM     61  F   UNL A   1      46.478  28.496  31.638  1.00  0.00    -0.203 F 
ATOM     62  C   UNL A   1      48.337  28.017  30.277  1.00  0.00     0.198 A 
ATOM     63  C   UNL A   1      48.394  28.792  28.006  1.00  0.00     0.198 A 
ATOM     64  F   UNL A   1      46.609  30.062  27.148  1.00  0.00    -0.203 F 
ATOM     65  F   UNL A   1      48.911  27.363  31.296  1.00  0.00    -0.200 F 
ATOM     66  C   UNL A   1      48.983  28.098  29.053  1.00  0.00     0.200 A 
ATOM     67  F   UNL A   1      49.009  28.854  26.817  1.00  0.00    -0.200 F 
ATOM     68  F   UNL A   1      50.171  27.504  28.880  1.00  0.00    -0.200 F 
ENDBRANCH  44  58
BRANCH  45  69
ATOM     69  C   UNL A   1      37.094  32.678  29.885  1.00  0.00     0.064 A 
ATOM     70  C   UNL A   1      36.289  32.552  31.027  1.00  0.00     0.173 A 
ATOM     71  C   UNL A   1      36.538  33.307  28.762  1.00  0.00     0.173 A 
ATOM     72  F   UNL A   1      36.768  31.941  32.120  1.00  0.00    -0.203 F 
ATOM     73  C   UNL A   1      34.975  33.014  31.037  1.00  0.00     0.198 A 
ATOM     74  C   UNL A   1      35.235  33.799  28.784  1.00  0.00     0.198 A 
ATOM     75  F   UNL A   1      37.266  33.455  27.645  1.00  0.00    -0.203 F 
ATOM     76  F   UNL A   1      34.212  32.832  32.123  1.00  0.00    -0.200 F 
ATOM     77  C   UNL A   1      34.451  33.642  29.917  1.00  0.00     0.200 A 
ATOM     78  F   UNL A   1      34.737  34.419  27.706  1.00  0.00    -0.200 F 
ATOM     79  F   UNL A   1      33.188  34.088  29.927  1.00  0.00    -0.200 F 
ENDBRANCH  45  69
BRANCH  57  80
ATOM     80  C   UNL A   1      43.307  35.470  31.371  1.00  0.00     0.064 A 
ATOM     81  C   UNL A   1      43.398  35.755  32.742  1.00  0.00     0.173 A 
ATOM     82  C   UNL A   1      43.694  36.470  30.466  1.00  0.00     0.173 A 
ATOM     83  F   UNL A   1      43.026  34.838  33.648  1.00  0.00    -0.203 F 
ATOM     84  C   UNL A   1      43.844  36.996  33.187  1.00  0.00     0.198 A 
ATOM     85  C   UNL A   1      44.172  37.698  30.916  1.00  0.00     0.198 A 
ATOM     86  F   UNL A   1      43.634  36.248  29.145  1.00  0.00    -0.203 F 
ATOM     87  F   UNL A   1      43.884  37.259  34.501  1.00  0.00    -0.200 F 
ATOM     88  C   UNL A   1      44.241  37.962  32.275  1.00  0.00     0.200 A 
ATOM     89  F   UNL A   1      44.574  38.624  30.034  1.00  0.00    -0.200 F 
ATOM     90  F   UNL A   1      44.690  39.149  32.706  1.00  0.00    -0.200 F 
ENDBRANCH  57  80
ENDBRANCH  31  32
ENDBRANCH  24  26
ENDBRANCH  23  24
ENDBRANCH  22  23
ENDBRANCH   1  22
TORSDOF 15
ENDMDL
MODEL 3
REMARK VINA RESULT:     -10.6      5.237     10.582
REMARK SMILES Nc1cc(C(=O)OCCOCCOC(=O)c2ccc(-c3c4nc(c(-c5c(F)c(F)c(F)c(F)c5F)c5ccc([nH]5)c(-c5c(F)c(F)c(F)c(F)c5F)c5nc(c(-c6c(F)c(F)c(F)c(F)c6F)c6ccc3[nH]6)C=C5)C=C4)cc2)nc2ccc(F)cc12
REMARK SMILES IDX 11 1 10 2 9 3 8 4 7 5 5 6 6 7 4 8 2 9 3 10 86 11 80 12 85 13
REMARK SMILES IDX 79 14 81 15 83 16 82 17 84 18 1 19 12 22 13 23 14 24 15 25
REMARK SMILES IDX 16 26 17 27 78 28 18 29 77 30 19 31 20 32 21 33 71 34 22 35
REMARK SMILES IDX 76 36 70 37 72 38 23 39 75 40 69 41 68 42 24 44 56 45 36 46
REMARK SMILES IDX 55 47 37 48 40 49 54 50 73 51 38 52 39 53 53 55 74 56 41 57
REMARK SMILES IDX 25 58 26 59 34 60 27 61 28 62 32 63 35 64 29 65 30 66 33 67
REMARK SMILES IDX 31 68 57 69 58 70 66 71 59 72 60 73 64 74 67 75 61 76 62 77
REMARK SMILES IDX 65 78 63 79 42 80 43 81 51 82 44 83 45 84 49 85 52 86 46 87
REMARK SMILES IDX 47 88 50 89 48 90
REMARK H PARENT 1 20 1 21 72 43 40 54
REMARK Flexibility Score: inf
ROOT
ATOM      1  C   UNL A   1      31.606  29.274  25.301  1.00  0.00     0.202 C 
ENDROOT
BRANCH   1   2
ATOM      2  O   UNL A   1      31.324  29.256  23.901  1.00  0.00    -0.374 OA
BRANCH   2   3
ATOM      3  C   UNL A   1      32.296  28.685  23.030  1.00  0.00     0.202 C 
BRANCH   3   4
ATOM      4  C   UNL A   1      32.741  27.246  23.314  1.00  0.00     0.261 C 
BRANCH   4   5
ATOM      5  O   UNL A   1      32.036  26.299  22.498  1.00  0.00    -0.459 OA
BRANCH   5   6
ATOM      6  C   UNL A   1      32.838  25.450  21.798  1.00  0.00     0.357 C 
ATOM      7  O   UNL A   1      33.252  25.624  20.663  1.00  0.00    -0.244 OA
BRANCH   6   8
ATOM      8  C   UNL A   1      33.266  24.319  22.673  1.00  0.00     0.151 A 
ATOM      9  C   UNL A   1      32.832  22.459  24.108  1.00  0.00     0.043 A 
ATOM     10  C   UNL A   1      32.351  23.519  23.337  1.00  0.00     0.062 A 
ATOM     11  C   UNL A   1      34.229  22.204  24.133  1.00  0.00     0.026 A 
ATOM     12  C   UNL A   1      35.073  23.122  23.465  1.00  0.00     0.073 A 
ATOM     13  C   UNL A   1      34.826  21.092  24.772  1.00  0.00     0.051 A 
ATOM     14  N   UNL A   1      34.606  24.154  22.762  1.00  0.00    -0.241 NA
ATOM     15  C   UNL A   1      36.450  22.952  23.513  1.00  0.00     0.032 A 
ATOM     16  C   UNL A   1      36.207  20.932  24.771  1.00  0.00     0.124 A 
ATOM     17  C   UNL A   1      37.029  21.862  24.162  1.00  0.00     0.041 A 
ATOM     18  F   UNL A   1      36.747  19.860  25.365  1.00  0.00    -0.207 F 
BRANCH   9  19
ATOM     19  N   UNL A   1      31.910  21.615  24.728  1.00  0.00    -0.398 N 
ATOM     20  H   UNL A   1      31.592  21.817  25.637  1.00  0.00     0.156 HD
ATOM     21  H   UNL A   1      31.578  20.818  24.256  1.00  0.00     0.156 HD
ENDBRANCH   9  19
ENDBRANCH   6   8
ENDBRANCH   5   6
ENDBRANCH   4   5
ENDBRANCH   3   4
ENDBRANCH   2   3
ENDBRANCH   1   2
BRANCH   1  22
ATOM     22  C   UNL A   1      31.740  30.648  25.973  1.00  0.00     0.261 C 
BRANCH  22  23
ATOM     23  O   UNL A   1      32.578  30.610  27.142  1.00  0.00    -0.460 OA
BRANCH  23  24
ATOM     24  C   UNL A   1      33.341  31.714  27.341  1.00  0.00     0.338 C 
ATOM     25  O   UNL A   1      32.993  32.881  27.271  1.00  0.00    -0.246 OA
BRANCH  24  26
ATOM     26  C   UNL A   1      34.658  31.301  27.864  1.00  0.00     0.060 A 
ATOM     27  C   UNL A   1      35.686  32.224  28.052  1.00  0.00     0.016 A 
ATOM     28  C   UNL A   1      34.844  29.952  28.199  1.00  0.00     0.016 A 
ATOM     29  C   UNL A   1      36.899  31.794  28.599  1.00  0.00     0.010 A 
ATOM     30  C   UNL A   1      36.055  29.526  28.744  1.00  0.00     0.010 A 
ATOM     31  C   UNL A   1      37.087  30.448  28.966  1.00  0.00    -0.014 A 
BRANCH  31  32
ATOM     32  C   UNL A   1      38.318  30.038  29.688  1.00  0.00     0.031 A 
ATOM     33  C   UNL A   1      38.635  30.561  31.057  1.00  0.00     0.074 A 
ATOM     34  C   UNL A   1      39.156  29.172  29.086  1.00  0.00     0.049 A 
ATOM     35  N   UNL A   1      39.630  30.243  31.848  1.00  0.00    -0.248 NA
ATOM     36  C   UNL A   1      37.723  31.570  31.615  1.00  0.00     0.031 C 
ATOM     37  C   UNL A   1      38.964  28.617  27.745  1.00  0.00     0.029 A 
ATOM     38  N   UNL A   1      40.320  28.593  29.524  1.00  0.00    -0.354 N 
ATOM     39  C   UNL A   1      39.446  30.984  33.008  1.00  0.00     0.074 A 
ATOM     40  C   UNL A   1      38.280  31.816  32.795  1.00  0.00     0.031 C 
ATOM     41  C   UNL A   1      39.949  27.743  27.488  1.00  0.00     0.029 A 
ATOM     42  C   UNL A   1      40.861  27.702  28.627  1.00  0.00     0.049 A 
ATOM     43  H   UNL A   1      40.729  28.796  30.395  1.00  0.00     0.167 HD
ATOM     44  C   UNL A   1      40.170  30.948  34.153  1.00  0.00     0.037 A 
ATOM     45  C   UNL A   1      41.964  26.934  28.718  1.00  0.00     0.037 A 
ATOM     46  C   UNL A   1      41.344  30.136  34.352  1.00  0.00     0.049 A 
ATOM     47  C   UNL A   1      42.793  26.983  29.972  1.00  0.00     0.074 A 
ATOM     48  C   UNL A   1      42.140  30.034  35.481  1.00  0.00     0.029 A 
ATOM     49  N   UNL A   1      41.895  29.289  33.401  1.00  0.00    -0.354 N 
ATOM     50  N   UNL A   1      42.574  27.639  31.085  1.00  0.00    -0.248 NA
ATOM     51  C   UNL A   1      44.025  26.181  29.983  1.00  0.00     0.031 C 
ATOM     52  C   UNL A   1      43.197  29.166  35.198  1.00  0.00     0.029 A 
ATOM     53  C   UNL A   1      43.031  28.680  33.912  1.00  0.00     0.049 A 
ATOM     54  H   UNL A   1      41.534  29.144  32.497  1.00  0.00     0.167 HD
ATOM     55  C   UNL A   1      43.616  27.304  31.938  1.00  0.00     0.074 A 
ATOM     56  C   UNL A   1      44.460  26.371  31.221  1.00  0.00     0.031 C 
ATOM     57  C   UNL A   1      43.855  27.737  33.200  1.00  0.00     0.037 A 
BRANCH  44  58
ATOM     58  C   UNL A   1      39.703  31.785  35.309  1.00  0.00     0.064 A 
ATOM     59  C   UNL A   1      40.167  33.098  35.481  1.00  0.00     0.173 A 
ATOM     60  C   UNL A   1      38.702  31.324  36.177  1.00  0.00     0.173 A 
ATOM     61  F   UNL A   1      41.128  33.584  34.679  1.00  0.00    -0.203 F 
ATOM     62  C   UNL A   1      39.651  33.916  36.481  1.00  0.00     0.198 A 
ATOM     63  C   UNL A   1      38.168  32.154  37.160  1.00  0.00     0.198 A 
ATOM     64  F   UNL A   1      38.215  30.081  36.049  1.00  0.00    -0.203 F 
ATOM     65  F   UNL A   1      40.124  35.160  36.636  1.00  0.00    -0.200 F 
ATOM     66  C   UNL A   1      38.643  33.449  37.311  1.00  0.00     0.200 A 
ATOM     67  F   UNL A   1      37.181  31.709  37.949  1.00  0.00    -0.200 F 
ATOM     68  F   UNL A   1      38.127  34.248  38.255  1.00  0.00    -0.200 F 
ENDBRANCH  44  58
BRANCH  45  69
ATOM     69  C   UNL A   1      42.330  26.019  27.603  1.00  0.00     0.064 A 
ATOM     70  C   UNL A   1      41.722  24.761  27.482  1.00  0.00     0.173 A 
ATOM     71  C   UNL A   1      43.299  26.368  26.653  1.00  0.00     0.173 A 
ATOM     72  F   UNL A   1      40.803  24.373  28.378  1.00  0.00    -0.203 F 
ATOM     73  C   UNL A   1      42.087  23.879  26.468  1.00  0.00     0.198 A 
ATOM     74  C   UNL A   1      43.640  25.500  25.619  1.00  0.00     0.198 A 
ATOM     75  F   UNL A   1      43.909  27.561  26.722  1.00  0.00    -0.203 F 
ATOM     76  F   UNL A   1      41.529  22.663  26.408  1.00  0.00    -0.200 F 
ATOM     77  C   UNL A   1      43.041  24.252  25.533  1.00  0.00     0.200 A 
ATOM     78  F   UNL A   1      44.551  25.869  24.709  1.00  0.00    -0.200 F 
ATOM     79  F   UNL A   1      43.391  23.404  24.557  1.00  0.00    -0.200 F 
ENDBRANCH  45  69
BRANCH  57  80
ATOM     80  C   UNL A   1      45.059  27.187  33.911  1.00  0.00     0.064 A 
ATOM     81  C   UNL A   1      46.302  27.835  33.861  1.00  0.00     0.173 A 
ATOM     82  C   UNL A   1      44.950  26.040  34.713  1.00  0.00     0.173 A 
ATOM     83  F   UNL A   1      46.464  28.928  33.099  1.00  0.00    -0.203 F 
ATOM     84  C   UNL A   1      47.394  27.346  34.572  1.00  0.00     0.198 A 
ATOM     85  C   UNL A   1      46.035  25.573  35.449  1.00  0.00     0.198 A 
ATOM     86  F   UNL A   1      43.782  25.386  34.802  1.00  0.00    -0.203 F 
ATOM     87  F   UNL A   1      48.582  27.959  34.477  1.00  0.00    -0.200 F 
ATOM     88  C   UNL A   1      47.258  26.223  35.374  1.00  0.00     0.200 A 
ATOM     89  F   UNL A   1      45.896  24.499  36.238  1.00  0.00    -0.200 F 
ATOM     90  F   UNL A   1      48.305  25.765  36.073  1.00  0.00    -0.200 F 
ENDBRANCH  57  80
ENDBRANCH  31  32
ENDBRANCH  24  26
ENDBRANCH  23  24
ENDBRANCH  22  23
ENDBRANCH   1  22
TORSDOF 15
ENDMDL
