MODEL 1
REMARK VINA RESULT:     -11.1      0.000      0.000
REMARK SMILES CNC(=O)[C@H](C)S(=O)(=O)c1cc(C(=O)OCCOCCOC(=O)c2ccc(-c3c4nc(c(-c5c(F)c(F)c(F)c(F)c5F)c5ccc([nH]5)c(-c5c(F)c(F)c(F)c(F)c5F)c5nc(c(-c6c(F)c(F)c(F)c(F)c6F)c6ccc3[nH]6)C=C5)C=C4)cc2)c(C)cc1C
REMARK SMILES IDX 17 1 16 2 15 3 13 4 14 5 12 6 10 7 11 8 90 9 89 10 91 11
REMARK SMILES IDX 87 12 88 13 7 14 8 15 9 16 5 17 6 18 3 19 1 20 2 21 4 23
REMARK SMILES IDX 18 24 19 25 20 26 21 27 22 28 23 29 24 30 25 31 86 32 26 33
REMARK SMILES IDX 85 34 27 35 28 36 29 37 79 38 30 39 84 40 78 41 80 42 31 43
REMARK SMILES IDX 83 44 77 45 76 46 32 48 64 49 44 50 63 51 45 52 48 53 62 54
REMARK SMILES IDX 81 55 46 56 47 57 61 59 82 60 49 61 33 62 34 63 42 64 35 65
REMARK SMILES IDX 36 66 40 67 43 68 37 69 38 70 41 71 39 72 65 73 66 74 74 75
REMARK SMILES IDX 67 76 68 77 72 78 75 79 69 80 70 81 73 82 71 83 50 84 51 85
REMARK SMILES IDX 59 86 52 87 53 88 57 89 60 90 54 91 55 92 58 93 56 94
REMARK H PARENT 2 22 80 47 48 58
REMARK Flexibility Score: inf
ROOT
ATOM      1  C   UNL A   1      34.032  19.494  24.871  1.00  0.00     0.202 C 
ENDROOT
BRANCH   1   2
ATOM      2  C   UNL A   1      33.652  20.957  24.638  1.00  0.00     0.261 C 
BRANCH   2   3
ATOM      3  O   UNL A   1      32.720  21.370  25.650  1.00  0.00    -0.460 OA
BRANCH   3   4
ATOM      4  C   UNL A   1      33.252  22.053  26.685  1.00  0.00     0.338 C 
ATOM      5  O   UNL A   1      33.611  21.575  27.751  1.00  0.00    -0.246 OA
BRANCH   4   6
ATOM      6  C   UNL A   1      33.511  23.474  26.330  1.00  0.00     0.064 A 
ATOM      7  C   UNL A   1      32.384  25.564  25.682  1.00  0.00     0.071 A 
ATOM      8  C   UNL A   1      32.357  24.275  26.241  1.00  0.00     0.036 A 
ATOM      9  C   UNL A   1      33.583  26.017  25.129  1.00  0.00    -0.032 A 
ATOM     10  C   UNL A   1      34.765  25.289  25.394  1.00  0.00     0.009 A 
ATOM     11  C   UNL A   1      33.731  27.164  24.177  1.00  0.00     0.046 C 
ATOM     12  C   UNL A   1      34.757  24.029  26.015  1.00  0.00    -0.036 A 
ATOM     13  C   UNL A   1      36.074  23.323  26.175  1.00  0.00     0.045 C 
BRANCH   7  14
ATOM     14  S   UNL A   1      30.790  26.367  25.539  1.00  0.00     0.190 S 
ATOM     15  O   UNL A   1      31.037  27.767  25.862  1.00  0.00    -0.223 OA
ATOM     16  O   UNL A   1      29.912  25.614  26.410  1.00  0.00    -0.223 OA
BRANCH  14  17
ATOM     17  C   UNL A   1      30.150  26.421  23.888  1.00  0.00     0.199 C 
ATOM     18  C   UNL A   1      30.214  25.055  23.200  1.00  0.00     0.036 C 
BRANCH  17  19
ATOM     19  C   UNL A   1      28.779  27.029  23.752  1.00  0.00     0.238 C 
ATOM     20  C   UNL A   1      29.499  29.114  22.474  1.00  0.00     0.142 C 
ATOM     21  N   UNL A   1      28.564  28.203  23.099  1.00  0.00    -0.358 N 
ATOM     22  H   UNL A   1      27.620  28.477  23.041  1.00  0.00     0.163 HD
ATOM     23  O   UNL A   1      27.776  26.439  24.164  1.00  0.00    -0.274 OA
ENDBRANCH  17  19
ENDBRANCH  14  17
ENDBRANCH   7  14
ENDBRANCH   4   6
ENDBRANCH   3   4
ENDBRANCH   2   3
ENDBRANCH   1   2
BRANCH   1  24
ATOM     24  O   UNL A   1      35.414  19.181  24.685  1.00  0.00    -0.374 OA
BRANCH  24  25
ATOM     25  C   UNL A   1      36.347  20.258  24.745  1.00  0.00     0.202 C 
BRANCH  25  26
ATOM     26  C   UNL A   1      37.716  19.929  25.350  1.00  0.00     0.261 C 
BRANCH  26  27
ATOM     27  O   UNL A   1      38.564  21.088  25.438  1.00  0.00    -0.460 OA
BRANCH  27  28
ATOM     28  C   UNL A   1      39.639  20.940  26.247  1.00  0.00     0.338 C 
ATOM     29  O   UNL A   1      40.312  19.931  26.414  1.00  0.00    -0.246 OA
BRANCH  28  30
ATOM     30  C   UNL A   1      40.026  22.243  26.814  1.00  0.00     0.060 A 
ATOM     31  C   UNL A   1      39.447  23.389  26.254  1.00  0.00     0.016 A 
ATOM     32  C   UNL A   1      40.990  22.352  27.818  1.00  0.00     0.016 A 
ATOM     33  C   UNL A   1      39.863  24.653  26.665  1.00  0.00     0.010 A 
ATOM     34  C   UNL A   1      41.413  23.622  28.224  1.00  0.00     0.010 A 
ATOM     35  C   UNL A   1      40.876  24.777  27.625  1.00  0.00    -0.014 A 
BRANCH  35  36
ATOM     36  C   UNL A   1      41.462  26.110  27.902  1.00  0.00     0.031 A 
ATOM     37  C   UNL A   1      42.848  26.418  27.411  1.00  0.00     0.074 A 
ATOM     38  C   UNL A   1      40.755  27.045  28.560  1.00  0.00     0.049 A 
ATOM     39  N   UNL A   1      43.561  27.505  27.559  1.00  0.00    -0.248 NA
ATOM     40  C   UNL A   1      43.523  25.354  26.651  1.00  0.00     0.031 C 
ATOM     41  C   UNL A   1      39.389  26.878  29.052  1.00  0.00     0.029 A 
ATOM     42  N   UNL A   1      41.096  28.322  28.930  1.00  0.00    -0.354 N 
ATOM     43  C   UNL A   1      44.768  27.256  26.919  1.00  0.00     0.074 A 
ATOM     44  C   UNL A   1      44.704  25.902  26.407  1.00  0.00     0.031 C 
ATOM     45  C   UNL A   1      39.008  28.010  29.667  1.00  0.00     0.029 A 
ATOM     46  C   UNL A   1      40.114  28.968  29.638  1.00  0.00     0.049 A 
ATOM     47  H   UNL A   1      41.962  28.735  28.708  1.00  0.00     0.167 HD
ATOM     48  C   UNL A   1      45.828  28.083  26.762  1.00  0.00     0.037 A 
ATOM     49  C   UNL A   1      40.116  30.186  30.212  1.00  0.00     0.037 A 
ATOM     50  C   UNL A   1      45.889  29.430  27.270  1.00  0.00     0.049 A 
ATOM     51  C   UNL A   1      41.335  31.061  30.087  1.00  0.00     0.074 A 
ATOM     52  C   UNL A   1      46.906  30.358  27.137  1.00  0.00     0.029 A 
ATOM     53  N   UNL A   1      44.890  30.035  28.017  1.00  0.00    -0.354 N 
ATOM     54  N   UNL A   1      42.459  30.831  29.453  1.00  0.00    -0.248 NA
ATOM     55  C   UNL A   1      41.283  32.368  30.758  1.00  0.00     0.031 C 
ATOM     56  C   UNL A   1      46.546  31.506  27.851  1.00  0.00     0.029 A 
ATOM     57  C   UNL A   1      45.281  31.314  28.382  1.00  0.00     0.049 A 
ATOM     58  H   UNL A   1      44.030  29.618  28.255  1.00  0.00     0.167 HD
ATOM     59  C   UNL A   1      43.236  31.969  29.625  1.00  0.00     0.074 A 
ATOM     60  C   UNL A   1      42.450  32.895  30.413  1.00  0.00     0.031 C 
ATOM     61  C   UNL A   1      44.487  32.226  29.168  1.00  0.00     0.037 A 
BRANCH  48  62
ATOM     62  C   UNL A   1      47.026  27.542  26.037  1.00  0.00     0.064 A 
ATOM     63  C   UNL A   1      48.080  26.911  26.715  1.00  0.00     0.173 A 
ATOM     64  C   UNL A   1      47.110  27.636  24.639  1.00  0.00     0.173 A 
ATOM     65  F   UNL A   1      48.055  26.808  28.053  1.00  0.00    -0.203 F 
ATOM     66  C   UNL A   1      49.187  26.424  26.025  1.00  0.00     0.198 A 
ATOM     67  C   UNL A   1      48.204  27.121  23.950  1.00  0.00     0.198 A 
ATOM     68  F   UNL A   1      46.128  28.225  23.941  1.00  0.00    -0.203 F 
ATOM     69  F   UNL A   1      50.205  25.873  26.700  1.00  0.00    -0.200 F 
ATOM     70  C   UNL A   1      49.245  26.525  24.644  1.00  0.00     0.200 A 
ATOM     71  F   UNL A   1      48.254  27.209  22.613  1.00  0.00    -0.200 F 
ATOM     72  F   UNL A   1      50.310  26.052  23.980  1.00  0.00    -0.200 F 
ENDBRANCH  48  62
BRANCH  49  73
ATOM     73  C   UNL A   1      38.920  30.649  30.964  1.00  0.00     0.064 A 
ATOM     74  C   UNL A   1      38.836  30.491  32.354  1.00  0.00     0.173 A 
ATOM     75  C   UNL A   1      37.840  31.256  30.307  1.00  0.00     0.173 A 
ATOM     76  F   UNL A   1      39.833  29.893  33.021  1.00  0.00    -0.203 F 
ATOM     77  C   UNL A   1      37.709  30.913  33.058  1.00  0.00     0.198 A 
ATOM     78  C   UNL A   1      36.726  31.701  31.017  1.00  0.00     0.198 A 
ATOM     79  F   UNL A   1      37.872  31.429  28.978  1.00  0.00    -0.203 F 
ATOM     80  F   UNL A   1      37.637  30.714  34.380  1.00  0.00    -0.200 F 
ATOM     81  C   UNL A   1      36.659  31.523  32.390  1.00  0.00     0.200 A 
ATOM     82  F   UNL A   1      35.718  32.302  30.368  1.00  0.00    -0.200 F 
ATOM     83  F   UNL A   1      35.579  31.935  33.068  1.00  0.00    -0.200 F 
ENDBRANCH  49  73
BRANCH  61  84
ATOM     84  C   UNL A   1      45.074  33.571  29.483  1.00  0.00     0.064 A 
ATOM     85  C   UNL A   1      45.863  33.782  30.624  1.00  0.00     0.173 A 
ATOM     86  C   UNL A   1      44.879  34.653  28.611  1.00  0.00     0.173 A 
ATOM     87  F   UNL A   1      46.067  32.784  31.497  1.00  0.00    -0.203 F 
ATOM     88  C   UNL A   1      46.414  35.032  30.892  1.00  0.00     0.198 A 
ATOM     89  C   UNL A   1      45.456  35.894  28.867  1.00  0.00     0.198 A 
ATOM     90  F   UNL A   1      44.140  34.504  27.502  1.00  0.00    -0.203 F 
ATOM     91  F   UNL A   1      47.125  35.223  32.012  1.00  0.00    -0.200 F 
ATOM     92  C   UNL A   1      46.216  36.086  30.011  1.00  0.00     0.200 A 
ATOM     93  F   UNL A   1      45.276  36.906  28.007  1.00  0.00    -0.200 F 
ATOM     94  F   UNL A   1      46.752  37.286  30.268  1.00  0.00    -0.200 F 
ENDBRANCH  61  84
ENDBRANCH  35  36
ENDBRANCH  28  30
ENDBRANCH  27  28
ENDBRANCH  26  27
ENDBRANCH  25  26
ENDBRANCH  24  25
ENDBRANCH   1  24
TORSDOF 17
ENDMDL
MODEL 2
REMARK VINA RESULT:     -11.1      4.273      9.994
REMARK SMILES CNC(=O)[C@H](C)S(=O)(=O)c1cc(C(=O)OCCOCCOC(=O)c2ccc(-c3c4nc(c(-c5c(F)c(F)c(F)c(F)c5F)c5ccc([nH]5)c(-c5c(F)c(F)c(F)c(F)c5F)c5nc(c(-c6c(F)c(F)c(F)c(F)c6F)c6ccc3[nH]6)C=C5)C=C4)cc2)c(C)cc1C
REMARK SMILES IDX 17 1 16 2 15 3 13 4 14 5 12 6 10 7 11 8 90 9 89 10 91 11
REMARK SMILES IDX 87 12 88 13 7 14 8 15 9 16 5 17 6 18 3 19 1 20 2 21 4 23
REMARK SMILES IDX 18 24 19 25 20 26 21 27 22 28 23 29 24 30 25 31 86 32 26 33
REMARK SMILES IDX 85 34 27 35 28 36 29 37 79 38 30 39 84 40 78 41 80 42 31 43
REMARK SMILES IDX 83 44 77 45 76 46 32 48 64 49 44 50 63 51 45 52 48 53 62 54
REMARK SMILES IDX 81 55 46 56 47 57 61 59 82 60 49 61 33 62 34 63 42 64 35 65
REMARK SMILES IDX 36 66 40 67 43 68 37 69 38 70 41 71 39 72 65 73 66 74 74 75
REMARK SMILES IDX 67 76 68 77 72 78 75 79 69 80 70 81 73 82 71 83 50 84 51 85
REMARK SMILES IDX 59 86 52 87 53 88 57 89 60 90 54 91 55 92 58 93 56 94
REMARK H PARENT 2 22 80 47 48 58
REMARK Flexibility Score: inf
ROOT
ATOM      1  C   UNL A   1      33.097  28.970  24.865  1.00  0.00     0.202 C 
ENDROOT
BRANCH   1   2
ATOM      2  C   UNL A   1      33.347  28.958  23.357  1.00  0.00     0.261 C 
BRANCH   2   3
ATOM      3  O   UNL A   1      32.422  28.052  22.732  1.00  0.00    -0.460 OA
BRANCH   3   4
ATOM      4  C   UNL A   1      32.899  26.815  22.484  1.00  0.00     0.338 C 
ATOM      5  O   UNL A   1      33.645  26.504  21.567  1.00  0.00    -0.246 OA
BRANCH   4   6
ATOM      6  C   UNL A   1      32.538  25.860  23.567  1.00  0.00     0.064 A 
ATOM      7  C   UNL A   1      33.460  24.073  24.985  1.00  0.00     0.071 A 
ATOM      8  C   UNL A   1      33.630  25.178  24.134  1.00  0.00     0.036 A 
ATOM      9  C   UNL A   1      32.164  23.598  25.197  1.00  0.00    -0.032 A 
ATOM     10  C   UNL A   1      31.077  24.399  24.779  1.00  0.00     0.009 A 
ATOM     11  C   UNL A   1      31.803  22.251  25.740  1.00  0.00     0.046 C 
ATOM     12  C   UNL A   1      31.240  25.547  23.987  1.00  0.00    -0.036 A 
ATOM     13  C   UNL A   1      29.999  26.271  23.547  1.00  0.00     0.045 C 
BRANCH   7  14
ATOM     14  S   UNL A   1      34.973  23.263  25.496  1.00  0.00     0.190 S 
ATOM     15  O   UNL A   1      34.598  22.442  26.642  1.00  0.00    -0.223 OA
ATOM     16  O   UNL A   1      35.919  24.339  25.712  1.00  0.00    -0.223 OA
BRANCH  14  17
ATOM     17  C   UNL A   1      35.602  22.093  24.325  1.00  0.00     0.199 C 
ATOM     18  C   UNL A   1      36.634  22.718  23.383  1.00  0.00     0.036 C 
BRANCH  17  19
ATOM     19  C   UNL A   1      36.121  20.809  24.916  1.00  0.00     0.238 C 
ATOM     20  C   UNL A   1      33.961  19.474  24.683  1.00  0.00     0.142 C 
ATOM     21  N   UNL A   1      35.351  19.692  25.023  1.00  0.00    -0.358 N 
ATOM     22  H   UNL A   1      35.815  18.904  25.389  1.00  0.00     0.163 HD
ATOM     23  O   UNL A   1      37.302  20.697  25.260  1.00  0.00    -0.274 OA
ENDBRANCH  17  19
ENDBRANCH  14  17
ENDBRANCH   7  14
ENDBRANCH   4   6
ENDBRANCH   3   4
ENDBRANCH   2   3
ENDBRANCH   1   2
BRANCH   1  24
ATOM     24  O   UNL A   1      31.838  29.507  25.276  1.00  0.00    -0.374 OA
BRANCH  24  25
ATOM     25  C   UNL A   1      31.784  30.162  26.542  1.00  0.00     0.202 C 
BRANCH  25  26
ATOM     26  C   UNL A   1      32.120  31.657  26.540  1.00  0.00     0.261 C 
BRANCH  26  27
ATOM     27  O   UNL A   1      32.648  32.098  27.803  1.00  0.00    -0.460 OA
BRANCH  27  28
ATOM     28  C   UNL A   1      33.662  32.991  27.711  1.00  0.00     0.338 C 
ATOM     29  O   UNL A   1      33.580  34.186  27.460  1.00  0.00    -0.246 OA
BRANCH  28  30
ATOM     30  C   UNL A   1      34.927  32.361  28.126  1.00  0.00     0.060 A 
ATOM     31  C   UNL A   1      34.895  30.999  28.451  1.00  0.00     0.016 A 
ATOM     32  C   UNL A   1      36.104  33.099  28.270  1.00  0.00     0.016 A 
ATOM     33  C   UNL A   1      36.031  30.378  28.965  1.00  0.00     0.010 A 
ATOM     34  C   UNL A   1      37.241  32.475  28.794  1.00  0.00     0.010 A 
ATOM     35  C   UNL A   1      37.200  31.122  29.175  1.00  0.00    -0.014 A 
BRANCH  35  36
ATOM     36  C   UNL A   1      38.330  30.513  29.916  1.00  0.00     0.031 A 
ATOM     37  C   UNL A   1      38.553  30.891  31.353  1.00  0.00     0.074 A 
ATOM     38  C   UNL A   1      39.132  29.614  29.321  1.00  0.00     0.049 A 
ATOM     39  N   UNL A   1      39.489  30.501  32.180  1.00  0.00    -0.248 NA
ATOM     40  C   UNL A   1      37.591  31.839  31.935  1.00  0.00     0.031 C 
ATOM     41  C   UNL A   1      38.994  29.140  27.946  1.00  0.00     0.029 A 
ATOM     42  N   UNL A   1      40.228  28.942  29.803  1.00  0.00    -0.354 N 
ATOM     43  C   UNL A   1      39.233  31.158  33.376  1.00  0.00     0.074 A 
ATOM     44  C   UNL A   1      38.073  31.997  33.159  1.00  0.00     0.031 C 
ATOM     45  C   UNL A   1      39.973  28.256  27.691  1.00  0.00     0.029 A 
ATOM     46  C   UNL A   1      40.824  28.126  28.874  1.00  0.00     0.049 A 
ATOM     47  H   UNL A   1      40.555  29.035  30.728  1.00  0.00     0.167 HD
ATOM     48  C   UNL A   1      39.899  31.063  34.552  1.00  0.00     0.037 A 
ATOM     49  C   UNL A   1      41.939  27.377  28.965  1.00  0.00     0.037 A 
ATOM     50  C   UNL A   1      41.051  30.226  34.766  1.00  0.00     0.049 A 
ATOM     51  C   UNL A   1      42.704  27.344  30.261  1.00  0.00     0.074 A 
ATOM     52  C   UNL A   1      41.777  30.037  35.928  1.00  0.00     0.029 A 
ATOM     53  N   UNL A   1      41.651  29.445  33.789  1.00  0.00    -0.354 N 
ATOM     54  N   UNL A   1      42.439  27.943  31.397  1.00  0.00    -0.248 NA
ATOM     55  C   UNL A   1      43.927  26.527  30.287  1.00  0.00     0.031 C 
ATOM     56  C   UNL A   1      42.849  29.184  35.641  1.00  0.00     0.029 A 
ATOM     57  C   UNL A   1      42.758  28.798  34.314  1.00  0.00     0.049 A 
ATOM     58  H   UNL A   1      41.336  29.362  32.859  1.00  0.00     0.167 HD
ATOM     59  C   UNL A   1      43.441  27.556  32.277  1.00  0.00     0.074 A 
ATOM     60  C   UNL A   1      44.315  26.661  31.548  1.00  0.00     0.031 C 
ATOM     61  C   UNL A   1      43.620  27.909  33.575  1.00  0.00     0.037 A 
BRANCH  48  62
ATOM     62  C   UNL A   1      39.414  31.911  35.691  1.00  0.00     0.064 A 
ATOM     63  C   UNL A   1      38.458  31.445  36.607  1.00  0.00     0.173 A 
ATOM     64  C   UNL A   1      39.930  33.202  35.882  1.00  0.00     0.173 A 
ATOM     65  F   UNL A   1      37.924  30.223  36.461  1.00  0.00    -0.203 F 
ATOM     66  C   UNL A   1      38.014  32.252  37.652  1.00  0.00     0.198 A 
ATOM     67  C   UNL A   1      39.505  33.994  36.946  1.00  0.00     0.198 A 
ATOM     68  F   UNL A   1      40.849  33.696  35.039  1.00  0.00    -0.203 F 
ATOM     69  F   UNL A   1      37.063  31.804  38.483  1.00  0.00    -0.200 F 
ATOM     70  C   UNL A   1      38.542  33.522  37.823  1.00  0.00     0.200 A 
ATOM     71  F   UNL A   1      40.025  35.218  37.117  1.00  0.00    -0.200 F 
ATOM     72  F   UNL A   1      38.116  34.296  38.832  1.00  0.00    -0.200 F 
ENDBRANCH  48  62
BRANCH  49  73
ATOM     73  C   UNL A   1      42.402  26.598  27.787  1.00  0.00     0.064 A 
ATOM     74  C   UNL A   1      43.334  27.133  26.888  1.00  0.00     0.173 A 
ATOM     75  C   UNL A   1      41.920  25.304  27.537  1.00  0.00     0.173 A 
ATOM     76  F   UNL A   1      43.803  28.376  27.072  1.00  0.00    -0.203 F 
ATOM     77  C   UNL A   1      43.758  26.408  25.776  1.00  0.00     0.198 A 
ATOM     78  C   UNL A   1      42.365  24.571  26.439  1.00  0.00     0.198 A 
ATOM     79  F   UNL A   1      41.025  24.748  28.367  1.00  0.00    -0.203 F 
ATOM     80  F   UNL A   1      44.619  26.959  24.910  1.00  0.00    -0.200 F 
ATOM     81  C   UNL A   1      43.279  25.126  25.557  1.00  0.00     0.200 A 
ATOM     82  F   UNL A   1      41.908  23.327  26.238  1.00  0.00    -0.200 F 
ATOM     83  F   UNL A   1      43.692  24.427  24.491  1.00  0.00    -0.200 F 
ENDBRANCH  49  73
BRANCH  61  84
ATOM     84  C   UNL A   1      44.787  27.304  34.300  1.00  0.00     0.064 A 
ATOM     85  C   UNL A   1      44.694  26.057  34.936  1.00  0.00     0.173 A 
ATOM     86  C   UNL A   1      46.027  27.961  34.322  1.00  0.00     0.173 A 
ATOM     87  F   UNL A   1      43.527  25.396  34.957  1.00  0.00    -0.203 F 
ATOM     88  C   UNL A   1      45.792  25.503  35.589  1.00  0.00     0.198 A 
ATOM     89  C   UNL A   1      47.131  27.390  34.950  1.00  0.00     0.198 A 
ATOM     90  F   UNL A   1      46.173  29.151  33.722  1.00  0.00    -0.203 F 
ATOM     91  F   UNL A   1      45.668  24.333  36.232  1.00  0.00    -0.200 F 
ATOM     92  C   UNL A   1      47.011  26.166  35.590  1.00  0.00     0.200 A 
ATOM     93  F   UNL A   1      48.311  28.025  34.937  1.00  0.00    -0.200 F 
ATOM     94  F   UNL A   1      48.068  25.628  36.213  1.00  0.00    -0.200 F 
ENDBRANCH  61  84
ENDBRANCH  35  36
ENDBRANCH  28  30
ENDBRANCH  27  28
ENDBRANCH  26  27
ENDBRANCH  25  26
ENDBRANCH  24  25
ENDBRANCH   1  24
TORSDOF 17
ENDMDL
MODEL 3
REMARK VINA RESULT:     -11.0      1.220      2.425
REMARK SMILES CNC(=O)[C@H](C)S(=O)(=O)c1cc(C(=O)OCCOCCOC(=O)c2ccc(-c3c4nc(c(-c5c(F)c(F)c(F)c(F)c5F)c5ccc([nH]5)c(-c5c(F)c(F)c(F)c(F)c5F)c5nc(c(-c6c(F)c(F)c(F)c(F)c6F)c6ccc3[nH]6)C=C5)C=C4)cc2)c(C)cc1C
REMARK SMILES IDX 17 1 16 2 15 3 13 4 14 5 12 6 10 7 11 8 90 9 89 10 91 11
REMARK SMILES IDX 87 12 88 13 7 14 8 15 9 16 5 17 6 18 3 19 1 20 2 21 4 23
REMARK SMILES IDX 18 24 19 25 20 26 21 27 22 28 23 29 24 30 25 31 86 32 26 33
REMARK SMILES IDX 85 34 27 35 28 36 29 37 79 38 30 39 84 40 78 41 80 42 31 43
REMARK SMILES IDX 83 44 77 45 76 46 32 48 64 49 44 50 63 51 45 52 48 53 62 54
REMARK SMILES IDX 81 55 46 56 47 57 61 59 82 60 49 61 33 62 34 63 42 64 35 65
REMARK SMILES IDX 36 66 40 67 43 68 37 69 38 70 41 71 39 72 65 73 66 74 74 75
REMARK SMILES IDX 67 76 68 77 72 78 75 79 69 80 70 81 73 82 71 83 50 84 51 85
REMARK SMILES IDX 59 86 52 87 53 88 57 89 60 90 54 91 55 92 58 93 56 94
REMARK H PARENT 2 22 80 47 48 58
REMARK Flexibility Score: inf
ROOT
ATOM      1  C   UNL A   1      35.686  20.847  25.008  1.00  0.00     0.202 C 
ENDROOT
BRANCH   1   2
ATOM      2  C   UNL A   1      34.306  20.226  24.787  1.00  0.00     0.261 C 
BRANCH   2   3
ATOM      3  O   UNL A   1      33.466  21.172  24.106  1.00  0.00    -0.460 OA
BRANCH   3   4
ATOM      4  C   UNL A   1      32.365  21.562  24.781  1.00  0.00     0.338 C 
ATOM      5  O   UNL A   1      31.430  20.843  25.104  1.00  0.00    -0.246 OA
BRANCH   4   6
ATOM      6  C   UNL A   1      32.473  22.971  25.244  1.00  0.00     0.064 A 
ATOM      7  C   UNL A   1      32.379  25.301  24.457  1.00  0.00     0.071 A 
ATOM      8  C   UNL A   1      32.108  23.933  24.284  1.00  0.00     0.036 A 
ATOM      9  C   UNL A   1      33.109  25.691  25.581  1.00  0.00    -0.032 A 
ATOM     10  C   UNL A   1      33.300  24.751  26.618  1.00  0.00     0.009 A 
ATOM     11  C   UNL A   1      33.811  27.001  25.758  1.00  0.00     0.046 C 
ATOM     12  C   UNL A   1      32.968  23.393  26.484  1.00  0.00    -0.036 A 
ATOM     13  C   UNL A   1      33.289  22.480  27.634  1.00  0.00     0.045 C 
BRANCH   7  14
ATOM     14  S   UNL A   1      31.955  26.344  23.065  1.00  0.00     0.190 S 
ATOM     15  O   UNL A   1      31.589  25.423  21.994  1.00  0.00    -0.223 OA
ATOM     16  O   UNL A   1      33.112  27.192  22.865  1.00  0.00    -0.223 OA
BRANCH  14  17
ATOM     17  C   UNL A   1      30.492  27.315  23.303  1.00  0.00     0.199 C 
ATOM     18  C   UNL A   1      29.442  26.580  24.139  1.00  0.00     0.036 C 
BRANCH  17  19
ATOM     19  C   UNL A   1      30.725  28.705  23.833  1.00  0.00     0.238 C 
ATOM     20  C   UNL A   1      29.637  29.953  21.895  1.00  0.00     0.142 C 
ATOM     21  N   UNL A   1      30.303  29.817  23.172  1.00  0.00    -0.358 N 
ATOM     22  H   UNL A   1      30.478  30.666  23.639  1.00  0.00     0.163 HD
ATOM     23  O   UNL A   1      31.245  28.888  24.938  1.00  0.00    -0.274 OA
ENDBRANCH  17  19
ENDBRANCH  14  17
ENDBRANCH   7  14
ENDBRANCH   4   6
ENDBRANCH   3   4
ENDBRANCH   2   3
ENDBRANCH   1   2
BRANCH   1  24
ATOM     24  O   UNL A   1      36.776  19.924  25.057  1.00  0.00    -0.374 OA
BRANCH  24  25
ATOM     25  C   UNL A   1      38.096  20.465  25.066  1.00  0.00     0.202 C 
BRANCH  25  26
ATOM     26  C   UNL A   1      39.201  19.532  25.573  1.00  0.00     0.261 C 
BRANCH  26  27
ATOM     27  O   UNL A   1      39.749  19.971  26.828  1.00  0.00    -0.460 OA
BRANCH  27  28
ATOM     28  C   UNL A   1      41.060  20.309  26.784  1.00  0.00     0.338 C 
ATOM     29  O   UNL A   1      41.987  19.637  26.352  1.00  0.00    -0.246 OA
BRANCH  28  30
ATOM     30  C   UNL A   1      41.231  21.715  27.189  1.00  0.00     0.060 A 
ATOM     31  C   UNL A   1      40.746  22.701  26.320  1.00  0.00     0.016 A 
ATOM     32  C   UNL A   1      41.918  22.067  28.352  1.00  0.00     0.016 A 
ATOM     33  C   UNL A   1      40.986  24.046  26.590  1.00  0.00     0.010 A 
ATOM     34  C   UNL A   1      42.164  23.418  28.617  1.00  0.00     0.010 A 
ATOM     35  C   UNL A   1      41.729  24.411  27.720  1.00  0.00    -0.014 A 
BRANCH  35  36
ATOM     36  C   UNL A   1      42.162  25.819  27.887  1.00  0.00     0.031 A 
ATOM     37  C   UNL A   1      43.483  26.252  27.318  1.00  0.00     0.074 A 
ATOM     38  C   UNL A   1      41.373  26.707  28.515  1.00  0.00     0.049 A 
ATOM     39  N   UNL A   1      44.067  27.423  27.368  1.00  0.00    -0.248 NA
ATOM     40  C   UNL A   1      44.252  25.226  26.598  1.00  0.00     0.031 C 
ATOM     41  C   UNL A   1      40.055  26.416  29.075  1.00  0.00     0.029 A 
ATOM     42  N   UNL A   1      41.572  28.037  28.790  1.00  0.00    -0.354 N 
ATOM     43  C   UNL A   1      45.271  27.273  26.693  1.00  0.00     0.074 A 
ATOM     44  C   UNL A   1      45.350  25.890  26.270  1.00  0.00     0.031 C 
ATOM     45  C   UNL A   1      39.563  27.535  29.634  1.00  0.00     0.029 A 
ATOM     46  C   UNL A   1      40.545  28.611  29.498  1.00  0.00     0.049 A 
ATOM     47  H   UNL A   1      42.374  28.532  28.506  1.00  0.00     0.167 HD
ATOM     48  C   UNL A   1      46.219  28.206  26.439  1.00  0.00     0.037 A 
ATOM     49  C   UNL A   1      40.423  29.856  29.994  1.00  0.00     0.037 A 
ATOM     50  C   UNL A   1      46.137  29.581  26.858  1.00  0.00     0.049 A 
ATOM     51  C   UNL A   1      41.524  30.856  29.762  1.00  0.00     0.074 A 
ATOM     52  C   UNL A   1      47.031  30.610  26.624  1.00  0.00     0.029 A 
ATOM     53  N   UNL A   1      45.100  30.115  27.609  1.00  0.00    -0.354 N 
ATOM     54  N   UNL A   1      42.645  30.717  29.096  1.00  0.00    -0.248 NA
ATOM     55  C   UNL A   1      41.341  32.191  30.352  1.00  0.00     0.031 C 
ATOM     56  C   UNL A   1      46.562  31.754  27.280  1.00  0.00     0.029 A 
ATOM     57  C   UNL A   1      45.349  31.452  27.876  1.00  0.00     0.049 A 
ATOM     58  H   UNL A   1      44.305  29.618  27.909  1.00  0.00     0.167 HD
ATOM     59  C   UNL A   1      43.286  31.947  29.163  1.00  0.00     0.074 A 
ATOM     60  C   UNL A   1      42.424  32.826  29.925  1.00  0.00     0.031 C 
ATOM     61  C   UNL A   1      44.481  32.316  28.637  1.00  0.00     0.037 A 
BRANCH  48  62
ATOM     62  C   UNL A   1      47.446  27.760  25.698  1.00  0.00     0.064 A 
ATOM     63  C   UNL A   1      47.490  27.720  24.295  1.00  0.00     0.173 A 
ATOM     64  C   UNL A   1      48.602  27.388  26.400  1.00  0.00     0.173 A 
ATOM     65  F   UNL A   1      46.406  28.053  23.577  1.00  0.00    -0.203 F 
ATOM     66  C   UNL A   1      48.634  27.294  23.625  1.00  0.00     0.198 A 
ATOM     67  C   UNL A   1      49.755  26.992  25.726  1.00  0.00     0.198 A 
ATOM     68  F   UNL A   1      48.616  27.412  27.741  1.00  0.00    -0.203 F 
ATOM     69  F   UNL A   1      48.635  27.215  22.288  1.00  0.00    -0.200 F 
ATOM     70  C   UNL A   1      49.766  26.937  24.341  1.00  0.00     0.200 A 
ATOM     71  F   UNL A   1      50.852  26.658  26.419  1.00  0.00    -0.200 F 
ATOM     72  F   UNL A   1      50.868  26.531  23.695  1.00  0.00    -0.200 F 
ENDBRANCH  48  62
BRANCH  49  73
ATOM     73  C   UNL A   1      39.209  30.226  30.767  1.00  0.00     0.064 A 
ATOM     74  C   UNL A   1      38.069  30.729  30.124  1.00  0.00     0.173 A 
ATOM     75  C   UNL A   1      39.165  30.087  32.162  1.00  0.00     0.173 A 
ATOM     76  F   UNL A   1      38.075  30.904  28.795  1.00  0.00    -0.203 F 
ATOM     77  C   UNL A   1      36.935  31.089  30.849  1.00  0.00     0.198 A 
ATOM     78  C   UNL A   1      38.020  30.422  32.882  1.00  0.00     0.198 A 
ATOM     79  F   UNL A   1      40.230  29.612  32.824  1.00  0.00    -0.203 F 
ATOM     80  F   UNL A   1      35.874  31.604  30.214  1.00  0.00    -0.200 F 
ATOM     81  C   UNL A   1      36.909  30.929  32.225  1.00  0.00     0.200 A 
ATOM     82  F   UNL A   1      37.995  30.255  34.212  1.00  0.00    -0.200 F 
ATOM     83  F   UNL A   1      35.815  31.269  32.921  1.00  0.00    -0.200 F 
ENDBRANCH  49  73
BRANCH  61  84
ATOM     84  C   UNL A   1      44.915  33.739  28.842  1.00  0.00     0.064 A 
ATOM     85  C   UNL A   1      44.563  34.754  27.939  1.00  0.00     0.173 A 
ATOM     86  C   UNL A   1      45.657  34.099  29.978  1.00  0.00     0.173 A 
ATOM     87  F   UNL A   1      43.868  34.459  26.830  1.00  0.00    -0.203 F 
ATOM     88  C   UNL A   1      44.960  36.071  28.154  1.00  0.00     0.198 A 
ATOM     89  C   UNL A   1      46.026  35.422  30.204  1.00  0.00     0.198 A 
ATOM     90  F   UNL A   1      46.012  33.169  30.876  1.00  0.00    -0.203 F 
ATOM     91  F   UNL A   1      44.653  37.016  27.254  1.00  0.00    -0.200 F 
ATOM     92  C   UNL A   1      45.684  36.406  29.289  1.00  0.00     0.200 A 
ATOM     93  F   UNL A   1      46.713  35.745  31.308  1.00  0.00    -0.200 F 
ATOM     94  F   UNL A   1      46.058  37.675  29.497  1.00  0.00    -0.200 F 
ENDBRANCH  61  84
ENDBRANCH  35  36
ENDBRANCH  28  30
ENDBRANCH  27  28
ENDBRANCH  26  27
ENDBRANCH  25  26
ENDBRANCH  24  25
ENDBRANCH   1  24
TORSDOF 17
ENDMDL
