MODEL 1
REMARK VINA RESULT:     -11.3      0.000      0.000
REMARK SMILES Nc1c(CC(=O)OCCOCCOCCOC(=O)c2ccc(-c3c4nc(c(-c5c(F)c(F)c(F)c(F)c5F)c5ccc([nH]5)c(-c5c(F)c(F)c(F)c(F)c5F)c5nc(c(-c6c(F)c(F)c(F)c(F)c6F)c6ccc3[nH]6)C=C5)C=C4)cc2)cccc1C(=O)c1ccc(Br)cc1
REMARK SMILES IDX 11 1 10 2 9 3 8 4 7 5 5 6 6 7 4 8 3 9 2 10 85 11 82 12 84 13
REMARK SMILES IDX 83 14 1 15 86 18 87 19 88 20 89 21 94 22 90 23 93 24 91 25
REMARK SMILES IDX 92 26 12 27 13 28 14 29 15 30 16 31 17 32 18 33 19 34 20 35
REMARK SMILES IDX 81 36 21 37 80 38 22 39 23 40 24 41 74 42 25 43 79 44 73 45
REMARK SMILES IDX 75 46 26 47 78 48 72 49 71 50 27 52 59 53 39 54 58 55 40 56
REMARK SMILES IDX 43 57 57 58 76 59 41 60 42 61 56 63 77 64 44 65 28 66 29 67
REMARK SMILES IDX 37 68 30 69 31 70 35 71 38 72 32 73 33 74 36 75 34 76 60 77
REMARK SMILES IDX 61 78 69 79 62 80 63 81 67 82 70 83 64 84 65 85 68 86 66 87
REMARK SMILES IDX 45 88 46 89 54 90 47 91 48 92 52 93 55 94 49 95 50 96 53 97
REMARK SMILES IDX 51 98
REMARK H PARENT 1 16 1 17 75 51 43 62
REMARK Flexibility Score: inf
ROOT
ATOM      1  C   UNL A   1      35.051  32.761  28.067  1.00  0.00     0.188 C 
ENDROOT
BRANCH   1   2
ATOM      2  O   UNL A   1      34.699  31.376  28.044  1.00  0.00    -0.376 OA
BRANCH   2   3
ATOM      3  C   UNL A   1      33.591  30.960  27.255  1.00  0.00     0.202 C 
BRANCH   3   4
ATOM      4  C   UNL A   1      33.658  29.528  26.713  1.00  0.00     0.261 C 
BRANCH   4   5
ATOM      5  O   UNL A   1      33.166  28.545  27.648  1.00  0.00    -0.463 OA
BRANCH   5   6
ATOM      6  C   UNL A   1      32.048  27.868  27.300  1.00  0.00     0.310 C 
ATOM      7  O   UNL A   1      31.030  27.831  27.987  1.00  0.00    -0.252 OA
BRANCH   6   8
ATOM      8  C   UNL A   1      32.063  27.271  25.905  1.00  0.00     0.160 C 
BRANCH   8   9
ATOM      9  C   UNL A   1      32.624  25.882  25.645  1.00  0.00    -0.013 A 
ATOM     10  C   UNL A   1      31.888  24.702  25.881  1.00  0.00     0.047 A 
ATOM     11  C   UNL A   1      32.449  23.458  25.468  1.00  0.00     0.046 A 
ATOM     12  C   UNL A   1      33.894  25.786  25.036  1.00  0.00     0.006 A 
ATOM     13  C   UNL A   1      33.754  23.393  24.953  1.00  0.00     0.014 A 
ATOM     14  C   UNL A   1      34.476  24.556  24.739  1.00  0.00     0.001 A 
BRANCH  10  15
ATOM     15  N   UNL A   1      30.649  24.792  26.503  1.00  0.00    -0.398 N 
ATOM     16  H   UNL A   1      30.436  24.205  27.263  1.00  0.00     0.156 HD
ATOM     17  H   UNL A   1      29.984  25.444  26.182  1.00  0.00     0.156 HD
ENDBRANCH  10  15
BRANCH  11  18
ATOM     18  C   UNL A   1      31.707  22.161  25.461  1.00  0.00     0.195 C 
ATOM     19  O   UNL A   1      30.573  22.082  25.927  1.00  0.00    -0.289 OA
BRANCH  18  20
ATOM     20  C   UNL A   1      32.333  20.938  24.912  1.00  0.00     0.023 A 
ATOM     21  C   UNL A   1      33.014  20.095  25.796  1.00  0.00     0.013 A 
ATOM     22  C   UNL A   1      32.154  20.568  23.572  1.00  0.00     0.013 A 
ATOM     23  C   UNL A   1      33.429  18.837  25.365  1.00  0.00     0.016 A 
ATOM     24  C   UNL A   1      32.572  19.307  23.145  1.00  0.00     0.016 A 
ATOM     25  C   UNL A   1      33.185  18.440  24.050  1.00  0.00     0.018 A 
ATOM     26  Br  UNL A   1      33.653  16.694  23.498  1.00  0.00    -0.051 Br
ENDBRANCH  18  20
ENDBRANCH  11  18
ENDBRANCH   8   9
ENDBRANCH   6   8
ENDBRANCH   5   6
ENDBRANCH   4   5
ENDBRANCH   3   4
ENDBRANCH   2   3
ENDBRANCH   1   2
BRANCH   1  27
ATOM     27  C   UNL A   1      33.947  33.824  28.202  1.00  0.00     0.188 C 
BRANCH  27  28
ATOM     28  O   UNL A   1      34.461  35.023  28.751  1.00  0.00    -0.376 OA
BRANCH  28  29
ATOM     29  C   UNL A   1      33.556  36.102  28.824  1.00  0.00     0.202 C 
BRANCH  29  30
ATOM     30  C   UNL A   1      32.528  35.914  29.944  1.00  0.00     0.261 C 
BRANCH  30  31
ATOM     31  O   UNL A   1      32.578  36.881  31.010  1.00  0.00    -0.460 OA
BRANCH  31  32
ATOM     32  C   UNL A   1      32.511  36.424  32.275  1.00  0.00     0.338 C 
ATOM     33  O   UNL A   1      31.648  36.674  33.110  1.00  0.00    -0.246 OA
BRANCH  32  34
ATOM     34  C   UNL A   1      33.579  35.422  32.460  1.00  0.00     0.060 A 
ATOM     35  C   UNL A   1      33.253  34.124  32.875  1.00  0.00     0.016 A 
ATOM     36  C   UNL A   1      34.910  35.775  32.243  1.00  0.00     0.016 A 
ATOM     37  C   UNL A   1      34.257  33.173  33.086  1.00  0.00     0.010 A 
ATOM     38  C   UNL A   1      35.915  34.834  32.476  1.00  0.00     0.010 A 
ATOM     39  C   UNL A   1      35.599  33.536  32.920  1.00  0.00    -0.014 A 
BRANCH  39  40
ATOM     40  C   UNL A   1      36.706  32.654  33.365  1.00  0.00     0.031 A 
ATOM     41  C   UNL A   1      37.337  32.934  34.700  1.00  0.00     0.074 A 
ATOM     42  C   UNL A   1      37.194  31.678  32.579  1.00  0.00     0.049 A 
ATOM     43  N   UNL A   1      38.467  32.504  35.197  1.00  0.00    -0.248 NA
ATOM     44  C   UNL A   1      36.590  33.838  35.588  1.00  0.00     0.031 C 
ATOM     45  C   UNL A   1      36.627  31.256  31.302  1.00  0.00     0.029 A 
ATOM     46  N   UNL A   1      38.309  30.890  32.732  1.00  0.00    -0.354 N 
ATOM     47  C   UNL A   1      38.584  33.112  36.440  1.00  0.00     0.074 A 
ATOM     48  C   UNL A   1      37.417  33.947  36.618  1.00  0.00     0.031 C 
ATOM     49  C   UNL A   1      37.417  30.307  30.768  1.00  0.00     0.029 A 
ATOM     50  C   UNL A   1      38.576  30.105  31.636  1.00  0.00     0.049 A 
ATOM     51  H   UNL A   1      38.863  30.888  33.546  1.00  0.00     0.167 HD
ATOM     52  C   UNL A   1      39.582  32.987  37.346  1.00  0.00     0.037 A 
ATOM     53  C   UNL A   1      39.660  29.356  31.347  1.00  0.00     0.037 A 
ATOM     54  C   UNL A   1      40.738  32.152  37.157  1.00  0.00     0.049 A 
ATOM     55  C   UNL A   1      40.809  29.309  32.326  1.00  0.00     0.074 A 
ATOM     56  C   UNL A   1      41.809  31.954  38.010  1.00  0.00     0.029 A 
ATOM     57  N   UNL A   1      40.975  31.379  36.029  1.00  0.00    -0.354 N 
ATOM     58  N   UNL A   1      40.931  29.897  33.491  1.00  0.00    -0.248 NA
ATOM     59  C   UNL A   1      41.978  28.501  31.943  1.00  0.00     0.031 C 
ATOM     60  C   UNL A   1      42.721  31.107  37.374  1.00  0.00     0.029 A 
ATOM     61  C   UNL A   1      42.185  30.719  36.156  1.00  0.00     0.049 A 
ATOM     62  H   UNL A   1      40.372  31.310  35.253  1.00  0.00     0.167 HD
ATOM     63  C   UNL A   1      42.160  29.494  34.000  1.00  0.00     0.074 A 
ATOM     64  C   UNL A   1      42.753  28.616  33.014  1.00  0.00     0.031 C 
ATOM     65  C   UNL A   1      42.742  29.816  35.182  1.00  0.00     0.037 A 
BRANCH  52  66
ATOM     66  C   UNL A   1      39.489  33.803  38.602  1.00  0.00     0.064 A 
ATOM     67  C   UNL A   1      38.782  33.356  39.728  1.00  0.00     0.173 A 
ATOM     68  C   UNL A   1      40.145  35.042  38.690  1.00  0.00     0.173 A 
ATOM     69  F   UNL A   1      38.125  32.186  39.691  1.00  0.00    -0.203 F 
ATOM     70  C   UNL A   1      38.712  34.128  40.884  1.00  0.00     0.198 A 
ATOM     71  C   UNL A   1      40.101  35.796  39.860  1.00  0.00     0.198 A 
ATOM     72  F   UNL A   1      40.838  35.516  37.644  1.00  0.00    -0.203 F 
ATOM     73  F   UNL A   1      37.986  33.704  41.927  1.00  0.00    -0.200 F 
ATOM     74  C   UNL A   1      39.377  35.343  40.951  1.00  0.00     0.200 A 
ATOM     75  F   UNL A   1      40.757  36.962  39.927  1.00  0.00    -0.200 F 
ATOM     76  F   UNL A   1      39.315  36.082  42.068  1.00  0.00    -0.200 F 
ENDBRANCH  52  66
BRANCH  53  77
ATOM     77  C   UNL A   1      39.735  28.612  30.060  1.00  0.00     0.064 A 
ATOM     78  C   UNL A   1      39.210  27.317  29.944  1.00  0.00     0.173 A 
ATOM     79  C   UNL A   1      40.355  29.166  28.929  1.00  0.00     0.173 A 
ATOM     80  F   UNL A   1      38.633  26.733  31.004  1.00  0.00    -0.203 F 
ATOM     81  C   UNL A   1      39.320  26.597  28.756  1.00  0.00     0.198 A 
ATOM     82  C   UNL A   1      40.436  28.456  27.731  1.00  0.00     0.198 A 
ATOM     83  F   UNL A   1      40.881  30.398  28.985  1.00  0.00    -0.203 F 
ATOM     84  F   UNL A   1      38.858  25.341  28.691  1.00  0.00    -0.200 F 
ATOM     85  C   UNL A   1      39.927  27.170  27.648  1.00  0.00     0.200 A 
ATOM     86  F   UNL A   1      41.013  29.017  26.660  1.00  0.00    -0.200 F 
ATOM     87  F   UNL A   1      40.032  26.477  26.507  1.00  0.00    -0.200 F 
ENDBRANCH  53  77
BRANCH  65  88
ATOM     88  C   UNL A   1      44.047  29.159  35.529  1.00  0.00     0.064 A 
ATOM     89  C   UNL A   1      45.281  29.751  35.234  1.00  0.00     0.173 A 
ATOM     90  C   UNL A   1      44.049  27.959  36.261  1.00  0.00     0.173 A 
ATOM     91  F   UNL A   1      45.333  30.889  34.526  1.00  0.00    -0.203 F 
ATOM     92  C   UNL A   1      46.473  29.163  35.654  1.00  0.00     0.198 A 
ATOM     93  C   UNL A   1      45.240  27.392  36.705  1.00  0.00     0.198 A 
ATOM     94  F   UNL A   1      42.893  27.357  36.576  1.00  0.00    -0.203 F 
ATOM     95  F   UNL A   1      47.645  29.732  35.338  1.00  0.00    -0.200 F 
ATOM     96  C   UNL A   1      46.451  27.993  36.400  1.00  0.00     0.200 A 
ATOM     97  F   UNL A   1      45.213  26.273  37.441  1.00  0.00    -0.200 F 
ATOM     98  F   UNL A   1      47.597  27.446  36.824  1.00  0.00    -0.200 F 
ENDBRANCH  65  88
ENDBRANCH  39  40
ENDBRANCH  32  34
ENDBRANCH  31  32
ENDBRANCH  30  31
ENDBRANCH  29  30
ENDBRANCH  28  29
ENDBRANCH  27  28
ENDBRANCH   1  27
TORSDOF 21
ENDMDL
MODEL 2
REMARK VINA RESULT:     -11.2      5.749     10.051
REMARK SMILES Nc1c(CC(=O)OCCOCCOCCOC(=O)c2ccc(-c3c4nc(c(-c5c(F)c(F)c(F)c(F)c5F)c5ccc([nH]5)c(-c5c(F)c(F)c(F)c(F)c5F)c5nc(c(-c6c(F)c(F)c(F)c(F)c6F)c6ccc3[nH]6)C=C5)C=C4)cc2)cccc1C(=O)c1ccc(Br)cc1
REMARK SMILES IDX 11 1 10 2 9 3 8 4 7 5 5 6 6 7 4 8 3 9 2 10 85 11 82 12 84 13
REMARK SMILES IDX 83 14 1 15 86 18 87 19 88 20 89 21 94 22 90 23 93 24 91 25
REMARK SMILES IDX 92 26 12 27 13 28 14 29 15 30 16 31 17 32 18 33 19 34 20 35
REMARK SMILES IDX 81 36 21 37 80 38 22 39 23 40 24 41 74 42 25 43 79 44 73 45
REMARK SMILES IDX 75 46 26 47 78 48 72 49 71 50 27 52 59 53 39 54 58 55 40 56
REMARK SMILES IDX 43 57 57 58 76 59 41 60 42 61 56 63 77 64 44 65 28 66 29 67
REMARK SMILES IDX 37 68 30 69 31 70 35 71 38 72 32 73 33 74 36 75 34 76 60 77
REMARK SMILES IDX 61 78 69 79 62 80 63 81 67 82 70 83 64 84 65 85 68 86 66 87
REMARK SMILES IDX 45 88 46 89 54 90 47 91 48 92 52 93 55 94 49 95 50 96 53 97
REMARK SMILES IDX 51 98
REMARK H PARENT 1 16 1 17 75 51 43 62
REMARK Flexibility Score: inf
ROOT
ATOM      1  C   UNL A   1      32.884  22.134  26.285  1.00  0.00     0.188 C 
ENDROOT
BRANCH   1   2
ATOM      2  O   UNL A   1      31.908  21.751  25.315  1.00  0.00    -0.376 OA
BRANCH   2   3
ATOM      3  C   UNL A   1      32.332  21.060  24.146  1.00  0.00     0.202 C 
BRANCH   3   4
ATOM      4  C   UNL A   1      32.220  21.840  22.832  1.00  0.00     0.261 C 
BRANCH   4   5
ATOM      5  O   UNL A   1      32.493  23.249  22.985  1.00  0.00    -0.463 OA
BRANCH   5   6
ATOM      6  C   UNL A   1      33.791  23.629  22.982  1.00  0.00     0.310 C 
ATOM      7  O   UNL A   1      34.689  22.989  22.441  1.00  0.00    -0.252 OA
BRANCH   6   8
ATOM      8  C   UNL A   1      34.062  25.006  23.561  1.00  0.00     0.160 C 
BRANCH   8   9
ATOM      9  C   UNL A   1      32.956  25.823  24.210  1.00  0.00    -0.013 A 
ATOM     10  C   UNL A   1      31.787  26.212  23.522  1.00  0.00     0.047 A 
ATOM     11  C   UNL A   1      30.747  26.850  24.259  1.00  0.00     0.046 A 
ATOM     12  C   UNL A   1      33.063  26.102  25.589  1.00  0.00     0.006 A 
ATOM     13  C   UNL A   1      30.929  27.197  25.607  1.00  0.00     0.014 A 
ATOM     14  C   UNL A   1      32.087  26.824  26.272  1.00  0.00     0.001 A 
BRANCH  10  15
ATOM     15  N   UNL A   1      31.691  25.960  22.159  1.00  0.00    -0.398 N 
ATOM     16  H   UNL A   1      32.439  25.533  21.684  1.00  0.00     0.156 HD
ATOM     17  H   UNL A   1      30.874  26.210  21.669  1.00  0.00     0.156 HD
ENDBRANCH  10  15
BRANCH  11  18
ATOM     18  C   UNL A   1      29.381  27.128  23.719  1.00  0.00     0.195 C 
ATOM     19  O   UNL A   1      28.508  26.266  23.741  1.00  0.00    -0.289 OA
BRANCH  18  20
ATOM     20  C   UNL A   1      29.061  28.445  23.124  1.00  0.00     0.023 A 
ATOM     21  C   UNL A   1      30.080  29.124  22.448  1.00  0.00     0.013 A 
ATOM     22  C   UNL A   1      27.753  28.947  23.131  1.00  0.00     0.013 A 
ATOM     23  C   UNL A   1      29.769  30.255  21.694  1.00  0.00     0.016 A 
ATOM     24  C   UNL A   1      27.447  30.080  22.375  1.00  0.00     0.016 A 
ATOM     25  C   UNL A   1      28.452  30.713  21.643  1.00  0.00     0.018 A 
ATOM     26  Br  UNL A   1      28.015  32.181  20.536  1.00  0.00    -0.051 Br
ENDBRANCH  18  20
ENDBRANCH  11  18
ENDBRANCH   8   9
ENDBRANCH   6   8
ENDBRANCH   5   6
ENDBRANCH   4   5
ENDBRANCH   3   4
ENDBRANCH   2   3
ENDBRANCH   1   2
BRANCH   1  27
ATOM     27  C   UNL A   1      34.022  21.161  26.644  1.00  0.00     0.188 C 
BRANCH  27  28
ATOM     28  O   UNL A   1      35.244  21.573  26.061  1.00  0.00    -0.376 OA
BRANCH  28  29
ATOM     29  C   UNL A   1      35.749  20.739  25.042  1.00  0.00     0.202 C 
BRANCH  29  30
ATOM     30  C   UNL A   1      37.265  20.889  24.878  1.00  0.00     0.261 C 
BRANCH  30  31
ATOM     31  O   UNL A   1      37.903  21.826  25.767  1.00  0.00    -0.460 OA
BRANCH  31  32
ATOM     32  C   UNL A   1      39.132  21.520  26.223  1.00  0.00     0.338 C 
ATOM     33  O   UNL A   1      39.726  20.454  26.099  1.00  0.00    -0.246 OA
BRANCH  32  34
ATOM     34  C   UNL A   1      39.738  22.748  26.776  1.00  0.00     0.060 A 
ATOM     35  C   UNL A   1      39.282  24.003  26.349  1.00  0.00     0.016 A 
ATOM     36  C   UNL A   1      40.775  22.657  27.703  1.00  0.00     0.016 A 
ATOM     37  C   UNL A   1      39.868  25.174  26.839  1.00  0.00     0.010 A 
ATOM     38  C   UNL A   1      41.376  23.826  28.175  1.00  0.00     0.010 A 
ATOM     39  C   UNL A   1      40.944  25.089  27.730  1.00  0.00    -0.014 A 
BRANCH  39  40
ATOM     40  C   UNL A   1      41.758  26.278  28.086  1.00  0.00     0.031 A 
ATOM     41  C   UNL A   1      41.091  27.385  28.853  1.00  0.00     0.074 A 
ATOM     42  C   UNL A   1      43.031  26.412  27.677  1.00  0.00     0.049 A 
ATOM     43  N   UNL A   1      41.480  28.617  29.051  1.00  0.00    -0.248 NA
ATOM     44  C   UNL A   1      39.797  27.053  29.470  1.00  0.00     0.031 C 
ATOM     45  C   UNL A   1      43.816  25.386  26.996  1.00  0.00     0.029 A 
ATOM     46  N   UNL A   1      43.877  27.494  27.747  1.00  0.00    -0.354 N 
ATOM     47  C   UNL A   1      40.464  29.217  29.783  1.00  0.00     0.074 A 
ATOM     48  C   UNL A   1      39.439  28.218  29.987  1.00  0.00     0.031 C 
ATOM     49  C   UNL A   1      45.018  25.898  26.678  1.00  0.00     0.029 A 
ATOM     50  C   UNL A   1      45.061  27.304  27.076  1.00  0.00     0.049 A 
ATOM     51  H   UNL A   1      43.655  28.323  28.229  1.00  0.00     0.167 HD
ATOM     52  C   UNL A   1      40.394  30.491  30.237  1.00  0.00     0.037 A 
ATOM     53  C   UNL A   1      46.039  28.183  26.772  1.00  0.00     0.037 A 
ATOM     54  C   UNL A   1      41.423  31.475  30.028  1.00  0.00     0.049 A 
ATOM     55  C   UNL A   1      45.896  29.624  27.200  1.00  0.00     0.074 A 
ATOM     56  C   UNL A   1      41.452  32.795  30.443  1.00  0.00     0.029 A 
ATOM     57  N   UNL A   1      42.603  31.245  29.336  1.00  0.00    -0.354 N 
ATOM     58  N   UNL A   1      44.929  30.198  27.875  1.00  0.00    -0.248 NA
ATOM     59  C   UNL A   1      46.977  30.544  26.814  1.00  0.00     0.031 C 
ATOM     60  C   UNL A   1      42.624  33.378  29.953  1.00  0.00     0.029 A 
ATOM     61  C   UNL A   1      43.359  32.404  29.296  1.00  0.00     0.049 A 
ATOM     62  H   UNL A   1      42.866  30.385  28.934  1.00  0.00     0.167 HD
ATOM     63  C   UNL A   1      45.306  31.526  28.036  1.00  0.00     0.074 A 
ATOM     64  C   UNL A   1      46.588  31.678  27.381  1.00  0.00     0.031 C 
ATOM     65  C   UNL A   1      44.653  32.528  28.675  1.00  0.00     0.037 A 
BRANCH  52  66
ATOM     66  C   UNL A   1      39.149  30.904  30.966  1.00  0.00     0.064 A 
ATOM     67  C   UNL A   1      38.070  31.512  30.308  1.00  0.00     0.173 A 
ATOM     68  C   UNL A   1      39.023  30.659  32.343  1.00  0.00     0.173 A 
ATOM     69  F   UNL A   1      38.146  31.782  28.995  1.00  0.00    -0.203 F 
ATOM     70  C   UNL A   1      36.924  31.884  31.004  1.00  0.00     0.198 A 
ATOM     71  C   UNL A   1      37.862  31.002  33.030  1.00  0.00     0.198 A 
ATOM     72  F   UNL A   1      40.024  30.077  33.021  1.00  0.00    -0.203 F 
ATOM     73  F   UNL A   1      35.928  32.512  30.364  1.00  0.00    -0.200 F 
ATOM     74  C   UNL A   1      36.818  31.622  32.362  1.00  0.00     0.200 A 
ATOM     75  F   UNL A   1      37.756  30.734  34.338  1.00  0.00    -0.200 F 
ATOM     76  F   UNL A   1      35.710  31.974  33.029  1.00  0.00    -0.200 F 
ENDBRANCH  52  66
BRANCH  53  77
ATOM     77  C   UNL A   1      47.227  27.741  25.994  1.00  0.00     0.064 A 
ATOM     78  C   UNL A   1      48.403  27.334  26.641  1.00  0.00     0.173 A 
ATOM     79  C   UNL A   1      47.225  27.742  24.590  1.00  0.00     0.173 A 
ATOM     80  F   UNL A   1      48.465  27.342  27.980  1.00  0.00    -0.203 F 
ATOM     81  C   UNL A   1      49.536  26.966  25.917  1.00  0.00     0.198 A 
ATOM     82  C   UNL A   1      48.349  27.343  23.867  1.00  0.00     0.198 A 
ATOM     83  F   UNL A   1      46.131  28.129  23.919  1.00  0.00    -0.203 F 
ATOM     84  F   UNL A   1      50.661  26.634  26.563  1.00  0.00    -0.200 F 
ATOM     85  C   UNL A   1      49.505  26.964  24.530  1.00  0.00     0.200 A 
ATOM     86  F   UNL A   1      48.312  27.332  22.528  1.00  0.00    -0.200 F 
ATOM     87  F   UNL A   1      50.594  26.610  23.836  1.00  0.00    -0.200 F 
ENDBRANCH  53  77
BRANCH  65  88
ATOM     88  C   UNL A   1      45.336  33.861  28.783  1.00  0.00     0.064 A 
ATOM     89  C   UNL A   1      46.238  34.154  29.813  1.00  0.00     0.173 A 
ATOM     90  C   UNL A   1      45.152  34.822  27.774  1.00  0.00     0.173 A 
ATOM     91  F   UNL A   1      46.439  33.276  30.807  1.00  0.00    -0.203 F 
ATOM     92  C   UNL A   1      46.929  35.365  29.833  1.00  0.00     0.198 A 
ATOM     93  C   UNL A   1      45.866  36.015  27.782  1.00  0.00     0.198 A 
ATOM     94  F   UNL A   1      44.304  34.585  26.762  1.00  0.00    -0.203 F 
ATOM     95  F   UNL A   1      47.769  35.637  30.842  1.00  0.00    -0.200 F 
ATOM     96  C   UNL A   1      46.753  36.287  28.812  1.00  0.00     0.200 A 
ATOM     97  F   UNL A   1      45.708  36.895  26.784  1.00  0.00    -0.200 F 
ATOM     98  F   UNL A   1      47.439  37.438  28.821  1.00  0.00    -0.200 F 
ENDBRANCH  65  88
ENDBRANCH  39  40
ENDBRANCH  32  34
ENDBRANCH  31  32
ENDBRANCH  30  31
ENDBRANCH  29  30
ENDBRANCH  28  29
ENDBRANCH  27  28
ENDBRANCH   1  27
TORSDOF 21
ENDMDL
MODEL 3
REMARK VINA RESULT:     -11.0      1.183      2.403
REMARK SMILES Nc1c(CC(=O)OCCOCCOCCOC(=O)c2ccc(-c3c4nc(c(-c5c(F)c(F)c(F)c(F)c5F)c5ccc([nH]5)c(-c5c(F)c(F)c(F)c(F)c5F)c5nc(c(-c6c(F)c(F)c(F)c(F)c6F)c6ccc3[nH]6)C=C5)C=C4)cc2)cccc1C(=O)c1ccc(Br)cc1
REMARK SMILES IDX 11 1 10 2 9 3 8 4 7 5 5 6 6 7 4 8 3 9 2 10 85 11 82 12 84 13
REMARK SMILES IDX 83 14 1 15 86 18 87 19 88 20 89 21 94 22 90 23 93 24 91 25
REMARK SMILES IDX 92 26 12 27 13 28 14 29 15 30 16 31 17 32 18 33 19 34 20 35
REMARK SMILES IDX 81 36 21 37 80 38 22 39 23 40 24 41 74 42 25 43 79 44 73 45
REMARK SMILES IDX 75 46 26 47 78 48 72 49 71 50 27 52 59 53 39 54 58 55 40 56
REMARK SMILES IDX 43 57 57 58 76 59 41 60 42 61 56 63 77 64 44 65 28 66 29 67
REMARK SMILES IDX 37 68 30 69 31 70 35 71 38 72 32 73 33 74 36 75 34 76 60 77
REMARK SMILES IDX 61 78 69 79 62 80 63 81 67 82 70 83 64 84 65 85 68 86 66 87
REMARK SMILES IDX 45 88 46 89 54 90 47 91 48 92 52 93 55 94 49 95 50 96 53 97
REMARK SMILES IDX 51 98
REMARK H PARENT 1 16 1 17 75 51 43 62
REMARK Flexibility Score: inf
ROOT
ATOM      1  C   UNL A   1      35.277  32.937  28.265  1.00  0.00     0.188 C 
ENDROOT
BRANCH   1   2
ATOM      2  O   UNL A   1      35.008  31.657  27.691  1.00  0.00    -0.376 OA
BRANCH   2   3
ATOM      3  C   UNL A   1      33.664  31.195  27.636  1.00  0.00     0.202 C 
BRANCH   3   4
ATOM      4  C   UNL A   1      33.436  29.896  26.855  1.00  0.00     0.261 C 
BRANCH   4   5
ATOM      5  O   UNL A   1      32.876  30.114  25.543  1.00  0.00    -0.463 OA
BRANCH   5   6
ATOM      6  C   UNL A   1      32.804  29.045  24.717  1.00  0.00     0.310 C 
ATOM      7  O   UNL A   1      33.202  29.052  23.555  1.00  0.00    -0.252 OA
BRANCH   6   8
ATOM      8  C   UNL A   1      32.339  27.757  25.369  1.00  0.00     0.160 C 
BRANCH   8   9
ATOM      9  C   UNL A   1      31.808  26.597  24.541  1.00  0.00    -0.013 A 
ATOM     10  C   UNL A   1      32.650  25.667  23.897  1.00  0.00     0.047 A 
ATOM     11  C   UNL A   1      32.055  24.535  23.268  1.00  0.00     0.046 A 
ATOM     12  C   UNL A   1      30.413  26.388  24.517  1.00  0.00     0.006 A 
ATOM     13  C   UNL A   1      30.659  24.411  23.182  1.00  0.00     0.014 A 
ATOM     14  C   UNL A   1      29.838  25.338  23.805  1.00  0.00     0.001 A 
BRANCH  10  15
ATOM     15  N   UNL A   1      34.023  25.885  23.899  1.00  0.00    -0.398 N 
ATOM     16  H   UNL A   1      34.618  25.266  24.379  1.00  0.00     0.156 HD
ATOM     17  H   UNL A   1      34.398  26.660  23.420  1.00  0.00     0.156 HD
ENDBRANCH  10  15
BRANCH  11  18
ATOM     18  C   UNL A   1      32.822  23.370  22.732  1.00  0.00     0.195 C 
ATOM     19  O   UNL A   1      33.602  23.507  21.793  1.00  0.00    -0.289 OA
BRANCH  18  20
ATOM     20  C   UNL A   1      32.640  22.019  23.308  1.00  0.00     0.023 A 
ATOM     21  C   UNL A   1      32.132  21.015  22.478  1.00  0.00     0.013 A 
ATOM     22  C   UNL A   1      33.071  21.719  24.607  1.00  0.00     0.013 A 
ATOM     23  C   UNL A   1      32.148  19.690  22.913  1.00  0.00     0.016 A 
ATOM     24  C   UNL A   1      33.084  20.392  25.038  1.00  0.00     0.016 A 
ATOM     25  C   UNL A   1      32.645  19.383  24.180  1.00  0.00     0.018 A 
ATOM     26  Br  UNL A   1      32.764  17.578  24.725  1.00  0.00    -0.051 Br
ENDBRANCH  18  20
ENDBRANCH  11  18
ENDBRANCH   8   9
ENDBRANCH   6   8
ENDBRANCH   5   6
ENDBRANCH   4   5
ENDBRANCH   3   4
ENDBRANCH   2   3
ENDBRANCH   1   2
BRANCH   1  27
ATOM     27  C   UNL A   1      34.381  34.135  27.905  1.00  0.00     0.188 C 
BRANCH  27  28
ATOM     28  O   UNL A   1      34.625  35.229  28.769  1.00  0.00    -0.376 OA
BRANCH  28  29
ATOM     29  C   UNL A   1      33.643  36.241  28.770  1.00  0.00     0.202 C 
BRANCH  29  30
ATOM     30  C   UNL A   1      32.606  36.032  29.877  1.00  0.00     0.261 C 
BRANCH  30  31
ATOM     31  O   UNL A   1      32.704  36.922  31.006  1.00  0.00    -0.460 OA
BRANCH  31  32
ATOM     32  C   UNL A   1      32.564  36.391  32.236  1.00  0.00     0.338 C 
ATOM     33  O   UNL A   1      31.640  36.572  33.021  1.00  0.00    -0.246 OA
BRANCH  32  34
ATOM     34  C   UNL A   1      33.645  35.407  32.438  1.00  0.00     0.060 A 
ATOM     35  C   UNL A   1      33.334  34.103  32.846  1.00  0.00     0.016 A 
ATOM     36  C   UNL A   1      34.974  35.783  32.246  1.00  0.00     0.016 A 
ATOM     37  C   UNL A   1      34.350  33.169  33.074  1.00  0.00     0.010 A 
ATOM     38  C   UNL A   1      35.991  34.858  32.496  1.00  0.00     0.010 A 
ATOM     39  C   UNL A   1      35.688  33.555  32.932  1.00  0.00    -0.014 A 
BRANCH  39  40
ATOM     40  C   UNL A   1      36.802  32.691  33.396  1.00  0.00     0.031 A 
ATOM     41  C   UNL A   1      37.422  32.996  34.731  1.00  0.00     0.074 A 
ATOM     42  C   UNL A   1      37.304  31.710  32.628  1.00  0.00     0.049 A 
ATOM     43  N   UNL A   1      38.553  32.585  35.241  1.00  0.00    -0.248 NA
ATOM     44  C   UNL A   1      36.660  33.905  35.602  1.00  0.00     0.031 C 
ATOM     45  C   UNL A   1      36.750  31.263  31.353  1.00  0.00     0.029 A 
ATOM     46  N   UNL A   1      38.427  30.935  32.798  1.00  0.00    -0.354 N 
ATOM     47  C   UNL A   1      38.656  33.212  36.476  1.00  0.00     0.074 A 
ATOM     48  C   UNL A   1      37.479  34.036  36.635  1.00  0.00     0.031 C 
ATOM     49  C   UNL A   1      37.553  30.316  30.837  1.00  0.00     0.029 A 
ATOM     50  C   UNL A   1      38.709  30.138  31.715  1.00  0.00     0.049 A 
ATOM     51  H   UNL A   1      38.976  30.950  33.615  1.00  0.00     0.167 HD
ATOM     52  C   UNL A   1      39.650  33.110  37.389  1.00  0.00     0.037 A 
ATOM     53  C   UNL A   1      39.802  29.396  31.442  1.00  0.00     0.037 A 
ATOM     54  C   UNL A   1      40.816  32.284  37.219  1.00  0.00     0.049 A 
ATOM     55  C   UNL A   1      40.946  29.375  32.428  1.00  0.00     0.074 A 
ATOM     56  C   UNL A   1      41.884  32.110  38.081  1.00  0.00     0.029 A 
ATOM     57  N   UNL A   1      41.067  31.499  36.104  1.00  0.00    -0.354 N 
ATOM     58  N   UNL A   1      41.054  29.981  33.586  1.00  0.00    -0.248 NA
ATOM     59  C   UNL A   1      42.126  28.574  32.064  1.00  0.00     0.031 C 
ATOM     60  C   UNL A   1      42.808  31.264  37.463  1.00  0.00     0.029 A 
ATOM     61  C   UNL A   1      42.284  30.853  36.247  1.00  0.00     0.049 A 
ATOM     62  H   UNL A   1      40.470  31.412  35.325  1.00  0.00     0.167 HD
ATOM     63  C   UNL A   1      42.285  29.598  34.108  1.00  0.00     0.074 A 
ATOM     64  C   UNL A   1      42.892  28.713  33.138  1.00  0.00     0.031 C 
ATOM     65  C   UNL A   1      42.856  29.942  35.289  1.00  0.00     0.037 A 
BRANCH  52  66
ATOM     66  C   UNL A   1      39.541  33.942  38.634  1.00  0.00     0.064 A 
ATOM     67  C   UNL A   1      40.114  35.218  38.726  1.00  0.00     0.173 A 
ATOM     68  C   UNL A   1      38.824  33.464  39.742  1.00  0.00     0.173 A 
ATOM     69  F   UNL A   1      40.824  35.716  37.701  1.00  0.00    -0.203 F 
ATOM     70  C   UNL A   1      39.998  35.974  39.890  1.00  0.00     0.198 A 
ATOM     71  C   UNL A   1      38.680  34.236  40.892  1.00  0.00     0.198 A 
ATOM     72  F   UNL A   1      38.252  32.251  39.706  1.00  0.00    -0.203 F 
ATOM     73  F   UNL A   1      40.600  37.168  39.974  1.00  0.00    -0.200 F 
ATOM     74  C   UNL A   1      39.275  35.485  40.968  1.00  0.00     0.200 A 
ATOM     75  F   UNL A   1      37.969  33.768  41.926  1.00  0.00    -0.200 F 
ATOM     76  F   UNL A   1      39.157  36.217  42.085  1.00  0.00    -0.200 F 
ENDBRANCH  52  66
BRANCH  53  77
ATOM     77  C   UNL A   1      39.893  28.636  30.166  1.00  0.00     0.064 A 
ATOM     78  C   UNL A   1      40.493  29.200  29.032  1.00  0.00     0.173 A 
ATOM     79  C   UNL A   1      39.357  27.343  30.044  1.00  0.00     0.173 A 
ATOM     80  F   UNL A   1      40.993  30.443  29.089  1.00  0.00    -0.203 F 
ATOM     81  C   UNL A   1      40.537  28.512  27.820  1.00  0.00     0.198 A 
ATOM     82  C   UNL A   1      39.431  26.644  28.840  1.00  0.00     0.198 A 
ATOM     83  F   UNL A   1      38.765  26.758  31.094  1.00  0.00    -0.203 F 
ATOM     84  F   UNL A   1      41.068  29.098  26.739  1.00  0.00    -0.200 F 
ATOM     85  C   UNL A   1      40.012  27.232  27.727  1.00  0.00     0.200 A 
ATOM     86  F   UNL A   1      38.933  25.403  28.757  1.00  0.00    -0.200 F 
ATOM     87  F   UNL A   1      40.055  26.572  26.563  1.00  0.00    -0.200 F 
ENDBRANCH  53  77
BRANCH  65  88
ATOM     88  C   UNL A   1      44.165  29.304  35.653  1.00  0.00     0.064 A 
ATOM     89  C   UNL A   1      44.235  28.082  36.334  1.00  0.00     0.173 A 
ATOM     90  C   UNL A   1      45.369  29.886  35.220  1.00  0.00     0.173 A 
ATOM     91  F   UNL A   1      43.116  27.492  36.781  1.00  0.00    -0.203 F 
ATOM     92  C   UNL A   1      45.463  27.467  36.574  1.00  0.00     0.198 A 
ATOM     93  C   UNL A   1      46.589  29.254  35.434  1.00  0.00     0.198 A 
ATOM     94  F   UNL A   1      45.355  31.052  34.556  1.00  0.00    -0.203 F 
ATOM     95  F   UNL A   1      45.509  26.311  37.251  1.00  0.00    -0.200 F 
ATOM     96  C   UNL A   1      46.636  28.046  36.112  1.00  0.00     0.200 A 
ATOM     97  F   UNL A   1      47.718  29.806  34.969  1.00  0.00    -0.200 F 
ATOM     98  F   UNL A   1      47.812  27.439  36.321  1.00  0.00    -0.200 F 
ENDBRANCH  65  88
ENDBRANCH  39  40
ENDBRANCH  32  34
ENDBRANCH  31  32
ENDBRANCH  30  31
ENDBRANCH  29  30
ENDBRANCH  28  29
ENDBRANCH  27  28
ENDBRANCH   1  27
TORSDOF 21
ENDMDL
