MODEL 1
REMARK VINA RESULT:     -12.3      0.000      0.000
REMARK SMILES Cc1ccc(-c2cc(C(=O)OCCOCCOCCOC(=O)c3ccc(-c4c5nc(c(-c6c(F)c(F)c(F)c(F)c6F)c6ccc([nH]6)c(-c6c(F)c(F)c(F)c(F)c6F)c6nc(c(-c7c(F)c(F)c(F)c(F)c7F)c7ccc4[nH]7)C=C6)C=C5)cc3)c3cc(C)ccc3n2)c(C)c1
REMARK SMILES IDX 16 1 15 2 14 3 13 4 12 5 11 6 9 7 10 8 8 9 6 10 7 11 93 12
REMARK SMILES IDX 92 13 86 14 91 15 87 16 90 17 88 18 89 19 5 20 1 21 2 22
REMARK SMILES IDX 3 23 96 24 4 25 94 26 95 27 17 28 18 29 19 30 20 31 21 32
REMARK SMILES IDX 22 33 23 34 24 35 85 36 25 37 84 38 26 39 27 40 28 41 78 42
REMARK SMILES IDX 29 43 83 44 77 45 79 46 30 47 82 48 76 49 75 50 31 52 63 53
REMARK SMILES IDX 43 54 62 55 44 56 47 57 61 58 80 59 45 60 46 61 60 63 81 64
REMARK SMILES IDX 48 65 32 66 33 67 41 68 34 69 35 70 39 71 42 72 36 73 37 74
REMARK SMILES IDX 40 75 38 76 64 77 65 78 73 79 66 80 67 81 71 82 74 83 68 84
REMARK SMILES IDX 69 85 72 86 70 87 49 88 50 89 58 90 51 91 52 92 56 93 59 94
REMARK SMILES IDX 53 95 54 96 57 97 55 98
REMARK H PARENT 79 51 47 62
REMARK Flexibility Score: inf
ROOT
ATOM      1  C   UNL A   1      40.966  20.193  26.241  1.00  0.00     0.188 C 
ENDROOT
BRANCH   1   2
ATOM      2  C   UNL A   1      40.224  21.547  26.222  1.00  0.00     0.188 C 
BRANCH   2   3
ATOM      3  O   UNL A   1      38.832  21.573  25.919  1.00  0.00    -0.376 OA
BRANCH   3   4
ATOM      4  C   UNL A   1      38.160  22.830  25.850  1.00  0.00     0.202 C 
BRANCH   4   5
ATOM      5  C   UNL A   1      36.649  22.852  26.106  1.00  0.00     0.261 C 
BRANCH   5   6
ATOM      6  O   UNL A   1      36.051  21.546  26.021  1.00  0.00    -0.460 OA
BRANCH   6   7
ATOM      7  C   UNL A   1      34.770  21.449  26.450  1.00  0.00     0.338 C 
ATOM      8  O   UNL A   1      34.388  21.481  27.609  1.00  0.00    -0.246 OA
BRANCH   7   9
ATOM      9  C   UNL A   1      33.828  21.519  25.308  1.00  0.00     0.071 A 
ATOM     10  C   UNL A   1      32.372  22.931  24.045  1.00  0.00     0.072 A 
ATOM     11  C   UNL A   1      33.280  22.784  25.076  1.00  0.00     0.045 A 
ATOM     12  N   UNL A   1      31.994  21.895  23.267  1.00  0.00    -0.248 NA
ATOM     13  C   UNL A   1      32.516  20.678  23.492  1.00  0.00     0.072 A 
ATOM     14  C   UNL A   1      33.468  20.416  24.499  1.00  0.00     0.015 A 
ATOM     15  C   UNL A   1      32.081  19.638  22.686  1.00  0.00     0.029 A 
ATOM     16  C   UNL A   1      33.977  19.097  24.621  1.00  0.00     0.014 A 
ATOM     17  C   UNL A   1      32.582  18.341  22.817  1.00  0.00     0.005 A 
ATOM     18  C   UNL A   1      33.545  18.062  23.783  1.00  0.00    -0.050 A 
ATOM     19  C   UNL A   1      34.158  16.697  23.883  1.00  0.00     0.044 C 
BRANCH  10  20
ATOM     20  C   UNL A   1      31.719  24.215  23.769  1.00  0.00     0.003 A 
ATOM     21  C   UNL A   1      29.930  28.069  22.912  1.00  0.00     0.044 C 
ATOM     22  C   UNL A   1      30.555  26.734  23.192  1.00  0.00    -0.051 A 
ATOM     23  C   UNL A   1      31.433  26.140  22.284  1.00  0.00     0.004 A 
ATOM     24  C   UNL A   1      30.250  26.059  24.379  1.00  0.00     0.007 A 
ATOM     25  C   UNL A   1      32.004  24.895  22.570  1.00  0.00     0.011 A 
ATOM     26  C   UNL A   1      30.822  24.808  24.681  1.00  0.00    -0.041 A 
ATOM     27  C   UNL A   1      30.410  24.141  25.967  1.00  0.00     0.045 C 
ENDBRANCH  10  20
ENDBRANCH   7   9
ENDBRANCH   6   7
ENDBRANCH   5   6
ENDBRANCH   4   5
ENDBRANCH   3   4
ENDBRANCH   2   3
ENDBRANCH   1   2
BRANCH   1  28
ATOM     28  O   UNL A   1      42.318  20.304  26.620  1.00  0.00    -0.376 OA
BRANCH  28  29
ATOM     29  C   UNL A   1      43.324  20.235  25.625  1.00  0.00     0.202 C 
BRANCH  29  30
ATOM     30  C   UNL A   1      44.380  21.339  25.417  1.00  0.00     0.261 C 
BRANCH  30  31
ATOM     31  O   UNL A   1      44.236  22.555  26.158  1.00  0.00    -0.460 OA
BRANCH  31  32
ATOM     32  C   UNL A   1      43.982  23.679  25.451  1.00  0.00     0.338 C 
ATOM     33  O   UNL A   1      44.136  23.853  24.257  1.00  0.00    -0.246 OA
BRANCH  32  34
ATOM     34  C   UNL A   1      43.314  24.644  26.349  1.00  0.00     0.060 A 
ATOM     35  C   UNL A   1      43.767  25.968  26.375  1.00  0.00     0.016 A 
ATOM     36  C   UNL A   1      42.261  24.239  27.174  1.00  0.00     0.016 A 
ATOM     37  C   UNL A   1      43.180  26.888  27.246  1.00  0.00     0.010 A 
ATOM     38  C   UNL A   1      41.686  25.157  28.060  1.00  0.00     0.010 A 
ATOM     39  C   UNL A   1      42.160  26.481  28.118  1.00  0.00    -0.014 A 
BRANCH  39  40
ATOM     40  C   UNL A   1      41.718  27.385  29.208  1.00  0.00     0.031 A 
ATOM     41  C   UNL A   1      42.460  27.344  30.516  1.00  0.00     0.074 A 
ATOM     42  C   UNL A   1      40.705  28.252  29.037  1.00  0.00     0.049 A 
ATOM     43  N   UNL A   1      42.222  27.986  31.631  1.00  0.00    -0.248 NA
ATOM     44  C   UNL A   1      43.639  26.461  30.571  1.00  0.00     0.031 C 
ATOM     45  C   UNL A   1      39.948  28.438  27.801  1.00  0.00     0.029 A 
ATOM     46  N   UNL A   1      40.133  29.137  29.919  1.00  0.00    -0.354 N 
ATOM     47  C   UNL A   1      43.220  27.593  32.513  1.00  0.00     0.074 A 
ATOM     48  C   UNL A   1      44.049  26.632  31.817  1.00  0.00     0.031 C 
ATOM     49  C   UNL A   1      38.998  29.367  28.008  1.00  0.00     0.029 A 
ATOM     50  C   UNL A   1      39.056  29.814  29.398  1.00  0.00     0.049 A 
ATOM     51  H   UNL A   1      40.463  29.274  30.836  1.00  0.00     0.167 HD
ATOM     52  C   UNL A   1      43.434  28.004  33.785  1.00  0.00     0.037 A 
ATOM     53  C   UNL A   1      38.201  30.672  29.992  1.00  0.00     0.037 A 
ATOM     54  C   UNL A   1      42.604  28.947  34.485  1.00  0.00     0.049 A 
ATOM     55  C   UNL A   1      38.395  31.023  31.448  1.00  0.00     0.074 A 
ATOM     56  C   UNL A   1      42.721  29.401  35.787  1.00  0.00     0.029 A 
ATOM     57  N   UNL A   1      41.498  29.578  33.938  1.00  0.00    -0.354 N 
ATOM     58  N   UNL A   1      39.340  30.647  32.275  1.00  0.00    -0.248 NA
ATOM     59  C   UNL A   1      37.398  31.920  32.053  1.00  0.00     0.031 C 
ATOM     60  C   UNL A   1      41.663  30.279  36.041  1.00  0.00     0.029 A 
ATOM     61  C   UNL A   1      40.916  30.410  34.881  1.00  0.00     0.049 A 
ATOM     62  H   UNL A   1      41.173  29.456  33.016  1.00  0.00     0.167 HD
ATOM     63  C   UNL A   1      39.075  31.291  33.479  1.00  0.00     0.074 A 
ATOM     64  C   UNL A   1      37.888  32.092  33.271  1.00  0.00     0.031 C 
ATOM     65  C   UNL A   1      39.754  31.226  34.650  1.00  0.00     0.037 A 
BRANCH  52  66
ATOM     66  C   UNL A   1      44.611  27.425  34.510  1.00  0.00     0.064 A 
ATOM     67  C   UNL A   1      45.838  28.101  34.567  1.00  0.00     0.173 A 
ATOM     68  C   UNL A   1      44.495  26.209  35.200  1.00  0.00     0.173 A 
ATOM     69  F   UNL A   1      46.002  29.259  33.910  1.00  0.00    -0.203 F 
ATOM     70  C   UNL A   1      46.913  27.574  35.279  1.00  0.00     0.198 A 
ATOM     71  C   UNL A   1      45.564  25.698  35.931  1.00  0.00     0.198 A 
ATOM     72  F   UNL A   1      43.342  25.525  35.177  1.00  0.00    -0.203 F 
ATOM     73  F   UNL A   1      48.087  28.220  35.291  1.00  0.00    -0.200 F 
ATOM     74  C   UNL A   1      46.772  26.378  35.967  1.00  0.00     0.200 A 
ATOM     75  F   UNL A   1      45.423  24.548  36.605  1.00  0.00    -0.200 F 
ATOM     76  F   UNL A   1      47.803  25.879  36.663  1.00  0.00    -0.200 F 
ENDBRANCH  52  66
BRANCH  53  77
ATOM     77  C   UNL A   1      37.055  31.245  29.236  1.00  0.00     0.064 A 
ATOM     78  C   UNL A   1      37.028  32.602  28.879  1.00  0.00     0.173 A 
ATOM     79  C   UNL A   1      35.928  30.469  28.925  1.00  0.00     0.173 A 
ATOM     80  F   UNL A   1      38.067  33.394  29.184  1.00  0.00    -0.203 F 
ATOM     81  C   UNL A   1      35.905  33.166  28.276  1.00  0.00     0.198 A 
ATOM     82  C   UNL A   1      34.819  31.028  28.292  1.00  0.00     0.198 A 
ATOM     83  F   UNL A   1      35.897  29.169  29.253  1.00  0.00    -0.203 F 
ATOM     84  F   UNL A   1      35.878  34.480  28.015  1.00  0.00    -0.200 F 
ATOM     85  C   UNL A   1      34.803  32.379  27.981  1.00  0.00     0.200 A 
ATOM     86  F   UNL A   1      33.758  30.261  28.006  1.00  0.00    -0.200 F 
ATOM     87  F   UNL A   1      33.718  32.925  27.416  1.00  0.00    -0.200 F 
ENDBRANCH  53  77
BRANCH  65  88
ATOM     88  C   UNL A   1      39.273  32.089  35.782  1.00  0.00     0.064 A 
ATOM     89  C   UNL A   1      38.359  31.618  36.735  1.00  0.00     0.173 A 
ATOM     90  C   UNL A   1      39.770  33.393  35.936  1.00  0.00     0.173 A 
ATOM     91  F   UNL A   1      37.844  30.384  36.625  1.00  0.00    -0.203 F 
ATOM     92  C   UNL A   1      37.942  32.428  37.788  1.00  0.00     0.198 A 
ATOM     93  C   UNL A   1      39.374  34.189  37.006  1.00  0.00     0.198 A 
ATOM     94  F   UNL A   1      40.652  33.889  35.056  1.00  0.00    -0.203 F 
ATOM     95  F   UNL A   1      37.032  31.974  38.661  1.00  0.00    -0.200 F 
ATOM     96  C   UNL A   1      38.454  33.710  37.927  1.00  0.00     0.200 A 
ATOM     97  F   UNL A   1      39.882  35.421  37.148  1.00  0.00    -0.200 F 
ATOM     98  F   UNL A   1      38.058  34.485  38.945  1.00  0.00    -0.200 F 
ENDBRANCH  65  88
ENDBRANCH  39  40
ENDBRANCH  32  34
ENDBRANCH  31  32
ENDBRANCH  30  31
ENDBRANCH  29  30
ENDBRANCH  28  29
ENDBRANCH   1  28
TORSDOF 18
ENDMDL
MODEL 2
REMARK VINA RESULT:     -12.3      3.383      8.921
REMARK SMILES Cc1ccc(-c2cc(C(=O)OCCOCCOCCOC(=O)c3ccc(-c4c5nc(c(-c6c(F)c(F)c(F)c(F)c6F)c6ccc([nH]6)c(-c6c(F)c(F)c(F)c(F)c6F)c6nc(c(-c7c(F)c(F)c(F)c(F)c7F)c7ccc4[nH]7)C=C6)C=C5)cc3)c3cc(C)ccc3n2)c(C)c1
REMARK SMILES IDX 16 1 15 2 14 3 13 4 12 5 11 6 9 7 10 8 8 9 6 10 7 11 93 12
REMARK SMILES IDX 92 13 86 14 91 15 87 16 90 17 88 18 89 19 5 20 1 21 2 22
REMARK SMILES IDX 3 23 96 24 4 25 94 26 95 27 17 28 18 29 19 30 20 31 21 32
REMARK SMILES IDX 22 33 23 34 24 35 85 36 25 37 84 38 26 39 27 40 28 41 78 42
REMARK SMILES IDX 29 43 83 44 77 45 79 46 30 47 82 48 76 49 75 50 31 52 63 53
REMARK SMILES IDX 43 54 62 55 44 56 47 57 61 58 80 59 45 60 46 61 60 63 81 64
REMARK SMILES IDX 48 65 32 66 33 67 41 68 34 69 35 70 39 71 42 72 36 73 37 74
REMARK SMILES IDX 40 75 38 76 64 77 65 78 73 79 66 80 67 81 71 82 74 83 68 84
REMARK SMILES IDX 69 85 72 86 70 87 49 88 50 89 58 90 51 91 52 92 56 93 59 94
REMARK SMILES IDX 53 95 54 96 57 97 55 98
REMARK H PARENT 79 51 47 62
REMARK Flexibility Score: inf
ROOT
ATOM      1  C   UNL A   1      32.208  29.714  26.701  1.00  0.00     0.188 C 
ENDROOT
BRANCH   1   2
ATOM      2  C   UNL A   1      32.742  28.584  25.794  1.00  0.00     0.188 C 
BRANCH   2   3
ATOM      3  O   UNL A   1      32.478  28.632  24.394  1.00  0.00    -0.376 OA
BRANCH   3   4
ATOM      4  C   UNL A   1      33.571  28.561  23.480  1.00  0.00     0.202 C 
BRANCH   4   5
ATOM      5  C   UNL A   1      33.308  27.971  22.089  1.00  0.00     0.261 C 
BRANCH   5   6
ATOM      6  O   UNL A   1      34.101  26.800  21.823  1.00  0.00    -0.460 OA
BRANCH   6   7
ATOM      7  C   UNL A   1      33.444  25.617  21.850  1.00  0.00     0.338 C 
ATOM      8  O   UNL A   1      33.019  24.999  20.887  1.00  0.00    -0.246 OA
BRANCH   7   9
ATOM      9  C   UNL A   1      33.488  25.024  23.208  1.00  0.00     0.071 A 
ATOM     10  C   UNL A   1      34.823  23.827  24.788  1.00  0.00     0.072 A 
ATOM     11  C   UNL A   1      34.705  24.425  23.549  1.00  0.00     0.045 A 
ATOM     12  N   UNL A   1      33.802  23.794  25.670  1.00  0.00    -0.248 NA
ATOM     13  C   UNL A   1      32.632  24.365  25.343  1.00  0.00     0.072 A 
ATOM     14  C   UNL A   1      32.405  25.025  24.118  1.00  0.00     0.015 A 
ATOM     15  C   UNL A   1      31.602  24.286  26.268  1.00  0.00     0.029 A 
ATOM     16  C   UNL A   1      31.137  25.622  23.896  1.00  0.00     0.014 A 
ATOM     17  C   UNL A   1      30.355  24.871  26.039  1.00  0.00     0.005 A 
ATOM     18  C   UNL A   1      30.115  25.555  24.851  1.00  0.00    -0.050 A 
ATOM     19  C   UNL A   1      28.814  26.263  24.622  1.00  0.00     0.044 C 
BRANCH  10  20
ATOM     20  C   UNL A   1      36.051  23.138  25.198  1.00  0.00     0.003 A 
ATOM     21  C   UNL A   1      39.765  21.208  26.329  1.00  0.00     0.044 C 
ATOM     22  C   UNL A   1      38.485  21.891  25.944  1.00  0.00    -0.051 A 
ATOM     23  C   UNL A   1      38.343  23.276  26.048  1.00  0.00     0.004 A 
ATOM     24  C   UNL A   1      37.403  21.133  25.482  1.00  0.00     0.007 A 
ATOM     25  C   UNL A   1      37.140  23.888  25.682  1.00  0.00     0.011 A 
ATOM     26  C   UNL A   1      36.189  21.738  25.105  1.00  0.00    -0.041 A 
ATOM     27  C   UNL A   1      35.070  20.838  24.651  1.00  0.00     0.045 C 
ENDBRANCH  10  20
ENDBRANCH   7   9
ENDBRANCH   6   7
ENDBRANCH   5   6
ENDBRANCH   4   5
ENDBRANCH   3   4
ENDBRANCH   2   3
ENDBRANCH   1   2
BRANCH   1  28
ATOM     28  O   UNL A   1      31.933  30.906  26.002  1.00  0.00    -0.376 OA
BRANCH  28  29
ATOM     29  C   UNL A   1      31.290  31.972  26.677  1.00  0.00     0.202 C 
BRANCH  29  30
ATOM     30  C   UNL A   1      31.974  33.325  26.959  1.00  0.00     0.261 C 
BRANCH  30  31
ATOM     31  O   UNL A   1      32.715  33.462  28.176  1.00  0.00    -0.460 OA
BRANCH  31  32
ATOM     32  C   UNL A   1      33.828  34.229  28.133  1.00  0.00     0.338 C 
ATOM     33  O   UNL A   1      33.895  35.428  27.939  1.00  0.00    -0.246 OA
BRANCH  32  34
ATOM     34  C   UNL A   1      34.977  33.390  28.533  1.00  0.00     0.060 A 
ATOM     35  C   UNL A   1      34.739  32.075  28.951  1.00  0.00     0.016 A 
ATOM     36  C   UNL A   1      36.277  33.903  28.513  1.00  0.00     0.016 A 
ATOM     37  C   UNL A   1      35.803  31.276  29.374  1.00  0.00     0.010 A 
ATOM     38  C   UNL A   1      37.339  33.107  28.955  1.00  0.00     0.010 A 
ATOM     39  C   UNL A   1      37.105  31.797  29.411  1.00  0.00    -0.014 A 
BRANCH  39  40
ATOM     40  C   UNL A   1      38.182  31.039  30.094  1.00  0.00     0.031 A 
ATOM     41  C   UNL A   1      38.443  31.321  31.549  1.00  0.00     0.074 A 
ATOM     42  C   UNL A   1      38.893  30.095  29.453  1.00  0.00     0.049 A 
ATOM     43  N   UNL A   1      39.367  30.838  32.339  1.00  0.00    -0.248 NA
ATOM     44  C   UNL A   1      37.529  32.273  32.203  1.00  0.00     0.031 C 
ATOM     45  C   UNL A   1      38.697  29.681  28.066  1.00  0.00     0.029 A 
ATOM     46  N   UNL A   1      39.937  29.317  29.893  1.00  0.00    -0.354 N 
ATOM     47  C   UNL A   1      39.143  31.419  33.580  1.00  0.00     0.074 A 
ATOM     48  C   UNL A   1      38.016  32.316  33.433  1.00  0.00     0.031 C 
ATOM     49  C   UNL A   1      39.603  28.735  27.762  1.00  0.00     0.029 A 
ATOM     50  C   UNL A   1      40.467  28.504  28.919  1.00  0.00     0.049 A 
ATOM     51  H   UNL A   1      40.274  29.339  30.818  1.00  0.00     0.167 HD
ATOM     52  C   UNL A   1      39.808  31.216  34.741  1.00  0.00     0.037 A 
ATOM     53  C   UNL A   1      41.543  27.693  28.956  1.00  0.00     0.037 A 
ATOM     54  C   UNL A   1      40.938  30.338  34.888  1.00  0.00     0.049 A 
ATOM     55  C   UNL A   1      42.338  27.576  30.235  1.00  0.00     0.074 A 
ATOM     56  C   UNL A   1      41.699  30.091  36.017  1.00  0.00     0.029 A 
ATOM     57  N   UNL A   1      41.470  29.564  33.868  1.00  0.00    -0.354 N 
ATOM     58  N   UNL A   1      42.121  28.129  31.403  1.00  0.00    -0.248 NA
ATOM     59  C   UNL A   1      43.533  26.717  30.196  1.00  0.00     0.031 C 
ATOM     60  C   UNL A   1      42.716  29.196  35.671  1.00  0.00     0.029 A 
ATOM     61  C   UNL A   1      42.558  28.848  34.340  1.00  0.00     0.049 A 
ATOM     62  H   UNL A   1      41.126  29.528  32.946  1.00  0.00     0.167 HD
ATOM     63  C   UNL A   1      43.122  27.655  32.244  1.00  0.00     0.074 A 
ATOM     64  C   UNL A   1      43.941  26.760  31.455  1.00  0.00     0.031 C 
ATOM     65  C   UNL A   1      43.343  27.936  33.551  1.00  0.00     0.037 A 
BRANCH  52  66
ATOM     66  C   UNL A   1      39.338  31.969  35.949  1.00  0.00     0.064 A 
ATOM     67  C   UNL A   1      39.836  33.244  36.254  1.00  0.00     0.173 A 
ATOM     68  C   UNL A   1      38.343  31.434  36.780  1.00  0.00     0.173 A 
ATOM     69  F   UNL A   1      40.801  33.790  35.498  1.00  0.00    -0.203 F 
ATOM     70  C   UNL A   1      39.363  33.952  37.356  1.00  0.00     0.198 A 
ATOM     71  C   UNL A   1      37.854  32.156  37.865  1.00  0.00     0.198 A 
ATOM     72  F   UNL A   1      37.834  30.218  36.530  1.00  0.00    -0.203 F 
ATOM     73  F   UNL A   1      39.876  35.155  37.648  1.00  0.00    -0.200 F 
ATOM     74  C   UNL A   1      38.367  33.411  38.154  1.00  0.00     0.200 A 
ATOM     75  F   UNL A   1      36.884  31.636  38.630  1.00  0.00    -0.200 F 
ATOM     76  F   UNL A   1      37.902  34.100  39.206  1.00  0.00    -0.200 F 
ENDBRANCH  52  66
BRANCH  53  77
ATOM     77  C   UNL A   1      41.969  26.943  27.744  1.00  0.00     0.064 A 
ATOM     78  C   UNL A   1      41.568  25.616  27.534  1.00  0.00     0.173 A 
ATOM     79  C   UNL A   1      42.852  27.510  26.812  1.00  0.00     0.173 A 
ATOM     80  F   UNL A   1      40.751  25.017  28.414  1.00  0.00    -0.203 F 
ATOM     81  C   UNL A   1      42.061  24.874  26.461  1.00  0.00     0.198 A 
ATOM     82  C   UNL A   1      43.319  26.778  25.722  1.00  0.00     0.198 A 
ATOM     83  F   UNL A   1      43.276  28.773  26.971  1.00  0.00    -0.203 F 
ATOM     84  F   UNL A   1      41.719  23.586  26.328  1.00  0.00    -0.200 F 
ATOM     85  C   UNL A   1      42.934  25.456  25.555  1.00  0.00     0.200 A 
ATOM     86  F   UNL A   1      44.160  27.347  24.847  1.00  0.00    -0.200 F 
ATOM     87  F   UNL A   1      43.421  24.739  24.534  1.00  0.00    -0.200 F 
ENDBRANCH  53  77
BRANCH  65  88
ATOM     88  C   UNL A   1      44.476  27.223  34.234  1.00  0.00     0.064 A 
ATOM     89  C   UNL A   1      45.760  27.780  34.315  1.00  0.00     0.173 A 
ATOM     90  C   UNL A   1      44.257  25.981  34.853  1.00  0.00     0.173 A 
ATOM     91  F   UNL A   1      46.023  28.957  33.728  1.00  0.00    -0.203 F 
ATOM     92  C   UNL A   1      46.790  27.110  34.970  1.00  0.00     0.198 A 
ATOM     93  C   UNL A   1      45.281  25.329  35.533  1.00  0.00     0.198 A 
ATOM     94  F   UNL A   1      43.045  25.409  34.812  1.00  0.00    -0.203 F 
ATOM     95  F   UNL A   1      48.021  27.638  34.996  1.00  0.00    -0.200 F 
ATOM     96  C   UNL A   1      46.549  25.890  35.585  1.00  0.00     0.200 A 
ATOM     97  F   UNL A   1      45.043  24.158  36.140  1.00  0.00    -0.200 F 
ATOM     98  F   UNL A   1      47.539  25.251  36.221  1.00  0.00    -0.200 F 
ENDBRANCH  65  88
ENDBRANCH  39  40
ENDBRANCH  32  34
ENDBRANCH  31  32
ENDBRANCH  30  31
ENDBRANCH  29  30
ENDBRANCH  28  29
ENDBRANCH   1  28
TORSDOF 18
ENDMDL
MODEL 3
REMARK VINA RESULT:     -12.2      4.239      6.558
REMARK SMILES Cc1ccc(-c2cc(C(=O)OCCOCCOCCOC(=O)c3ccc(-c4c5nc(c(-c6c(F)c(F)c(F)c(F)c6F)c6ccc([nH]6)c(-c6c(F)c(F)c(F)c(F)c6F)c6nc(c(-c7c(F)c(F)c(F)c(F)c7F)c7ccc4[nH]7)C=C6)C=C5)cc3)c3cc(C)ccc3n2)c(C)c1
REMARK SMILES IDX 16 1 15 2 14 3 13 4 12 5 11 6 9 7 10 8 8 9 6 10 7 11 93 12
REMARK SMILES IDX 92 13 86 14 91 15 87 16 90 17 88 18 89 19 5 20 1 21 2 22
REMARK SMILES IDX 3 23 96 24 4 25 94 26 95 27 17 28 18 29 19 30 20 31 21 32
REMARK SMILES IDX 22 33 23 34 24 35 85 36 25 37 84 38 26 39 27 40 28 41 78 42
REMARK SMILES IDX 29 43 83 44 77 45 79 46 30 47 82 48 76 49 75 50 31 52 63 53
REMARK SMILES IDX 43 54 62 55 44 56 47 57 61 58 80 59 45 60 46 61 60 63 81 64
REMARK SMILES IDX 48 65 32 66 33 67 41 68 34 69 35 70 39 71 42 72 36 73 37 74
REMARK SMILES IDX 40 75 38 76 64 77 65 78 73 79 66 80 67 81 71 82 74 83 68 84
REMARK SMILES IDX 69 85 72 86 70 87 49 88 50 89 58 90 51 91 52 92 56 93 59 94
REMARK SMILES IDX 53 95 54 96 57 97 55 98
REMARK H PARENT 79 51 47 62
REMARK Flexibility Score: inf
ROOT
ATOM      1  C   UNL A   1      35.641  21.515  24.890  1.00  0.00     0.188 C 
ENDROOT
BRANCH   1   2
ATOM      2  C   UNL A   1      35.671  22.904  25.564  1.00  0.00     0.188 C 
BRANCH   2   3
ATOM      3  O   UNL A   1      34.625  23.263  26.463  1.00  0.00    -0.376 OA
BRANCH   3   4
ATOM      4  C   UNL A   1      34.387  22.448  27.610  1.00  0.00     0.202 C 
BRANCH   4   5
ATOM      5  C   UNL A   1      32.932  22.197  28.025  1.00  0.00     0.261 C 
BRANCH   5   6
ATOM      6  O   UNL A   1      32.099  23.359  27.862  1.00  0.00    -0.460 OA
BRANCH   6   7
ATOM      7  C   UNL A   1      30.933  23.168  27.202  1.00  0.00     0.338 C 
ATOM      8  O   UNL A   1      29.863  22.846  27.695  1.00  0.00    -0.246 OA
BRANCH   7   9
ATOM      9  C   UNL A   1      31.047  23.619  25.794  1.00  0.00     0.071 A 
ATOM     10  C   UNL A   1      30.738  25.444  24.284  1.00  0.00     0.072 A 
ATOM     11  C   UNL A   1      30.685  24.951  25.573  1.00  0.00     0.045 A 
ATOM     12  N   UNL A   1      31.117  24.681  23.238  1.00  0.00    -0.248 NA
ATOM     13  C   UNL A   1      31.460  23.400  23.448  1.00  0.00     0.072 A 
ATOM     14  C   UNL A   1      31.468  22.797  24.723  1.00  0.00     0.015 A 
ATOM     15  C   UNL A   1      31.819  22.645  22.342  1.00  0.00     0.029 A 
ATOM     16  C   UNL A   1      31.883  21.444  24.828  1.00  0.00     0.014 A 
ATOM     17  C   UNL A   1      32.220  21.312  22.454  1.00  0.00     0.005 A 
ATOM     18  C   UNL A   1      32.265  20.703  23.704  1.00  0.00    -0.050 A 
ATOM     19  C   UNL A   1      32.775  19.301  23.857  1.00  0.00     0.044 C 
BRANCH  10  20
ATOM     20  C   UNL A   1      30.330  26.817  23.966  1.00  0.00     0.003 A 
ATOM     21  C   UNL A   1      29.062  30.820  22.888  1.00  0.00     0.044 C 
ATOM     22  C   UNL A   1      29.485  29.428  23.260  1.00  0.00    -0.051 A 
ATOM     23  C   UNL A   1      28.612  28.347  23.129  1.00  0.00     0.004 A 
ATOM     24  C   UNL A   1      30.773  29.202  23.758  1.00  0.00     0.007 A 
ATOM     25  C   UNL A   1      29.031  27.059  23.481  1.00  0.00     0.011 A 
ATOM     26  C   UNL A   1      31.208  27.910  24.110  1.00  0.00    -0.041 A 
ATOM     27  C   UNL A   1      32.599  27.768  24.669  1.00  0.00     0.045 C 
ENDBRANCH  10  20
ENDBRANCH   7   9
ENDBRANCH   6   7
ENDBRANCH   5   6
ENDBRANCH   4   5
ENDBRANCH   3   4
ENDBRANCH   2   3
ENDBRANCH   1   2
BRANCH   1  28
ATOM     28  O   UNL A   1      36.560  20.605  25.448  1.00  0.00    -0.376 OA
BRANCH  28  29
ATOM     29  C   UNL A   1      37.774  20.343  24.768  1.00  0.00     0.202 C 
BRANCH  29  30
ATOM     30  C   UNL A   1      38.949  19.577  25.410  1.00  0.00     0.261 C 
BRANCH  30  31
ATOM     31  O   UNL A   1      39.474  20.066  26.648  1.00  0.00    -0.460 OA
BRANCH  31  32
ATOM     32  C   UNL A   1      40.805  20.299  26.702  1.00  0.00     0.338 C 
ATOM     33  O   UNL A   1      41.702  19.554  26.356  1.00  0.00    -0.246 OA
BRANCH  32  34
ATOM     34  C   UNL A   1      41.007  21.706  27.105  1.00  0.00     0.060 A 
ATOM     35  C   UNL A   1      40.400  22.718  26.351  1.00  0.00     0.016 A 
ATOM     36  C   UNL A   1      41.804  22.025  28.208  1.00  0.00     0.016 A 
ATOM     37  C   UNL A   1      40.611  24.057  26.686  1.00  0.00     0.010 A 
ATOM     38  C   UNL A   1      42.028  23.368  28.531  1.00  0.00     0.010 A 
ATOM     39  C   UNL A   1      41.452  24.392  27.756  1.00  0.00    -0.014 A 
BRANCH  39  40
ATOM     40  C   UNL A   1      41.872  25.802  27.950  1.00  0.00     0.031 A 
ATOM     41  C   UNL A   1      43.227  26.220  27.445  1.00  0.00     0.074 A 
ATOM     42  C   UNL A   1      41.061  26.705  28.527  1.00  0.00     0.049 A 
ATOM     43  N   UNL A   1      43.839  27.371  27.555  1.00  0.00    -0.248 NA
ATOM     44  C   UNL A   1      43.992  25.199  26.709  1.00  0.00     0.031 C 
ATOM     45  C   UNL A   1      39.703  26.446  28.999  1.00  0.00     0.029 A 
ATOM     46  N   UNL A   1      41.273  28.031  28.822  1.00  0.00    -0.354 N 
ATOM     47  C   UNL A   1      45.052  27.217  26.899  1.00  0.00     0.074 A 
ATOM     48  C   UNL A   1      45.107  25.852  26.420  1.00  0.00     0.031 C 
ATOM     49  C   UNL A   1      39.207  27.572  29.540  1.00  0.00     0.029 A 
ATOM     50  C   UNL A   1      40.225  28.621  29.487  1.00  0.00     0.049 A 
ATOM     51  H   UNL A   1      42.097  28.512  28.579  1.00  0.00     0.167 HD
ATOM     52  C   UNL A   1      46.029  28.133  26.701  1.00  0.00     0.037 A 
ATOM     53  C   UNL A   1      40.119  29.856  30.016  1.00  0.00     0.037 A 
ATOM     54  C   UNL A   1      45.985  29.486  27.189  1.00  0.00     0.049 A 
ATOM     55  C   UNL A   1      41.274  30.821  29.883  1.00  0.00     0.074 A 
ATOM     56  C   UNL A   1      46.941  30.478  27.067  1.00  0.00     0.029 A 
ATOM     57  N   UNL A   1      44.925  30.033  27.894  1.00  0.00    -0.354 N 
ATOM     58  N   UNL A   1      42.417  30.668  29.261  1.00  0.00    -0.248 NA
ATOM     59  C   UNL A   1      41.119  32.135  30.528  1.00  0.00     0.031 C 
ATOM     60  C   UNL A   1      46.476  31.617  27.733  1.00  0.00     0.029 A 
ATOM     61  C   UNL A   1      45.210  31.348  28.226  1.00  0.00     0.049 A 
ATOM     62  H   UNL A   1      44.094  29.559  28.126  1.00  0.00     0.167 HD
ATOM     63  C   UNL A   1      43.096  31.873  29.406  1.00  0.00     0.074 A 
ATOM     64  C   UNL A   1      42.232  32.751  30.163  1.00  0.00     0.031 C 
ATOM     65  C   UNL A   1      44.326  32.221  28.952  1.00  0.00     0.037 A 
BRANCH  52  66
ATOM     66  C   UNL A   1      47.240  27.699  25.933  1.00  0.00     0.064 A 
ATOM     67  C   UNL A   1      48.378  27.201  26.584  1.00  0.00     0.173 A 
ATOM     68  C   UNL A   1      47.244  27.730  24.530  1.00  0.00     0.173 A 
ATOM     69  F   UNL A   1      48.428  27.166  27.924  1.00  0.00    -0.203 F 
ATOM     70  C   UNL A   1      49.483  26.762  25.858  1.00  0.00     0.198 A 
ATOM     71  C   UNL A   1      48.340  27.266  23.808  1.00  0.00     0.198 A 
ATOM     72  F   UNL A   1      46.179  28.196  23.862  1.00  0.00    -0.203 F 
ATOM     73  F   UNL A   1      50.573  26.322  26.501  1.00  0.00    -0.200 F 
ATOM     74  C   UNL A   1      49.459  26.786  24.472  1.00  0.00     0.200 A 
ATOM     75  F   UNL A   1      48.311  27.281  22.468  1.00  0.00    -0.200 F 
ATOM     76  F   UNL A   1      50.517  26.350  23.775  1.00  0.00    -0.200 F 
ENDBRANCH  52  66
BRANCH  53  77
ATOM     77  C   UNL A   1      38.893  30.263  30.755  1.00  0.00     0.064 A 
ATOM     78  C   UNL A   1      37.795  30.824  30.086  1.00  0.00     0.173 A 
ATOM     79  C   UNL A   1      38.825  30.174  32.154  1.00  0.00     0.173 A 
ATOM     80  F   UNL A   1      37.825  30.962  28.751  1.00  0.00    -0.203 F 
ATOM     81  C   UNL A   1      36.695  31.312  30.788  1.00  0.00     0.198 A 
ATOM     82  C   UNL A   1      37.710  30.633  32.853  1.00  0.00     0.198 A 
ATOM     83  F   UNL A   1      39.851  29.655  32.845  1.00  0.00    -0.203 F 
ATOM     84  F   UNL A   1      35.695  31.911  30.128  1.00  0.00    -0.200 F 
ATOM     85  C   UNL A   1      36.652  31.215  32.171  1.00  0.00     0.200 A 
ATOM     86  F   UNL A   1      37.672  30.533  34.188  1.00  0.00    -0.200 F 
ATOM     87  F   UNL A   1      35.603  31.699  32.847  1.00  0.00    -0.200 F 
ENDBRANCH  53  77
BRANCH  65  88
ATOM     88  C   UNL A   1      44.787  33.628  29.202  1.00  0.00     0.064 A 
ATOM     89  C   UNL A   1      44.424  34.687  28.359  1.00  0.00     0.173 A 
ATOM     90  C   UNL A   1      45.569  33.924  30.330  1.00  0.00     0.173 A 
ATOM     91  F   UNL A   1      43.689  34.455  27.261  1.00  0.00    -0.203 F 
ATOM     92  C   UNL A   1      44.846  35.988  28.622  1.00  0.00     0.198 A 
ATOM     93  C   UNL A   1      45.964  35.230  30.607  1.00  0.00     0.198 A 
ATOM     94  F   UNL A   1      45.937  32.948  31.174  1.00  0.00    -0.203 F 
ATOM     95  F   UNL A   1      44.527  36.979  27.777  1.00  0.00    -0.200 F 
ATOM     96  C   UNL A   1      45.609  36.260  29.748  1.00  0.00     0.200 A 
ATOM     97  F   UNL A   1      46.688  35.492  31.703  1.00  0.00    -0.200 F 
ATOM     98  F   UNL A   1      46.009  37.512  30.004  1.00  0.00    -0.200 F 
ENDBRANCH  65  88
ENDBRANCH  39  40
ENDBRANCH  32  34
ENDBRANCH  31  32
ENDBRANCH  30  31
ENDBRANCH  29  30
ENDBRANCH  28  29
ENDBRANCH   1  28
TORSDOF 18
ENDMDL
