MODEL 1
REMARK VINA RESULT:     -11.9      0.000      0.000
REMARK SMILES CC1=C(C)C[C@@H](C(=O)OCCOCCOCCOC(=O)c2ccc(-c3c4nc(c(-c5c(F)c(F)c(F)c(F)c5F)c5ccc([nH]5)c(-c5c(F)c(F)c(F)c(F)c5F)c5nc(c(-c6c(F)c(F)c(F)c(F)c6F)c6ccc3[nH]6)C=C5)C=C4)cc2)[C@@H](C(=O)NCC[NH+]2CCOCC2)C1
REMARK SMILES IDX 13 1 12 2 11 3 10 4 9 5 7 6 8 7 6 8 1 9 2 10 3 11 96 12 4 13
REMARK SMILES IDX 5 14 84 15 85 16 86 17 87 18 88 20 89 21 90 22 91 23 95 24
REMARK SMILES IDX 92 26 94 27 93 28 14 29 15 30 16 31 17 32 18 33 19 34 20 35
REMARK SMILES IDX 21 36 22 37 83 38 23 39 82 40 24 41 25 42 26 43 76 44 27 45
REMARK SMILES IDX 81 46 75 47 77 48 28 49 80 50 74 51 73 52 29 54 61 55 41 56
REMARK SMILES IDX 60 57 42 58 45 59 59 60 78 61 43 62 44 63 58 65 79 66 46 67
REMARK SMILES IDX 30 68 31 69 39 70 32 71 33 72 37 73 40 74 34 75 35 76 38 77
REMARK SMILES IDX 36 78 62 79 63 80 71 81 64 82 65 83 69 84 72 85 66 86 67 87
REMARK SMILES IDX 70 88 68 89 47 90 48 91 56 92 49 93 50 94 54 95 57 96 51 97
REMARK SMILES IDX 52 98 55 99 53 100
REMARK H PARENT 87 19 90 25 77 53 45 64
REMARK Flexibility Score: inf
ROOT
ATOM      1  C   UNL A   1      38.449  21.849  26.116  1.00  0.00     0.188 C 
ENDROOT
BRANCH   1   2
ATOM      2  O   UNL A   1      37.993  21.816  24.779  1.00  0.00    -0.376 OA
BRANCH   2   3
ATOM      3  C   UNL A   1      36.701  21.695  24.234  1.00  0.00     0.202 C 
BRANCH   3   4
ATOM      4  C   UNL A   1      35.916  23.091  23.922  1.00  0.00     0.261 C 
BRANCH   4   5
ATOM      5  O   UNL A   1      34.977  23.762  24.859  1.00  0.00    -0.463 OA
BRANCH   5   6
ATOM      6  C   UNL A   1      33.858  24.525  24.876  1.00  0.00     0.310 C 
ATOM      7  O   UNL A   1      33.991  25.751  24.762  1.00  0.00    -0.252 OA
BRANCH   6   8
ATOM      8  C   UNL A   1      32.429  24.004  24.794  1.00  0.00     0.116 C 
ATOM      9  C   UNL A   1      33.531  19.813  24.741  1.00  0.00     0.039 C 
ATOM     10  C   UNL A   1      32.882  21.169  24.853  1.00  0.00    -0.074 C 
ATOM     11  C   UNL A   1      32.876  21.902  25.983  1.00  0.00    -0.073 C 
ATOM     12  C   UNL A   1      32.226  21.727  23.589  1.00  0.00     0.045 C 
ATOM     13  C   UNL A   1      33.681  21.653  27.221  1.00  0.00     0.039 C 
ATOM     14  C   UNL A   1      32.068  23.167  26.009  1.00  0.00     0.046 C 
ATOM     15  C   UNL A   1      31.997  23.294  23.561  1.00  0.00     0.097 C 
BRANCH  15  16
ATOM     16  C   UNL A   1      32.492  23.995  22.336  1.00  0.00     0.224 C 
ATOM     17  O   UNL A   1      33.236  23.293  21.633  1.00  0.00    -0.275 OA
ATOM     18  N   UNL A   1      32.245  25.247  21.871  1.00  0.00    -0.350 N 
ATOM     19  H   UNL A   1      32.565  25.184  20.942  1.00  0.00     0.163 HD
BRANCH  18  20
ATOM     20  C   UNL A   1      31.753  26.730  21.943  1.00  0.00     0.177 C 
BRANCH  20  21
ATOM     21  C   UNL A   1      30.778  27.403  23.210  1.00  0.00     0.283 C 
BRANCH  21  22
ATOM     22  N   UNL A   1      29.599  28.338  23.100  1.00  0.00    -0.330 N 
ATOM     23  C   UNL A   1      28.223  27.883  23.357  1.00  0.00     0.291 C 
ATOM     24  C   UNL A   1      29.747  29.706  23.660  1.00  0.00     0.291 C 
ATOM     25  H   UNL A   1      29.687  28.352  22.084  1.00  0.00     0.348 HD
ATOM     26  C   UNL A   1      27.173  28.917  22.818  1.00  0.00     0.221 C 
ATOM     27  C   UNL A   1      28.677  30.669  23.072  1.00  0.00     0.221 C 
ATOM     28  O   UNL A   1      27.353  30.212  23.397  1.00  0.00    -0.370 OA
ENDBRANCH  21  22
ENDBRANCH  20  21
ENDBRANCH  18  20
ENDBRANCH  15  16
ENDBRANCH   6   8
ENDBRANCH   5   6
ENDBRANCH   4   5
ENDBRANCH   3   4
ENDBRANCH   2   3
ENDBRANCH   1   2
BRANCH   1  29
ATOM     29  C   UNL A   1      39.905  21.946  26.410  1.00  0.00     0.188 C 
BRANCH  29  30
ATOM     30  O   UNL A   1      40.615  20.736  26.293  1.00  0.00    -0.376 OA
BRANCH  30  31
ATOM     31  C   UNL A   1      41.979  20.803  26.663  1.00  0.00     0.202 C 
BRANCH  31  32
ATOM     32  C   UNL A   1      42.968  21.349  25.606  1.00  0.00     0.261 C 
BRANCH  32  33
ATOM     33  O   UNL A   1      42.701  22.645  25.026  1.00  0.00    -0.460 OA
BRANCH  33  34
ATOM     34  C   UNL A   1      43.614  23.642  25.168  1.00  0.00     0.338 C 
ATOM     35  O   UNL A   1      44.656  23.771  24.536  1.00  0.00    -0.246 OA
BRANCH  34  36
ATOM     36  C   UNL A   1      43.024  24.690  26.071  1.00  0.00     0.060 A 
ATOM     37  C   UNL A   1      43.181  26.052  25.759  1.00  0.00     0.016 A 
ATOM     38  C   UNL A   1      42.212  24.337  27.157  1.00  0.00     0.016 A 
ATOM     39  C   UNL A   1      42.571  27.047  26.547  1.00  0.00     0.010 A 
ATOM     40  C   UNL A   1      41.621  25.329  27.953  1.00  0.00     0.010 A 
ATOM     41  C   UNL A   1      41.823  26.694  27.679  1.00  0.00    -0.014 A 
BRANCH  41  42
ATOM     42  C   UNL A   1      41.481  27.697  28.730  1.00  0.00     0.031 A 
ATOM     43  C   UNL A   1      42.305  27.675  29.995  1.00  0.00     0.074 A 
ATOM     44  C   UNL A   1      40.470  28.583  28.622  1.00  0.00     0.049 A 
ATOM     45  N   UNL A   1      42.125  28.307  31.127  1.00  0.00    -0.248 NA
ATOM     46  C   UNL A   1      43.498  26.812  29.971  1.00  0.00     0.031 C 
ATOM     47  C   UNL A   1      39.633  28.782  27.444  1.00  0.00     0.029 A 
ATOM     48  N   UNL A   1      39.967  29.477  29.545  1.00  0.00    -0.354 N 
ATOM     49  C   UNL A   1      43.178  27.913  31.946  1.00  0.00     0.074 A 
ATOM     50  C   UNL A   1      43.975  26.970  31.195  1.00  0.00     0.031 C 
ATOM     51  C   UNL A   1      38.704  29.719  27.721  1.00  0.00     0.029 A 
ATOM     52  C   UNL A   1      38.849  30.152  29.113  1.00  0.00     0.049 A 
ATOM     53  H   UNL A   1      40.371  29.618  30.431  1.00  0.00     0.167 HD
ATOM     54  C   UNL A   1      43.460  28.302  33.212  1.00  0.00     0.037 A 
ATOM     55  C   UNL A   1      38.019  30.988  29.776  1.00  0.00     0.037 A 
ATOM     56  C   UNL A   1      42.670  29.229  33.974  1.00  0.00     0.049 A 
ATOM     57  C   UNL A   1      38.280  31.302  31.235  1.00  0.00     0.074 A 
ATOM     58  C   UNL A   1      42.876  29.676  35.268  1.00  0.00     0.029 A 
ATOM     59  N   UNL A   1      41.518  29.846  33.516  1.00  0.00    -0.354 N 
ATOM     60  N   UNL A   1      39.277  30.932  32.001  1.00  0.00    -0.248 NA
ATOM     61  C   UNL A   1      37.286  32.142  31.926  1.00  0.00     0.031 C 
ATOM     62  C   UNL A   1      41.816  30.519  35.613  1.00  0.00     0.029 A 
ATOM     63  C   UNL A   1      40.982  30.643  34.513  1.00  0.00     0.049 A 
ATOM     64  H   UNL A   1      41.136  29.734  32.615  1.00  0.00     0.167 HD
ATOM     65  C   UNL A   1      39.046  31.514  33.244  1.00  0.00     0.074 A 
ATOM     66  C   UNL A   1      37.826  32.282  33.127  1.00  0.00     0.031 C 
ATOM     67  C   UNL A   1      39.776  31.418  34.382  1.00  0.00     0.037 A 
BRANCH  54  68
ATOM     68  C   UNL A   1      44.670  27.703  33.868  1.00  0.00     0.064 A 
ATOM     69  C   UNL A   1      45.940  28.281  33.734  1.00  0.00     0.173 A 
ATOM     70  C   UNL A   1      44.545  26.567  34.681  1.00  0.00     0.173 A 
ATOM     71  F   UNL A   1      46.114  29.358  32.953  1.00  0.00    -0.203 F 
ATOM     72  C   UNL A   1      47.045  27.732  34.379  1.00  0.00     0.198 A 
ATOM     73  C   UNL A   1      45.646  26.040  35.348  1.00  0.00     0.198 A 
ATOM     74  F   UNL A   1      43.350  25.978  34.842  1.00  0.00    -0.203 F 
ATOM     75  F   UNL A   1      48.258  28.277  34.206  1.00  0.00    -0.200 F 
ATOM     76  C   UNL A   1      46.895  26.620  35.193  1.00  0.00     0.200 A 
ATOM     77  F   UNL A   1      45.496  24.973  36.145  1.00  0.00    -0.200 F 
ATOM     78  F   UNL A   1      47.958  26.103  35.825  1.00  0.00    -0.200 F 
ENDBRANCH  54  68
BRANCH  55  79
ATOM     79  C   UNL A   1      36.812  31.559  29.107  1.00  0.00     0.064 A 
ATOM     80  C   UNL A   1      36.723  32.928  28.812  1.00  0.00     0.173 A 
ATOM     81  C   UNL A   1      35.685  30.768  28.838  1.00  0.00     0.173 A 
ATOM     82  F   UNL A   1      37.756  33.741  29.086  1.00  0.00    -0.203 F 
ATOM     83  C   UNL A   1      35.549  33.486  28.305  1.00  0.00     0.198 A 
ATOM     84  C   UNL A   1      34.524  31.320  28.298  1.00  0.00     0.198 A 
ATOM     85  F   UNL A   1      35.702  29.456  29.115  1.00  0.00    -0.203 F 
ATOM     86  F   UNL A   1      35.469  34.809  28.106  1.00  0.00    -0.200 F 
ATOM     87  C   UNL A   1      34.452  32.681  28.045  1.00  0.00     0.200 A 
ATOM     88  F   UNL A   1      33.468  30.535  28.042  1.00  0.00    -0.200 F 
ATOM     89  F   UNL A   1      33.320  33.218  27.569  1.00  0.00    -0.200 F 
ENDBRANCH  55  79
BRANCH  67  90
ATOM     90  C   UNL A   1      39.304  32.178  35.590  1.00  0.00     0.064 A 
ATOM     91  C   UNL A   1      39.610  33.535  35.771  1.00  0.00     0.173 A 
ATOM     92  C   UNL A   1      38.475  31.561  36.542  1.00  0.00     0.173 A 
ATOM     93  F   UNL A   1      40.405  34.169  34.898  1.00  0.00    -0.203 F 
ATOM     94  C   UNL A   1      39.120  34.240  36.868  1.00  0.00     0.198 A 
ATOM     95  C   UNL A   1      37.961  32.278  37.619  1.00  0.00     0.198 A 
ATOM     96  F   UNL A   1      38.142  30.269  36.412  1.00  0.00    -0.203 F 
ATOM     97  F   UNL A   1      39.458  35.526  37.041  1.00  0.00    -0.200 F 
ATOM     98  C   UNL A   1      38.289  33.615  37.785  1.00  0.00     0.200 A 
ATOM     99  F   UNL A   1      37.143  31.677  38.493  1.00  0.00    -0.200 F 
ATOM    100  F   UNL A   1      37.805  34.300  38.831  1.00  0.00    -0.200 F 
ENDBRANCH  67  90
ENDBRANCH  41  42
ENDBRANCH  34  36
ENDBRANCH  33  34
ENDBRANCH  32  33
ENDBRANCH  31  32
ENDBRANCH  30  31
ENDBRANCH  29  30
ENDBRANCH   1  29
TORSDOF 21
ENDMDL
MODEL 2
REMARK VINA RESULT:     -11.6      3.384      8.311
REMARK SMILES CC1=C(C)C[C@@H](C(=O)OCCOCCOCCOC(=O)c2ccc(-c3c4nc(c(-c5c(F)c(F)c(F)c(F)c5F)c5ccc([nH]5)c(-c5c(F)c(F)c(F)c(F)c5F)c5nc(c(-c6c(F)c(F)c(F)c(F)c6F)c6ccc3[nH]6)C=C5)C=C4)cc2)[C@@H](C(=O)NCC[NH+]2CCOCC2)C1
REMARK SMILES IDX 13 1 12 2 11 3 10 4 9 5 7 6 8 7 6 8 1 9 2 10 3 11 96 12 4 13
REMARK SMILES IDX 5 14 84 15 85 16 86 17 87 18 88 20 89 21 90 22 91 23 95 24
REMARK SMILES IDX 92 26 94 27 93 28 14 29 15 30 16 31 17 32 18 33 19 34 20 35
REMARK SMILES IDX 21 36 22 37 83 38 23 39 82 40 24 41 25 42 26 43 76 44 27 45
REMARK SMILES IDX 81 46 75 47 77 48 28 49 80 50 74 51 73 52 29 54 61 55 41 56
REMARK SMILES IDX 60 57 42 58 45 59 59 60 78 61 43 62 44 63 58 65 79 66 46 67
REMARK SMILES IDX 30 68 31 69 39 70 32 71 33 72 37 73 40 74 34 75 35 76 38 77
REMARK SMILES IDX 36 78 62 79 63 80 71 81 64 82 65 83 69 84 72 85 66 86 67 87
REMARK SMILES IDX 70 88 68 89 47 90 48 91 56 92 49 93 50 94 54 95 57 96 51 97
REMARK SMILES IDX 52 98 55 99 53 100
REMARK H PARENT 87 19 90 25 77 53 45 64
REMARK Flexibility Score: inf
ROOT
ATOM      1  C   UNL A   1      31.904  28.205  26.927  1.00  0.00     0.188 C 
ENDROOT
BRANCH   1   2
ATOM      2  O   UNL A   1      31.799  26.968  26.252  1.00  0.00    -0.376 OA
BRANCH   2   3
ATOM      3  C   UNL A   1      30.796  25.980  26.260  1.00  0.00     0.202 C 
BRANCH   3   4
ATOM      4  C   UNL A   1      30.829  24.908  25.031  1.00  0.00     0.261 C 
BRANCH   4   5
ATOM      5  O   UNL A   1      31.587  23.630  25.043  1.00  0.00    -0.463 OA
BRANCH   5   6
ATOM      6  C   UNL A   1      31.484  22.337  25.434  1.00  0.00     0.310 C 
ATOM      7  O   UNL A   1      30.428  21.977  25.972  1.00  0.00    -0.252 OA
BRANCH   6   8
ATOM      8  C   UNL A   1      32.454  21.221  25.069  1.00  0.00     0.116 C 
ATOM      9  C   UNL A   1      36.036  23.552  25.785  1.00  0.00     0.039 C 
ATOM     10  C   UNL A   1      34.972  22.506  25.573  1.00  0.00    -0.074 C 
ATOM     11  C   UNL A   1      34.247  21.966  26.573  1.00  0.00    -0.073 C 
ATOM     12  C   UNL A   1      34.706  22.073  24.131  1.00  0.00     0.045 C 
ATOM     13  C   UNL A   1      34.173  22.445  27.990  1.00  0.00     0.039 C 
ATOM     14  C   UNL A   1      33.324  20.827  26.251  1.00  0.00     0.046 C 
ATOM     15  C   UNL A   1      33.307  21.381  23.862  1.00  0.00     0.097 C 
BRANCH  15  16
ATOM     16  C   UNL A   1      32.521  21.942  22.720  1.00  0.00     0.224 C 
ATOM     17  O   UNL A   1      31.713  21.135  22.234  1.00  0.00    -0.275 OA
ATOM     18  N   UNL A   1      32.538  23.177  22.155  1.00  0.00    -0.350 N 
ATOM     19  H   UNL A   1      31.708  23.169  21.625  1.00  0.00     0.163 HD
BRANCH  18  20
ATOM     20  C   UNL A   1      33.099  24.604  21.849  1.00  0.00     0.177 C 
BRANCH  20  21
ATOM     21  C   UNL A   1      32.140  26.000  21.471  1.00  0.00     0.283 C 
BRANCH  21  22
ATOM     22  N   UNL A   1      31.793  27.175  22.352  1.00  0.00    -0.330 N 
ATOM     23  C   UNL A   1      32.653  28.366  22.428  1.00  0.00     0.291 C 
ATOM     24  C   UNL A   1      30.377  27.623  22.380  1.00  0.00     0.291 C 
ATOM     25  H   UNL A   1      32.018  26.633  23.187  1.00  0.00     0.348 HD
ATOM     26  C   UNL A   1      32.284  29.256  23.667  1.00  0.00     0.221 C 
ATOM     27  C   UNL A   1      30.090  28.490  23.639  1.00  0.00     0.221 C 
ATOM     28  O   UNL A   1      30.915  29.669  23.638  1.00  0.00    -0.370 OA
ENDBRANCH  21  22
ENDBRANCH  20  21
ENDBRANCH  18  20
ENDBRANCH  15  16
ENDBRANCH   6   8
ENDBRANCH   5   6
ENDBRANCH   4   5
ENDBRANCH   3   4
ENDBRANCH   2   3
ENDBRANCH   1   2
BRANCH   1  29
ATOM     29  C   UNL A   1      33.235  28.718  27.351  1.00  0.00     0.188 C 
BRANCH  29  30
ATOM     30  O   UNL A   1      33.649  29.900  26.706  1.00  0.00    -0.376 OA
BRANCH  30  31
ATOM     31  C   UNL A   1      33.944  30.981  27.569  1.00  0.00     0.202 C 
BRANCH  31  32
ATOM     32  C   UNL A   1      32.883  32.101  27.680  1.00  0.00     0.261 C 
BRANCH  32  33
ATOM     33  O   UNL A   1      33.302  33.465  27.455  1.00  0.00    -0.460 OA
BRANCH  33  34
ATOM     34  C   UNL A   1      33.355  34.330  28.503  1.00  0.00     0.338 C 
ATOM     35  O   UNL A   1      32.480  35.120  28.839  1.00  0.00    -0.246 OA
BRANCH  34  36
ATOM     36  C   UNL A   1      34.570  33.995  29.324  1.00  0.00     0.060 A 
ATOM     37  C   UNL A   1      35.852  34.296  28.831  1.00  0.00     0.016 A 
ATOM     38  C   UNL A   1      34.450  33.499  30.628  1.00  0.00     0.016 A 
ATOM     39  C   UNL A   1      36.999  34.063  29.614  1.00  0.00     0.010 A 
ATOM     40  C   UNL A   1      35.593  33.250  31.401  1.00  0.00     0.010 A 
ATOM     41  C   UNL A   1      36.880  33.495  30.890  1.00  0.00    -0.014 A 
BRANCH  41  42
ATOM     42  C   UNL A   1      38.057  32.897  31.589  1.00  0.00     0.031 A 
ATOM     43  C   UNL A   1      38.683  31.677  30.958  1.00  0.00     0.074 A 
ATOM     44  C   UNL A   1      38.557  33.365  32.750  1.00  0.00     0.049 A 
ATOM     45  N   UNL A   1      39.594  30.862  31.426  1.00  0.00    -0.248 NA
ATOM     46  C   UNL A   1      38.206  31.333  29.608  1.00  0.00     0.031 C 
ATOM     47  C   UNL A   1      38.117  34.569  33.446  1.00  0.00     0.029 A 
ATOM     48  N   UNL A   1      39.549  32.854  33.562  1.00  0.00    -0.354 N 
ATOM     49  C   UNL A   1      39.792  29.911  30.432  1.00  0.00     0.074 A 
ATOM     50  C   UNL A   1      38.891  30.231  29.348  1.00  0.00     0.031 C 
ATOM     51  C   UNL A   1      38.816  34.693  34.591  1.00  0.00     0.029 A 
ATOM     52  C   UNL A   1      39.720  33.550  34.736  1.00  0.00     0.049 A 
ATOM     53  H   UNL A   1      40.084  32.064  33.323  1.00  0.00     0.167 HD
ATOM     54  C   UNL A   1      40.649  28.863  30.417  1.00  0.00     0.037 A 
ATOM     55  C   UNL A   1      40.486  33.274  35.815  1.00  0.00     0.037 A 
ATOM     56  C   UNL A   1      41.541  28.526  31.492  1.00  0.00     0.049 A 
ATOM     57  C   UNL A   1      41.336  32.020  35.830  1.00  0.00     0.074 A 
ATOM     58  C   UNL A   1      42.441  27.477  31.568  1.00  0.00     0.029 A 
ATOM     59  N   UNL A   1      41.642  29.227  32.682  1.00  0.00    -0.354 N 
ATOM     60  N   UNL A   1      41.523  31.129  34.887  1.00  0.00    -0.248 NA
ATOM     61  C   UNL A   1      42.073  31.727  37.072  1.00  0.00     0.031 C 
ATOM     62  C   UNL A   1      43.044  27.509  32.828  1.00  0.00     0.029 A 
ATOM     63  C   UNL A   1      42.564  28.613  33.513  1.00  0.00     0.049 A 
ATOM     64  H   UNL A   1      41.134  30.041  32.904  1.00  0.00     0.167 HD
ATOM     65  C   UNL A   1      42.414  30.195  35.408  1.00  0.00     0.074 A 
ATOM     66  C   UNL A   1      42.750  30.636  36.744  1.00  0.00     0.031 C 
ATOM     67  C   UNL A   1      42.905  29.069  34.835  1.00  0.00     0.037 A 
BRANCH  54  68
ATOM     68  C   UNL A   1      40.647  27.982  29.203  1.00  0.00     0.064 A 
ATOM     69  C   UNL A   1      39.764  26.900  29.081  1.00  0.00     0.173 A 
ATOM     70  C   UNL A   1      41.505  28.256  28.126  1.00  0.00     0.173 A 
ATOM     71  F   UNL A   1      38.936  26.587  30.089  1.00  0.00    -0.203 F 
ATOM     72  C   UNL A   1      39.751  26.115  27.931  1.00  0.00     0.198 A 
ATOM     73  C   UNL A   1      41.468  27.487  26.967  1.00  0.00     0.198 A 
ATOM     74  F   UNL A   1      42.368  29.281  28.193  1.00  0.00    -0.203 F 
ATOM     75  F   UNL A   1      38.926  25.061  27.852  1.00  0.00    -0.200 F 
ATOM     76  C   UNL A   1      40.595  26.415  26.873  1.00  0.00     0.200 A 
ATOM     77  F   UNL A   1      42.275  27.788  25.941  1.00  0.00    -0.200 F 
ATOM     78  F   UNL A   1      40.569  25.667  25.761  1.00  0.00    -0.200 F 
ENDBRANCH  54  68
BRANCH  55  79
ATOM     79  C   UNL A   1      40.460  34.156  37.020  1.00  0.00     0.064 A 
ATOM     80  C   UNL A   1      41.439  35.141  37.223  1.00  0.00     0.173 A 
ATOM     81  C   UNL A   1      39.513  33.970  38.039  1.00  0.00     0.173 A 
ATOM     82  F   UNL A   1      42.394  35.335  36.300  1.00  0.00    -0.203 F 
ATOM     83  C   UNL A   1      41.492  35.879  38.405  1.00  0.00     0.198 A 
ATOM     84  C   UNL A   1      39.544  34.734  39.206  1.00  0.00     0.198 A 
ATOM     85  F   UNL A   1      38.562  33.033  37.912  1.00  0.00    -0.203 F 
ATOM     86  F   UNL A   1      42.484  36.757  38.602  1.00  0.00    -0.200 F 
ATOM     87  C   UNL A   1      40.542  35.678  39.394  1.00  0.00     0.200 A 
ATOM     88  F   UNL A   1      38.619  34.540  40.156  1.00  0.00    -0.200 F 
ATOM     89  F   UNL A   1      40.598  36.379  40.535  1.00  0.00    -0.200 F 
ENDBRANCH  55  79
BRANCH  67  90
ATOM     90  C   UNL A   1      43.882  28.244  35.625  1.00  0.00     0.064 A 
ATOM     91  C   UNL A   1      45.265  28.462  35.543  1.00  0.00     0.173 A 
ATOM     92  C   UNL A   1      43.425  27.271  36.530  1.00  0.00     0.173 A 
ATOM     93  F   UNL A   1      45.755  29.371  34.688  1.00  0.00    -0.203 F 
ATOM     94  C   UNL A   1      46.154  27.725  36.322  1.00  0.00     0.198 A 
ATOM     95  C   UNL A   1      44.315  26.559  37.329  1.00  0.00     0.198 A 
ATOM     96  F   UNL A   1      42.112  27.028  36.656  1.00  0.00    -0.203 F 
ATOM     97  F   UNL A   1      47.474  27.923  36.197  1.00  0.00    -0.200 F 
ATOM     98  C   UNL A   1      45.679  26.782  37.221  1.00  0.00     0.200 A 
ATOM     99  F   UNL A   1      43.853  25.662  38.211  1.00  0.00    -0.200 F 
ATOM    100  F   UNL A   1      46.536  26.086  37.981  1.00  0.00    -0.200 F 
ENDBRANCH  67  90
ENDBRANCH  41  42
ENDBRANCH  34  36
ENDBRANCH  33  34
ENDBRANCH  32  33
ENDBRANCH  31  32
ENDBRANCH  30  31
ENDBRANCH  29  30
ENDBRANCH   1  29
TORSDOF 21
ENDMDL
MODEL 3
REMARK VINA RESULT:     -11.5      4.963      7.232
REMARK SMILES CC1=C(C)C[C@@H](C(=O)OCCOCCOCCOC(=O)c2ccc(-c3c4nc(c(-c5c(F)c(F)c(F)c(F)c5F)c5ccc([nH]5)c(-c5c(F)c(F)c(F)c(F)c5F)c5nc(c(-c6c(F)c(F)c(F)c(F)c6F)c6ccc3[nH]6)C=C5)C=C4)cc2)[C@@H](C(=O)NCC[NH+]2CCOCC2)C1
REMARK SMILES IDX 13 1 12 2 11 3 10 4 9 5 7 6 8 7 6 8 1 9 2 10 3 11 96 12 4 13
REMARK SMILES IDX 5 14 84 15 85 16 86 17 87 18 88 20 89 21 90 22 91 23 95 24
REMARK SMILES IDX 92 26 94 27 93 28 14 29 15 30 16 31 17 32 18 33 19 34 20 35
REMARK SMILES IDX 21 36 22 37 83 38 23 39 82 40 24 41 25 42 26 43 76 44 27 45
REMARK SMILES IDX 81 46 75 47 77 48 28 49 80 50 74 51 73 52 29 54 61 55 41 56
REMARK SMILES IDX 60 57 42 58 45 59 59 60 78 61 43 62 44 63 58 65 79 66 46 67
REMARK SMILES IDX 30 68 31 69 39 70 32 71 33 72 37 73 40 74 34 75 35 76 38 77
REMARK SMILES IDX 36 78 62 79 63 80 71 81 64 82 65 83 69 84 72 85 66 86 67 87
REMARK SMILES IDX 70 88 68 89 47 90 48 91 56 92 49 93 50 94 54 95 57 96 51 97
REMARK SMILES IDX 52 98 55 99 53 100
REMARK H PARENT 87 19 90 25 77 53 45 64
REMARK Flexibility Score: inf
ROOT
ATOM      1  C   UNL A   1      39.335  21.864  26.142  1.00  0.00     0.188 C 
ENDROOT
BRANCH   1   2
ATOM      2  O   UNL A   1      38.367  21.165  25.386  1.00  0.00    -0.376 OA
BRANCH   2   3
ATOM      3  C   UNL A   1      37.131  21.570  24.846  1.00  0.00     0.202 C 
BRANCH   3   4
ATOM      4  C   UNL A   1      36.668  23.100  25.170  1.00  0.00     0.261 C 
BRANCH   4   5
ATOM      5  O   UNL A   1      35.438  23.743  24.639  1.00  0.00    -0.463 OA
BRANCH   5   6
ATOM      6  C   UNL A   1      34.321  24.395  25.043  1.00  0.00     0.310 C 
ATOM      7  O   UNL A   1      34.448  25.548  25.476  1.00  0.00    -0.252 OA
BRANCH   6   8
ATOM      8  C   UNL A   1      32.890  23.932  24.804  1.00  0.00     0.116 C 
ATOM      9  C   UNL A   1      33.853  19.709  24.658  1.00  0.00     0.039 C 
ATOM     10  C   UNL A   1      33.241  21.081  24.772  1.00  0.00    -0.074 C 
ATOM     11  C   UNL A   1      33.152  21.765  25.930  1.00  0.00    -0.073 C 
ATOM     12  C   UNL A   1      32.726  21.718  23.480  1.00  0.00     0.045 C 
ATOM     13  C   UNL A   1      33.828  21.433  27.225  1.00  0.00     0.039 C 
ATOM     14  C   UNL A   1      32.388  23.056  25.940  1.00  0.00     0.046 C 
ATOM     15  C   UNL A   1      32.553  23.292  23.505  1.00  0.00     0.097 C 
BRANCH  15  16
ATOM     16  C   UNL A   1      33.185  24.027  22.365  1.00  0.00     0.224 C 
ATOM     17  O   UNL A   1      33.703  23.277  21.523  1.00  0.00    -0.275 OA
ATOM     18  N   UNL A   1      33.262  25.357  22.103  1.00  0.00    -0.350 N 
ATOM     19  H   UNL A   1      33.532  25.361  21.156  1.00  0.00     0.163 HD
BRANCH  18  20
ATOM     20  C   UNL A   1      33.175  26.886  22.419  1.00  0.00     0.177 C 
BRANCH  20  21
ATOM     21  C   UNL A   1      32.176  27.603  23.644  1.00  0.00     0.283 C 
BRANCH  21  22
ATOM     22  N   UNL A   1      32.582  28.171  24.981  1.00  0.00    -0.330 N 
ATOM     23  C   UNL A   1      33.892  28.810  25.186  1.00  0.00     0.291 C 
ATOM     24  C   UNL A   1      31.566  28.942  25.741  1.00  0.00     0.291 C 
ATOM     25  H   UNL A   1      32.685  27.231  25.365  1.00  0.00     0.348 HD
ATOM     26  C   UNL A   1      34.214  28.971  26.713  1.00  0.00     0.221 C 
ATOM     27  C   UNL A   1      31.953  29.048  27.244  1.00  0.00     0.221 C 
ATOM     28  O   UNL A   1      33.211  29.729  27.394  1.00  0.00    -0.370 OA
ENDBRANCH  21  22
ENDBRANCH  20  21
ENDBRANCH  18  20
ENDBRANCH  15  16
ENDBRANCH   6   8
ENDBRANCH   5   6
ENDBRANCH   4   5
ENDBRANCH   3   4
ENDBRANCH   2   3
ENDBRANCH   1   2
BRANCH   1  29
ATOM     29  C   UNL A   1      40.744  21.387  26.180  1.00  0.00     0.188 C 
BRANCH  29  30
ATOM     30  O   UNL A   1      41.112  20.716  27.363  1.00  0.00    -0.376 OA
BRANCH  30  31
ATOM     31  C   UNL A   1      41.951  19.592  27.179  1.00  0.00     0.202 C 
BRANCH  31  32
ATOM     32  C   UNL A   1      42.414  19.289  25.735  1.00  0.00     0.261 C 
BRANCH  32  33
ATOM     33  O   UNL A   1      43.777  18.857  25.530  1.00  0.00    -0.460 OA
BRANCH  33  34
ATOM     34  C   UNL A   1      44.499  19.383  24.505  1.00  0.00     0.338 C 
ATOM     35  O   UNL A   1      44.729  18.849  23.427  1.00  0.00    -0.246 OA
BRANCH  34  36
ATOM     36  C   UNL A   1      44.775  20.828  24.822  1.00  0.00     0.060 A 
ATOM     37  C   UNL A   1      45.344  21.176  26.060  1.00  0.00     0.016 A 
ATOM     38  C   UNL A   1      44.591  21.828  23.860  1.00  0.00     0.016 A 
ATOM     39  C   UNL A   1      45.682  22.512  26.348  1.00  0.00     0.010 A 
ATOM     40  C   UNL A   1      44.911  23.162  24.153  1.00  0.00     0.010 A 
ATOM     41  C   UNL A   1      45.426  23.524  25.411  1.00  0.00    -0.014 A 
BRANCH  41  42
ATOM     42  C   UNL A   1      45.419  24.965  25.804  1.00  0.00     0.031 A 
ATOM     43  C   UNL A   1      46.739  25.695  25.758  1.00  0.00     0.074 A 
ATOM     44  C   UNL A   1      44.319  25.624  26.221  1.00  0.00     0.049 A 
ATOM     45  N   UNL A   1      47.057  26.886  26.201  1.00  0.00    -0.248 NA
ATOM     46  C   UNL A   1      47.854  24.972  25.125  1.00  0.00     0.031 C 
ATOM     47  C   UNL A   1      42.962  25.086  26.251  1.00  0.00     0.029 A 
ATOM     48  N   UNL A   1      44.183  26.902  26.722  1.00  0.00    -0.354 N 
ATOM     49  C   UNL A   1      48.405  27.048  25.903  1.00  0.00     0.074 A 
ATOM     50  C   UNL A   1      48.852  25.828  25.268  1.00  0.00     0.031 C 
ATOM     51  C   UNL A   1      42.136  26.017  26.767  1.00  0.00     0.029 A 
ATOM     52  C   UNL A   1      42.910  27.199  27.150  1.00  0.00     0.049 A 
ATOM     53  H   UNL A   1      44.929  27.542  26.768  1.00  0.00     0.167 HD
ATOM     54  C   UNL A   1      49.204  28.117  26.133  1.00  0.00     0.037 A 
ATOM     55  C   UNL A   1      42.437  28.280  27.809  1.00  0.00     0.037 A 
ATOM     56  C   UNL A   1      48.776  29.330  26.773  1.00  0.00     0.049 A 
ATOM     57  C   UNL A   1      43.381  29.407  28.177  1.00  0.00     0.074 A 
ATOM     58  C   UNL A   1      49.518  30.463  27.055  1.00  0.00     0.029 A 
ATOM     59  N   UNL A   1      47.492  29.565  27.238  1.00  0.00    -0.354 N 
ATOM     60  N   UNL A   1      44.651  29.557  27.889  1.00  0.00    -0.248 NA
ATOM     61  C   UNL A   1      42.824  30.511  28.977  1.00  0.00     0.031 C 
ATOM     62  C   UNL A   1      48.698  31.362  27.744  1.00  0.00     0.029 A 
ATOM     63  C   UNL A   1      47.430  30.812  27.836  1.00  0.00     0.049 A 
ATOM     64  H   UNL A   1      46.737  28.939  27.155  1.00  0.00     0.167 HD
ATOM     65  C   UNL A   1      45.032  30.775  28.442  1.00  0.00     0.074 A 
ATOM     66  C   UNL A   1      43.856  31.338  29.067  1.00  0.00     0.031 C 
ATOM     67  C   UNL A   1      46.249  31.372  28.441  1.00  0.00     0.037 A 
BRANCH  54  68
ATOM     68  C   UNL A   1      50.640  28.014  25.710  1.00  0.00     0.064 A 
ATOM     69  C   UNL A   1      51.663  27.765  26.636  1.00  0.00     0.173 A 
ATOM     70  C   UNL A   1      50.988  28.115  24.354  1.00  0.00     0.173 A 
ATOM     71  F   UNL A   1      51.382  27.677  27.945  1.00  0.00    -0.203 F 
ATOM     72  C   UNL A   1      52.985  27.637  26.221  1.00  0.00     0.198 A 
ATOM     73  C   UNL A   1      52.307  27.957  23.941  1.00  0.00     0.198 A 
ATOM     74  F   UNL A   1      50.046  28.352  23.429  1.00  0.00    -0.203 F 
ATOM     75  F   UNL A   1      53.953  27.438  27.127  1.00  0.00    -0.200 F 
ATOM     76  C   UNL A   1      53.304  27.722  24.874  1.00  0.00     0.200 A 
ATOM     77  F   UNL A   1      52.611  28.026  22.637  1.00  0.00    -0.200 F 
ATOM     78  F   UNL A   1      54.577  27.583  24.476  1.00  0.00    -0.200 F 
ENDBRANCH  54  68
BRANCH  55  79
ATOM     79  C   UNL A   1      41.007  28.354  28.235  1.00  0.00     0.064 A 
ATOM     80  C   UNL A   1      40.028  28.918  27.402  1.00  0.00     0.173 A 
ATOM     81  C   UNL A   1      40.607  27.951  29.518  1.00  0.00     0.173 A 
ATOM     82  F   UNL A   1      40.362  29.358  26.179  1.00  0.00    -0.203 F 
ATOM     83  C   UNL A   1      38.718  29.104  27.846  1.00  0.00     0.198 A 
ATOM     84  C   UNL A   1      39.290  28.105  29.948  1.00  0.00     0.198 A 
ATOM     85  F   UNL A   1      41.501  27.422  30.367  1.00  0.00    -0.203 F 
ATOM     86  F   UNL A   1      37.825  29.715  27.056  1.00  0.00    -0.200 F 
ATOM     87  C   UNL A   1      38.349  28.693  29.117  1.00  0.00     0.200 A 
ATOM     88  F   UNL A   1      38.937  27.700  31.176  1.00  0.00    -0.200 F 
ATOM     89  F   UNL A   1      37.095  28.882  29.548  1.00  0.00    -0.200 F 
ENDBRANCH  55  79
BRANCH  67  90
ATOM     90  C   UNL A   1      46.378  32.715  29.102  1.00  0.00     0.064 A 
ATOM     91  C   UNL A   1      46.778  32.841  30.441  1.00  0.00     0.173 A 
ATOM     92  C   UNL A   1      46.168  33.895  28.368  1.00  0.00     0.173 A 
ATOM     93  F   UNL A   1      46.981  31.747  31.190  1.00  0.00    -0.203 F 
ATOM     94  C   UNL A   1      46.945  34.095  31.025  1.00  0.00     0.198 A 
ATOM     95  C   UNL A   1      46.368  35.145  28.947  1.00  0.00     0.198 A 
ATOM     96  F   UNL A   1      45.795  33.833  27.082  1.00  0.00    -0.203 F 
ATOM     97  F   UNL A   1      47.289  34.190  32.317  1.00  0.00    -0.200 F 
ATOM     98  C   UNL A   1      46.750  35.245  30.275  1.00  0.00     0.200 A 
ATOM     99  F   UNL A   1      46.197  36.255  28.215  1.00  0.00    -0.200 F 
ATOM    100  F   UNL A   1      46.927  36.450  30.835  1.00  0.00    -0.200 F 
ENDBRANCH  67  90
ENDBRANCH  41  42
ENDBRANCH  34  36
ENDBRANCH  33  34
ENDBRANCH  32  33
ENDBRANCH  31  32
ENDBRANCH  30  31
ENDBRANCH  29  30
ENDBRANCH   1  29
TORSDOF 21
ENDMDL
