MODEL 1
REMARK VINA RESULT:     -10.9      0.000      0.000
REMARK SMILES CC(C)[C@@H](Cc1nc2ccccc2n1C)C(=O)OCCOCCOCCOC(=O)c1ccc(-c2c3nc(c(-c4c(F)c(F)c(F)c(F)c4F)c4ccc([nH]4)c(-c4c(F)c(F)c(F)c(F)c4F)c4nc(c(-c5c(F)c(F)c(F)c(F)c5F)c5ccc2[nH]5)C=C4)C=C3)cc1
REMARK SMILES IDX 22 1 21 2 20 3 19 4 18 5 16 6 17 7 4 8 2 9 1 10 3 11 5 12
REMARK SMILES IDX 6 13 7 14 14 15 8 16 13 17 15 18 9 19 12 20 10 21 11 22
REMARK SMILES IDX 23 23 24 24 25 25 26 26 27 27 28 28 29 29 30 30 31 31 92 32
REMARK SMILES IDX 32 33 91 34 33 35 34 36 35 37 85 38 36 39 90 40 84 41 86 42
REMARK SMILES IDX 37 43 89 44 83 45 82 46 38 48 70 49 50 50 69 51 51 52 54 53
REMARK SMILES IDX 68 54 87 55 52 56 53 57 67 59 88 60 55 61 39 62 40 63 48 64
REMARK SMILES IDX 41 65 42 66 46 67 49 68 43 69 44 70 47 71 45 72 71 73 72 74
REMARK SMILES IDX 80 75 73 76 74 77 78 78 81 79 75 80 76 81 79 82 77 83 56 84
REMARK SMILES IDX 57 85 65 86 58 87 59 88 63 89 66 90 60 91 61 92 64 93 62 94
REMARK H PARENT 86 47 54 58
REMARK Flexibility Score: inf
ROOT
ATOM      1  C   UNL A   1      39.529  22.062  26.399  1.00  0.00     0.188 C 
ENDROOT
BRANCH   1   2
ATOM      2  O   UNL A   1      38.319  21.838  25.694  1.00  0.00    -0.376 OA
BRANCH   2   3
ATOM      3  C   UNL A   1      37.931  20.498  25.397  1.00  0.00     0.202 C 
BRANCH   3   4
ATOM      4  C   UNL A   1      36.511  20.236  24.864  1.00  0.00     0.261 C 
BRANCH   4   5
ATOM      5  O   UNL A   1      35.401  20.760  25.646  1.00  0.00    -0.463 OA
BRANCH   5   6
ATOM      6  C   UNL A   1      34.268  21.033  24.953  1.00  0.00     0.309 C 
ATOM      7  O   UNL A   1      33.555  20.162  24.449  1.00  0.00    -0.252 OA
BRANCH   6   8
ATOM      8  C   UNL A   1      33.909  22.515  24.738  1.00  0.00     0.109 C 
BRANCH   8   9
ATOM      9  C   UNL A   1      34.876  23.612  24.172  1.00  0.00    -0.003 C 
ATOM     10  C   UNL A   1      35.765  24.162  25.312  1.00  0.00     0.008 C 
ATOM     11  C   UNL A   1      35.861  23.167  23.089  1.00  0.00     0.008 C 
ENDBRANCH   8   9
BRANCH   8  12
ATOM     12  C   UNL A   1      32.550  22.485  23.984  1.00  0.00     0.091 C 
BRANCH  12  13
ATOM     13  C   UNL A   1      31.957  23.859  23.895  1.00  0.00     0.110 A 
ATOM     14  N   UNL A   1      31.799  24.492  22.751  1.00  0.00    -0.233 NA
ATOM     15  N   UNL A   1      31.598  24.673  24.945  1.00  0.00    -0.331 N 
ATOM     16  C   UNL A   1      31.474  25.777  23.062  1.00  0.00     0.089 A 
ATOM     17  C   UNL A   1      31.306  25.921  24.433  1.00  0.00     0.068 A 
ATOM     18  C   UNL A   1      31.572  24.356  26.351  1.00  0.00     0.151 C 
ATOM     19  C   UNL A   1      31.319  26.882  22.214  1.00  0.00     0.030 A 
ATOM     20  C   UNL A   1      30.936  27.138  25.016  1.00  0.00     0.028 A 
ATOM     21  C   UNL A   1      30.968  28.110  22.777  1.00  0.00     0.002 A 
ATOM     22  C   UNL A   1      30.768  28.230  24.155  1.00  0.00     0.002 A 
ENDBRANCH  12  13
ENDBRANCH   8  12
ENDBRANCH   6   8
ENDBRANCH   5   6
ENDBRANCH   4   5
ENDBRANCH   3   4
ENDBRANCH   2   3
ENDBRANCH   1   2
BRANCH   1  23
ATOM     23  C   UNL A   1      40.596  20.975  26.370  1.00  0.00     0.188 C 
BRANCH  23  24
ATOM     24  O   UNL A   1      41.900  21.415  26.689  1.00  0.00    -0.376 OA
BRANCH  24  25
ATOM     25  C   UNL A   1      42.980  20.903  25.930  1.00  0.00     0.202 C 
BRANCH  25  26
ATOM     26  C   UNL A   1      43.933  21.993  25.427  1.00  0.00     0.261 C 
BRANCH  26  27
ATOM     27  O   UNL A   1      43.274  23.181  24.940  1.00  0.00    -0.460 OA
BRANCH  27  28
ATOM     28  C   UNL A   1      43.959  24.343  25.055  1.00  0.00     0.338 C 
ATOM     29  O   UNL A   1      44.889  24.720  24.362  1.00  0.00    -0.246 OA
BRANCH  28  30
ATOM     30  C   UNL A   1      43.220  25.225  25.991  1.00  0.00     0.060 A 
ATOM     31  C   UNL A   1      43.754  26.491  26.271  1.00  0.00     0.016 A 
ATOM     32  C   UNL A   1      41.999  24.838  26.547  1.00  0.00     0.016 A 
ATOM     33  C   UNL A   1      43.099  27.350  27.154  1.00  0.00     0.010 A 
ATOM     34  C   UNL A   1      41.353  25.692  27.448  1.00  0.00     0.010 A 
ATOM     35  C   UNL A   1      41.923  26.933  27.790  1.00  0.00    -0.014 A 
BRANCH  35  36
ATOM     36  C   UNL A   1      41.429  27.697  28.964  1.00  0.00     0.031 A 
ATOM     37  C   UNL A   1      42.187  27.575  30.260  1.00  0.00     0.074 A 
ATOM     38  C   UNL A   1      40.383  28.536  28.875  1.00  0.00     0.049 A 
ATOM     39  N   UNL A   1      41.972  28.156  31.413  1.00  0.00    -0.248 NA
ATOM     40  C   UNL A   1      43.352  26.675  30.250  1.00  0.00     0.031 C 
ATOM     41  C   UNL A   1      39.593  28.781  27.671  1.00  0.00     0.029 A 
ATOM     42  N   UNL A   1      39.811  29.347  29.826  1.00  0.00    -0.354 N 
ATOM     43  C   UNL A   1      42.967  27.688  32.262  1.00  0.00     0.074 A 
ATOM     44  C   UNL A   1      43.762  26.747  31.507  1.00  0.00     0.031 C 
ATOM     45  C   UNL A   1      38.639  29.686  27.954  1.00  0.00     0.029 A 
ATOM     46  C   UNL A   1      38.733  30.061  29.365  1.00  0.00     0.049 A 
ATOM     47  H   UNL A   1      40.143  29.410  30.751  1.00  0.00     0.167 HD
ATOM     48  C   UNL A   1      43.207  28.023  33.552  1.00  0.00     0.037 A 
ATOM     49  C   UNL A   1      37.911  30.910  30.014  1.00  0.00     0.037 A 
ATOM     50  C   UNL A   1      42.416  28.959  34.307  1.00  0.00     0.049 A 
ATOM     51  C   UNL A   1      38.157  31.213  31.471  1.00  0.00     0.074 A 
ATOM     52  C   UNL A   1      42.580  29.365  35.620  1.00  0.00     0.029 A 
ATOM     53  N   UNL A   1      41.305  29.629  33.818  1.00  0.00    -0.354 N 
ATOM     54  N   UNL A   1      39.109  30.781  32.263  1.00  0.00    -0.248 NA
ATOM     55  C   UNL A   1      37.216  32.136  32.122  1.00  0.00     0.031 C 
ATOM     56  C   UNL A   1      41.534  30.235  35.943  1.00  0.00     0.029 A 
ATOM     57  C   UNL A   1      40.760  30.429  34.811  1.00  0.00     0.049 A 
ATOM     58  H   UNL A   1      40.955  29.548  32.902  1.00  0.00     0.167 HD
ATOM     59  C   UNL A   1      38.904  31.404  33.489  1.00  0.00     0.074 A 
ATOM     60  C   UNL A   1      37.746  32.259  33.330  1.00  0.00     0.031 C 
ATOM     61  C   UNL A   1      39.610  31.282  34.641  1.00  0.00     0.037 A 
BRANCH  48  62
ATOM     62  C   UNL A   1      44.358  27.343  34.237  1.00  0.00     0.064 A 
ATOM     63  C   UNL A   1      44.219  26.088  34.853  1.00  0.00     0.173 A 
ATOM     64  C   UNL A   1      45.623  27.948  34.266  1.00  0.00     0.173 A 
ATOM     65  F   UNL A   1      43.027  25.473  34.871  1.00  0.00    -0.203 F 
ATOM     66  C   UNL A   1      45.295  25.483  35.498  1.00  0.00     0.198 A 
ATOM     67  C   UNL A   1      46.705  27.324  34.881  1.00  0.00     0.198 A 
ATOM     68  F   UNL A   1      45.813  29.146  33.693  1.00  0.00    -0.203 F 
ATOM     69  F   UNL A   1      45.123  24.312  36.128  1.00  0.00    -0.200 F 
ATOM     70  C   UNL A   1      46.538  26.097  35.504  1.00  0.00     0.200 A 
ATOM     71  F   UNL A   1      47.908  27.913  34.874  1.00  0.00    -0.200 F 
ATOM     72  F   UNL A   1      47.573  25.510  36.120  1.00  0.00    -0.200 F 
ENDBRANCH  48  62
BRANCH  49  73
ATOM     73  C   UNL A   1      36.769  31.541  29.296  1.00  0.00     0.064 A 
ATOM     74  C   UNL A   1      36.763  32.912  29.001  1.00  0.00     0.173 A 
ATOM     75  C   UNL A   1      35.644  30.790  28.923  1.00  0.00     0.173 A 
ATOM     76  F   UNL A   1      37.801  33.680  29.364  1.00  0.00    -0.203 F 
ATOM     77  C   UNL A   1      35.667  33.511  28.383  1.00  0.00     0.198 A 
ATOM     78  C   UNL A   1      34.562  31.385  28.275  1.00  0.00     0.198 A 
ATOM     79  F   UNL A   1      35.593  29.477  29.189  1.00  0.00    -0.203 F 
ATOM     80  F   UNL A   1      35.663  34.834  28.168  1.00  0.00    -0.200 F 
ATOM     81  C   UNL A   1      34.571  32.746  28.015  1.00  0.00     0.200 A 
ATOM     82  F   UNL A   1      33.509  30.640  27.913  1.00  0.00    -0.200 F 
ATOM     83  F   UNL A   1      33.516  33.324  27.421  1.00  0.00    -0.200 F 
ENDBRANCH  49  73
BRANCH  61  84
ATOM     84  C   UNL A   1      39.185  32.135  35.805  1.00  0.00     0.064 A 
ATOM     85  C   UNL A   1      39.616  33.461  35.956  1.00  0.00     0.173 A 
ATOM     86  C   UNL A   1      38.321  31.615  36.784  1.00  0.00     0.173 A 
ATOM     87  F   UNL A   1      40.449  34.006  35.056  1.00  0.00    -0.203 F 
ATOM     88  C   UNL A   1      39.241  34.217  37.064  1.00  0.00     0.198 A 
ATOM     89  C   UNL A   1      37.916  32.386  37.870  1.00  0.00     0.198 A 
ATOM     90  F   UNL A   1      37.865  30.356  36.685  1.00  0.00    -0.203 F 
ATOM     91  F   UNL A   1      39.725  35.457  37.223  1.00  0.00    -0.200 F 
ATOM     92  C   UNL A   1      38.388  33.681  38.018  1.00  0.00     0.200 A 
ATOM     93  F   UNL A   1      37.076  31.873  38.779  1.00  0.00    -0.200 F 
ATOM     94  F   UNL A   1      38.030  34.409  39.084  1.00  0.00    -0.200 F 
ENDBRANCH  61  84
ENDBRANCH  35  36
ENDBRANCH  28  30
ENDBRANCH  27  28
ENDBRANCH  26  27
ENDBRANCH  25  26
ENDBRANCH  24  25
ENDBRANCH  23  24
ENDBRANCH   1  23
TORSDOF 20
ENDMDL
MODEL 2
REMARK VINA RESULT:     -10.8      3.376      8.737
REMARK SMILES CC(C)[C@@H](Cc1nc2ccccc2n1C)C(=O)OCCOCCOCCOC(=O)c1ccc(-c2c3nc(c(-c4c(F)c(F)c(F)c(F)c4F)c4ccc([nH]4)c(-c4c(F)c(F)c(F)c(F)c4F)c4nc(c(-c5c(F)c(F)c(F)c(F)c5F)c5ccc2[nH]5)C=C4)C=C3)cc1
REMARK SMILES IDX 22 1 21 2 20 3 19 4 18 5 16 6 17 7 4 8 2 9 1 10 3 11 5 12
REMARK SMILES IDX 6 13 7 14 14 15 8 16 13 17 15 18 9 19 12 20 10 21 11 22
REMARK SMILES IDX 23 23 24 24 25 25 26 26 27 27 28 28 29 29 30 30 31 31 92 32
REMARK SMILES IDX 32 33 91 34 33 35 34 36 35 37 85 38 36 39 90 40 84 41 86 42
REMARK SMILES IDX 37 43 89 44 83 45 82 46 38 48 70 49 50 50 69 51 51 52 54 53
REMARK SMILES IDX 68 54 87 55 52 56 53 57 67 59 88 60 55 61 39 62 40 63 48 64
REMARK SMILES IDX 41 65 42 66 46 67 49 68 43 69 44 70 47 71 45 72 71 73 72 74
REMARK SMILES IDX 80 75 73 76 74 77 78 78 81 79 75 80 76 81 79 82 77 83 56 84
REMARK SMILES IDX 57 85 65 86 58 87 59 88 63 89 66 90 60 91 61 92 64 93 62 94
REMARK H PARENT 86 47 54 58
REMARK Flexibility Score: inf
ROOT
ATOM      1  C   UNL A   1      33.496  28.481  23.677  1.00  0.00     0.188 C 
ENDROOT
BRANCH   1   2
ATOM      2  O   UNL A   1      32.430  28.495  22.743  1.00  0.00    -0.376 OA
BRANCH   2   3
ATOM      3  C   UNL A   1      31.122  28.134  23.182  1.00  0.00     0.202 C 
BRANCH   3   4
ATOM      4  C   UNL A   1      30.733  26.644  23.210  1.00  0.00     0.261 C 
BRANCH   4   5
ATOM      5  O   UNL A   1      31.323  25.823  24.257  1.00  0.00    -0.463 OA
BRANCH   5   6
ATOM      6  C   UNL A   1      31.222  24.482  24.083  1.00  0.00     0.309 C 
ATOM      7  O   UNL A   1      30.405  23.956  23.323  1.00  0.00    -0.252 OA
BRANCH   6   8
ATOM      8  C   UNL A   1      32.137  23.587  24.938  1.00  0.00     0.109 C 
BRANCH   8   9
ATOM      9  C   UNL A   1      31.664  22.659  26.111  1.00  0.00    -0.003 C 
ATOM     10  C   UNL A   1      32.668  22.749  27.284  1.00  0.00     0.008 C 
ATOM     11  C   UNL A   1      30.304  22.980  26.735  1.00  0.00     0.008 C 
ENDBRANCH   8   9
BRANCH   8  12
ATOM     12  C   UNL A   1      33.019  22.827  23.908  1.00  0.00     0.091 C 
BRANCH  12  13
ATOM     13  C   UNL A   1      34.462  22.864  24.307  1.00  0.00     0.110 A 
ATOM     14  N   UNL A   1      35.253  21.816  24.214  1.00  0.00    -0.233 NA
ATOM     15  N   UNL A   1      35.128  23.915  24.897  1.00  0.00    -0.331 N 
ATOM     16  C   UNL A   1      36.397  22.135  24.880  1.00  0.00     0.089 A 
ATOM     17  C   UNL A   1      36.368  23.459  25.296  1.00  0.00     0.068 A 
ATOM     18  C   UNL A   1      34.648  25.252  25.139  1.00  0.00     0.151 C 
ATOM     19  C   UNL A   1      37.503  21.327  25.178  1.00  0.00     0.030 A 
ATOM     20  C   UNL A   1      37.438  24.052  25.976  1.00  0.00     0.028 A 
ATOM     21  C   UNL A   1      38.574  21.894  25.873  1.00  0.00     0.002 A 
ATOM     22  C   UNL A   1      38.544  23.237  26.253  1.00  0.00     0.002 A 
ENDBRANCH  12  13
ENDBRANCH   8  12
ENDBRANCH   6   8
ENDBRANCH   5   6
ENDBRANCH   4   5
ENDBRANCH   3   4
ENDBRANCH   2   3
ENDBRANCH   1   2
BRANCH   1  23
ATOM     23  C   UNL A   1      33.176  28.736  25.145  1.00  0.00     0.188 C 
BRANCH  23  24
ATOM     24  O   UNL A   1      33.020  30.097  25.490  1.00  0.00    -0.376 OA
BRANCH  24  25
ATOM     25  C   UNL A   1      31.810  30.491  26.113  1.00  0.00     0.202 C 
BRANCH  25  26
ATOM     26  C   UNL A   1      31.832  31.942  26.607  1.00  0.00     0.261 C 
BRANCH  26  27
ATOM     27  O   UNL A   1      32.588  32.146  27.820  1.00  0.00    -0.460 OA
BRANCH  27  28
ATOM     28  C   UNL A   1      33.544  33.103  27.783  1.00  0.00     0.338 C 
ATOM     29  O   UNL A   1      33.375  34.308  27.685  1.00  0.00    -0.246 OA
BRANCH  28  30
ATOM     30  C   UNL A   1      34.835  32.482  28.162  1.00  0.00     0.060 A 
ATOM     31  C   UNL A   1      34.870  31.094  28.363  1.00  0.00     0.016 A 
ATOM     32  C   UNL A   1      36.004  33.237  28.273  1.00  0.00     0.016 A 
ATOM     33  C   UNL A   1      36.061  30.468  28.732  1.00  0.00     0.010 A 
ATOM     34  C   UNL A   1      37.193  32.612  28.662  1.00  0.00     0.010 A 
ATOM     35  C   UNL A   1      37.217  31.232  28.937  1.00  0.00    -0.014 A 
BRANCH  35  36
ATOM     36  C   UNL A   1      38.368  30.620  29.650  1.00  0.00     0.031 A 
ATOM     37  C   UNL A   1      38.584  30.984  31.095  1.00  0.00     0.074 A 
ATOM     38  C   UNL A   1      39.161  29.707  29.062  1.00  0.00     0.049 A 
ATOM     39  N   UNL A   1      39.497  30.569  31.935  1.00  0.00    -0.248 NA
ATOM     40  C   UNL A   1      37.634  31.951  31.670  1.00  0.00     0.031 C 
ATOM     41  C   UNL A   1      39.032  29.231  27.688  1.00  0.00     0.029 A 
ATOM     42  N   UNL A   1      40.235  29.010  29.563  1.00  0.00    -0.354 N 
ATOM     43  C   UNL A   1      39.235  31.225  33.131  1.00  0.00     0.074 A 
ATOM     44  C   UNL A   1      38.104  32.095  32.899  1.00  0.00     0.031 C 
ATOM     45  C   UNL A   1      39.990  28.315  27.453  1.00  0.00     0.029 A 
ATOM     46  C   UNL A   1      40.815  28.162  28.651  1.00  0.00     0.049 A 
ATOM     47  H   UNL A   1      40.557  29.109  30.487  1.00  0.00     0.167 HD
ATOM     48  C   UNL A   1      39.868  31.104  34.322  1.00  0.00     0.037 A 
ATOM     49  C   UNL A   1      41.896  27.366  28.770  1.00  0.00     0.037 A 
ATOM     50  C   UNL A   1      40.995  30.240  34.555  1.00  0.00     0.049 A 
ATOM     51  C   UNL A   1      42.628  27.301  30.087  1.00  0.00     0.074 A 
ATOM     52  C   UNL A   1      41.706  30.046  35.727  1.00  0.00     0.029 A 
ATOM     53  N   UNL A   1      41.582  29.430  33.595  1.00  0.00    -0.354 N 
ATOM     54  N   UNL A   1      42.365  27.911  31.218  1.00  0.00    -0.248 NA
ATOM     55  C   UNL A   1      43.806  26.424  30.145  1.00  0.00     0.031 C 
ATOM     56  C   UNL A   1      42.758  29.164  35.460  1.00  0.00     0.029 A 
ATOM     57  C   UNL A   1      42.660  28.751  34.142  1.00  0.00     0.049 A 
ATOM     58  H   UNL A   1      41.277  29.348  32.662  1.00  0.00     0.167 HD
ATOM     59  C   UNL A   1      43.317  27.465  32.128  1.00  0.00     0.074 A 
ATOM     60  C   UNL A   1      44.155  26.518  31.420  1.00  0.00     0.031 C 
ATOM     61  C   UNL A   1      43.484  27.805  33.430  1.00  0.00     0.037 A 
BRANCH  48  62
ATOM     62  C   UNL A   1      39.374  31.956  35.456  1.00  0.00     0.064 A 
ATOM     63  C   UNL A   1      39.745  33.304  35.589  1.00  0.00     0.173 A 
ATOM     64  C   UNL A   1      38.502  31.420  36.416  1.00  0.00     0.173 A 
ATOM     65  F   UNL A   1      40.590  33.861  34.709  1.00  0.00    -0.203 F 
ATOM     66  C   UNL A   1      39.288  34.071  36.658  1.00  0.00     0.198 A 
ATOM     67  C   UNL A   1      38.020  32.200  37.463  1.00  0.00     0.198 A 
ATOM     68  F   UNL A   1      38.114  30.139  36.337  1.00  0.00    -0.203 F 
ATOM     69  F   UNL A   1      39.703  35.338  36.795  1.00  0.00    -0.200 F 
ATOM     70  C   UNL A   1      38.420  33.521  37.589  1.00  0.00     0.200 A 
ATOM     71  F   UNL A   1      37.170  31.671  38.354  1.00  0.00    -0.200 F 
ATOM     72  F   UNL A   1      37.977  34.263  38.613  1.00  0.00    -0.200 F 
ENDBRANCH  48  62
BRANCH  49  73
ATOM     73  C   UNL A   1      42.361  26.559  27.609  1.00  0.00     0.064 A 
ATOM     74  C   UNL A   1      41.846  25.279  27.359  1.00  0.00     0.173 A 
ATOM     75  C   UNL A   1      43.359  27.038  26.746  1.00  0.00     0.173 A 
ATOM     76  F   UNL A   1      40.912  24.762  28.173  1.00  0.00    -0.203 F 
ATOM     77  C   UNL A   1      42.326  24.501  26.307  1.00  0.00     0.198 A 
ATOM     78  C   UNL A   1      43.815  26.271  25.674  1.00  0.00     0.198 A 
ATOM     79  F   UNL A   1      43.893  28.252  26.944  1.00  0.00    -0.203 F 
ATOM     80  F   UNL A   1      41.858  23.257  26.128  1.00  0.00    -0.200 F 
ATOM     81  C   UNL A   1      43.305  25.000  25.462  1.00  0.00     0.200 A 
ATOM     82  F   UNL A   1      44.755  26.762  24.855  1.00  0.00    -0.200 F 
ATOM     83  F   UNL A   1      43.767  24.251  24.451  1.00  0.00    -0.200 F 
ENDBRANCH  49  73
BRANCH  61  84
ATOM     84  C   UNL A   1      44.579  27.109  34.192  1.00  0.00     0.064 A 
ATOM     85  C   UNL A   1      45.869  27.649  34.305  1.00  0.00     0.173 A 
ATOM     86  C   UNL A   1      44.328  25.882  34.829  1.00  0.00     0.173 A 
ATOM     87  F   UNL A   1      46.168  28.813  33.709  1.00  0.00    -0.203 F 
ATOM     88  C   UNL A   1      46.877  26.965  34.981  1.00  0.00     0.198 A 
ATOM     89  C   UNL A   1      45.326  25.221  35.538  1.00  0.00     0.198 A 
ATOM     90  F   UNL A   1      43.108  25.324  34.767  1.00  0.00    -0.203 F 
ATOM     91  F   UNL A   1      48.119  27.466  35.012  1.00  0.00    -0.200 F 
ATOM     92  C   UNL A   1      46.604  25.755  35.601  1.00  0.00     0.200 A 
ATOM     93  F   UNL A   1      45.054  24.062  36.153  1.00  0.00    -0.200 F 
ATOM     94  F   UNL A   1      47.575  25.098  36.250  1.00  0.00    -0.200 F 
ENDBRANCH  61  84
ENDBRANCH  35  36
ENDBRANCH  28  30
ENDBRANCH  27  28
ENDBRANCH  26  27
ENDBRANCH  25  26
ENDBRANCH  24  25
ENDBRANCH  23  24
ENDBRANCH   1  23
TORSDOF 20
ENDMDL
MODEL 3
REMARK VINA RESULT:     -10.8      3.231      7.798
REMARK SMILES CC(C)[C@@H](Cc1nc2ccccc2n1C)C(=O)OCCOCCOCCOC(=O)c1ccc(-c2c3nc(c(-c4c(F)c(F)c(F)c(F)c4F)c4ccc([nH]4)c(-c4c(F)c(F)c(F)c(F)c4F)c4nc(c(-c5c(F)c(F)c(F)c(F)c5F)c5ccc2[nH]5)C=C4)C=C3)cc1
REMARK SMILES IDX 22 1 21 2 20 3 19 4 18 5 16 6 17 7 4 8 2 9 1 10 3 11 5 12
REMARK SMILES IDX 6 13 7 14 14 15 8 16 13 17 15 18 9 19 12 20 10 21 11 22
REMARK SMILES IDX 23 23 24 24 25 25 26 26 27 27 28 28 29 29 30 30 31 31 92 32
REMARK SMILES IDX 32 33 91 34 33 35 34 36 35 37 85 38 36 39 90 40 84 41 86 42
REMARK SMILES IDX 37 43 89 44 83 45 82 46 38 48 70 49 50 50 69 51 51 52 54 53
REMARK SMILES IDX 68 54 87 55 52 56 53 57 67 59 88 60 55 61 39 62 40 63 48 64
REMARK SMILES IDX 41 65 42 66 46 67 49 68 43 69 44 70 47 71 45 72 71 73 72 74
REMARK SMILES IDX 80 75 73 76 74 77 78 78 81 79 75 80 76 81 79 82 77 83 56 84
REMARK SMILES IDX 57 85 65 86 58 87 59 88 63 89 66 90 60 91 61 92 64 93 62 94
REMARK H PARENT 86 47 54 58
REMARK Flexibility Score: inf
ROOT
ATOM      1  C   UNL A   1      31.584  25.394  26.346  1.00  0.00     0.188 C 
ENDROOT
BRANCH   1   2
ATOM      2  O   UNL A   1      30.783  24.225  26.362  1.00  0.00    -0.376 OA
BRANCH   2   3
ATOM      3  C   UNL A   1      31.275  23.060  27.021  1.00  0.00     0.202 C 
BRANCH   3   4
ATOM      4  C   UNL A   1      32.294  22.166  26.291  1.00  0.00     0.261 C 
BRANCH   4   5
ATOM      5  O   UNL A   1      31.780  21.285  25.253  1.00  0.00    -0.463 OA
BRANCH   5   6
ATOM      6  C   UNL A   1      32.505  21.236  24.108  1.00  0.00     0.309 C 
ATOM      7  O   UNL A   1      32.506  20.267  23.346  1.00  0.00    -0.252 OA
BRANCH   6   8
ATOM      8  C   UNL A   1      33.418  22.437  23.798  1.00  0.00     0.109 C 
BRANCH   8   9
ATOM      9  C   UNL A   1      34.973  22.473  24.000  1.00  0.00    -0.003 C 
ATOM     10  C   UNL A   1      35.355  23.684  24.883  1.00  0.00     0.008 C 
ATOM     11  C   UNL A   1      35.602  21.266  24.698  1.00  0.00     0.008 C 
ENDBRANCH   8   9
BRANCH   8  12
ATOM     12  C   UNL A   1      33.001  22.889  22.370  1.00  0.00     0.091 C 
BRANCH  12  13
ATOM     13  C   UNL A   1      32.766  24.368  22.324  1.00  0.00     0.110 A 
ATOM     14  N   UNL A   1      33.711  25.230  22.010  1.00  0.00    -0.233 NA
ATOM     15  N   UNL A   1      31.614  25.032  22.683  1.00  0.00    -0.331 N 
ATOM     16  C   UNL A   1      33.221  26.465  22.306  1.00  0.00     0.089 A 
ATOM     17  C   UNL A   1      31.892  26.383  22.701  1.00  0.00     0.068 A 
ATOM     18  C   UNL A   1      30.337  24.470  23.046  1.00  0.00     0.151 C 
ATOM     19  C   UNL A   1      33.869  27.707  22.270  1.00  0.00     0.030 A 
ATOM     20  C   UNL A   1      31.140  27.516  23.030  1.00  0.00     0.028 A 
ATOM     21  C   UNL A   1      33.142  28.849  22.613  1.00  0.00     0.002 A 
ATOM     22  C   UNL A   1      31.796  28.753  22.974  1.00  0.00     0.002 A 
ENDBRANCH  12  13
ENDBRANCH   8  12
ENDBRANCH   6   8
ENDBRANCH   5   6
ENDBRANCH   4   5
ENDBRANCH   3   4
ENDBRANCH   2   3
ENDBRANCH   1   2
BRANCH   1  23
ATOM     23  C   UNL A   1      30.887  26.749  26.362  1.00  0.00     0.188 C 
BRANCH  23  24
ATOM     24  O   UNL A   1      31.055  27.489  27.553  1.00  0.00    -0.376 OA
BRANCH  24  25
ATOM     25  C   UNL A   1      32.144  28.391  27.628  1.00  0.00     0.202 C 
BRANCH  25  26
ATOM     26  C   UNL A   1      31.964  29.628  26.740  1.00  0.00     0.261 C 
BRANCH  26  27
ATOM     27  O   UNL A   1      33.199  30.270  26.357  1.00  0.00    -0.460 OA
BRANCH  27  28
ATOM     28  C   UNL A   1      33.582  31.335  27.099  1.00  0.00     0.338 C 
ATOM     29  O   UNL A   1      32.897  32.292  27.421  1.00  0.00    -0.246 OA
BRANCH  28  30
ATOM     30  C   UNL A   1      34.900  31.027  27.704  1.00  0.00     0.060 A 
ATOM     31  C   UNL A   1      35.236  29.682  27.915  1.00  0.00     0.016 A 
ATOM     32  C   UNL A   1      35.813  32.036  28.016  1.00  0.00     0.016 A 
ATOM     33  C   UNL A   1      36.461  29.346  28.492  1.00  0.00     0.010 A 
ATOM     34  C   UNL A   1      37.033  31.699  28.612  1.00  0.00     0.010 A 
ATOM     35  C   UNL A   1      37.344  30.356  28.894  1.00  0.00    -0.014 A 
BRANCH  35  36
ATOM     36  C   UNL A   1      38.467  30.011  29.802  1.00  0.00     0.031 A 
ATOM     37  C   UNL A   1      39.537  29.084  29.288  1.00  0.00     0.074 A 
ATOM     38  C   UNL A   1      38.584  30.558  31.025  1.00  0.00     0.049 A 
ATOM     39  N   UNL A   1      40.624  28.653  29.876  1.00  0.00    -0.248 NA
ATOM     40  C   UNL A   1      39.355  28.576  27.918  1.00  0.00     0.031 C 
ATOM     41  C   UNL A   1      37.645  31.503  31.623  1.00  0.00     0.029 A 
ATOM     42  N   UNL A   1      39.557  30.396  31.981  1.00  0.00    -0.354 N 
ATOM     43  C   UNL A   1      41.248  27.824  28.953  1.00  0.00     0.074 A 
ATOM     44  C   UNL A   1      40.402  27.779  27.782  1.00  0.00     0.031 C 
ATOM     45  C   UNL A   1      38.090  31.842  32.847  1.00  0.00     0.029 A 
ATOM     46  C   UNL A   1      39.328  31.115  33.128  1.00  0.00     0.049 A 
ATOM     47  H   UNL A   1      40.345  29.818  31.855  1.00  0.00     0.167 HD
ATOM     48  C   UNL A   1      42.429  27.169  29.063  1.00  0.00     0.037 A 
ATOM     49  C   UNL A   1      40.033  31.169  34.276  1.00  0.00     0.037 A 
ATOM     50  C   UNL A   1      43.273  27.211  30.228  1.00  0.00     0.049 A 
ATOM     51  C   UNL A   1      41.310  30.374  34.400  1.00  0.00     0.074 A 
ATOM     52  C   UNL A   1      44.489  26.583  30.436  1.00  0.00     0.029 A 
ATOM     53  N   UNL A   1      42.985  27.916  31.387  1.00  0.00    -0.354 N 
ATOM     54  N   UNL A   1      41.902  29.605  33.519  1.00  0.00    -0.248 NA
ATOM     55  C   UNL A   1      42.022  30.466  35.683  1.00  0.00     0.031 C 
ATOM     56  C   UNL A   1      44.907  26.860  31.742  1.00  0.00     0.029 A 
ATOM     57  C   UNL A   1      43.989  27.720  32.323  1.00  0.00     0.049 A 
ATOM     58  H   UNL A   1      42.185  28.474  31.525  1.00  0.00     0.167 HD
ATOM     59  C   UNL A   1      43.070  29.154  34.123  1.00  0.00     0.074 A 
ATOM     60  C   UNL A   1      43.110  29.750  35.443  1.00  0.00     0.031 C 
ATOM     61  C   UNL A   1      44.024  28.324  33.632  1.00  0.00     0.037 A 
BRANCH  48  62
ATOM     62  C   UNL A   1      42.858  26.322  27.899  1.00  0.00     0.064 A 
ATOM     63  C   UNL A   1      43.731  26.805  26.911  1.00  0.00     0.173 A 
ATOM     64  C   UNL A   1      42.402  25.001  27.779  1.00  0.00     0.173 A 
ATOM     65  F   UNL A   1      44.183  28.067  26.968  1.00  0.00    -0.203 F 
ATOM     66  C   UNL A   1      44.102  26.009  25.831  1.00  0.00     0.198 A 
ATOM     67  C   UNL A   1      42.803  24.196  26.716  1.00  0.00     0.198 A 
ATOM     68  F   UNL A   1      41.567  24.488  28.695  1.00  0.00    -0.203 F 
ATOM     69  F   UNL A   1      44.890  26.512  24.870  1.00  0.00    -0.200 F 
ATOM     70  C   UNL A   1      43.645  24.703  25.739  1.00  0.00     0.200 A 
ATOM     71  F   UNL A   1      42.371  22.930  26.637  1.00  0.00    -0.200 F 
ATOM     72  F   UNL A   1      44.009  23.936  24.702  1.00  0.00    -0.200 F 
ENDBRANCH  48  62
BRANCH  49  73
ATOM     73  C   UNL A   1      39.552  32.005  35.410  1.00  0.00     0.064 A 
ATOM     74  C   UNL A   1      38.684  31.484  36.381  1.00  0.00     0.173 A 
ATOM     75  C   UNL A   1      39.924  33.353  35.526  1.00  0.00     0.173 A 
ATOM     76  F   UNL A   1      38.274  30.210  36.299  1.00  0.00    -0.203 F 
ATOM     77  C   UNL A   1      38.188  32.285  37.408  1.00  0.00     0.198 A 
ATOM     78  C   UNL A   1      39.453  34.144  36.573  1.00  0.00     0.198 A 
ATOM     79  F   UNL A   1      40.745  33.904  34.620  1.00  0.00    -0.203 F 
ATOM     80  F   UNL A   1      37.312  31.778  38.287  1.00  0.00    -0.200 F 
ATOM     81  C   UNL A   1      38.578  33.612  37.506  1.00  0.00     0.200 A 
ATOM     82  F   UNL A   1      39.840  35.423  36.669  1.00  0.00    -0.200 F 
ATOM     83  F   UNL A   1      38.100  34.382  38.495  1.00  0.00    -0.200 F 
ENDBRANCH  49  73
BRANCH  61  84
ATOM     84  C   UNL A   1      45.221  28.054  34.503  1.00  0.00     0.064 A 
ATOM     85  C   UNL A   1      45.267  26.971  35.393  1.00  0.00     0.173 A 
ATOM     86  C   UNL A   1      46.347  28.892  34.437  1.00  0.00     0.173 A 
ATOM     87  F   UNL A   1      44.217  26.143  35.504  1.00  0.00    -0.203 F 
ATOM     88  C   UNL A   1      46.371  26.766  36.218  1.00  0.00     0.198 A 
ATOM     89  C   UNL A   1      47.464  28.661  35.234  1.00  0.00     0.198 A 
ATOM     90  F   UNL A   1      46.365  29.936  33.593  1.00  0.00    -0.203 F 
ATOM     91  F   UNL A   1      46.360  25.767  37.112  1.00  0.00    -0.200 F 
ATOM     92  C   UNL A   1      47.469  27.608  36.135  1.00  0.00     0.200 A 
ATOM     93  F   UNL A   1      48.532  29.464  35.137  1.00  0.00    -0.200 F 
ATOM     94  F   UNL A   1      48.529  27.410  36.931  1.00  0.00    -0.200 F 
ENDBRANCH  61  84
ENDBRANCH  35  36
ENDBRANCH  28  30
ENDBRANCH  27  28
ENDBRANCH  26  27
ENDBRANCH  25  26
ENDBRANCH  24  25
ENDBRANCH  23  24
ENDBRANCH   1  23
TORSDOF 20
ENDMDL
