MODEL 1
REMARK VINA RESULT:     -11.2      0.000      0.000
REMARK SMILES Cc1nc[nH]c1C(=O)[NH+]1CCC2(CC1)C[C@@H](C(=O)OCCOCCOCCOC(=O)c1ccc(-c3c4nc(c(-c5c(F)c(F)c(F)c(F)c5F)c5ccc([nH]5)c(-c5c(F)c(F)c(F)c(F)c5F)c5nc(c(-c6c(F)c(F)c(F)c(F)c6F)c6ccc3[nH]6)C=C5)C=C4)cc1)N(C(=O)C1CC1)C2
REMARK SMILES IDX 23 1 22 2 21 3 20 4 19 5 17 6 18 7 16 8 9 9 10 10 14 11
REMARK SMILES IDX 11 13 13 14 12 15 15 16 100 17 94 18 7 19 8 20 6 21 1 22
REMARK SMILES IDX 2 23 3 24 4 25 5 26 95 28 96 29 97 30 98 31 99 32 24 33
REMARK SMILES IDX 25 34 26 35 27 36 28 37 29 38 30 39 31 40 32 41 93 42 33 43
REMARK SMILES IDX 92 44 34 45 35 46 36 47 86 48 37 49 91 50 85 51 87 52 38 53
REMARK SMILES IDX 90 54 84 55 83 56 39 58 71 59 51 60 70 61 52 62 55 63 69 64
REMARK SMILES IDX 88 65 53 66 54 67 68 69 89 70 56 71 40 72 41 73 49 74 42 75
REMARK SMILES IDX 43 76 47 77 50 78 44 79 45 80 48 81 46 82 72 83 73 84 81 85
REMARK SMILES IDX 74 86 75 87 79 88 82 89 76 90 77 91 80 92 78 93 57 94 58 95
REMARK SMILES IDX 66 96 59 97 60 98 64 99 67 100 61 101 62 102 65 103 63 104
REMARK H PARENT 9 12 5 27 87 57 55 68
REMARK Flexibility Score: inf
ROOT
ATOM      1  C   UNL A   1      35.718  32.673  28.465  1.00  0.00     0.188 C 
ENDROOT
BRANCH   1   2
ATOM      2  O   UNL A   1      35.337  31.511  27.738  1.00  0.00    -0.376 OA
BRANCH   2   3
ATOM      3  C   UNL A   1      33.973  31.316  27.383  1.00  0.00     0.202 C 
BRANCH   3   4
ATOM      4  C   UNL A   1      33.583  30.038  26.618  1.00  0.00     0.261 C 
BRANCH   4   5
ATOM      5  O   UNL A   1      32.367  30.128  25.840  1.00  0.00    -0.462 OA
BRANCH   5   6
ATOM      6  C   UNL A   1      32.271  29.295  24.770  1.00  0.00     0.328 C 
ATOM      7  O   UNL A   1      33.150  29.172  23.923  1.00  0.00    -0.250 OA
BRANCH   6   8
ATOM      8  C   UNL A   1      30.913  28.549  24.643  1.00  0.00     0.195 C 
ATOM      9  N   UNL A   1      32.224  23.664  23.143  1.00  0.00    -0.266 N 
ATOM     10  C   UNL A   1      30.804  23.931  23.135  1.00  0.00     0.271 C 
ATOM     11  C   UNL A   1      33.089  24.773  22.767  1.00  0.00     0.271 C 
ATOM     12  H   UNL A   1      32.697  24.509  23.319  1.00  0.00     0.357 HD
ATOM     13  C   UNL A   1      30.553  24.965  24.212  1.00  0.00     0.071 C 
ATOM     14  C   UNL A   1      32.837  26.023  23.615  1.00  0.00     0.071 C 
ATOM     15  C   UNL A   1      31.347  26.263  23.948  1.00  0.00     0.001 C 
ATOM     16  C   UNL A   1      31.151  27.158  25.197  1.00  0.00     0.046 C 
ATOM     17  C   UNL A   1      30.709  27.035  22.787  1.00  0.00     0.128 C 
ATOM     18  N   UNL A   1      30.230  28.255  23.365  1.00  0.00    -0.328 N 
BRANCH   9  19
ATOM     19  C   UNL A   1      32.622  22.348  23.253  1.00  0.00     0.362 C 
ATOM     20  O   UNL A   1      32.206  21.504  22.457  1.00  0.00    -0.224 OA
BRANCH  19  21
ATOM     21  C   UNL A   1      33.425  21.947  24.380  1.00  0.00     0.167 A 
ATOM     22  C   UNL A   1      35.984  22.225  23.894  1.00  0.00     0.069 C 
ATOM     23  C   UNL A   1      34.780  21.895  24.683  1.00  0.00     0.072 A 
ATOM     24  N   UNL A   1      34.972  21.534  26.000  1.00  0.00    -0.241 NA
ATOM     25  C   UNL A   1      33.774  21.437  26.519  1.00  0.00     0.197 A 
ATOM     26  N   UNL A   1      32.816  21.665  25.585  1.00  0.00    -0.337 N 
ATOM     27  H   UNL A   1      31.844  21.634  25.742  1.00  0.00     0.168 HD
ENDBRANCH  19  21
ENDBRANCH   9  19
BRANCH  18  28
ATOM     28  C   UNL A   1      29.026  28.841  23.004  1.00  0.00     0.226 C 
ATOM     29  O   UNL A   1      27.965  28.234  23.118  1.00  0.00    -0.275 OA
BRANCH  28  30
ATOM     30  C   UNL A   1      28.941  30.283  22.590  1.00  0.00     0.079 C 
ATOM     31  C   UNL A   1      27.842  31.080  21.936  1.00  0.00     0.014 C 
ATOM     32  C   UNL A   1      28.111  31.256  23.402  1.00  0.00     0.014 C 
ENDBRANCH  28  30
ENDBRANCH  18  28
ENDBRANCH   6   8
ENDBRANCH   5   6
ENDBRANCH   4   5
ENDBRANCH   3   4
ENDBRANCH   2   3
ENDBRANCH   1   2
BRANCH   1  33
ATOM     33  C   UNL A   1      34.735  33.287  29.474  1.00  0.00     0.188 C 
BRANCH  33  34
ATOM     34  O   UNL A   1      34.584  32.561  30.668  1.00  0.00    -0.376 OA
BRANCH  34  35
ATOM     35  C   UNL A   1      34.141  33.248  31.817  1.00  0.00     0.202 C 
BRANCH  35  36
ATOM     36  C   UNL A   1      35.103  34.166  32.589  1.00  0.00     0.261 C 
BRANCH  36  37
ATOM     37  O   UNL A   1      36.509  33.863  32.540  1.00  0.00    -0.460 OA
BRANCH  37  38
ATOM     38  C   UNL A   1      36.955  32.809  33.262  1.00  0.00     0.338 C 
ATOM     39  O   UNL A   1      36.517  32.422  34.337  1.00  0.00    -0.246 OA
BRANCH  38  40
ATOM     40  C   UNL A   1      37.916  32.051  32.422  1.00  0.00     0.060 A 
ATOM     41  C   UNL A   1      38.706  31.054  33.013  1.00  0.00     0.016 A 
ATOM     42  C   UNL A   1      38.030  32.308  31.056  1.00  0.00     0.016 A 
ATOM     43  C   UNL A   1      39.626  30.330  32.250  1.00  0.00     0.010 A 
ATOM     44  C   UNL A   1      38.973  31.603  30.297  1.00  0.00     0.010 A 
ATOM     45  C   UNL A   1      39.797  30.630  30.895  1.00  0.00    -0.014 A 
BRANCH  45  46
ATOM     46  C   UNL A   1      40.955  30.079  30.142  1.00  0.00     0.031 A 
ATOM     47  C   UNL A   1      42.128  30.983  29.879  1.00  0.00     0.074 A 
ATOM     48  C   UNL A   1      40.973  28.813  29.691  1.00  0.00     0.049 A 
ATOM     49  N   UNL A   1      43.195  30.779  29.147  1.00  0.00    -0.248 NA
ATOM     50  C   UNL A   1      42.087  32.305  30.525  1.00  0.00     0.031 C 
ATOM     51  C   UNL A   1      39.930  27.817  29.921  1.00  0.00     0.029 A 
ATOM     52  N   UNL A   1      41.904  28.155  28.922  1.00  0.00    -0.354 N 
ATOM     53  C   UNL A   1      43.937  31.950  29.229  1.00  0.00     0.074 A 
ATOM     54  C   UNL A   1      43.191  32.869  30.061  1.00  0.00     0.031 C 
ATOM     55  C   UNL A   1      40.267  26.680  29.288  1.00  0.00     0.029 A 
ATOM     56  C   UNL A   1      41.528  26.882  28.573  1.00  0.00     0.049 A 
ATOM     57  H   UNL A   1      42.760  28.559  28.648  1.00  0.00     0.167 HD
ATOM     58  C   UNL A   1      45.136  32.231  28.666  1.00  0.00     0.037 A 
ATOM     59  C   UNL A   1      42.117  25.994  27.746  1.00  0.00     0.037 A 
ATOM     60  C   UNL A   1      45.882  31.314  27.845  1.00  0.00     0.049 A 
ATOM     61  C   UNL A   1      43.416  26.359  27.066  1.00  0.00     0.074 A 
ATOM     62  C   UNL A   1      47.117  31.499  27.250  1.00  0.00     0.029 A 
ATOM     63  N   UNL A   1      45.456  30.040  27.496  1.00  0.00    -0.354 N 
ATOM     64  N   UNL A   1      44.122  27.459  27.160  1.00  0.00    -0.248 NA
ATOM     65  C   UNL A   1      44.000  25.353  26.167  1.00  0.00     0.031 C 
ATOM     66  C   UNL A   1      47.410  30.364  26.487  1.00  0.00     0.029 A 
ATOM     67  C   UNL A   1      46.391  29.441  26.666  1.00  0.00     0.049 A 
ATOM     68  H   UNL A   1      44.615  29.624  27.794  1.00  0.00     0.167 HD
ATOM     69  C   UNL A   1      45.245  27.266  26.361  1.00  0.00     0.074 A 
ATOM     70  C   UNL A   1      45.132  25.937  25.801  1.00  0.00     0.031 C 
ATOM     71  C   UNL A   1      46.275  28.113  26.120  1.00  0.00     0.037 A 
BRANCH  58  72
ATOM     72  C   UNL A   1      45.702  33.605  28.886  1.00  0.00     0.064 A 
ATOM     73  C   UNL A   1      46.521  33.905  29.985  1.00  0.00     0.173 A 
ATOM     74  C   UNL A   1      45.451  34.628  27.958  1.00  0.00     0.173 A 
ATOM     75  F   UNL A   1      46.782  32.968  30.908  1.00  0.00    -0.203 F 
ATOM     76  C   UNL A   1      47.044  35.184  30.161  1.00  0.00     0.198 A 
ATOM     77  C   UNL A   1      46.004  35.896  28.117  1.00  0.00     0.198 A 
ATOM     78  F   UNL A   1      44.678  34.395  26.886  1.00  0.00    -0.203 F 
ATOM     79  F   UNL A   1      47.782  35.461  31.244  1.00  0.00    -0.200 F 
ATOM     80  C   UNL A   1      46.793  36.175  29.223  1.00  0.00     0.200 A 
ATOM     81  F   UNL A   1      45.772  36.846  27.202  1.00  0.00    -0.200 F 
ATOM     82  F   UNL A   1      47.306  37.402  29.388  1.00  0.00    -0.200 F 
ENDBRANCH  58  72
BRANCH  59  83
ATOM     83  C   UNL A   1      41.474  24.677  27.485  1.00  0.00     0.064 A 
ATOM     84  C   UNL A   1      40.355  24.568  26.647  1.00  0.00     0.173 A 
ATOM     85  C   UNL A   1      41.949  23.505  28.092  1.00  0.00     0.173 A 
ATOM     86  F   UNL A   1      39.842  25.664  26.070  1.00  0.00    -0.203 F 
ATOM     87  C   UNL A   1      39.725  23.342  26.444  1.00  0.00     0.198 A 
ATOM     88  C   UNL A   1      41.338  22.274  27.861  1.00  0.00     0.198 A 
ATOM     89  F   UNL A   1      43.010  23.554  28.911  1.00  0.00    -0.203 F 
ATOM     90  F   UNL A   1      38.623  23.276  25.684  1.00  0.00    -0.200 F 
ATOM     91  C   UNL A   1      40.221  22.195  27.045  1.00  0.00     0.200 A 
ATOM     92  F   UNL A   1      41.826  21.167  28.438  1.00  0.00    -0.200 F 
ATOM     93  F   UNL A   1      39.614  21.016  26.847  1.00  0.00    -0.200 F 
ENDBRANCH  59  83
BRANCH  71  94
ATOM     94  C   UNL A   1      47.396  27.618  25.246  1.00  0.00     0.064 A 
ATOM     95  C   UNL A   1      47.418  27.851  23.863  1.00  0.00     0.173 A 
ATOM     96  C   UNL A   1      48.490  26.944  25.813  1.00  0.00     0.173 A 
ATOM     97  F   UNL A   1      46.395  28.481  23.268  1.00  0.00    -0.203 F 
ATOM     98  C   UNL A   1      48.479  27.404  23.078  1.00  0.00     0.198 A 
ATOM     99  C   UNL A   1      49.564  26.530  25.031  1.00  0.00     0.198 A 
ATOM    100  F   UNL A   1      48.526  26.703  27.133  1.00  0.00    -0.203 F 
ATOM    101  F   UNL A   1      48.454  27.593  21.752  1.00  0.00    -0.200 F 
ATOM    102  C   UNL A   1      49.554  26.751  23.663  1.00  0.00     0.200 A 
ATOM    103  F   UNL A   1      50.610  25.917  25.602  1.00  0.00    -0.200 F 
ATOM    104  F   UNL A   1      50.578  26.332  22.907  1.00  0.00    -0.200 F 
ENDBRANCH  71  94
ENDBRANCH  45  46
ENDBRANCH  38  40
ENDBRANCH  37  38
ENDBRANCH  36  37
ENDBRANCH  35  36
ENDBRANCH  34  35
ENDBRANCH  33  34
ENDBRANCH   1  33
TORSDOF 21
ENDMDL
MODEL 2
REMARK VINA RESULT:     -11.0      1.120      7.088
REMARK SMILES Cc1nc[nH]c1C(=O)[NH+]1CCC2(CC1)C[C@@H](C(=O)OCCOCCOCCOC(=O)c1ccc(-c3c4nc(c(-c5c(F)c(F)c(F)c(F)c5F)c5ccc([nH]5)c(-c5c(F)c(F)c(F)c(F)c5F)c5nc(c(-c6c(F)c(F)c(F)c(F)c6F)c6ccc3[nH]6)C=C5)C=C4)cc1)N(C(=O)C1CC1)C2
REMARK SMILES IDX 23 1 22 2 21 3 20 4 19 5 17 6 18 7 16 8 9 9 10 10 14 11
REMARK SMILES IDX 11 13 13 14 12 15 15 16 100 17 94 18 7 19 8 20 6 21 1 22
REMARK SMILES IDX 2 23 3 24 4 25 5 26 95 28 96 29 97 30 98 31 99 32 24 33
REMARK SMILES IDX 25 34 26 35 27 36 28 37 29 38 30 39 31 40 32 41 93 42 33 43
REMARK SMILES IDX 92 44 34 45 35 46 36 47 86 48 37 49 91 50 85 51 87 52 38 53
REMARK SMILES IDX 90 54 84 55 83 56 39 58 71 59 51 60 70 61 52 62 55 63 69 64
REMARK SMILES IDX 88 65 53 66 54 67 68 69 89 70 56 71 40 72 41 73 49 74 42 75
REMARK SMILES IDX 43 76 47 77 50 78 44 79 45 80 48 81 46 82 72 83 73 84 81 85
REMARK SMILES IDX 74 86 75 87 79 88 82 89 76 90 77 91 80 92 78 93 57 94 58 95
REMARK SMILES IDX 66 96 59 97 60 98 64 99 67 100 61 101 62 102 65 103 63 104
REMARK H PARENT 9 12 5 27 87 57 55 68
REMARK Flexibility Score: inf
ROOT
ATOM      1  C   UNL A   1      35.492  32.627  28.021  1.00  0.00     0.188 C 
ENDROOT
BRANCH   1   2
ATOM      2  O   UNL A   1      34.781  31.591  27.354  1.00  0.00    -0.376 OA
BRANCH   2   3
ATOM      3  C   UNL A   1      35.189  30.237  27.513  1.00  0.00     0.202 C 
BRANCH   3   4
ATOM      4  C   UNL A   1      34.313  29.124  26.911  1.00  0.00     0.261 C 
BRANCH   4   5
ATOM      5  O   UNL A   1      33.122  29.574  26.226  1.00  0.00    -0.462 OA
BRANCH   5   6
ATOM      6  C   UNL A   1      32.730  28.843  25.149  1.00  0.00     0.328 C 
ATOM      7  O   UNL A   1      33.380  28.760  24.111  1.00  0.00    -0.250 OA
BRANCH   6   8
ATOM      8  C   UNL A   1      31.338  28.165  25.290  1.00  0.00     0.195 C 
ATOM      9  N   UNL A   1      32.411  23.016  25.707  1.00  0.00    -0.266 N 
ATOM     10  C   UNL A   1      31.005  23.327  25.586  1.00  0.00     0.271 C 
ATOM     11  C   UNL A   1      33.325  23.868  24.960  1.00  0.00     0.271 C 
ATOM     12  H   UNL A   1      32.924  23.844  25.565  1.00  0.00     0.357 HD
ATOM     13  C   UNL A   1      30.809  24.694  26.203  1.00  0.00     0.071 C 
ATOM     14  C   UNL A   1      33.136  25.353  25.285  1.00  0.00     0.071 C 
ATOM     15  C   UNL A   1      31.661  25.766  25.490  1.00  0.00     0.001 C 
ATOM     16  C   UNL A   1      31.515  27.066  26.319  1.00  0.00     0.046 C 
ATOM     17  C   UNL A   1      31.053  26.085  24.119  1.00  0.00     0.128 C 
ATOM     18  N   UNL A   1      30.635  27.452  24.201  1.00  0.00    -0.328 N 
BRANCH   9  19
ATOM     19  C   UNL A   1      32.748  21.817  26.298  1.00  0.00     0.362 C 
ATOM     20  O   UNL A   1      33.161  21.789  27.459  1.00  0.00    -0.224 OA
BRANCH  19  21
ATOM     21  C   UNL A   1      32.732  20.612  25.507  1.00  0.00     0.167 A 
ATOM     22  C   UNL A   1      32.176  21.111  22.997  1.00  0.00     0.069 C 
ATOM     23  C   UNL A   1      32.520  20.287  24.173  1.00  0.00     0.072 A 
ATOM     24  N   UNL A   1      32.762  18.947  23.953  1.00  0.00    -0.241 NA
ATOM     25  C   UNL A   1      33.183  18.471  25.097  1.00  0.00     0.197 A 
ATOM     26  N   UNL A   1      33.172  19.428  26.060  1.00  0.00    -0.337 N 
ATOM     27  H   UNL A   1      33.435  19.297  27.000  1.00  0.00     0.168 HD
ENDBRANCH  19  21
ENDBRANCH   9  19
BRANCH  18  28
ATOM     28  C   UNL A   1      29.457  27.919  23.637  1.00  0.00     0.226 C 
ATOM     29  O   UNL A   1      28.449  27.219  23.601  1.00  0.00    -0.275 OA
BRANCH  28  30
ATOM     30  C   UNL A   1      29.313  29.340  23.168  1.00  0.00     0.079 C 
ATOM     31  C   UNL A   1      30.229  30.236  22.374  1.00  0.00     0.014 C 
ATOM     32  C   UNL A   1      29.027  29.630  21.709  1.00  0.00     0.014 C 
ENDBRANCH  28  30
ENDBRANCH  18  28
ENDBRANCH   6   8
ENDBRANCH   5   6
ENDBRANCH   4   5
ENDBRANCH   3   4
ENDBRANCH   2   3
ENDBRANCH   1   2
BRANCH   1  33
ATOM     33  C   UNL A   1      34.753  33.515  29.035  1.00  0.00     0.188 C 
BRANCH  33  34
ATOM     34  O   UNL A   1      35.280  33.489  30.337  1.00  0.00    -0.376 OA
BRANCH  34  35
ATOM     35  C   UNL A   1      34.508  32.899  31.359  1.00  0.00     0.202 C 
BRANCH  35  36
ATOM     36  C   UNL A   1      35.092  32.735  32.773  1.00  0.00     0.261 C 
BRANCH  36  37
ATOM     37  O   UNL A   1      36.485  33.042  32.967  1.00  0.00    -0.460 OA
BRANCH  37  38
ATOM     38  C   UNL A   1      37.250  32.133  33.612  1.00  0.00     0.338 C 
ATOM     39  O   UNL A   1      37.079  31.708  34.747  1.00  0.00    -0.246 OA
BRANCH  38  40
ATOM     40  C   UNL A   1      38.203  31.556  32.632  1.00  0.00     0.060 A 
ATOM     41  C   UNL A   1      39.305  30.823  33.096  1.00  0.00     0.016 A 
ATOM     42  C   UNL A   1      38.007  31.721  31.262  1.00  0.00     0.016 A 
ATOM     43  C   UNL A   1      40.225  30.274  32.198  1.00  0.00     0.010 A 
ATOM     44  C   UNL A   1      38.944  31.197  30.362  1.00  0.00     0.010 A 
ATOM     45  C   UNL A   1      40.075  30.496  30.826  1.00  0.00    -0.014 A 
BRANCH  45  46
ATOM     46  C   UNL A   1      41.180  30.172  29.885  1.00  0.00     0.031 A 
ATOM     47  C   UNL A   1      41.212  28.800  29.269  1.00  0.00     0.074 A 
ATOM     48  C   UNL A   1      42.142  31.062  29.584  1.00  0.00     0.049 A 
ATOM     49  N   UNL A   1      42.129  28.239  28.521  1.00  0.00    -0.248 NA
ATOM     50  C   UNL A   1      40.051  27.939  29.543  1.00  0.00     0.031 C 
ATOM     51  C   UNL A   1      42.201  32.440  30.065  1.00  0.00     0.029 A 
ATOM     52  N   UNL A   1      43.269  30.926  28.809  1.00  0.00    -0.354 N 
ATOM     53  C   UNL A   1      41.665  26.957  28.255  1.00  0.00     0.074 A 
ATOM     54  C   UNL A   1      40.398  26.813  28.939  1.00  0.00     0.031 C 
ATOM     55  C   UNL A   1      43.321  33.017  29.594  1.00  0.00     0.029 A 
ATOM     56  C   UNL A   1      44.076  32.037  28.812  1.00  0.00     0.049 A 
ATOM     57  H   UNL A   1      43.478  30.109  28.299  1.00  0.00     0.167 HD
ATOM     58  C   UNL A   1      42.241  25.990  27.503  1.00  0.00     0.037 A 
ATOM     59  C   UNL A   1      45.298  32.229  28.276  1.00  0.00     0.037 A 
ATOM     60  C   UNL A   1      43.498  26.136  26.817  1.00  0.00     0.049 A 
ATOM     61  C   UNL A   1      45.957  31.108  27.506  1.00  0.00     0.074 A 
ATOM     62  C   UNL A   1      44.152  25.221  26.011  1.00  0.00     0.029 A 
ATOM     63  N   UNL A   1      44.297  27.270  26.864  1.00  0.00    -0.354 N 
ATOM     64  N   UNL A   1      45.508  29.905  27.243  1.00  0.00    -0.248 NA
ATOM     65  C   UNL A   1      47.295  31.376  26.957  1.00  0.00     0.031 C 
ATOM     66  C   UNL A   1      45.377  25.775  25.624  1.00  0.00     0.029 A 
ATOM     67  C   UNL A   1      45.453  27.064  26.128  1.00  0.00     0.049 A 
ATOM     68  H   UNL A   1      44.075  28.098  27.349  1.00  0.00     0.167 HD
ATOM     69  C   UNL A   1      46.489  29.288  26.473  1.00  0.00     0.074 A 
ATOM     70  C   UNL A   1      47.551  30.254  26.301  1.00  0.00     0.031 C 
ATOM     71  C   UNL A   1      46.503  28.035  25.954  1.00  0.00     0.037 A 
BRANCH  58  72
ATOM     72  C   UNL A   1      41.536  24.667  27.414  1.00  0.00     0.064 A 
ATOM     73  C   UNL A   1      40.363  24.498  26.663  1.00  0.00     0.173 A 
ATOM     74  C   UNL A   1      42.068  23.539  28.059  1.00  0.00     0.173 A 
ATOM     75  F   UNL A   1      39.805  25.546  26.038  1.00  0.00    -0.203 F 
ATOM     76  C   UNL A   1      39.733  23.258  26.586  1.00  0.00     0.198 A 
ATOM     77  C   UNL A   1      41.456  22.293  27.951  1.00  0.00     0.198 A 
ATOM     78  F   UNL A   1      43.191  23.642  28.786  1.00  0.00    -0.203 F 
ATOM     79  F   UNL A   1      38.586  23.133  25.906  1.00  0.00    -0.200 F 
ATOM     80  C   UNL A   1      40.285  22.156  27.221  1.00  0.00     0.200 A 
ATOM     81  F   UNL A   1      41.999  21.227  28.553  1.00  0.00    -0.200 F 
ATOM     82  F   UNL A   1      39.684  20.961  27.137  1.00  0.00    -0.200 F 
ENDBRANCH  58  72
BRANCH  59  83
ATOM     83  C   UNL A   1      46.002  33.527  28.466  1.00  0.00     0.064 A 
ATOM     84  C   UNL A   1      46.817  33.754  29.583  1.00  0.00     0.173 A 
ATOM     85  C   UNL A   1      45.848  34.577  27.548  1.00  0.00     0.173 A 
ATOM     86  F   UNL A   1      46.969  32.794  30.507  1.00  0.00    -0.203 F 
ATOM     87  C   UNL A   1      47.434  34.987  29.786  1.00  0.00     0.198 A 
ATOM     88  C   UNL A   1      46.493  35.798  27.734  1.00  0.00     0.198 A 
ATOM     89  F   UNL A   1      45.071  34.417  26.467  1.00  0.00    -0.203 F 
ATOM     90  F   UNL A   1      48.162  35.196  30.892  1.00  0.00    -0.200 F 
ATOM     91  C   UNL A   1      47.278  36.005  28.858  1.00  0.00     0.200 A 
ATOM     92  F   UNL A   1      46.345  36.776  26.831  1.00  0.00    -0.200 F 
ATOM     93  F   UNL A   1      47.874  37.190  29.052  1.00  0.00    -0.200 F 
ENDBRANCH  59  83
BRANCH  71  94
ATOM     94  C   UNL A   1      47.683  27.643  25.107  1.00  0.00     0.064 A 
ATOM     95  C   UNL A   1      47.696  27.835  23.717  1.00  0.00     0.173 A 
ATOM     96  C   UNL A   1      48.838  27.113  25.705  1.00  0.00     0.173 A 
ATOM     97  F   UNL A   1      46.616  28.328  23.093  1.00  0.00    -0.203 F 
ATOM     98  C   UNL A   1      48.811  27.486  22.956  1.00  0.00     0.198 A 
ATOM     99  C   UNL A   1      49.961  26.799  24.945  1.00  0.00     0.198 A 
ATOM    100  F   UNL A   1      48.884  26.918  27.032  1.00  0.00    -0.203 F 
ATOM    101  F   UNL A   1      48.781  27.631  21.625  1.00  0.00    -0.200 F 
ATOM    102  C   UNL A   1      49.944  26.977  23.571  1.00  0.00     0.200 A 
ATOM    103  F   UNL A   1      51.063  26.325  25.545  1.00  0.00    -0.200 F 
ATOM    104  F   UNL A   1      51.018  26.652  22.839  1.00  0.00    -0.200 F 
ENDBRANCH  71  94
ENDBRANCH  45  46
ENDBRANCH  38  40
ENDBRANCH  37  38
ENDBRANCH  36  37
ENDBRANCH  35  36
ENDBRANCH  34  35
ENDBRANCH  33  34
ENDBRANCH   1  33
TORSDOF 21
ENDMDL
MODEL 3
REMARK VINA RESULT:     -10.5      4.719      8.496
REMARK SMILES Cc1nc[nH]c1C(=O)[NH+]1CCC2(CC1)C[C@@H](C(=O)OCCOCCOCCOC(=O)c1ccc(-c3c4nc(c(-c5c(F)c(F)c(F)c(F)c5F)c5ccc([nH]5)c(-c5c(F)c(F)c(F)c(F)c5F)c5nc(c(-c6c(F)c(F)c(F)c(F)c6F)c6ccc3[nH]6)C=C5)C=C4)cc1)N(C(=O)C1CC1)C2
REMARK SMILES IDX 23 1 22 2 21 3 20 4 19 5 17 6 18 7 16 8 9 9 10 10 14 11
REMARK SMILES IDX 11 13 13 14 12 15 15 16 100 17 94 18 7 19 8 20 6 21 1 22
REMARK SMILES IDX 2 23 3 24 4 25 5 26 95 28 96 29 97 30 98 31 99 32 24 33
REMARK SMILES IDX 25 34 26 35 27 36 28 37 29 38 30 39 31 40 32 41 93 42 33 43
REMARK SMILES IDX 92 44 34 45 35 46 36 47 86 48 37 49 91 50 85 51 87 52 38 53
REMARK SMILES IDX 90 54 84 55 83 56 39 58 71 59 51 60 70 61 52 62 55 63 69 64
REMARK SMILES IDX 88 65 53 66 54 67 68 69 89 70 56 71 40 72 41 73 49 74 42 75
REMARK SMILES IDX 43 76 47 77 50 78 44 79 45 80 48 81 46 82 72 83 73 84 81 85
REMARK SMILES IDX 74 86 75 87 79 88 82 89 76 90 77 91 80 92 78 93 57 94 58 95
REMARK SMILES IDX 66 96 59 97 60 98 64 99 67 100 61 101 62 102 65 103 63 104
REMARK H PARENT 9 12 5 27 87 57 55 68
REMARK Flexibility Score: inf
ROOT
ATOM      1  C   UNL A   1      33.889  34.719  31.498  1.00  0.00     0.188 C 
ENDROOT
BRANCH   1   2
ATOM      2  O   UNL A   1      34.690  35.525  32.354  1.00  0.00    -0.376 OA
BRANCH   2   3
ATOM      3  C   UNL A   1      34.903  35.128  33.704  1.00  0.00     0.202 C 
BRANCH   3   4
ATOM      4  C   UNL A   1      35.989  34.079  34.004  1.00  0.00     0.261 C 
BRANCH   4   5
ATOM      5  O   UNL A   1      36.168  33.064  32.990  1.00  0.00    -0.462 OA
BRANCH   5   6
ATOM      6  C   UNL A   1      36.941  31.998  33.331  1.00  0.00     0.328 C 
ATOM      7  O   UNL A   1      36.754  30.860  32.910  1.00  0.00    -0.250 OA
BRANCH   6   8
ATOM      8  C   UNL A   1      38.055  32.305  34.372  1.00  0.00     0.195 C 
ATOM      9  N   UNL A   1      41.680  28.557  33.570  1.00  0.00    -0.266 N 
ATOM     10  C   UNL A   1      41.923  29.387  34.728  1.00  0.00     0.271 C 
ATOM     11  C   UNL A   1      40.285  28.264  33.270  1.00  0.00     0.271 C 
ATOM     12  H   UNL A   1      40.792  28.781  33.209  1.00  0.00     0.357 HD
ATOM     13  C   UNL A   1      41.329  30.744  34.419  1.00  0.00     0.071 C 
ATOM     14  C   UNL A   1      39.440  29.534  33.130  1.00  0.00     0.071 C 
ATOM     15  C   UNL A   1      39.815  30.648  34.134  1.00  0.00     0.001 C 
ATOM     16  C   UNL A   1      39.368  32.053  33.658  1.00  0.00     0.046 C 
ATOM     17  C   UNL A   1      39.054  30.398  35.441  1.00  0.00     0.128 C 
ATOM     18  N   UNL A   1      38.250  31.566  35.638  1.00  0.00    -0.328 N 
BRANCH   9  19
ATOM     19  C   UNL A   1      42.764  27.915  33.009  1.00  0.00     0.362 C 
ATOM     20  O   UNL A   1      43.173  28.244  31.894  1.00  0.00    -0.224 OA
BRANCH  19  21
ATOM     21  C   UNL A   1      43.335  26.776  33.683  1.00  0.00     0.167 A 
ATOM     22  C   UNL A   1      41.660  25.730  35.403  1.00  0.00     0.069 C 
ATOM     23  C   UNL A   1      42.919  25.861  34.642  1.00  0.00     0.072 A 
ATOM     24  N   UNL A   1      43.867  24.877  34.821  1.00  0.00    -0.241 NA
ATOM     25  C   UNL A   1      44.809  25.129  33.948  1.00  0.00     0.197 A 
ATOM     26  N   UNL A   1      44.539  26.262  33.251  1.00  0.00    -0.337 N 
ATOM     27  H   UNL A   1      45.111  26.653  32.551  1.00  0.00     0.168 HD
ENDBRANCH  19  21
ENDBRANCH   9  19
BRANCH  18  28
ATOM     28  C   UNL A   1      38.045  32.143  36.882  1.00  0.00     0.226 C 
ATOM     29  O   UNL A   1      37.178  31.722  37.643  1.00  0.00    -0.275 OA
BRANCH  28  30
ATOM     30  C   UNL A   1      38.955  33.214  37.417  1.00  0.00     0.079 C 
ATOM     31  C   UNL A   1      38.724  34.334  38.399  1.00  0.00     0.014 C 
ATOM     32  C   UNL A   1      39.487  33.117  38.832  1.00  0.00     0.014 C 
ENDBRANCH  28  30
ENDBRANCH  18  28
ENDBRANCH   6   8
ENDBRANCH   5   6
ENDBRANCH   4   5
ENDBRANCH   3   4
ENDBRANCH   2   3
ENDBRANCH   1   2
BRANCH   1  33
ATOM     33  C   UNL A   1      33.448  35.277  30.135  1.00  0.00     0.188 C 
BRANCH  33  34
ATOM     34  O   UNL A   1      32.967  34.315  29.231  1.00  0.00    -0.376 OA
BRANCH  34  35
ATOM     35  C   UNL A   1      33.903  33.595  28.460  1.00  0.00     0.202 C 
BRANCH  35  36
ATOM     36  C   UNL A   1      34.179  32.112  28.763  1.00  0.00     0.261 C 
BRANCH  36  37
ATOM     37  O   UNL A   1      34.091  31.175  27.675  1.00  0.00    -0.460 OA
BRANCH  37  38
ATOM     38  C   UNL A   1      34.394  29.881  27.927  1.00  0.00     0.338 C 
ATOM     39  O   UNL A   1      33.675  28.911  27.732  1.00  0.00    -0.246 OA
BRANCH  38  40
ATOM     40  C   UNL A   1      35.838  29.805  28.263  1.00  0.00     0.060 A 
ATOM     41  C   UNL A   1      36.788  30.125  27.282  1.00  0.00     0.016 A 
ATOM     42  C   UNL A   1      36.256  29.437  29.541  1.00  0.00     0.016 A 
ATOM     43  C   UNL A   1      38.155  30.055  27.566  1.00  0.00     0.010 A 
ATOM     44  C   UNL A   1      37.626  29.338  29.817  1.00  0.00     0.010 A 
ATOM     45  C   UNL A   1      38.584  29.618  28.823  1.00  0.00    -0.014 A 
BRANCH  45  46
ATOM     46  C   UNL A   1      40.010  29.265  29.051  1.00  0.00     0.031 A 
ATOM     47  C   UNL A   1      40.903  30.290  29.695  1.00  0.00     0.074 A 
ATOM     48  C   UNL A   1      40.514  28.071  28.692  1.00  0.00     0.049 A 
ATOM     49  N   UNL A   1      42.198  30.269  29.889  1.00  0.00    -0.248 NA
ATOM     50  C   UNL A   1      40.243  31.511  30.181  1.00  0.00     0.031 C 
ATOM     51  C   UNL A   1      39.751  26.970  28.110  1.00  0.00     0.029 A 
ATOM     52  N   UNL A   1      41.802  27.595  28.750  1.00  0.00    -0.354 N 
ATOM     53  C   UNL A   1      42.507  31.478  30.497  1.00  0.00     0.074 A 
ATOM     54  C   UNL A   1      41.272  32.220  30.620  1.00  0.00     0.031 C 
ATOM     55  C   UNL A   1      40.589  25.954  27.842  1.00  0.00     0.029 A 
ATOM     56  C   UNL A   1      41.953  26.348  28.195  1.00  0.00     0.049 A 
ATOM     57  H   UNL A   1      42.547  28.100  29.152  1.00  0.00     0.167 HD
ATOM     58  C   UNL A   1      43.713  31.927  30.920  1.00  0.00     0.037 A 
ATOM     59  C   UNL A   1      43.068  25.624  27.967  1.00  0.00     0.037 A 
ATOM     60  C   UNL A   1      44.941  31.186  30.804  1.00  0.00     0.049 A 
ATOM     61  C   UNL A   1      44.412  26.179  28.378  1.00  0.00     0.074 A 
ATOM     62  C   UNL A   1      46.209  31.546  31.225  1.00  0.00     0.029 A 
ATOM     63  N   UNL A   1      45.056  29.934  30.215  1.00  0.00    -0.354 N 
ATOM     64  N   UNL A   1      44.698  27.313  28.967  1.00  0.00    -0.248 NA
ATOM     65  C   UNL A   1      45.590  25.345  28.090  1.00  0.00     0.031 C 
ATOM     66  C   UNL A   1      47.102  30.544  30.833  1.00  0.00     0.029 A 
ATOM     67  C   UNL A   1      46.380  29.525  30.233  1.00  0.00     0.049 A 
ATOM     68  H   UNL A   1      44.308  29.415  29.840  1.00  0.00     0.167 HD
ATOM     69  C   UNL A   1      46.077  27.316  29.151  1.00  0.00     0.074 A 
ATOM     70  C   UNL A   1      46.569  26.063  28.621  1.00  0.00     0.031 C 
ATOM     71  C   UNL A   1      46.861  28.270  29.711  1.00  0.00     0.037 A 
BRANCH  58  72
ATOM     72  C   UNL A   1      43.772  33.305  31.515  1.00  0.00     0.064 A 
ATOM     73  C   UNL A   1      43.800  34.459  30.717  1.00  0.00     0.173 A 
ATOM     74  C   UNL A   1      43.761  33.472  32.909  1.00  0.00     0.173 A 
ATOM     75  F   UNL A   1      43.826  34.355  29.380  1.00  0.00    -0.203 F 
ATOM     76  C   UNL A   1      43.844  35.727  31.292  1.00  0.00     0.198 A 
ATOM     77  C   UNL A   1      43.768  34.742  33.480  1.00  0.00     0.198 A 
ATOM     78  F   UNL A   1      43.729  32.404  33.719  1.00  0.00    -0.203 F 
ATOM     79  F   UNL A   1      43.922  36.813  30.511  1.00  0.00    -0.200 F 
ATOM     80  C   UNL A   1      43.818  35.867  32.672  1.00  0.00     0.200 A 
ATOM     81  F   UNL A   1      43.728  34.876  34.812  1.00  0.00    -0.200 F 
ATOM     82  F   UNL A   1      43.849  37.089  33.224  1.00  0.00    -0.200 F 
ENDBRANCH  58  72
BRANCH  59  83
ATOM     83  C   UNL A   1      42.973  24.300  27.293  1.00  0.00     0.064 A 
ATOM     84  C   UNL A   1      42.642  23.142  28.009  1.00  0.00     0.173 A 
ATOM     85  C   UNL A   1      43.241  24.163  25.922  1.00  0.00     0.173 A 
ATOM     86  F   UNL A   1      42.410  23.214  29.328  1.00  0.00    -0.203 F 
ATOM     87  C   UNL A   1      42.603  21.896  27.386  1.00  0.00     0.198 A 
ATOM     88  C   UNL A   1      43.168  22.922  25.294  1.00  0.00     0.198 A 
ATOM     89  F   UNL A   1      43.572  25.237  25.191  1.00  0.00    -0.203 F 
ATOM     90  F   UNL A   1      42.339  20.797  28.108  1.00  0.00    -0.200 F 
ATOM     91  C   UNL A   1      42.858  21.788  26.028  1.00  0.00     0.200 A 
ATOM     92  F   UNL A   1      43.408  22.824  23.979  1.00  0.00    -0.200 F 
ATOM     93  F   UNL A   1      42.818  20.589  25.429  1.00  0.00    -0.200 F 
ENDBRANCH  59  83
BRANCH  71  94
ATOM     94  C   UNL A   1      48.333  27.984  29.828  1.00  0.00     0.064 A 
ATOM     95  C   UNL A   1      48.867  27.271  30.912  1.00  0.00     0.173 A 
ATOM     96  C   UNL A   1      49.215  28.388  28.813  1.00  0.00     0.173 A 
ATOM     97  F   UNL A   1      48.072  26.870  31.914  1.00  0.00    -0.203 F 
ATOM     98  C   UNL A   1      50.232  26.997  30.987  1.00  0.00     0.198 A 
ATOM     99  C   UNL A   1      50.572  28.082  28.875  1.00  0.00     0.198 A 
ATOM    100  F   UNL A   1      48.757  29.065  27.748  1.00  0.00    -0.203 F 
ATOM    101  F   UNL A   1      50.726  26.359  32.056  1.00  0.00    -0.200 F 
ATOM    102  C   UNL A   1      51.080  27.395  29.966  1.00  0.00     0.200 A 
ATOM    103  F   UNL A   1      51.386  28.451  27.876  1.00  0.00    -0.200 F 
ATOM    104  F   UNL A   1      52.390  27.121  30.034  1.00  0.00    -0.200 F 
ENDBRANCH  71  94
ENDBRANCH  45  46
ENDBRANCH  38  40
ENDBRANCH  37  38
ENDBRANCH  36  37
ENDBRANCH  35  36
ENDBRANCH  34  35
ENDBRANCH  33  34
ENDBRANCH   1  33
TORSDOF 21
ENDMDL
