MODEL 1
REMARK VINA RESULT:     -11.3      0.000      0.000
REMARK SMILES Cn1cc(/C=C/C(=O)Nc2ccc(C(=O)OCCOCCOCCOC(=O)c3ccc(-c4c5nc(c(-c6c(F)c(F)c(F)c(F)c6F)c6ccc([nH]6)c(-c6c(F)c(F)c(F)c(F)c6F)c6nc(c(-c7c(F)c(F)c(F)c(F)c7F)c7ccc4[nH]7)C=C6)C=C5)cc3)c(O)c2)cn1
REMARK SMILES IDX 20 1 19 2 18 3 17 4 16 5 14 6 15 7 13 8 10 9 11 10 93 11
REMARK SMILES IDX 12 12 91 13 9 14 7 15 8 16 6 18 5 19 4 20 1 21 2 22 3 23
REMARK SMILES IDX 95 24 94 25 92 26 21 28 22 29 23 30 24 31 25 32 26 33 27 34
REMARK SMILES IDX 28 35 29 36 90 37 30 38 89 39 31 40 32 41 33 42 83 43 34 44
REMARK SMILES IDX 88 45 82 46 84 47 35 48 87 49 81 50 80 51 36 53 68 54 48 55
REMARK SMILES IDX 67 56 49 57 52 58 66 59 85 60 50 61 51 62 65 64 86 65 53 66
REMARK SMILES IDX 37 67 38 68 46 69 39 70 40 71 44 72 47 73 41 74 42 75 45 76
REMARK SMILES IDX 43 77 69 78 70 79 78 80 71 81 72 82 76 83 79 84 73 85 74 86
REMARK SMILES IDX 77 87 75 88 54 89 55 90 63 91 56 92 57 93 61 94 64 95 58 96
REMARK SMILES IDX 59 97 62 98 60 99
REMARK H PARENT 9 17 92 27 84 52 52 63
REMARK Flexibility Score: inf
ROOT
ATOM      1  C   UNL A   1      40.445  21.130  26.802  1.00  0.00     0.188 C 
ENDROOT
BRANCH   1   2
ATOM      2  O   UNL A   1      39.965  22.195  25.999  1.00  0.00    -0.376 OA
BRANCH   2   3
ATOM      3  C   UNL A   1      38.568  22.395  25.841  1.00  0.00     0.202 C 
BRANCH   3   4
ATOM      4  C   UNL A   1      37.689  21.199  25.478  1.00  0.00     0.261 C 
BRANCH   4   5
ATOM      5  O   UNL A   1      37.173  21.267  24.138  1.00  0.00    -0.460 OA
BRANCH   5   6
ATOM      6  C   UNL A   1      36.455  22.382  23.858  1.00  0.00     0.341 C 
ATOM      7  O   UNL A   1      36.727  23.235  23.020  1.00  0.00    -0.246 OA
BRANCH   6   8
ATOM      8  C   UNL A   1      35.173  22.376  24.592  1.00  0.00     0.101 A 
ATOM      9  C   UNL A   1      32.646  22.274  25.811  1.00  0.00     0.045 A 
ATOM     10  C   UNL A   1      33.033  21.272  24.920  1.00  0.00     0.027 A 
ATOM     11  C   UNL A   1      33.529  23.322  26.095  1.00  0.00     0.073 A 
ATOM     12  C   UNL A   1      34.282  21.335  24.298  1.00  0.00     0.022 A 
ATOM     13  C   UNL A   1      34.805  23.347  25.526  1.00  0.00     0.132 A 
BRANCH   9  14
ATOM     14  N   UNL A   1      31.364  22.320  26.383  1.00  0.00    -0.322 N 
ATOM     15  C   UNL A   1      30.537  23.383  26.621  1.00  0.00     0.248 C 
ATOM     16  O   UNL A   1      29.681  23.326  27.500  1.00  0.00    -0.270 OA
ATOM     17  H   UNL A   1      31.002  21.446  26.658  1.00  0.00     0.170 HD
BRANCH  15  18
ATOM     18  C   UNL A   1      30.570  24.570  25.728  1.00  0.00     0.072 C 
ATOM     19  C   UNL A   1      30.902  25.774  26.220  1.00  0.00     0.017 C 
BRANCH  19  20
ATOM     20  C   UNL A   1      31.147  26.962  25.480  1.00  0.00     0.013 A 
ATOM     21  C   UNL A   1      31.057  28.983  22.507  1.00  0.00     0.173 C 
ATOM     22  N   UNL A   1      31.194  28.371  23.805  1.00  0.00    -0.275 N 
ATOM     23  C   UNL A   1      30.927  27.073  24.126  1.00  0.00     0.116 A 
ATOM     24  N   UNL A   1      31.642  29.096  24.846  1.00  0.00    -0.181 NA
ATOM     25  C   UNL A   1      31.579  28.244  25.876  1.00  0.00     0.143 A 
ENDBRANCH  19  20
ENDBRANCH  15  18
ENDBRANCH   9  14
BRANCH  13  26
ATOM     26  O   UNL A   1      35.633  24.350  25.944  1.00  0.00    -0.507 OA
ATOM     27  H   UNL A   1      36.555  24.198  26.017  1.00  0.00     0.293 HD
ENDBRANCH  13  26
ENDBRANCH   6   8
ENDBRANCH   5   6
ENDBRANCH   4   5
ENDBRANCH   3   4
ENDBRANCH   2   3
ENDBRANCH   1   2
BRANCH   1  28
ATOM     28  C   UNL A   1      41.056  19.866  26.159  1.00  0.00     0.188 C 
BRANCH  28  29
ATOM     29  O   UNL A   1      42.309  19.951  25.499  1.00  0.00    -0.376 OA
BRANCH  29  30
ATOM     30  C   UNL A   1      43.219  20.964  25.929  1.00  0.00     0.202 C 
BRANCH  30  31
ATOM     31  C   UNL A   1      43.814  21.848  24.837  1.00  0.00     0.261 C 
BRANCH  31  32
ATOM     32  O   UNL A   1      43.023  23.039  24.683  1.00  0.00    -0.460 OA
BRANCH  32  33
ATOM     33  C   UNL A   1      43.698  24.180  24.908  1.00  0.00     0.338 C 
ATOM     34  O   UNL A   1      44.793  24.498  24.457  1.00  0.00    -0.246 OA
BRANCH  33  35
ATOM     35  C   UNL A   1      42.889  25.101  25.717  1.00  0.00     0.060 A 
ATOM     36  C   UNL A   1      43.083  26.478  25.579  1.00  0.00     0.016 A 
ATOM     37  C   UNL A   1      42.117  24.596  26.763  1.00  0.00     0.016 A 
ATOM     38  C   UNL A   1      42.582  27.349  26.545  1.00  0.00     0.010 A 
ATOM     39  C   UNL A   1      41.584  25.476  27.710  1.00  0.00     0.010 A 
ATOM     40  C   UNL A   1      41.865  26.851  27.642  1.00  0.00    -0.014 A 
BRANCH  40  41
ATOM     41  C   UNL A   1      41.525  27.753  28.770  1.00  0.00     0.031 A 
ATOM     42  C   UNL A   1      42.394  27.780  30.001  1.00  0.00     0.074 A 
ATOM     43  C   UNL A   1      40.484  28.599  28.672  1.00  0.00     0.049 A 
ATOM     44  N   UNL A   1      42.267  28.490  31.094  1.00  0.00    -0.248 NA
ATOM     45  C   UNL A   1      43.577  26.905  29.995  1.00  0.00     0.031 C 
ATOM     46  C   UNL A   1      39.618  28.739  27.504  1.00  0.00     0.029 A 
ATOM     47  N   UNL A   1      39.980  29.498  29.577  1.00  0.00    -0.354 N 
ATOM     48  C   UNL A   1      43.372  28.182  31.877  1.00  0.00     0.074 A 
ATOM     49  C   UNL A   1      44.144  27.194  31.156  1.00  0.00     0.031 C 
ATOM     50  C   UNL A   1      38.681  29.665  27.766  1.00  0.00     0.029 A 
ATOM     51  C   UNL A   1      38.845  30.133  29.140  1.00  0.00     0.049 A 
ATOM     52  H   UNL A   1      40.392  29.671  30.454  1.00  0.00     0.167 HD
ATOM     53  C   UNL A   1      43.713  28.672  33.092  1.00  0.00     0.037 A 
ATOM     54  C   UNL A   1      38.003  30.958  29.792  1.00  0.00     0.037 A 
ATOM     55  C   UNL A   1      42.914  29.598  33.846  1.00  0.00     0.049 A 
ATOM     56  C   UNL A   1      38.287  31.318  31.225  1.00  0.00     0.074 A 
ATOM     57  C   UNL A   1      43.151  30.122  35.104  1.00  0.00     0.029 A 
ATOM     58  N   UNL A   1      41.701  30.115  33.417  1.00  0.00    -0.354 N 
ATOM     59  N   UNL A   1      39.326  31.017  31.963  1.00  0.00    -0.248 NA
ATOM     60  C   UNL A   1      37.267  32.113  31.922  1.00  0.00     0.031 C 
ATOM     61  C   UNL A   1      42.045  30.899  35.467  1.00  0.00     0.029 A 
ATOM     62  C   UNL A   1      41.146  30.903  34.413  1.00  0.00     0.049 A 
ATOM     63  H   UNL A   1      41.295  29.947  32.537  1.00  0.00     0.167 HD
ATOM     64  C   UNL A   1      39.094  31.592  33.204  1.00  0.00     0.074 A 
ATOM     65  C   UNL A   1      37.820  32.274  33.117  1.00  0.00     0.031 C 
ATOM     66  C   UNL A   1      39.868  31.559  34.317  1.00  0.00     0.037 A 
BRANCH  53  67
ATOM     67  C   UNL A   1      44.981  28.166  33.710  1.00  0.00     0.064 A 
ATOM     68  C   UNL A   1      45.004  27.003  34.493  1.00  0.00     0.173 A 
ATOM     69  C   UNL A   1      46.193  28.836  33.485  1.00  0.00     0.173 A 
ATOM     70  F   UNL A   1      43.870  26.336  34.746  1.00  0.00    -0.203 F 
ATOM     71  C   UNL A   1      46.198  26.534  35.038  1.00  0.00     0.198 A 
ATOM     72  C   UNL A   1      47.385  28.353  34.017  1.00  0.00     0.198 A 
ATOM     73  F   UNL A   1      46.220  29.954  32.745  1.00  0.00    -0.203 F 
ATOM     74  F   UNL A   1      46.197  25.435  35.806  1.00  0.00    -0.200 F 
ATOM     75  C   UNL A   1      47.387  27.205  34.795  1.00  0.00     0.200 A 
ATOM     76  F   UNL A   1      48.534  29.002  33.777  1.00  0.00    -0.200 F 
ATOM     77  F   UNL A   1      48.535  26.750  35.315  1.00  0.00    -0.200 F 
ENDBRANCH  53  67
BRANCH  54  78
ATOM     78  C   UNL A   1      36.772  31.434  29.112  1.00  0.00     0.064 A 
ATOM     79  C   UNL A   1      36.640  32.761  28.689  1.00  0.00     0.173 A 
ATOM     80  C   UNL A   1      35.701  30.560  28.868  1.00  0.00     0.173 A 
ATOM     81  F   UNL A   1      37.623  33.642  28.928  1.00  0.00    -0.203 F 
ATOM     82  C   UNL A   1      35.483  33.198  28.045  1.00  0.00     0.198 A 
ATOM     83  C   UNL A   1      34.559  30.988  28.199  1.00  0.00     0.198 A 
ATOM     84  F   UNL A   1      35.774  29.280  29.264  1.00  0.00    -0.203 F 
ATOM     85  F   UNL A   1      35.366  34.481  27.678  1.00  0.00    -0.200 F 
ATOM     86  C   UNL A   1      34.449  32.309  27.791  1.00  0.00     0.200 A 
ATOM     87  F   UNL A   1      33.567  30.123  27.946  1.00  0.00    -0.200 F 
ATOM     88  F   UNL A   1      33.342  32.726  27.161  1.00  0.00    -0.200 F 
ENDBRANCH  54  78
BRANCH  66  89
ATOM     89  C   UNL A   1      39.358  32.278  35.530  1.00  0.00     0.064 A 
ATOM     90  C   UNL A   1      39.636  33.636  35.743  1.00  0.00     0.173 A 
ATOM     91  C   UNL A   1      38.556  31.614  36.470  1.00  0.00     0.173 A 
ATOM     92  F   UNL A   1      40.411  34.311  34.881  1.00  0.00    -0.203 F 
ATOM     93  C   UNL A   1      39.146  34.297  36.866  1.00  0.00     0.198 A 
ATOM     94  C   UNL A   1      38.045  32.285  37.576  1.00  0.00     0.198 A 
ATOM     95  F   UNL A   1      38.257  30.317  36.306  1.00  0.00    -0.203 F 
ATOM     96  F   UNL A   1      39.458  35.584  37.072  1.00  0.00    -0.200 F 
ATOM     97  C   UNL A   1      38.346  33.624  37.778  1.00  0.00     0.200 A 
ATOM     98  F   UNL A   1      37.264  31.637  38.450  1.00  0.00    -0.200 F 
ATOM     99  F   UNL A   1      37.872  34.264  38.855  1.00  0.00    -0.200 F 
ENDBRANCH  66  89
ENDBRANCH  40  41
ENDBRANCH  33  35
ENDBRANCH  32  33
ENDBRANCH  31  32
ENDBRANCH  30  31
ENDBRANCH  29  30
ENDBRANCH  28  29
ENDBRANCH   1  28
TORSDOF 21
ENDMDL
MODEL 2
REMARK VINA RESULT:     -11.1      2.064      7.929
REMARK SMILES Cn1cc(/C=C/C(=O)Nc2ccc(C(=O)OCCOCCOCCOC(=O)c3ccc(-c4c5nc(c(-c6c(F)c(F)c(F)c(F)c6F)c6ccc([nH]6)c(-c6c(F)c(F)c(F)c(F)c6F)c6nc(c(-c7c(F)c(F)c(F)c(F)c7F)c7ccc4[nH]7)C=C6)C=C5)cc3)c(O)c2)cn1
REMARK SMILES IDX 20 1 19 2 18 3 17 4 16 5 14 6 15 7 13 8 10 9 11 10 93 11
REMARK SMILES IDX 12 12 91 13 9 14 7 15 8 16 6 18 5 19 4 20 1 21 2 22 3 23
REMARK SMILES IDX 95 24 94 25 92 26 21 28 22 29 23 30 24 31 25 32 26 33 27 34
REMARK SMILES IDX 28 35 29 36 90 37 30 38 89 39 31 40 32 41 33 42 83 43 34 44
REMARK SMILES IDX 88 45 82 46 84 47 35 48 87 49 81 50 80 51 36 53 68 54 48 55
REMARK SMILES IDX 67 56 49 57 52 58 66 59 85 60 50 61 51 62 65 64 86 65 53 66
REMARK SMILES IDX 37 67 38 68 46 69 39 70 40 71 44 72 47 73 41 74 42 75 45 76
REMARK SMILES IDX 43 77 69 78 70 79 78 80 71 81 72 82 76 83 79 84 73 85 74 86
REMARK SMILES IDX 77 87 75 88 54 89 55 90 63 91 56 92 57 93 61 94 64 95 58 96
REMARK SMILES IDX 59 97 62 98 60 99
REMARK H PARENT 9 17 92 27 84 52 52 63
REMARK Flexibility Score: inf
ROOT
ATOM      1  C   UNL A   1      43.966  19.087  25.288  1.00  0.00     0.188 C 
ENDROOT
BRANCH   1   2
ATOM      2  O   UNL A   1      42.645  19.557  25.087  1.00  0.00    -0.376 OA
BRANCH   2   3
ATOM      3  C   UNL A   1      41.959  20.229  26.133  1.00  0.00     0.202 C 
BRANCH   3   4
ATOM      4  C   UNL A   1      41.167  21.493  25.801  1.00  0.00     0.261 C 
BRANCH   4   5
ATOM      5  O   UNL A   1      39.766  21.375  26.108  1.00  0.00    -0.460 OA
BRANCH   5   6
ATOM      6  C   UNL A   1      39.153  22.538  26.437  1.00  0.00     0.341 C 
ATOM      7  O   UNL A   1      39.671  23.509  26.979  1.00  0.00    -0.246 OA
BRANCH   6   8
ATOM      8  C   UNL A   1      37.776  22.571  25.906  1.00  0.00     0.101 A 
ATOM      9  C   UNL A   1      35.106  22.773  25.058  1.00  0.00     0.045 A 
ATOM     10  C   UNL A   1      35.749  23.882  25.611  1.00  0.00     0.027 A 
ATOM     11  C   UNL A   1      35.804  21.568  24.924  1.00  0.00     0.073 A 
ATOM     12  C   UNL A   1      37.070  23.773  26.052  1.00  0.00     0.022 A 
ATOM     13  C   UNL A   1      37.147  21.480  25.301  1.00  0.00     0.132 A 
BRANCH   9  14
ATOM     14  N   UNL A   1      33.749  22.792  24.696  1.00  0.00    -0.322 N 
ATOM     15  C   UNL A   1      33.042  21.968  23.866  1.00  0.00     0.248 C 
ATOM     16  O   UNL A   1      32.017  22.361  23.316  1.00  0.00    -0.270 OA
ATOM     17  H   UNL A   1      33.223  23.517  25.105  1.00  0.00     0.170 HD
BRANCH  15  18
ATOM     18  C   UNL A   1      33.426  20.539  23.727  1.00  0.00     0.072 C 
ATOM     19  C   UNL A   1      32.849  19.607  24.502  1.00  0.00     0.017 C 
BRANCH  19  20
ATOM     20  C   UNL A   1      32.973  18.197  24.379  1.00  0.00     0.013 A 
ATOM     21  C   UNL A   1      32.639  14.817  25.562  1.00  0.00     0.173 C 
ATOM     22  N   UNL A   1      32.859  16.069  24.881  1.00  0.00    -0.275 N 
ATOM     23  C   UNL A   1      32.712  17.319  25.406  1.00  0.00     0.116 A 
ATOM     24  N   UNL A   1      33.268  16.075  23.599  1.00  0.00    -0.181 NA
ATOM     25  C   UNL A   1      33.303  17.375  23.283  1.00  0.00     0.143 A 
ENDBRANCH  19  20
ENDBRANCH  15  18
ENDBRANCH   9  14
BRANCH  13  26
ATOM     26  O   UNL A   1      37.773  20.296  25.036  1.00  0.00    -0.507 OA
ATOM     27  H   UNL A   1      37.637  19.866  24.214  1.00  0.00     0.293 HD
ENDBRANCH  13  26
ENDBRANCH   6   8
ENDBRANCH   5   6
ENDBRANCH   4   5
ENDBRANCH   3   4
ENDBRANCH   2   3
ENDBRANCH   1   2
BRANCH   1  28
ATOM     28  C   UNL A   1      45.161  19.747  24.566  1.00  0.00     0.188 C 
BRANCH  28  29
ATOM     29  O   UNL A   1      45.886  20.781  25.211  1.00  0.00    -0.376 OA
BRANCH  29  30
ATOM     30  C   UNL A   1      45.202  22.005  25.480  1.00  0.00     0.202 C 
BRANCH  30  31
ATOM     31  C   UNL A   1      44.766  22.819  24.265  1.00  0.00     0.261 C 
BRANCH  31  32
ATOM     32  O   UNL A   1      43.883  23.878  24.674  1.00  0.00    -0.460 OA
BRANCH  32  33
ATOM     33  C   UNL A   1      44.513  25.000  25.063  1.00  0.00     0.338 C 
ATOM     34  O   UNL A   1      45.629  25.381  24.727  1.00  0.00    -0.246 OA
BRANCH  33  35
ATOM     35  C   UNL A   1      43.629  25.819  25.902  1.00  0.00     0.060 A 
ATOM     36  C   UNL A   1      43.985  27.142  26.178  1.00  0.00     0.016 A 
ATOM     37  C   UNL A   1      42.582  25.208  26.593  1.00  0.00     0.016 A 
ATOM     38  C   UNL A   1      43.355  27.828  27.215  1.00  0.00     0.010 A 
ATOM     39  C   UNL A   1      41.928  25.912  27.609  1.00  0.00     0.010 A 
ATOM     40  C   UNL A   1      42.351  27.203  27.967  1.00  0.00    -0.014 A 
BRANCH  40  41
ATOM     41  C   UNL A   1      41.841  27.855  29.199  1.00  0.00     0.031 A 
ATOM     42  C   UNL A   1      40.594  28.700  29.143  1.00  0.00     0.074 A 
ATOM     43  C   UNL A   1      42.444  27.638  30.382  1.00  0.00     0.049 A 
ATOM     44  N   UNL A   1      39.990  29.358  30.101  1.00  0.00    -0.248 NA
ATOM     45  C   UNL A   1      39.926  28.806  27.837  1.00  0.00     0.031 C 
ATOM     46  C   UNL A   1      43.601  26.771  30.592  1.00  0.00     0.029 A 
ATOM     47  N   UNL A   1      42.165  28.138  31.628  1.00  0.00    -0.354 N 
ATOM     48  C   UNL A   1      38.854  29.910  29.524  1.00  0.00     0.074 A 
ATOM     49  C   UNL A   1      38.867  29.546  28.125  1.00  0.00     0.031 C 
ATOM     50  C   UNL A   1      43.941  26.806  31.891  1.00  0.00     0.029 A 
ATOM     51  C   UNL A   1      43.064  27.745  32.587  1.00  0.00     0.049 A 
ATOM     52  H   UNL A   1      41.394  28.720  31.817  1.00  0.00     0.167 HD
ATOM     53  C   UNL A   1      37.888  30.660  30.105  1.00  0.00     0.037 A 
ATOM     54  C   UNL A   1      43.198  28.138  33.868  1.00  0.00     0.037 A 
ATOM     55  C   UNL A   1      37.907  31.087  31.476  1.00  0.00     0.049 A 
ATOM     56  C   UNL A   1      42.237  29.148  34.433  1.00  0.00     0.074 A 
ATOM     57  C   UNL A   1      36.999  31.884  32.149  1.00  0.00     0.029 A 
ATOM     58  N   UNL A   1      38.911  30.773  32.380  1.00  0.00    -0.354 N 
ATOM     59  N   UNL A   1      41.172  29.675  33.882  1.00  0.00    -0.248 NA
ATOM     60  C   UNL A   1      42.512  29.636  35.792  1.00  0.00     0.031 C 
ATOM     61  C   UNL A   1      37.490  32.111  33.439  1.00  0.00     0.029 A 
ATOM     62  C   UNL A   1      38.677  31.411  33.586  1.00  0.00     0.049 A 
ATOM     63  H   UNL A   1      39.677  30.183  32.192  1.00  0.00     0.167 HD
ATOM     64  C   UNL A   1      40.642  30.545  34.824  1.00  0.00     0.074 A 
ATOM     65  C   UNL A   1      41.496  30.465  35.992  1.00  0.00     0.031 C 
ATOM     66  C   UNL A   1      39.547  31.338  34.732  1.00  0.00     0.037 A 
BRANCH  53  67
ATOM     67  C   UNL A   1      36.756  31.120  29.237  1.00  0.00     0.064 A 
ATOM     68  C   UNL A   1      35.724  30.253  28.853  1.00  0.00     0.173 A 
ATOM     69  C   UNL A   1      36.689  32.456  28.813  1.00  0.00     0.173 A 
ATOM     70  F   UNL A   1      35.751  28.965  29.223  1.00  0.00    -0.203 F 
ATOM     71  C   UNL A   1      34.667  30.706  28.067  1.00  0.00     0.198 A 
ATOM     72  C   UNL A   1      35.622  32.908  28.042  1.00  0.00     0.198 A 
ATOM     73  F   UNL A   1      37.657  33.322  29.152  1.00  0.00    -0.203 F 
ATOM     74  F   UNL A   1      33.701  29.857  27.688  1.00  0.00    -0.200 F 
ATOM     75  C   UNL A   1      34.614  32.034  27.668  1.00  0.00     0.200 A 
ATOM     76  F   UNL A   1      35.572  34.193  27.661  1.00  0.00    -0.200 F 
ATOM     77  F   UNL A   1      33.594  32.470  26.915  1.00  0.00    -0.200 F 
ENDBRANCH  53  67
BRANCH  54  78
ATOM     78  C   UNL A   1      44.336  27.630  34.675  1.00  0.00     0.064 A 
ATOM     79  C   UNL A   1      44.221  26.467  35.446  1.00  0.00     0.173 A 
ATOM     80  C   UNL A   1      45.569  28.300  34.683  1.00  0.00     0.173 A 
ATOM     81  F   UNL A   1      43.053  25.809  35.496  1.00  0.00    -0.203 F 
ATOM     82  C   UNL A   1      45.297  25.993  36.195  1.00  0.00     0.198 A 
ATOM     83  C   UNL A   1      46.652  27.810  35.407  1.00  0.00     0.198 A 
ATOM     84  F   UNL A   1      45.728  29.425  33.969  1.00  0.00    -0.203 F 
ATOM     85  F   UNL A   1      45.153  24.896  36.951  1.00  0.00    -0.200 F 
ATOM     86  C   UNL A   1      46.514  26.659  36.166  1.00  0.00     0.200 A 
ATOM     87  F   UNL A   1      47.828  28.451  35.367  1.00  0.00    -0.200 F 
ATOM     88  F   UNL A   1      47.551  26.195  36.876  1.00  0.00    -0.200 F 
ENDBRANCH  54  78
BRANCH  66  89
ATOM     89  C   UNL A   1      39.209  32.184  35.922  1.00  0.00     0.064 A 
ATOM     90  C   UNL A   1      39.711  33.487  36.058  1.00  0.00     0.173 A 
ATOM     91  C   UNL A   1      38.347  31.704  36.919  1.00  0.00     0.173 A 
ATOM     92  F   UNL A   1      40.552  33.986  35.139  1.00  0.00    -0.203 F 
ATOM     93  C   UNL A   1      39.380  34.269  37.160  1.00  0.00     0.198 A 
ATOM     94  C   UNL A   1      37.996  32.499  38.006  1.00  0.00     0.198 A 
ATOM     95  F   UNL A   1      37.834  30.468  36.830  1.00  0.00    -0.203 F 
ATOM     96  F   UNL A   1      39.905  35.495  37.292  1.00  0.00    -0.200 F 
ATOM     97  C   UNL A   1      38.518  33.777  38.130  1.00  0.00     0.200 A 
ATOM     98  F   UNL A   1      37.154  32.027  38.935  1.00  0.00    -0.200 F 
ATOM     99  F   UNL A   1      38.196  34.534  39.188  1.00  0.00    -0.200 F 
ENDBRANCH  66  89
ENDBRANCH  40  41
ENDBRANCH  33  35
ENDBRANCH  32  33
ENDBRANCH  31  32
ENDBRANCH  30  31
ENDBRANCH  29  30
ENDBRANCH  28  29
ENDBRANCH   1  28
TORSDOF 21
ENDMDL
MODEL 3
REMARK VINA RESULT:     -11.1      2.271      8.051
REMARK SMILES Cn1cc(/C=C/C(=O)Nc2ccc(C(=O)OCCOCCOCCOC(=O)c3ccc(-c4c5nc(c(-c6c(F)c(F)c(F)c(F)c6F)c6ccc([nH]6)c(-c6c(F)c(F)c(F)c(F)c6F)c6nc(c(-c7c(F)c(F)c(F)c(F)c7F)c7ccc4[nH]7)C=C6)C=C5)cc3)c(O)c2)cn1
REMARK SMILES IDX 20 1 19 2 18 3 17 4 16 5 14 6 15 7 13 8 10 9 11 10 93 11
REMARK SMILES IDX 12 12 91 13 9 14 7 15 8 16 6 18 5 19 4 20 1 21 2 22 3 23
REMARK SMILES IDX 95 24 94 25 92 26 21 28 22 29 23 30 24 31 25 32 26 33 27 34
REMARK SMILES IDX 28 35 29 36 90 37 30 38 89 39 31 40 32 41 33 42 83 43 34 44
REMARK SMILES IDX 88 45 82 46 84 47 35 48 87 49 81 50 80 51 36 53 68 54 48 55
REMARK SMILES IDX 67 56 49 57 52 58 66 59 85 60 50 61 51 62 65 64 86 65 53 66
REMARK SMILES IDX 37 67 38 68 46 69 39 70 40 71 44 72 47 73 41 74 42 75 45 76
REMARK SMILES IDX 43 77 69 78 70 79 78 80 71 81 72 82 76 83 79 84 73 85 74 86
REMARK SMILES IDX 77 87 75 88 54 89 55 90 63 91 56 92 57 93 61 94 64 95 58 96
REMARK SMILES IDX 59 97 62 98 60 99
REMARK H PARENT 9 17 92 27 84 52 52 63
REMARK Flexibility Score: inf
ROOT
ATOM      1  C   UNL A   1      44.511  18.931  25.092  1.00  0.00     0.188 C 
ENDROOT
BRANCH   1   2
ATOM      2  O   UNL A   1      43.126  19.224  25.023  1.00  0.00    -0.376 OA
BRANCH   2   3
ATOM      3  C   UNL A   1      42.254  18.800  26.060  1.00  0.00     0.202 C 
BRANCH   3   4
ATOM      4  C   UNL A   1      42.045  19.715  27.267  1.00  0.00     0.261 C 
BRANCH   4   5
ATOM      5  O   UNL A   1      40.774  20.389  27.247  1.00  0.00    -0.460 OA
BRANCH   5   6
ATOM      6  C   UNL A   1      40.846  21.743  27.229  1.00  0.00     0.341 C 
ATOM      7  O   UNL A   1      41.835  22.425  27.474  1.00  0.00    -0.246 OA
BRANCH   6   8
ATOM      8  C   UNL A   1      39.594  22.325  26.707  1.00  0.00     0.101 A 
ATOM      9  C   UNL A   1      37.255  23.333  25.522  1.00  0.00     0.045 A 
ATOM     10  C   UNL A   1      37.726  22.066  25.172  1.00  0.00     0.027 A 
ATOM     11  C   UNL A   1      37.953  24.088  26.471  1.00  0.00     0.073 A 
ATOM     12  C   UNL A   1      38.901  21.575  25.746  1.00  0.00     0.022 A 
ATOM     13  C   UNL A   1      39.089  23.568  27.096  1.00  0.00     0.132 A 
BRANCH   9  14
ATOM     14  N   UNL A   1      36.142  23.921  24.901  1.00  0.00    -0.322 N 
ATOM     15  C   UNL A   1      35.291  23.425  23.953  1.00  0.00     0.248 C 
ATOM     16  O   UNL A   1      34.669  24.181  23.211  1.00  0.00    -0.270 OA
ATOM     17  H   UNL A   1      35.942  24.840  25.195  1.00  0.00     0.170 HD
BRANCH  15  18
ATOM     18  C   UNL A   1      34.999  21.969  23.900  1.00  0.00     0.072 C 
ATOM     19  C   UNL A   1      34.167  21.415  24.797  1.00  0.00     0.017 C 
BRANCH  19  20
ATOM     20  C   UNL A   1      33.652  20.091  24.781  1.00  0.00     0.013 A 
ATOM     21  C   UNL A   1      33.971  16.509  24.708  1.00  0.00     0.173 C 
ATOM     22  N   UNL A   1      33.601  17.902  24.748  1.00  0.00    -0.275 N 
ATOM     23  C   UNL A   1      34.438  18.971  24.623  1.00  0.00     0.116 A 
ATOM     24  N   UNL A   1      32.311  18.251  24.905  1.00  0.00    -0.181 NA
ATOM     25  C   UNL A   1      32.348  19.587  24.960  1.00  0.00     0.143 A 
ENDBRANCH  19  20
ENDBRANCH  15  18
ENDBRANCH   9  14
BRANCH  13  26
ATOM     26  O   UNL A   1      39.641  24.334  28.083  1.00  0.00    -0.507 OA
ATOM     27  H   UNL A   1      39.779  25.250  27.944  1.00  0.00     0.293 HD
ENDBRANCH  13  26
ENDBRANCH   6   8
ENDBRANCH   5   6
ENDBRANCH   4   5
ENDBRANCH   3   4
ENDBRANCH   2   3
ENDBRANCH   1   2
BRANCH   1  28
ATOM     28  C   UNL A   1      45.544  19.805  24.349  1.00  0.00     0.188 C 
BRANCH  28  29
ATOM     29  O   UNL A   1      46.178  20.874  25.033  1.00  0.00    -0.376 OA
BRANCH  29  30
ATOM     30  C   UNL A   1      45.353  21.926  25.533  1.00  0.00     0.202 C 
BRANCH  30  31
ATOM     31  C   UNL A   1      44.854  22.942  24.510  1.00  0.00     0.261 C 
BRANCH  31  32
ATOM     32  O   UNL A   1      44.006  23.911  25.152  1.00  0.00    -0.460 OA
BRANCH  32  33
ATOM     33  C   UNL A   1      44.541  25.142  25.232  1.00  0.00     0.338 C 
ATOM     34  O   UNL A   1      45.537  25.559  24.652  1.00  0.00    -0.246 OA
BRANCH  33  35
ATOM     35  C   UNL A   1      43.696  26.014  26.058  1.00  0.00     0.060 A 
ATOM     36  C   UNL A   1      44.209  27.235  26.504  1.00  0.00     0.016 A 
ATOM     37  C   UNL A   1      42.498  25.518  26.574  1.00  0.00     0.016 A 
ATOM     38  C   UNL A   1      43.571  27.918  27.538  1.00  0.00     0.010 A 
ATOM     39  C   UNL A   1      41.841  26.225  27.585  1.00  0.00     0.010 A 
ATOM     40  C   UNL A   1      42.406  27.396  28.117  1.00  0.00    -0.014 A 
BRANCH  40  41
ATOM     41  C   UNL A   1      41.858  28.011  29.352  1.00  0.00     0.031 A 
ATOM     42  C   UNL A   1      40.593  28.827  29.289  1.00  0.00     0.074 A 
ATOM     43  C   UNL A   1      42.447  27.786  30.540  1.00  0.00     0.049 A 
ATOM     44  N   UNL A   1      39.956  29.450  30.250  1.00  0.00    -0.248 NA
ATOM     45  C   UNL A   1      39.945  28.943  27.974  1.00  0.00     0.031 C 
ATOM     46  C   UNL A   1      43.621  26.944  30.754  1.00  0.00     0.029 A 
ATOM     47  N   UNL A   1      42.133  28.254  31.791  1.00  0.00    -0.354 N 
ATOM     48  C   UNL A   1      38.817  29.987  29.663  1.00  0.00     0.074 A 
ATOM     49  C   UNL A   1      38.863  29.651  28.257  1.00  0.00     0.031 C 
ATOM     50  C   UNL A   1      43.936  26.961  32.059  1.00  0.00     0.029 A 
ATOM     51  C   UNL A   1      43.025  27.864  32.758  1.00  0.00     0.049 A 
ATOM     52  H   UNL A   1      41.346  28.814  31.977  1.00  0.00     0.167 HD
ATOM     53  C   UNL A   1      37.823  30.701  30.241  1.00  0.00     0.037 A 
ATOM     54  C   UNL A   1      43.127  28.235  34.049  1.00  0.00     0.037 A 
ATOM     55  C   UNL A   1      37.808  31.101  31.621  1.00  0.00     0.049 A 
ATOM     56  C   UNL A   1      42.132  29.209  34.616  1.00  0.00     0.074 A 
ATOM     57  C   UNL A   1      36.868  31.861  32.293  1.00  0.00     0.029 A 
ATOM     58  N   UNL A   1      38.803  30.793  32.536  1.00  0.00    -0.354 N 
ATOM     59  N   UNL A   1      41.064  29.721  34.056  1.00  0.00    -0.248 NA
ATOM     60  C   UNL A   1      42.371  29.677  35.988  1.00  0.00     0.031 C 
ATOM     61  C   UNL A   1      37.331  32.075  33.595  1.00  0.00     0.029 A 
ATOM     62  C   UNL A   1      38.532  31.402  33.750  1.00  0.00     0.049 A 
ATOM     63  H   UNL A   1      39.586  30.226  32.350  1.00  0.00     0.167 HD
ATOM     64  C   UNL A   1      40.497  30.559  35.006  1.00  0.00     0.074 A 
ATOM     65  C   UNL A   1      41.332  30.477  36.186  1.00  0.00     0.031 C 
ATOM     66  C   UNL A   1      39.384  31.327  34.909  1.00  0.00     0.037 A 
BRANCH  53  67
ATOM     67  C   UNL A   1      36.695  31.151  29.362  1.00  0.00     0.064 A 
ATOM     68  C   UNL A   1      36.576  32.483  28.943  1.00  0.00     0.173 A 
ATOM     69  C   UNL A   1      35.742  30.227  28.907  1.00  0.00     0.173 A 
ATOM     70  F   UNL A   1      37.454  33.405  29.362  1.00  0.00    -0.203 F 
ATOM     71  C   UNL A   1      35.535  32.877  28.106  1.00  0.00     0.198 A 
ATOM     72  C   UNL A   1      34.715  30.622  28.056  1.00  0.00     0.198 A 
ATOM     73  F   UNL A   1      35.814  28.942  29.284  1.00  0.00    -0.203 F 
ATOM     74  F   UNL A   1      35.421  34.161  27.736  1.00  0.00    -0.200 F 
ATOM     75  C   UNL A   1      34.609  31.946  27.658  1.00  0.00     0.200 A 
ATOM     76  F   UNL A   1      33.824  29.719  27.622  1.00  0.00    -0.200 F 
ATOM     77  F   UNL A   1      33.611  32.325  26.848  1.00  0.00    -0.200 F 
ENDBRANCH  53  67
BRANCH  54  78
ATOM     78  C   UNL A   1      44.264  27.738  34.866  1.00  0.00     0.064 A 
ATOM     79  C   UNL A   1      44.155  26.572  35.632  1.00  0.00     0.173 A 
ATOM     80  C   UNL A   1      45.488  28.424  34.888  1.00  0.00     0.173 A 
ATOM     81  F   UNL A   1      42.995  25.898  35.668  1.00  0.00    -0.203 F 
ATOM     82  C   UNL A   1      45.229  26.109  36.390  1.00  0.00     0.198 A 
ATOM     83  C   UNL A   1      46.569  27.945  35.622  1.00  0.00     0.198 A 
ATOM     84  F   UNL A   1      45.639  29.553  34.180  1.00  0.00    -0.203 F 
ATOM     85  F   UNL A   1      45.091  25.008  37.141  1.00  0.00    -0.200 F 
ATOM     86  C   UNL A   1      46.438  26.790  36.376  1.00  0.00     0.200 A 
ATOM     87  F   UNL A   1      47.738  28.601  35.595  1.00  0.00    -0.200 F 
ATOM     88  F   UNL A   1      47.474  26.337  37.095  1.00  0.00    -0.200 F 
ENDBRANCH  54  78
BRANCH  66  89
ATOM     89  C   UNL A   1      39.004  32.141  36.109  1.00  0.00     0.064 A 
ATOM     90  C   UNL A   1      38.171  31.621  37.110  1.00  0.00     0.173 A 
ATOM     91  C   UNL A   1      39.507  33.439  36.280  1.00  0.00     0.173 A 
ATOM     92  F   UNL A   1      37.652  30.390  36.985  1.00  0.00    -0.203 F 
ATOM     93  C   UNL A   1      37.836  32.381  38.227  1.00  0.00     0.198 A 
ATOM     94  C   UNL A   1      39.193  34.186  37.411  1.00  0.00     0.198 A 
ATOM     95  F   UNL A   1      40.314  33.978  35.354  1.00  0.00    -0.203 F 
ATOM     96  F   UNL A   1      37.003  31.880  39.151  1.00  0.00    -0.200 F 
ATOM     97  C   UNL A   1      38.352  33.660  38.380  1.00  0.00     0.200 A 
ATOM     98  F   UNL A   1      39.701  35.416  37.563  1.00  0.00    -0.200 F 
ATOM     99  F   UNL A   1      38.032  34.387  39.459  1.00  0.00    -0.200 F 
ENDBRANCH  66  89
ENDBRANCH  40  41
ENDBRANCH  33  35
ENDBRANCH  32  33
ENDBRANCH  31  32
ENDBRANCH  30  31
ENDBRANCH  29  30
ENDBRANCH  28  29
ENDBRANCH   1  28
TORSDOF 21
ENDMDL
