MODEL 1
REMARK VINA RESULT:     -10.1      0.000      0.000
REMARK SMILES CC[C@@H](C)[C@@H](NC(=O)C(F)(F)F)C(=O)OCCOCCOCCOC(=O)c1ccc(-c2c3nc(c(-c4c(F)c(F)c(F)c(F)c4F)c4ccc([nH]4)c(-c4c(F)c(F)c(F)c(F)c4F)c4nc(c(-c5c(F)c(F)c(F)c(F)c5F)c5ccc2[nH]5)C=C4)C=C3)cc1
REMARK SMILES IDX 19 1 18 2 17 3 16 4 15 5 13 6 14 7 5 8 3 9 4 10 2 11 1 12
REMARK SMILES IDX 6 13 7 14 8 16 9 17 10 18 11 19 12 20 20 21 21 22 22 23
REMARK SMILES IDX 23 24 24 25 25 26 26 27 27 28 28 29 89 30 29 31 88 32 30 33
REMARK SMILES IDX 31 34 32 35 82 36 33 37 87 38 81 39 83 40 34 41 86 42 80 43
REMARK SMILES IDX 79 44 35 46 67 47 47 48 66 49 48 50 51 51 65 52 84 53 49 54
REMARK SMILES IDX 50 55 64 57 85 58 52 59 36 60 37 61 45 62 38 63 39 64 43 65
REMARK SMILES IDX 46 66 40 67 41 68 44 69 42 70 68 71 69 72 77 73 70 74 71 75
REMARK SMILES IDX 75 76 78 77 72 78 73 79 76 80 74 81 53 82 54 83 62 84 55 85
REMARK SMILES IDX 56 86 60 87 63 88 57 89 58 90 61 91 59 92
REMARK H PARENT 6 15 83 45 51 56
REMARK Flexibility Score: inf
ROOT
ATOM      1  C   UNL A   1      39.193  22.024  26.331  1.00  0.00     0.188 C 
ENDROOT
BRANCH   1   2
ATOM      2  O   UNL A   1      37.923  21.903  25.711  1.00  0.00    -0.376 OA
BRANCH   2   3
ATOM      3  C   UNL A   1      37.553  22.817  24.682  1.00  0.00     0.202 C 
BRANCH   3   4
ATOM      4  C   UNL A   1      36.057  23.052  24.441  1.00  0.00     0.261 C 
BRANCH   4   5
ATOM      5  O   UNL A   1      35.506  24.319  24.905  1.00  0.00    -0.462 OA
BRANCH   5   6
ATOM      6  C   UNL A   1      34.509  24.230  25.826  1.00  0.00     0.329 C 
ATOM      7  O   UNL A   1      34.447  23.349  26.680  1.00  0.00    -0.250 OA
BRANCH   6   8
ATOM      8  C   UNL A   1      33.331  25.218  25.631  1.00  0.00     0.195 C 
BRANCH   8   9
ATOM      9  C   UNL A   1      33.446  26.779  25.520  1.00  0.00     0.019 C 
ATOM     10  C   UNL A   1      32.295  27.525  26.195  1.00  0.00     0.010 C 
BRANCH   9  11
ATOM     11  C   UNL A   1      33.482  27.173  24.003  1.00  0.00     0.002 C 
ATOM     12  C   UNL A   1      33.970  28.579  23.660  1.00  0.00     0.004 C 
ENDBRANCH   9  11
ENDBRANCH   8   9
BRANCH   8  13
ATOM     13  N   UNL A   1      32.294  24.663  24.731  1.00  0.00    -0.335 N 
ATOM     14  C   UNL A   1      31.213  23.845  24.948  1.00  0.00     0.326 C 
ATOM     15  H   UNL A   1      32.402  24.933  23.791  1.00  0.00     0.164 HD
ATOM     16  O   UNL A   1      30.739  23.311  23.936  1.00  0.00    -0.265 OA
BRANCH  14  17
ATOM     17  C   UNL A   1      30.574  23.659  26.342  1.00  0.00     0.471 C 
ATOM     18  F   UNL A   1      29.640  24.609  26.617  1.00  0.00    -0.162 F 
ATOM     19  F   UNL A   1      29.956  22.451  26.467  1.00  0.00    -0.162 F 
ATOM     20  F   UNL A   1      31.479  23.712  27.358  1.00  0.00    -0.162 F 
ENDBRANCH  14  17
ENDBRANCH   8  13
ENDBRANCH   6   8
ENDBRANCH   5   6
ENDBRANCH   4   5
ENDBRANCH   3   4
ENDBRANCH   2   3
ENDBRANCH   1   2
BRANCH   1  21
ATOM     21  C   UNL A   1      40.115  20.814  26.328  1.00  0.00     0.188 C 
BRANCH  21  22
ATOM     22  O   UNL A   1      41.427  21.084  26.779  1.00  0.00    -0.376 OA
BRANCH  22  23
ATOM     23  C   UNL A   1      42.500  20.444  26.104  1.00  0.00     0.202 C 
BRANCH  23  24
ATOM     24  C   UNL A   1      43.456  21.438  25.435  1.00  0.00     0.261 C 
BRANCH  24  25
ATOM     25  O   UNL A   1      42.843  22.693  25.077  1.00  0.00    -0.460 OA
BRANCH  25  26
ATOM     26  C   UNL A   1      43.641  23.788  25.079  1.00  0.00     0.338 C 
ATOM     27  O   UNL A   1      44.553  24.037  24.310  1.00  0.00    -0.246 OA
BRANCH  26  28
ATOM     28  C   UNL A   1      43.031  24.780  25.995  1.00  0.00     0.060 A 
ATOM     29  C   UNL A   1      43.550  26.085  26.014  1.00  0.00     0.016 A 
ATOM     30  C   UNL A   1      41.917  24.453  26.768  1.00  0.00     0.016 A 
ATOM     31  C   UNL A   1      42.977  27.055  26.839  1.00  0.00     0.010 A 
ATOM     32  C   UNL A   1      41.357  25.416  27.608  1.00  0.00     0.010 A 
ATOM     33  C   UNL A   1      41.906  26.711  27.674  1.00  0.00    -0.014 A 
BRANCH  33  34
ATOM     34  C   UNL A   1      41.508  27.611  28.783  1.00  0.00     0.031 A 
ATOM     35  C   UNL A   1      42.302  27.538  30.059  1.00  0.00     0.074 A 
ATOM     36  C   UNL A   1      40.482  28.472  28.675  1.00  0.00     0.049 A 
ATOM     37  N   UNL A   1      42.099  28.133  31.205  1.00  0.00    -0.248 NA
ATOM     38  C   UNL A   1      43.487  26.664  30.035  1.00  0.00     0.031 C 
ATOM     39  C   UNL A   1      39.670  28.679  27.480  1.00  0.00     0.029 A 
ATOM     40  N   UNL A   1      39.941  29.326  29.605  1.00  0.00    -0.354 N 
ATOM     41  C   UNL A   1      43.121  27.698  32.038  1.00  0.00     0.074 A 
ATOM     42  C   UNL A   1      43.925  26.767  31.280  1.00  0.00     0.031 C 
ATOM     43  C   UNL A   1      38.719  29.590  27.754  1.00  0.00     0.029 A 
ATOM     44  C   UNL A   1      38.833  29.999  29.155  1.00  0.00     0.049 A 
ATOM     45  H   UNL A   1      40.313  29.445  30.508  1.00  0.00     0.167 HD
ATOM     46  C   UNL A   1      43.371  28.048  33.321  1.00  0.00     0.037 A 
ATOM     47  C   UNL A   1      37.991  30.824  29.811  1.00  0.00     0.037 A 
ATOM     48  C   UNL A   1      42.569  28.970  34.079  1.00  0.00     0.049 A 
ATOM     49  C   UNL A   1      38.242  31.134  31.267  1.00  0.00     0.074 A 
ATOM     50  C   UNL A   1      42.740  29.389  35.386  1.00  0.00     0.029 A 
ATOM     51  N   UNL A   1      41.438  29.610  33.596  1.00  0.00    -0.354 N 
ATOM     52  N   UNL A   1      39.212  30.727  32.049  1.00  0.00    -0.248 NA
ATOM     53  C   UNL A   1      37.276  32.023  31.932  1.00  0.00     0.031 C 
ATOM     54  C   UNL A   1      41.683  30.245  35.711  1.00  0.00     0.029 A 
ATOM     55  C   UNL A   1      40.887  30.405  34.587  1.00  0.00     0.049 A 
ATOM     56  H   UNL A   1      41.080  29.514  32.684  1.00  0.00     0.167 HD
ATOM     57  C   UNL A   1      38.991  31.329  33.282  1.00  0.00     0.074 A 
ATOM     58  C   UNL A   1      37.802  32.142  33.143  1.00  0.00     0.031 C 
ATOM     59  C   UNL A   1      39.709  31.220  34.428  1.00  0.00     0.037 A 
BRANCH  46  60
ATOM     60  C   UNL A   1      44.547  27.401  33.993  1.00  0.00     0.064 A 
ATOM     61  C   UNL A   1      44.430  26.178  34.668  1.00  0.00     0.173 A 
ATOM     62  C   UNL A   1      45.811  28.009  33.947  1.00  0.00     0.173 A 
ATOM     63  F   UNL A   1      43.239  25.567  34.759  1.00  0.00    -0.203 F 
ATOM     64  C   UNL A   1      45.530  25.599  35.296  1.00  0.00     0.198 A 
ATOM     65  C   UNL A   1      46.914  27.412  34.548  1.00  0.00     0.198 A 
ATOM     66  F   UNL A   1      45.976  29.181  33.315  1.00  0.00    -0.203 F 
ATOM     67  F   UNL A   1      45.384  24.457  35.982  1.00  0.00    -0.200 F 
ATOM     68  C   UNL A   1      46.772  26.213  35.230  1.00  0.00     0.200 A 
ATOM     69  F   UNL A   1      48.116  28.001  34.475  1.00  0.00    -0.200 F 
ATOM     70  F   UNL A   1      47.831  25.652  35.830  1.00  0.00    -0.200 F 
ENDBRANCH  46  60
BRANCH  47  71
ATOM     71  C   UNL A   1      36.811  31.399  29.111  1.00  0.00     0.064 A 
ATOM     72  C   UNL A   1      36.757  32.760  28.776  1.00  0.00     0.173 A 
ATOM     73  C   UNL A   1      35.697  30.607  28.795  1.00  0.00     0.173 A 
ATOM     74  F   UNL A   1      37.783  33.566  29.086  1.00  0.00    -0.203 F 
ATOM     75  C   UNL A   1      35.627  33.309  28.172  1.00  0.00     0.198 A 
ATOM     76  C   UNL A   1      34.580  31.151  28.164  1.00  0.00     0.198 A 
ATOM     77  F   UNL A   1      35.692  29.301  29.102  1.00  0.00    -0.203 F 
ATOM     78  F   UNL A   1      35.580  34.623  27.915  1.00  0.00    -0.200 F 
ATOM     79  C   UNL A   1      34.542  32.503  27.862  1.00  0.00     0.200 A 
ATOM     80  F   UNL A   1      33.537  30.368  27.859  1.00  0.00    -0.200 F 
ATOM     81  F   UNL A   1      33.455  33.033  27.283  1.00  0.00    -0.200 F 
ENDBRANCH  47  71
BRANCH  59  82
ATOM     82  C   UNL A   1      39.260  32.031  35.611  1.00  0.00     0.064 A 
ATOM     83  C   UNL A   1      39.642  33.369  35.779  1.00  0.00     0.173 A 
ATOM     84  C   UNL A   1      38.390  31.473  36.561  1.00  0.00     0.173 A 
ATOM     85  F   UNL A   1      40.481  33.947  34.905  1.00  0.00    -0.203 F 
ATOM     86  C   UNL A   1      39.192  34.111  36.869  1.00  0.00     0.198 A 
ATOM     87  C   UNL A   1      37.917  32.227  37.631  1.00  0.00     0.198 A 
ATOM     88  F   UNL A   1      37.984  30.200  36.443  1.00  0.00    -0.203 F 
ATOM     89  F   UNL A   1      39.608  35.374  37.034  1.00  0.00    -0.200 F 
ATOM     90  C   UNL A   1      38.323  33.543  37.788  1.00  0.00     0.200 A 
ATOM     91  F   UNL A   1      37.063  31.681  38.509  1.00  0.00    -0.200 F 
ATOM     92  F   UNL A   1      37.883  34.262  38.830  1.00  0.00    -0.200 F 
ENDBRANCH  59  82
ENDBRANCH  33  34
ENDBRANCH  26  28
ENDBRANCH  25  26
ENDBRANCH  24  25
ENDBRANCH  23  24
ENDBRANCH  22  23
ENDBRANCH  21  22
ENDBRANCH   1  21
TORSDOF 21
ENDMDL
MODEL 2
REMARK VINA RESULT:      -9.9      1.287      2.308
REMARK SMILES CC[C@@H](C)[C@@H](NC(=O)C(F)(F)F)C(=O)OCCOCCOCCOC(=O)c1ccc(-c2c3nc(c(-c4c(F)c(F)c(F)c(F)c4F)c4ccc([nH]4)c(-c4c(F)c(F)c(F)c(F)c4F)c4nc(c(-c5c(F)c(F)c(F)c(F)c5F)c5ccc2[nH]5)C=C4)C=C3)cc1
REMARK SMILES IDX 19 1 18 2 17 3 16 4 15 5 13 6 14 7 5 8 3 9 4 10 2 11 1 12
REMARK SMILES IDX 6 13 7 14 8 16 9 17 10 18 11 19 12 20 20 21 21 22 22 23
REMARK SMILES IDX 23 24 24 25 25 26 26 27 27 28 28 29 89 30 29 31 88 32 30 33
REMARK SMILES IDX 31 34 32 35 82 36 33 37 87 38 81 39 83 40 34 41 86 42 80 43
REMARK SMILES IDX 79 44 35 46 67 47 47 48 66 49 48 50 51 51 65 52 84 53 49 54
REMARK SMILES IDX 50 55 64 57 85 58 52 59 36 60 37 61 45 62 38 63 39 64 43 65
REMARK SMILES IDX 46 66 40 67 41 68 44 69 42 70 68 71 69 72 77 73 70 74 71 75
REMARK SMILES IDX 75 76 78 77 72 78 73 79 76 80 74 81 53 82 54 83 62 84 55 85
REMARK SMILES IDX 56 86 60 87 63 88 57 89 58 90 61 91 59 92
REMARK H PARENT 6 15 83 45 51 56
REMARK Flexibility Score: inf
ROOT
ATOM      1  C   UNL A   1      38.943  21.674  25.880  1.00  0.00     0.188 C 
ENDROOT
BRANCH   1   2
ATOM      2  O   UNL A   1      38.018  20.996  25.046  1.00  0.00    -0.376 OA
BRANCH   2   3
ATOM      3  C   UNL A   1      36.681  21.480  24.939  1.00  0.00     0.202 C 
BRANCH   3   4
ATOM      4  C   UNL A   1      35.543  20.516  25.297  1.00  0.00     0.261 C 
BRANCH   4   5
ATOM      5  O   UNL A   1      34.376  21.090  25.954  1.00  0.00    -0.462 OA
BRANCH   5   6
ATOM      6  C   UNL A   1      33.169  20.734  25.434  1.00  0.00     0.329 C 
ATOM      7  O   UNL A   1      32.849  19.574  25.189  1.00  0.00    -0.250 OA
BRANCH   6   8
ATOM      8  C   UNL A   1      32.262  21.910  24.992  1.00  0.00     0.195 C 
BRANCH   8   9
ATOM      9  C   UNL A   1      31.876  22.272  23.514  1.00  0.00     0.019 C 
ATOM     10  C   UNL A   1      32.099  21.124  22.528  1.00  0.00     0.010 C 
BRANCH   9  11
ATOM     11  C   UNL A   1      32.734  23.502  23.058  1.00  0.00     0.002 C 
ATOM     12  C   UNL A   1      34.146  23.614  23.627  1.00  0.00     0.004 C 
ENDBRANCH   9  11
ENDBRANCH   8   9
BRANCH   8  13
ATOM     13  N   UNL A   1      31.141  22.123  25.936  1.00  0.00    -0.335 N 
ATOM     14  C   UNL A   1      30.563  23.254  26.457  1.00  0.00     0.326 C 
ATOM     15  H   UNL A   1      30.730  21.287  26.254  1.00  0.00     0.164 HD
ATOM     16  O   UNL A   1      29.860  23.077  27.461  1.00  0.00    -0.265 OA
BRANCH  14  17
ATOM     17  C   UNL A   1      30.706  24.643  25.798  1.00  0.00     0.471 C 
ATOM     18  F   UNL A   1      31.996  25.077  25.774  1.00  0.00    -0.162 F 
ATOM     19  F   UNL A   1      30.266  24.647  24.508  1.00  0.00    -0.162 F 
ATOM     20  F   UNL A   1      29.991  25.613  26.430  1.00  0.00    -0.162 F 
ENDBRANCH  14  17
ENDBRANCH   8  13
ENDBRANCH   6   8
ENDBRANCH   5   6
ENDBRANCH   4   5
ENDBRANCH   3   4
ENDBRANCH   2   3
ENDBRANCH   1   2
BRANCH   1  21
ATOM     21  C   UNL A   1      40.066  20.867  26.516  1.00  0.00     0.188 C 
BRANCH  21  22
ATOM     22  O   UNL A   1      41.269  21.587  26.691  1.00  0.00    -0.376 OA
BRANCH  22  23
ATOM     23  C   UNL A   1      42.481  20.942  26.328  1.00  0.00     0.202 C 
BRANCH  23  24
ATOM     24  C   UNL A   1      43.366  21.811  25.427  1.00  0.00     0.261 C 
BRANCH  24  25
ATOM     25  O   UNL A   1      42.794  23.093  25.101  1.00  0.00    -0.460 OA
BRANCH  25  26
ATOM     26  C   UNL A   1      43.613  24.169  25.184  1.00  0.00     0.338 C 
ATOM     27  O   UNL A   1      44.555  24.437  24.458  1.00  0.00    -0.246 OA
BRANCH  26  28
ATOM     28  C   UNL A   1      42.994  25.128  26.129  1.00  0.00     0.060 A 
ATOM     29  C   UNL A   1      43.512  26.430  26.202  1.00  0.00     0.016 A 
ATOM     30  C   UNL A   1      41.871  24.772  26.878  1.00  0.00     0.016 A 
ATOM     31  C   UNL A   1      42.931  27.369  27.055  1.00  0.00     0.010 A 
ATOM     32  C   UNL A   1      41.302  25.704  27.746  1.00  0.00     0.010 A 
ATOM     33  C   UNL A   1      41.850  26.995  27.866  1.00  0.00    -0.014 A 
BRANCH  33  34
ATOM     34  C   UNL A   1      41.441  27.854  29.003  1.00  0.00     0.031 A 
ATOM     35  C   UNL A   1      42.223  27.735  30.283  1.00  0.00     0.074 A 
ATOM     36  C   UNL A   1      40.415  28.717  28.917  1.00  0.00     0.049 A 
ATOM     37  N   UNL A   1      42.008  28.289  31.448  1.00  0.00    -0.248 NA
ATOM     38  C   UNL A   1      43.409  26.864  30.239  1.00  0.00     0.031 C 
ATOM     39  C   UNL A   1      39.614  28.967  27.722  1.00  0.00     0.029 A 
ATOM     40  N   UNL A   1      39.864  29.536  29.872  1.00  0.00    -0.354 N 
ATOM     41  C   UNL A   1      43.023  27.824  32.275  1.00  0.00     0.074 A 
ATOM     42  C   UNL A   1      43.835  26.922  31.490  1.00  0.00     0.031 C 
ATOM     43  C   UNL A   1      38.659  29.866  28.020  1.00  0.00     0.029 A 
ATOM     44  C   UNL A   1      38.759  30.224  29.436  1.00  0.00     0.049 A 
ATOM     45  H   UNL A   1      40.227  29.623  30.782  1.00  0.00     0.167 HD
ATOM     46  C   UNL A   1      43.260  28.128  33.572  1.00  0.00     0.037 A 
ATOM     47  C   UNL A   1      37.910  31.024  30.113  1.00  0.00     0.037 A 
ATOM     48  C   UNL A   1      42.450  29.021  34.355  1.00  0.00     0.049 A 
ATOM     49  C   UNL A   1      38.146  31.281  31.582  1.00  0.00     0.074 A 
ATOM     50  C   UNL A   1      42.608  29.393  35.678  1.00  0.00     0.029 A 
ATOM     51  N   UNL A   1      41.322  29.677  33.885  1.00  0.00    -0.354 N 
ATOM     52  N   UNL A   1      39.110  30.846  32.358  1.00  0.00    -0.248 NA
ATOM     53  C   UNL A   1      37.173  32.145  32.270  1.00  0.00     0.031 C 
ATOM     54  C   UNL A   1      41.546  30.235  36.024  1.00  0.00     0.029 A 
ATOM     55  C   UNL A   1      40.761  30.435  34.899  1.00  0.00     0.049 A 
ATOM     56  H   UNL A   1      40.973  29.614  32.966  1.00  0.00     0.167 HD
ATOM     57  C   UNL A   1      38.876  31.403  33.610  1.00  0.00     0.074 A 
ATOM     58  C   UNL A   1      37.688  32.220  33.489  1.00  0.00     0.031 C 
ATOM     59  C   UNL A   1      39.583  31.254  34.758  1.00  0.00     0.037 A 
BRANCH  46  60
ATOM     60  C   UNL A   1      44.430  27.459  34.231  1.00  0.00     0.064 A 
ATOM     61  C   UNL A   1      45.699  28.057  34.266  1.00  0.00     0.173 A 
ATOM     62  C   UNL A   1      44.276  26.208  34.848  1.00  0.00     0.173 A 
ATOM     63  F   UNL A   1      45.903  29.242  33.673  1.00  0.00    -0.203 F 
ATOM     64  C   UNL A   1      46.776  27.415  34.872  1.00  0.00     0.198 A 
ATOM     65  C   UNL A   1      45.347  25.584  35.480  1.00  0.00     0.198 A 
ATOM     66  F   UNL A   1      43.083  25.593  34.840  1.00  0.00    -0.203 F 
ATOM     67  F   UNL A   1      47.991  27.980  34.847  1.00  0.00    -0.200 F 
ATOM     68  C   UNL A   1      46.598  26.183  35.484  1.00  0.00     0.200 A 
ATOM     69  F   UNL A   1      45.171  24.398  36.080  1.00  0.00    -0.200 F 
ATOM     70  F   UNL A   1      47.634  25.569  36.071  1.00  0.00    -0.200 F 
ENDBRANCH  46  60
BRANCH  47  71
ATOM     71  C   UNL A   1      36.736  31.623  29.423  1.00  0.00     0.064 A 
ATOM     72  C   UNL A   1      35.642  30.835  29.036  1.00  0.00     0.173 A 
ATOM     73  C   UNL A   1      36.700  32.988  29.102  1.00  0.00     0.173 A 
ATOM     74  F   UNL A   1      35.642  29.518  29.290  1.00  0.00    -0.203 F 
ATOM     75  C   UNL A   1      34.568  31.386  28.338  1.00  0.00     0.198 A 
ATOM     76  C   UNL A   1      35.613  33.543  28.432  1.00  0.00     0.198 A 
ATOM     77  F   UNL A   1      37.725  33.785  29.441  1.00  0.00    -0.203 F 
ATOM     78  F   UNL A   1      33.563  30.599  27.931  1.00  0.00    -0.200 F 
ATOM     79  C   UNL A   1      34.552  32.741  28.041  1.00  0.00     0.200 A 
ATOM     80  F   UNL A   1      35.597  34.854  28.153  1.00  0.00    -0.200 F 
ATOM     81  F   UNL A   1      33.521  33.269  27.369  1.00  0.00    -0.200 F 
ENDBRANCH  47  71
BRANCH  59  82
ATOM     82  C   UNL A   1      39.122  32.020  35.965  1.00  0.00     0.064 A 
ATOM     83  C   UNL A   1      39.524  33.343  36.200  1.00  0.00     0.173 A 
ATOM     84  C   UNL A   1      38.221  31.438  36.871  1.00  0.00     0.173 A 
ATOM     85  F   UNL A   1      40.393  33.943  35.372  1.00  0.00    -0.203 F 
ATOM     86  C   UNL A   1      39.062  34.045  37.311  1.00  0.00     0.198 A 
ATOM     87  C   UNL A   1      37.737  32.154  37.962  1.00  0.00     0.198 A 
ATOM     88  F   UNL A   1      37.795  30.180  36.687  1.00  0.00    -0.203 F 
ATOM     89  F   UNL A   1      39.496  35.292  37.541  1.00  0.00    -0.200 F 
ATOM     90  C   UNL A   1      38.163  33.454  38.186  1.00  0.00     0.200 A 
ATOM     91  F   UNL A   1      36.854  31.587  38.796  1.00  0.00    -0.200 F 
ATOM     92  F   UNL A   1      37.712  34.134  39.248  1.00  0.00    -0.200 F 
ENDBRANCH  59  82
ENDBRANCH  33  34
ENDBRANCH  26  28
ENDBRANCH  25  26
ENDBRANCH  24  25
ENDBRANCH  23  24
ENDBRANCH  22  23
ENDBRANCH  21  22
ENDBRANCH   1  21
TORSDOF 21
ENDMDL
MODEL 3
REMARK VINA RESULT:      -9.8      3.391      8.249
REMARK SMILES CC[C@@H](C)[C@@H](NC(=O)C(F)(F)F)C(=O)OCCOCCOCCOC(=O)c1ccc(-c2c3nc(c(-c4c(F)c(F)c(F)c(F)c4F)c4ccc([nH]4)c(-c4c(F)c(F)c(F)c(F)c4F)c4nc(c(-c5c(F)c(F)c(F)c(F)c5F)c5ccc2[nH]5)C=C4)C=C3)cc1
REMARK SMILES IDX 19 1 18 2 17 3 16 4 15 5 13 6 14 7 5 8 3 9 4 10 2 11 1 12
REMARK SMILES IDX 6 13 7 14 8 16 9 17 10 18 11 19 12 20 20 21 21 22 22 23
REMARK SMILES IDX 23 24 24 25 25 26 26 27 27 28 28 29 89 30 29 31 88 32 30 33
REMARK SMILES IDX 31 34 32 35 82 36 33 37 87 38 81 39 83 40 34 41 86 42 80 43
REMARK SMILES IDX 79 44 35 46 67 47 47 48 66 49 48 50 51 51 65 52 84 53 49 54
REMARK SMILES IDX 50 55 64 57 85 58 52 59 36 60 37 61 45 62 38 63 39 64 43 65
REMARK SMILES IDX 46 66 40 67 41 68 44 69 42 70 68 71 69 72 77 73 70 74 71 75
REMARK SMILES IDX 75 76 78 77 72 78 73 79 76 80 74 81 53 82 54 83 62 84 55 85
REMARK SMILES IDX 56 86 60 87 63 88 57 89 58 90 61 91 59 92
REMARK H PARENT 6 15 83 45 51 56
REMARK Flexibility Score: inf
ROOT
ATOM      1  C   UNL A   1      30.979  27.002  22.503  1.00  0.00     0.188 C 
ENDROOT
BRANCH   1   2
ATOM      2  O   UNL A   1      31.430  25.657  22.491  1.00  0.00    -0.376 OA
BRANCH   2   3
ATOM      3  C   UNL A   1      31.005  24.764  23.517  1.00  0.00     0.202 C 
BRANCH   3   4
ATOM      4  C   UNL A   1      31.320  23.273  23.341  1.00  0.00     0.261 C 
BRANCH   4   5
ATOM      5  O   UNL A   1      32.082  22.631  24.404  1.00  0.00    -0.462 OA
BRANCH   5   6
ATOM      6  C   UNL A   1      33.342  22.235  24.074  1.00  0.00     0.329 C 
ATOM      7  O   UNL A   1      33.920  22.588  23.049  1.00  0.00    -0.250 OA
BRANCH   6   8
ATOM      8  C   UNL A   1      33.961  21.150  24.992  1.00  0.00     0.195 C 
BRANCH   8   9
ATOM      9  C   UNL A   1      34.893  21.410  26.227  1.00  0.00     0.019 C 
ATOM     10  C   UNL A   1      34.456  22.602  27.080  1.00  0.00     0.010 C 
BRANCH   9  11
ATOM     11  C   UNL A   1      36.351  21.667  25.710  1.00  0.00     0.002 C 
ATOM     12  C   UNL A   1      36.743  23.115  25.425  1.00  0.00     0.004 C 
ENDBRANCH   9  11
ENDBRANCH   8   9
BRANCH   8  13
ATOM     13  N   UNL A   1      33.025  20.025  25.217  1.00  0.00    -0.335 N 
ATOM     14  C   UNL A   1      33.048  18.704  24.843  1.00  0.00     0.326 C 
ATOM     15  H   UNL A   1      32.228  20.274  25.739  1.00  0.00     0.164 HD
ATOM     16  O   UNL A   1      31.963  18.112  24.916  1.00  0.00    -0.265 OA
BRANCH  14  17
ATOM     17  C   UNL A   1      34.347  17.976  24.433  1.00  0.00     0.471 C 
ATOM     18  F   UNL A   1      34.595  16.881  25.202  1.00  0.00    -0.162 F 
ATOM     19  F   UNL A   1      34.311  17.550  23.140  1.00  0.00    -0.162 F 
ATOM     20  F   UNL A   1      35.455  18.763  24.527  1.00  0.00    -0.162 F 
ENDBRANCH  14  17
ENDBRANCH   8  13
ENDBRANCH   6   8
ENDBRANCH   5   6
ENDBRANCH   4   5
ENDBRANCH   3   4
ENDBRANCH   2   3
ENDBRANCH   1   2
BRANCH   1  21
ATOM     21  C   UNL A   1      30.505  27.591  23.824  1.00  0.00     0.188 C 
BRANCH  21  22
ATOM     22  O   UNL A   1      31.321  28.631  24.322  1.00  0.00    -0.376 OA
BRANCH  22  23
ATOM     23  C   UNL A   1      31.471  28.734  25.729  1.00  0.00     0.202 C 
BRANCH  23  24
ATOM     24  C   UNL A   1      31.803  30.159  26.187  1.00  0.00     0.261 C 
BRANCH  24  25
ATOM     25  O   UNL A   1      33.214  30.412  26.344  1.00  0.00    -0.460 OA
BRANCH  25  26
ATOM     26  C   UNL A   1      33.565  31.451  27.140  1.00  0.00     0.338 C 
ATOM     27  O   UNL A   1      32.859  32.378  27.497  1.00  0.00    -0.246 OA
BRANCH  26  28
ATOM     28  C   UNL A   1      34.875  31.121  27.749  1.00  0.00     0.060 A 
ATOM     29  C   UNL A   1      35.163  29.778  28.036  1.00  0.00     0.016 A 
ATOM     30  C   UNL A   1      35.835  32.111  27.965  1.00  0.00     0.016 A 
ATOM     31  C   UNL A   1      36.401  29.427  28.578  1.00  0.00     0.010 A 
ATOM     32  C   UNL A   1      37.065  31.763  28.525  1.00  0.00     0.010 A 
ATOM     33  C   UNL A   1      37.340  30.425  28.868  1.00  0.00    -0.014 A 
BRANCH  33  34
ATOM     34  C   UNL A   1      38.502  30.124  29.739  1.00  0.00     0.031 A 
ATOM     35  C   UNL A   1      39.532  29.160  29.218  1.00  0.00     0.074 A 
ATOM     36  C   UNL A   1      38.651  30.681  30.952  1.00  0.00     0.049 A 
ATOM     37  N   UNL A   1      40.577  28.650  29.815  1.00  0.00    -0.248 NA
ATOM     38  C   UNL A   1      39.351  28.707  27.828  1.00  0.00     0.031 C 
ATOM     39  C   UNL A   1      37.756  31.667  31.550  1.00  0.00     0.029 A 
ATOM     40  N   UNL A   1      39.616  30.477  31.908  1.00  0.00    -0.354 N 
ATOM     41  C   UNL A   1      41.168  27.810  28.881  1.00  0.00     0.074 A 
ATOM     42  C   UNL A   1      40.353  27.853  27.689  1.00  0.00     0.031 C 
ATOM     43  C   UNL A   1      38.204  31.970  32.781  1.00  0.00     0.029 A 
ATOM     44  C   UNL A   1      39.394  31.170  33.072  1.00  0.00     0.049 A 
ATOM     45  H   UNL A   1      40.394  29.890  31.771  1.00  0.00     0.167 HD
ATOM     46  C   UNL A   1      42.296  27.071  29.004  1.00  0.00     0.037 A 
ATOM     47  C   UNL A   1      40.058  31.134  34.245  1.00  0.00     0.037 A 
ATOM     48  C   UNL A   1      43.105  27.023  30.191  1.00  0.00     0.049 A 
ATOM     49  C   UNL A   1      41.265  30.237  34.387  1.00  0.00     0.074 A 
ATOM     50  C   UNL A   1      44.266  26.304  30.415  1.00  0.00     0.029 A 
ATOM     51  N   UNL A   1      42.832  27.718  31.360  1.00  0.00    -0.354 N 
ATOM     52  N   UNL A   1      41.825  29.450  33.500  1.00  0.00    -0.248 NA
ATOM     53  C   UNL A   1      41.934  30.226  35.697  1.00  0.00     0.031 C 
ATOM     54  C   UNL A   1      44.668  26.525  31.736  1.00  0.00     0.029 A 
ATOM     55  C   UNL A   1      43.790  27.428  32.316  1.00  0.00     0.049 A 
ATOM     56  H   UNL A   1      42.069  28.327  31.490  1.00  0.00     0.167 HD
ATOM     57  C   UNL A   1      42.922  28.876  34.132  1.00  0.00     0.074 A 
ATOM     58  C   UNL A   1      42.958  29.415  35.475  1.00  0.00     0.031 C 
ATOM     59  C   UNL A   1      43.820  27.984  33.646  1.00  0.00     0.037 A 
BRANCH  46  60
ATOM     60  C   UNL A   1      42.698  26.231  27.828  1.00  0.00     0.064 A 
ATOM     61  C   UNL A   1      43.629  26.684  26.881  1.00  0.00     0.173 A 
ATOM     62  C   UNL A   1      42.156  24.949  27.655  1.00  0.00     0.173 A 
ATOM     63  F   UNL A   1      44.160  27.911  26.990  1.00  0.00    -0.203 F 
ATOM     64  C   UNL A   1      43.981  25.895  25.789  1.00  0.00     0.198 A 
ATOM     65  C   UNL A   1      42.534  24.150  26.580  1.00  0.00     0.198 A 
ATOM     66  F   UNL A   1      41.261  24.469  28.532  1.00  0.00    -0.203 F 
ATOM     67  F   UNL A   1      44.830  26.369  24.868  1.00  0.00    -0.200 F 
ATOM     68  C   UNL A   1      43.439  24.627  25.643  1.00  0.00     0.200 A 
ATOM     69  F   UNL A   1      42.017  22.921  26.446  1.00  0.00    -0.200 F 
ATOM     70  F   UNL A   1      43.782  23.867  24.595  1.00  0.00    -0.200 F 
ENDBRANCH  46  60
BRANCH  47  71
ATOM     71  C   UNL A   1      39.587  31.949  35.396  1.00  0.00     0.064 A 
ATOM     72  C   UNL A   1      38.660  31.439  36.316  1.00  0.00     0.173 A 
ATOM     73  C   UNL A   1      40.025  33.270  35.579  1.00  0.00     0.173 A 
ATOM     74  F   UNL A   1      38.185  30.194  36.167  1.00  0.00    -0.203 F 
ATOM     75  C   UNL A   1      38.174  32.224  37.361  1.00  0.00     0.198 A 
ATOM     76  C   UNL A   1      39.563  34.043  36.641  1.00  0.00     0.198 A 
ATOM     77  F   UNL A   1      40.905  33.810  34.722  1.00  0.00    -0.203 F 
ATOM     78  F   UNL A   1      37.246  31.730  38.192  1.00  0.00    -0.200 F 
ATOM     79  C   UNL A   1      38.631  33.524  37.526  1.00  0.00     0.200 A 
ATOM     80  F   UNL A   1      40.012  35.295  36.802  1.00  0.00    -0.200 F 
ATOM     81  F   UNL A   1      38.162  34.278  38.530  1.00  0.00    -0.200 F 
ENDBRANCH  47  71
BRANCH  59  82
ATOM     82  C   UNL A   1      44.945  27.565  34.549  1.00  0.00     0.064 A 
ATOM     83  C   UNL A   1      46.143  28.290  34.623  1.00  0.00     0.173 A 
ATOM     84  C   UNL A   1      44.799  26.451  35.391  1.00  0.00     0.173 A 
ATOM     85  F   UNL A   1      46.339  29.356  33.832  1.00  0.00    -0.203 F 
ATOM     86  C   UNL A   1      47.163  27.900  35.488  1.00  0.00     0.198 A 
ATOM     87  C   UNL A   1      45.807  26.084  36.277  1.00  0.00     0.198 A 
ATOM     88  F   UNL A   1      43.669  25.729  35.369  1.00  0.00    -0.203 F 
ATOM     89  F   UNL A   1      48.318  28.580  35.509  1.00  0.00    -0.200 F 
ATOM     90  C   UNL A   1      46.991  26.803  36.321  1.00  0.00     0.200 A 
ATOM     91  F   UNL A   1      45.632  25.035  37.093  1.00  0.00    -0.200 F 
ATOM     92  F   UNL A   1      47.970  26.436  37.159  1.00  0.00    -0.200 F 
ENDBRANCH  59  82
ENDBRANCH  33  34
ENDBRANCH  26  28
ENDBRANCH  25  26
ENDBRANCH  24  25
ENDBRANCH  23  24
ENDBRANCH  22  23
ENDBRANCH  21  22
ENDBRANCH   1  21
TORSDOF 21
ENDMDL
