MODEL 1
REMARK VINA RESULT:     -11.3      0.000      0.000
REMARK SMILES CC(C)(C)OC(=O)N1CCN(c2ccc([N+](=O)[O-])c(Br)c2)C[C@H]1C(=O)OCCOCCOCCOC(=O)c1ccc(-c2c3nc(c(-c4c(F)c(F)c(F)c(F)c4F)c4ccc([nH]4)c(-c4c(F)c(F)c(F)c(F)c4F)c4nc(c(-c5c(F)c(F)c(F)c(F)c5F)c5ccc2[nH]5)C=C4)C=C3)cc1
REMARK SMILES IDX 30 1 29 2 28 3 27 4 26 5 24 6 25 7 23 8 8 9 9 10 10 11 22 12
REMARK SMILES IDX 11 13 6 14 7 15 5 16 2 17 1 18 3 19 4 20 12 21 13 22 21 23
REMARK SMILES IDX 14 24 19 25 15 26 20 27 16 28 17 29 18 30 31 31 32 32 33 33
REMARK SMILES IDX 34 34 35 35 36 36 37 37 38 38 39 39 100 40 40 41 99 42 41 43
REMARK SMILES IDX 42 44 43 45 93 46 44 47 98 48 92 49 94 50 45 51 97 52 91 53
REMARK SMILES IDX 90 54 46 56 78 57 58 58 77 59 59 60 62 61 76 62 95 63 60 64
REMARK SMILES IDX 61 65 75 67 96 68 63 69 47 70 48 71 56 72 49 73 50 74 54 75
REMARK SMILES IDX 57 76 51 77 52 78 55 79 53 80 79 81 80 82 88 83 81 84 82 85
REMARK SMILES IDX 86 86 89 87 83 88 84 89 87 90 85 91 64 92 65 93 73 94 66 95
REMARK SMILES IDX 67 96 71 97 74 98 68 99 69 100 72 101 70 102
REMARK H PARENT 94 55 62 66
REMARK Flexibility Score: inf
ROOT
ATOM      1  C   UNL A   1      40.217  21.809  26.894  1.00  0.00     0.188 C 
ENDROOT
BRANCH   1   2
ATOM      2  O   UNL A   1      39.690  23.131  26.778  1.00  0.00    -0.376 OA
BRANCH   2   3
ATOM      3  C   UNL A   1      38.435  23.267  26.126  1.00  0.00     0.202 C 
BRANCH   3   4
ATOM      4  C   UNL A   1      37.882  21.932  25.586  1.00  0.00     0.261 C 
BRANCH   4   5
ATOM      5  O   UNL A   1      36.460  21.744  25.765  1.00  0.00    -0.462 OA
BRANCH   5   6
ATOM      6  C   UNL A   1      35.736  22.016  24.657  1.00  0.00     0.330 C 
ATOM      7  O   UNL A   1      36.265  22.234  23.563  1.00  0.00    -0.250 OA
BRANCH   6   8
ATOM      8  C   UNL A   1      34.188  21.957  24.775  1.00  0.00     0.217 C 
ATOM      9  N   UNL A   1      33.194  20.982  25.370  1.00  0.00    -0.291 N 
ATOM     10  C   UNL A   1      31.787  21.429  25.257  1.00  0.00     0.145 C 
ATOM     11  C   UNL A   1      31.542  22.816  25.860  1.00  0.00     0.138 C 
ATOM     12  C   UNL A   1      33.900  23.367  25.391  1.00  0.00     0.154 C 
ATOM     13  N   UNL A   1      32.486  23.732  25.240  1.00  0.00    -0.367 N 
BRANCH   9  14
ATOM     14  C   UNL A   1      33.308  19.603  25.439  1.00  0.00     0.411 C 
ATOM     15  O   UNL A   1      33.093  18.978  26.472  1.00  0.00    -0.224 OA
BRANCH  14  16
ATOM     16  O   UNL A   1      33.829  19.047  24.325  1.00  0.00    -0.444 OA
BRANCH  16  17
ATOM     17  C   UNL A   1      33.165  17.884  23.737  1.00  0.00     0.106 C 
ATOM     18  C   UNL A   1      32.247  18.473  22.656  1.00  0.00     0.056 C 
ATOM     19  C   UNL A   1      32.347  17.065  24.752  1.00  0.00     0.056 C 
ATOM     20  C   UNL A   1      34.176  16.953  23.048  1.00  0.00     0.056 C 
ENDBRANCH  16  17
ENDBRANCH  14  16
ENDBRANCH   9  14
BRANCH  13  21
ATOM     21  C   UNL A   1      32.204  25.065  25.054  1.00  0.00     0.038 A 
ATOM     22  C   UNL A   1      31.036  25.584  25.616  1.00  0.00     0.033 A 
ATOM     23  C   UNL A   1      33.007  25.908  24.286  1.00  0.00     0.048 A 
ATOM     24  C   UNL A   1      30.679  26.916  25.424  1.00  0.00     0.089 A 
ATOM     25  C   UNL A   1      32.656  27.253  24.062  1.00  0.00     0.097 A 
ATOM     26  C   UNL A   1      31.482  27.762  24.639  1.00  0.00     0.283 A 
ATOM     27  Br  UNL A   1      33.879  28.205  22.957  1.00  0.00    -0.043 Br
BRANCH  26  28
ATOM     28  N   UNL A   1      31.013  29.149  24.476  1.00  0.00     0.063 N 
ATOM     29  O   UNL A   1      31.551  30.015  25.185  1.00  0.00    -0.258 OA
ATOM     30  O   UNL A   1      30.114  29.398  23.669  1.00  0.00    -0.258 OA
ENDBRANCH  26  28
ENDBRANCH  13  21
ENDBRANCH   6   8
ENDBRANCH   5   6
ENDBRANCH   4   5
ENDBRANCH   3   4
ENDBRANCH   2   3
ENDBRANCH   1   2
BRANCH   1  31
ATOM     31  C   UNL A   1      41.529  21.519  26.168  1.00  0.00     0.188 C 
BRANCH  31  32
ATOM     32  O   UNL A   1      41.703  20.242  25.575  1.00  0.00    -0.376 OA
BRANCH  32  33
ATOM     33  C   UNL A   1      42.309  19.181  26.303  1.00  0.00     0.202 C 
BRANCH  33  34
ATOM     34  C   UNL A   1      43.455  18.409  25.649  1.00  0.00     0.261 C 
BRANCH  34  35
ATOM     35  O   UNL A   1      43.821  18.981  24.388  1.00  0.00    -0.460 OA
BRANCH  35  36
ATOM     36  C   UNL A   1      45.073  19.499  24.325  1.00  0.00     0.338 C 
ATOM     37  O   UNL A   1      46.087  18.974  23.898  1.00  0.00    -0.246 OA
BRANCH  36  38
ATOM     38  C   UNL A   1      44.976  20.916  24.698  1.00  0.00     0.060 A 
ATOM     39  C   UNL A   1      44.544  21.855  23.749  1.00  0.00     0.016 A 
ATOM     40  C   UNL A   1      45.312  21.300  25.993  1.00  0.00     0.016 A 
ATOM     41  C   UNL A   1      44.469  23.202  24.097  1.00  0.00     0.010 A 
ATOM     42  C   UNL A   1      45.249  22.643  26.336  1.00  0.00     0.010 A 
ATOM     43  C   UNL A   1      44.853  23.599  25.383  1.00  0.00    -0.014 A 
BRANCH  43  44
ATOM     44  C   UNL A   1      45.007  25.027  25.733  1.00  0.00     0.031 A 
ATOM     45  C   UNL A   1      46.377  25.631  25.645  1.00  0.00     0.074 A 
ATOM     46  C   UNL A   1      43.965  25.726  26.213  1.00  0.00     0.049 A 
ATOM     47  N   UNL A   1      46.807  26.782  26.087  1.00  0.00    -0.248 NA
ATOM     48  C   UNL A   1      47.409  24.809  24.992  1.00  0.00     0.031 C 
ATOM     49  C   UNL A   1      42.595  25.230  26.328  1.00  0.00     0.029 A 
ATOM     50  N   UNL A   1      43.914  26.992  26.734  1.00  0.00    -0.354 N 
ATOM     51  C   UNL A   1      48.163  26.812  25.790  1.00  0.00     0.074 A 
ATOM     52  C   UNL A   1      48.490  25.555  25.154  1.00  0.00     0.031 C 
ATOM     53  C   UNL A   1      41.841  26.174  26.916  1.00  0.00     0.029 A 
ATOM     54  C   UNL A   1      42.686  27.316  27.255  1.00  0.00     0.049 A 
ATOM     55  H   UNL A   1      44.682  27.609  26.734  1.00  0.00     0.167 HD
ATOM     56  C   UNL A   1      49.050  27.805  26.029  1.00  0.00     0.037 A 
ATOM     57  C   UNL A   1      42.308  28.399  27.963  1.00  0.00     0.037 A 
ATOM     58  C   UNL A   1      48.703  29.050  26.661  1.00  0.00     0.049 A 
ATOM     59  C   UNL A   1      43.326  29.473  28.252  1.00  0.00     0.074 A 
ATOM     60  C   UNL A   1      49.509  30.144  26.912  1.00  0.00     0.029 A 
ATOM     61  N   UNL A   1      47.442  29.358  27.152  1.00  0.00    -0.354 N 
ATOM     62  N   UNL A   1      44.597  29.521  27.930  1.00  0.00    -0.248 NA
ATOM     63  C   UNL A   1      42.854  30.647  28.999  1.00  0.00     0.031 C 
ATOM     64  C   UNL A   1      48.753  31.090  27.611  1.00  0.00     0.029 A 
ATOM     65  C   UNL A   1      47.456  30.616  27.732  1.00  0.00     0.049 A 
ATOM     66  H   UNL A   1      46.654  28.771  27.097  1.00  0.00     0.167 HD
ATOM     67  C   UNL A   1      45.067  30.740  28.403  1.00  0.00     0.074 A 
ATOM     68  C   UNL A   1      43.940  31.406  29.024  1.00  0.00     0.031 C 
ATOM     69  C   UNL A   1      46.316  31.263  28.333  1.00  0.00     0.037 A 
BRANCH  56  70
ATOM     70  C   UNL A   1      50.480  27.578  25.634  1.00  0.00     0.064 A 
ATOM     71  C   UNL A   1      51.459  27.208  26.569  1.00  0.00     0.173 A 
ATOM     72  C   UNL A   1      50.869  27.694  24.291  1.00  0.00     0.173 A 
ATOM     73  F   UNL A   1      51.144  27.100  27.869  1.00  0.00    -0.203 F 
ATOM     74  C   UNL A   1      52.776  26.985  26.178  1.00  0.00     0.198 A 
ATOM     75  C   UNL A   1      52.180  27.438  23.898  1.00  0.00     0.198 A 
ATOM     76  F   UNL A   1      49.975  28.045  23.355  1.00  0.00    -0.203 F 
ATOM     77  F   UNL A   1      53.704  26.679  27.096  1.00  0.00    -0.200 F 
ATOM     78  C   UNL A   1      53.134  27.091  24.842  1.00  0.00     0.200 A 
ATOM     79  F   UNL A   1      52.519  27.527  22.605  1.00  0.00    -0.200 F 
ATOM     80  F   UNL A   1      54.400  26.863  24.465  1.00  0.00    -0.200 F 
ENDBRANCH  56  70
BRANCH  57  81
ATOM     81  C   UNL A   1      40.911  28.515  28.458  1.00  0.00     0.064 A 
ATOM     82  C   UNL A   1      40.567  28.097  29.751  1.00  0.00     0.173 A 
ATOM     83  C   UNL A   1      39.888  29.027  27.646  1.00  0.00     0.173 A 
ATOM     84  F   UNL A   1      41.504  27.580  30.558  1.00  0.00    -0.203 F 
ATOM     85  C   UNL A   1      39.249  28.159  30.202  1.00  0.00     0.198 A 
ATOM     86  C   UNL A   1      38.576  29.121  28.110  1.00  0.00     0.198 A 
ATOM     87  F   UNL A   1      40.162  29.444  26.401  1.00  0.00    -0.203 F 
ATOM     88  F   UNL A   1      38.940  27.697  31.421  1.00  0.00    -0.200 F 
ATOM     89  C   UNL A   1      38.256  28.676  29.383  1.00  0.00     0.200 A 
ATOM     90  F   UNL A   1      37.624  29.634  27.321  1.00  0.00    -0.200 F 
ATOM     91  F   UNL A   1      36.991  28.735  29.818  1.00  0.00    -0.200 F 
ENDBRANCH  57  81
BRANCH  69  92
ATOM     92  C   UNL A   1      46.520  32.643  28.893  1.00  0.00     0.064 A 
ATOM     93  C   UNL A   1      46.919  32.853  30.220  1.00  0.00     0.173 A 
ATOM     94  C   UNL A   1      46.357  33.769  28.070  1.00  0.00     0.173 A 
ATOM     95  F   UNL A   1      47.075  31.812  31.051  1.00  0.00    -0.203 F 
ATOM     96  C   UNL A   1      47.118  34.140  30.712  1.00  0.00     0.198 A 
ATOM     97  C   UNL A   1      46.593  35.052  28.554  1.00  0.00     0.198 A 
ATOM     98  F   UNL A   1      45.987  33.623  26.788  1.00  0.00    -0.203 F 
ATOM     99  F   UNL A   1      47.446  34.320  31.999  1.00  0.00    -0.200 F 
ATOM    100  C   UNL A   1      46.964  35.237  29.877  1.00  0.00     0.200 A 
ATOM    101  F   UNL A   1      46.464  36.108  27.740  1.00  0.00    -0.200 F 
ATOM    102  F   UNL A   1      47.167  36.474  30.350  1.00  0.00    -0.200 F 
ENDBRANCH  69  92
ENDBRANCH  43  44
ENDBRANCH  36  38
ENDBRANCH  35  36
ENDBRANCH  34  35
ENDBRANCH  33  34
ENDBRANCH  32  33
ENDBRANCH  31  32
ENDBRANCH   1  31
TORSDOF 22
ENDMDL
MODEL 2
REMARK VINA RESULT:     -10.7      3.361     10.296
REMARK SMILES CC(C)(C)OC(=O)N1CCN(c2ccc([N+](=O)[O-])c(Br)c2)C[C@H]1C(=O)OCCOCCOCCOC(=O)c1ccc(-c2c3nc(c(-c4c(F)c(F)c(F)c(F)c4F)c4ccc([nH]4)c(-c4c(F)c(F)c(F)c(F)c4F)c4nc(c(-c5c(F)c(F)c(F)c(F)c5F)c5ccc2[nH]5)C=C4)C=C3)cc1
REMARK SMILES IDX 30 1 29 2 28 3 27 4 26 5 24 6 25 7 23 8 8 9 9 10 10 11 22 12
REMARK SMILES IDX 11 13 6 14 7 15 5 16 2 17 1 18 3 19 4 20 12 21 13 22 21 23
REMARK SMILES IDX 14 24 19 25 15 26 20 27 16 28 17 29 18 30 31 31 32 32 33 33
REMARK SMILES IDX 34 34 35 35 36 36 37 37 38 38 39 39 100 40 40 41 99 42 41 43
REMARK SMILES IDX 42 44 43 45 93 46 44 47 98 48 92 49 94 50 45 51 97 52 91 53
REMARK SMILES IDX 90 54 46 56 78 57 58 58 77 59 59 60 62 61 76 62 95 63 60 64
REMARK SMILES IDX 61 65 75 67 96 68 63 69 47 70 48 71 56 72 49 73 50 74 54 75
REMARK SMILES IDX 57 76 51 77 52 78 55 79 53 80 79 81 80 82 88 83 81 84 82 85
REMARK SMILES IDX 86 86 89 87 83 88 84 89 87 90 85 91 64 92 65 93 73 94 66 95
REMARK SMILES IDX 67 96 71 97 74 98 68 99 69 100 72 101 70 102
REMARK H PARENT 94 55 62 66
REMARK Flexibility Score: inf
ROOT
ATOM      1  C   UNL A   1      34.363  32.478  28.735  1.00  0.00     0.188 C 
ENDROOT
BRANCH   1   2
ATOM      2  O   UNL A   1      35.322  31.553  28.221  1.00  0.00    -0.376 OA
BRANCH   2   3
ATOM      3  C   UNL A   1      34.820  30.328  27.705  1.00  0.00     0.202 C 
BRANCH   3   4
ATOM      4  C   UNL A   1      33.390  30.447  27.142  1.00  0.00     0.261 C 
BRANCH   4   5
ATOM      5  O   UNL A   1      32.980  29.358  26.282  1.00  0.00    -0.462 OA
BRANCH   5   6
ATOM      6  C   UNL A   1      31.897  29.645  25.526  1.00  0.00     0.330 C 
ATOM      7  O   UNL A   1      31.308  30.727  25.605  1.00  0.00    -0.250 OA
BRANCH   6   8
ATOM      8  C   UNL A   1      31.459  28.595  24.469  1.00  0.00     0.217 C 
ATOM      9  N   UNL A   1      31.033  28.648  23.017  1.00  0.00    -0.291 N 
ATOM     10  C   UNL A   1      30.754  27.316  22.433  1.00  0.00     0.145 C 
ATOM     11  C   UNL A   1      31.925  26.338  22.571  1.00  0.00     0.138 C 
ATOM     12  C   UNL A   1      32.638  27.573  24.584  1.00  0.00     0.154 C 
ATOM     13  N   UNL A   1      32.281  26.282  23.980  1.00  0.00    -0.367 N 
BRANCH   9  14
ATOM     14  C   UNL A   1      30.332  29.661  22.383  1.00  0.00     0.411 C 
ATOM     15  O   UNL A   1      30.596  30.026  21.241  1.00  0.00    -0.224 OA
BRANCH  14  16
ATOM     16  O   UNL A   1      29.463  30.305  23.189  1.00  0.00    -0.444 OA
BRANCH  16  17
ATOM     17  C   UNL A   1      28.036  30.256  22.874  1.00  0.00     0.106 C 
ATOM     18  C   UNL A   1      27.386  31.212  23.887  1.00  0.00     0.056 C 
ATOM     19  C   UNL A   1      27.428  28.847  22.997  1.00  0.00     0.056 C 
ATOM     20  C   UNL A   1      27.757  30.797  21.463  1.00  0.00     0.056 C 
ENDBRANCH  16  17
ENDBRANCH  14  16
ENDBRANCH   9  14
BRANCH  13  21
ATOM     21  C   UNL A   1      32.813  25.156  24.561  1.00  0.00     0.038 A 
ATOM     22  C   UNL A   1      33.949  25.291  25.363  1.00  0.00     0.033 A 
ATOM     23  C   UNL A   1      32.299  23.877  24.342  1.00  0.00     0.048 A 
ATOM     24  C   UNL A   1      34.555  24.179  25.940  1.00  0.00     0.089 A 
ATOM     25  C   UNL A   1      32.906  22.736  24.900  1.00  0.00     0.097 A 
ATOM     26  C   UNL A   1      34.043  22.889  25.709  1.00  0.00     0.283 A 
ATOM     27  Br  UNL A   1      32.056  21.096  24.441  1.00  0.00    -0.043 Br
BRANCH  26  28
ATOM     28  N   UNL A   1      34.762  21.772  26.346  1.00  0.00     0.063 N 
ATOM     29  O   UNL A   1      35.887  21.497  25.899  1.00  0.00    -0.258 OA
ATOM     30  O   UNL A   1      34.231  21.153  27.271  1.00  0.00    -0.258 OA
ENDBRANCH  26  28
ENDBRANCH  13  21
ENDBRANCH   6   8
ENDBRANCH   5   6
ENDBRANCH   4   5
ENDBRANCH   3   4
ENDBRANCH   2   3
ENDBRANCH   1   2
BRANCH   1  31
ATOM     31  C   UNL A   1      34.843  33.443  29.818  1.00  0.00     0.188 C 
BRANCH  31  32
ATOM     32  O   UNL A   1      33.911  33.871  30.799  1.00  0.00    -0.376 OA
BRANCH  32  33
ATOM     33  C   UNL A   1      34.328  34.118  32.136  1.00  0.00     0.202 C 
BRANCH  33  34
ATOM     34  C   UNL A   1      35.051  33.004  32.893  1.00  0.00     0.261 C 
BRANCH  34  35
ATOM     35  O   UNL A   1      36.473  33.159  32.824  1.00  0.00    -0.460 OA
BRANCH  35  36
ATOM     36  C   UNL A   1      37.195  32.216  33.478  1.00  0.00     0.338 C 
ATOM     37  O   UNL A   1      37.019  31.773  34.601  1.00  0.00    -0.246 OA
BRANCH  36  38
ATOM     38  C   UNL A   1      38.151  31.657  32.516  1.00  0.00     0.060 A 
ATOM     39  C   UNL A   1      39.276  30.958  32.982  1.00  0.00     0.016 A 
ATOM     40  C   UNL A   1      37.921  31.827  31.153  1.00  0.00     0.016 A 
ATOM     41  C   UNL A   1      40.193  30.441  32.070  1.00  0.00     0.010 A 
ATOM     42  C   UNL A   1      38.842  31.323  30.245  1.00  0.00     0.010 A 
ATOM     43  C   UNL A   1      39.992  30.653  30.701  1.00  0.00    -0.014 A 
BRANCH  43  44
ATOM     44  C   UNL A   1      41.038  30.327  29.710  1.00  0.00     0.031 A 
ATOM     45  C   UNL A   1      41.028  28.958  29.098  1.00  0.00     0.074 A 
ATOM     46  C   UNL A   1      42.024  31.201  29.449  1.00  0.00     0.049 A 
ATOM     47  N   UNL A   1      41.939  28.364  28.374  1.00  0.00    -0.248 NA
ATOM     48  C   UNL A   1      39.836  28.136  29.363  1.00  0.00     0.031 C 
ATOM     49  C   UNL A   1      42.117  32.556  29.987  1.00  0.00     0.029 A 
ATOM     50  N   UNL A   1      43.160  31.054  28.697  1.00  0.00    -0.354 N 
ATOM     51  C   UNL A   1      41.442  27.093  28.119  1.00  0.00     0.074 A 
ATOM     52  C   UNL A   1      40.164  26.990  28.787  1.00  0.00     0.031 C 
ATOM     53  C   UNL A   1      43.269  33.110  29.571  1.00  0.00     0.029 A 
ATOM     54  C   UNL A   1      44.008  32.131  28.778  1.00  0.00     0.049 A 
ATOM     55  H   UNL A   1      43.350  30.256  28.152  1.00  0.00     0.167 HD
ATOM     56  C   UNL A   1      42.010  26.103  27.392  1.00  0.00     0.037 A 
ATOM     57  C   UNL A   1      45.258  32.282  28.298  1.00  0.00     0.037 A 
ATOM     58  C   UNL A   1      43.283  26.227  26.733  1.00  0.00     0.049 A 
ATOM     59  C   UNL A   1      45.885  31.149  27.525  1.00  0.00     0.074 A 
ATOM     60  C   UNL A   1      43.933  25.307  25.932  1.00  0.00     0.029 A 
ATOM     61  N   UNL A   1      44.105  27.343  26.812  1.00  0.00    -0.354 N 
ATOM     62  N   UNL A   1      45.396  29.964  27.245  1.00  0.00    -0.248 NA
ATOM     63  C   UNL A   1      47.235  31.378  26.995  1.00  0.00     0.031 C 
ATOM     64  C   UNL A   1      45.176  25.840  25.577  1.00  0.00     0.029 A 
ATOM     65  C   UNL A   1      45.270  27.122  26.097  1.00  0.00     0.049 A 
ATOM     66  H   UNL A   1      43.891  28.169  27.303  1.00  0.00     0.167 HD
ATOM     67  C   UNL A   1      46.361  29.321  26.482  1.00  0.00     0.074 A 
ATOM     68  C   UNL A   1      47.460  30.253  26.331  1.00  0.00     0.031 C 
ATOM     69  C   UNL A   1      46.345  28.073  25.951  1.00  0.00     0.037 A 
BRANCH  56  70
ATOM     70  C   UNL A   1      41.277  24.798  27.292  1.00  0.00     0.064 A 
ATOM     71  C   UNL A   1      40.106  24.660  26.530  1.00  0.00     0.173 A 
ATOM     72  C   UNL A   1      41.775  23.656  27.938  1.00  0.00     0.173 A 
ATOM     73  F   UNL A   1      39.578  25.724  25.907  1.00  0.00    -0.203 F 
ATOM     74  C   UNL A   1      39.451  23.435  26.437  1.00  0.00     0.198 A 
ATOM     75  C   UNL A   1      41.136  22.425  27.815  1.00  0.00     0.198 A 
ATOM     76  F   UNL A   1      42.890  23.730  28.679  1.00  0.00    -0.203 F 
ATOM     77  F   UNL A   1      38.308  23.339  25.742  1.00  0.00    -0.200 F 
ATOM     78  C   UNL A   1      39.971  22.317  27.071  1.00  0.00     0.200 A 
ATOM     79  F   UNL A   1      41.649  21.343  28.417  1.00  0.00    -0.200 F 
ATOM     80  F   UNL A   1      39.347  21.135  26.969  1.00  0.00    -0.200 F 
ENDBRANCH  56  70
BRANCH  57  81
ATOM     81  C   UNL A   1      46.004  33.545  28.544  1.00  0.00     0.064 A 
ATOM     82  C   UNL A   1      45.903  34.626  27.657  1.00  0.00     0.173 A 
ATOM     83  C   UNL A   1      46.846  33.692  29.655  1.00  0.00     0.173 A 
ATOM     84  F   UNL A   1      45.129  34.527  26.567  1.00  0.00    -0.203 F 
ATOM     85  C   UNL A   1      46.639  35.793  27.857  1.00  0.00     0.198 A 
ATOM     86  C   UNL A   1      47.555  34.872  29.873  1.00  0.00     0.198 A 
ATOM     87  F   UNL A   1      46.978  32.689  30.537  1.00  0.00    -0.203 F 
ATOM     88  F   UNL A   1      46.568  36.786  26.961  1.00  0.00    -0.200 F 
ATOM     89  C   UNL A   1      47.459  35.917  28.967  1.00  0.00     0.200 A 
ATOM     90  F   UNL A   1      48.335  34.993  30.955  1.00  0.00    -0.200 F 
ATOM     91  F   UNL A   1      48.165  37.039  29.158  1.00  0.00    -0.200 F 
ENDBRANCH  57  81
BRANCH  69  92
ATOM     92  C   UNL A   1      47.524  27.661  25.115  1.00  0.00     0.064 A 
ATOM     93  C   UNL A   1      47.544  27.834  23.725  1.00  0.00     0.173 A 
ATOM     94  C   UNL A   1      48.669  27.125  25.727  1.00  0.00     0.173 A 
ATOM     95  F   UNL A   1      46.471  28.329  23.090  1.00  0.00    -0.203 F 
ATOM     96  C   UNL A   1      48.654  27.460  22.974  1.00  0.00     0.198 A 
ATOM     97  C   UNL A   1      49.791  26.787  24.978  1.00  0.00     0.198 A 
ATOM     98  F   UNL A   1      48.706  26.949  27.057  1.00  0.00    -0.203 F 
ATOM     99  F   UNL A   1      48.631  27.584  21.639  1.00  0.00    -0.200 F 
ATOM    100  C   UNL A   1      49.780  26.945  23.601  1.00  0.00     0.200 A 
ATOM    101  F   UNL A   1      50.884  26.310  25.589  1.00  0.00    -0.200 F 
ATOM    102  F   UNL A   1      50.852  26.596  22.877  1.00  0.00    -0.200 F 
ENDBRANCH  69  92
ENDBRANCH  43  44
ENDBRANCH  36  38
ENDBRANCH  35  36
ENDBRANCH  34  35
ENDBRANCH  33  34
ENDBRANCH  32  33
ENDBRANCH  31  32
ENDBRANCH   1  31
TORSDOF 22
ENDMDL
MODEL 3
REMARK VINA RESULT:     -10.5      6.189     10.511
REMARK SMILES CC(C)(C)OC(=O)N1CCN(c2ccc([N+](=O)[O-])c(Br)c2)C[C@H]1C(=O)OCCOCCOCCOC(=O)c1ccc(-c2c3nc(c(-c4c(F)c(F)c(F)c(F)c4F)c4ccc([nH]4)c(-c4c(F)c(F)c(F)c(F)c4F)c4nc(c(-c5c(F)c(F)c(F)c(F)c5F)c5ccc2[nH]5)C=C4)C=C3)cc1
REMARK SMILES IDX 30 1 29 2 28 3 27 4 26 5 24 6 25 7 23 8 8 9 9 10 10 11 22 12
REMARK SMILES IDX 11 13 6 14 7 15 5 16 2 17 1 18 3 19 4 20 12 21 13 22 21 23
REMARK SMILES IDX 14 24 19 25 15 26 20 27 16 28 17 29 18 30 31 31 32 32 33 33
REMARK SMILES IDX 34 34 35 35 36 36 37 37 38 38 39 39 100 40 40 41 99 42 41 43
REMARK SMILES IDX 42 44 43 45 93 46 44 47 98 48 92 49 94 50 45 51 97 52 91 53
REMARK SMILES IDX 90 54 46 56 78 57 58 58 77 59 59 60 62 61 76 62 95 63 60 64
REMARK SMILES IDX 61 65 75 67 96 68 63 69 47 70 48 71 56 72 49 73 50 74 54 75
REMARK SMILES IDX 57 76 51 77 52 78 55 79 53 80 79 81 80 82 88 83 81 84 82 85
REMARK SMILES IDX 86 86 89 87 83 88 84 89 87 90 85 91 64 92 65 93 73 94 66 95
REMARK SMILES IDX 67 96 71 97 74 98 68 99 69 100 72 101 70 102
REMARK H PARENT 94 55 62 66
REMARK Flexibility Score: inf
ROOT
ATOM      1  C   UNL A   1      31.813  28.394  27.612  1.00  0.00     0.188 C 
ENDROOT
BRANCH   1   2
ATOM      2  O   UNL A   1      31.602  27.268  26.759  1.00  0.00    -0.376 OA
BRANCH   2   3
ATOM      3  C   UNL A   1      32.743  26.484  26.436  1.00  0.00     0.202 C 
BRANCH   3   4
ATOM      4  C   UNL A   1      32.670  25.049  26.993  1.00  0.00     0.261 C 
BRANCH   4   5
ATOM      5  O   UNL A   1      31.377  24.412  26.874  1.00  0.00    -0.462 OA
BRANCH   5   6
ATOM      6  C   UNL A   1      31.232  23.691  25.740  1.00  0.00     0.330 C 
ATOM      7  O   UNL A   1      30.512  22.690  25.685  1.00  0.00    -0.250 OA
BRANCH   6   8
ATOM      8  C   UNL A   1      31.933  24.217  24.458  1.00  0.00     0.217 C 
ATOM      9  N   UNL A   1      32.681  23.580  23.306  1.00  0.00    -0.291 N 
ATOM     10  C   UNL A   1      33.127  24.550  22.280  1.00  0.00     0.145 C 
ATOM     11  C   UNL A   1      31.985  25.403  21.718  1.00  0.00     0.138 C 
ATOM     12  C   UNL A   1      30.789  25.098  23.855  1.00  0.00     0.154 C 
ATOM     13  N   UNL A   1      31.314  26.029  22.847  1.00  0.00    -0.367 N 
BRANCH   9  14
ATOM     14  C   UNL A   1      33.480  22.448  23.346  1.00  0.00     0.411 C 
ATOM     15  O   UNL A   1      33.012  21.318  23.448  1.00  0.00    -0.224 OA
BRANCH  14  16
ATOM     16  O   UNL A   1      34.799  22.719  23.429  1.00  0.00    -0.444 OA
BRANCH  16  17
ATOM     17  C   UNL A   1      35.471  22.575  24.720  1.00  0.00     0.106 C 
ATOM     18  C   UNL A   1      36.606  21.574  24.453  1.00  0.00     0.056 C 
ATOM     19  C   UNL A   1      34.549  22.058  25.839  1.00  0.00     0.056 C 
ATOM     20  C   UNL A   1      36.104  23.902  25.171  1.00  0.00     0.056 C 
ENDBRANCH  16  17
ENDBRANCH  14  16
ENDBRANCH   9  14
BRANCH  13  21
ATOM     21  C   UNL A   1      30.695  27.253  22.748  1.00  0.00     0.038 A 
ATOM     22  C   UNL A   1      31.468  28.367  22.414  1.00  0.00     0.033 A 
ATOM     23  C   UNL A   1      29.339  27.439  23.018  1.00  0.00     0.048 A 
ATOM     24  C   UNL A   1      30.903  29.636  22.343  1.00  0.00     0.089 A 
ATOM     25  C   UNL A   1      28.748  28.716  22.971  1.00  0.00     0.097 A 
ATOM     26  C   UNL A   1      29.538  29.825  22.627  1.00  0.00     0.283 A 
ATOM     27  Br  UNL A   1      26.896  28.737  23.408  1.00  0.00    -0.043 Br
BRANCH  26  28
ATOM     28  N   UNL A   1      29.034  31.206  22.545  1.00  0.00     0.063 N 
ATOM     29  O   UNL A   1      28.934  31.836  23.610  1.00  0.00    -0.258 OA
ATOM     30  O   UNL A   1      28.720  31.677  21.448  1.00  0.00    -0.258 OA
ENDBRANCH  26  28
ENDBRANCH  13  21
ENDBRANCH   6   8
ENDBRANCH   5   6
ENDBRANCH   4   5
ENDBRANCH   3   4
ENDBRANCH   2   3
ENDBRANCH   1   2
BRANCH   1  31
ATOM     31  C   UNL A   1      31.893  29.765  26.942  1.00  0.00     0.188 C 
BRANCH  31  32
ATOM     32  O   UNL A   1      33.167  30.375  26.807  1.00  0.00    -0.376 OA
BRANCH  32  33
ATOM     33  C   UNL A   1      33.525  31.492  27.610  1.00  0.00     0.202 C 
BRANCH  33  34
ATOM     34  C   UNL A   1      32.860  32.839  27.325  1.00  0.00     0.261 C 
BRANCH  34  35
ATOM     35  O   UNL A   1      32.458  33.492  28.534  1.00  0.00    -0.460 OA
BRANCH  35  36
ATOM     36  C   UNL A   1      33.109  34.647  28.818  1.00  0.00     0.338 C 
ATOM     37  O   UNL A   1      32.705  35.791  28.698  1.00  0.00    -0.246 OA
BRANCH  36  38
ATOM     38  C   UNL A   1      34.362  34.285  29.492  1.00  0.00     0.060 A 
ATOM     39  C   UNL A   1      35.588  34.545  28.862  1.00  0.00     0.016 A 
ATOM     40  C   UNL A   1      34.307  33.692  30.751  1.00  0.00     0.016 A 
ATOM     41  C   UNL A   1      36.777  34.186  29.493  1.00  0.00     0.010 A 
ATOM     42  C   UNL A   1      35.492  33.324  31.374  1.00  0.00     0.010 A 
ATOM     43  C   UNL A   1      36.726  33.545  30.737  1.00  0.00    -0.014 A 
BRANCH  43  44
ATOM     44  C   UNL A   1      37.933  32.946  31.343  1.00  0.00     0.031 A 
ATOM     45  C   UNL A   1      38.524  31.733  30.686  1.00  0.00     0.074 A 
ATOM     46  C   UNL A   1      38.417  33.417  32.504  1.00  0.00     0.049 A 
ATOM     47  N   UNL A   1      39.438  30.912  31.128  1.00  0.00    -0.248 NA
ATOM     48  C   UNL A   1      37.986  31.385  29.361  1.00  0.00     0.031 C 
ATOM     49  C   UNL A   1      37.918  34.593  33.213  1.00  0.00     0.029 A 
ATOM     50  N   UNL A   1      39.413  32.930  33.309  1.00  0.00    -0.354 N 
ATOM     51  C   UNL A   1      39.568  29.937  30.147  1.00  0.00     0.074 A 
ATOM     52  C   UNL A   1      38.621  30.253  29.101  1.00  0.00     0.031 C 
ATOM     53  C   UNL A   1      38.591  34.720  34.369  1.00  0.00     0.029 A 
ATOM     54  C   UNL A   1      39.533  33.610  34.496  1.00  0.00     0.049 A 
ATOM     55  H   UNL A   1      39.986  32.168  33.062  1.00  0.00     0.167 HD
ATOM     56  C   UNL A   1      40.406  28.875  30.130  1.00  0.00     0.037 A 
ATOM     57  C   UNL A   1      40.291  33.335  35.575  1.00  0.00     0.037 A 
ATOM     58  C   UNL A   1      41.343  28.581  31.181  1.00  0.00     0.049 A 
ATOM     59  C   UNL A   1      41.187  32.122  35.546  1.00  0.00     0.074 A 
ATOM     60  C   UNL A   1      42.273  27.559  31.247  1.00  0.00     0.029 A 
ATOM     61  N   UNL A   1      41.460  29.308  32.358  1.00  0.00    -0.354 N 
ATOM     62  N   UNL A   1      41.343  31.227  34.600  1.00  0.00    -0.248 NA
ATOM     63  C   UNL A   1      42.017  31.885  36.735  1.00  0.00     0.031 C 
ATOM     64  C   UNL A   1      42.908  27.630  32.491  1.00  0.00     0.029 A 
ATOM     65  C   UNL A   1      42.427  28.738  33.170  1.00  0.00     0.049 A 
ATOM     66  H   UNL A   1      40.934  30.109  32.582  1.00  0.00     0.167 HD
ATOM     67  C   UNL A   1      42.310  30.343  35.063  1.00  0.00     0.074 A 
ATOM     68  C   UNL A   1      42.713  30.818  36.371  1.00  0.00     0.031 C 
ATOM     69  C   UNL A   1      42.820  29.238  34.464  1.00  0.00     0.037 A 
BRANCH  56  70
ATOM     70  C   UNL A   1      40.331  27.942  28.956  1.00  0.00     0.064 A 
ATOM     71  C   UNL A   1      41.019  28.197  27.760  1.00  0.00     0.173 A 
ATOM     72  C   UNL A   1      39.589  26.755  29.045  1.00  0.00     0.173 A 
ATOM     73  F   UNL A   1      41.729  29.326  27.617  1.00  0.00    -0.203 F 
ATOM     74  C   UNL A   1      40.949  27.309  26.690  1.00  0.00     0.198 A 
ATOM     75  C   UNL A   1      39.549  25.853  27.985  1.00  0.00     0.198 A 
ATOM     76  F   UNL A   1      38.912  26.461  30.165  1.00  0.00    -0.203 F 
ATOM     77  F   UNL A   1      41.576  27.597  25.540  1.00  0.00    -0.200 F 
ATOM     78  C   UNL A   1      40.222  26.134  26.806  1.00  0.00     0.200 A 
ATOM     79  F   UNL A   1      38.857  24.711  28.105  1.00  0.00    -0.200 F 
ATOM     80  F   UNL A   1      40.167  25.274  25.780  1.00  0.00    -0.200 F 
ENDBRANCH  56  70
BRANCH  57  81
ATOM     81  C   UNL A   1      40.228  34.211  36.775  1.00  0.00     0.064 A 
ATOM     82  C   UNL A   1      41.112  35.288  36.929  1.00  0.00     0.173 A 
ATOM     83  C   UNL A   1      39.299  33.980  37.800  1.00  0.00     0.173 A 
ATOM     84  F   UNL A   1      42.034  35.536  35.987  1.00  0.00    -0.203 F 
ATOM     85  C   UNL A   1      41.089  36.081  38.074  1.00  0.00     0.198 A 
ATOM     86  C   UNL A   1      39.254  34.796  38.930  1.00  0.00     0.198 A 
ATOM     87  F   UNL A   1      38.428  32.965  37.703  1.00  0.00    -0.203 F 
ATOM     88  F   UNL A   1      41.985  37.066  38.220  1.00  0.00    -0.200 F 
ATOM     89  C   UNL A   1      40.156  35.838  39.071  1.00  0.00     0.200 A 
ATOM     90  F   UNL A   1      38.342  34.566  39.883  1.00  0.00    -0.200 F 
ATOM     91  F   UNL A   1      40.135  36.602  40.171  1.00  0.00    -0.200 F 
ENDBRANCH  57  81
BRANCH  69  92
ATOM     92  C   UNL A   1      43.906  28.497  35.191  1.00  0.00     0.064 A 
ATOM     93  C   UNL A   1      45.263  28.793  34.999  1.00  0.00     0.173 A 
ATOM     94  C   UNL A   1      43.577  27.505  36.129  1.00  0.00     0.173 A 
ATOM     95  F   UNL A   1      45.631  29.723  34.105  1.00  0.00    -0.203 F 
ATOM     96  C   UNL A   1      46.251  28.104  35.696  1.00  0.00     0.198 A 
ATOM     97  C   UNL A   1      44.565  26.844  36.851  1.00  0.00     0.198 A 
ATOM     98  F   UNL A   1      42.293  27.190  36.359  1.00  0.00    -0.203 F 
ATOM     99  F   UNL A   1      47.543  28.366  35.457  1.00  0.00    -0.200 F 
ATOM    100  C   UNL A   1      45.902  27.137  36.628  1.00  0.00     0.200 A 
ATOM    101  F   UNL A   1      44.224  25.925  37.765  1.00  0.00    -0.200 F 
ATOM    102  F   UNL A   1      46.854  26.482  37.305  1.00  0.00    -0.200 F 
ENDBRANCH  69  92
ENDBRANCH  43  44
ENDBRANCH  36  38
ENDBRANCH  35  36
ENDBRANCH  34  35
ENDBRANCH  33  34
ENDBRANCH  32  33
ENDBRANCH  31  32
ENDBRANCH   1  31
TORSDOF 22
ENDMDL
