MODEL 1
REMARK VINA RESULT:     -11.0      0.000      0.000
REMARK SMILES C[C@@H]1CCC[C@H](C)N1C(=O)Cn1cccc1C(=O)OCCOCCOCCOC(=O)c1ccc(-c2c3nc(c(-c4c(F)c(F)c(F)c(F)c4F)c4ccc([nH]4)c(-c4c(F)c(F)c(F)c(F)c4F)c4nc(c(-c5c(F)c(F)c(F)c(F)c5F)c5ccc2[nH]5)C=C4)C=C3)cc1
REMARK SMILES IDX 23 1 22 2 21 3 20 4 19 5 17 6 18 7 16 8 12 9 13 10 14 11
REMARK SMILES IDX 15 12 11 13 9 14 10 15 8 16 1 17 2 18 3 19 4 20 6 21 5 22
REMARK SMILES IDX 7 23 24 24 25 25 26 26 27 27 28 28 29 29 30 30 31 31 32 32
REMARK SMILES IDX 93 33 33 34 92 35 34 36 35 37 36 38 86 39 37 40 91 41 85 42
REMARK SMILES IDX 87 43 38 44 90 45 84 46 83 47 39 49 71 50 51 51 70 52 52 53
REMARK SMILES IDX 55 54 69 55 88 56 53 57 54 58 68 60 89 61 56 62 40 63 41 64
REMARK SMILES IDX 49 65 42 66 43 67 47 68 50 69 44 70 45 71 48 72 46 73 72 74
REMARK SMILES IDX 73 75 81 76 74 77 75 78 79 79 82 80 76 81 77 82 80 83 78 84
REMARK SMILES IDX 57 85 58 86 66 87 59 88 60 89 64 90 67 91 61 92 62 93 65 94
REMARK SMILES IDX 63 95
REMARK H PARENT 87 48 55 59
REMARK Flexibility Score: inf
ROOT
ATOM      1  C   UNL A   1      34.165  33.420  28.140  1.00  0.00     0.188 C 
ENDROOT
BRANCH   1   2
ATOM      2  O   UNL A   1      33.839  32.035  28.480  1.00  0.00    -0.376 OA
BRANCH   2   3
ATOM      3  C   UNL A   1      33.923  31.105  27.381  1.00  0.00     0.202 C 
BRANCH   3   4
ATOM      4  C   UNL A   1      32.587  30.481  26.741  1.00  0.00     0.261 C 
BRANCH   4   5
ATOM      5  O   UNL A   1      32.574  29.093  26.255  1.00  0.00    -0.459 OA
BRANCH   5   6
ATOM      6  C   UNL A   1      33.102  28.746  25.023  1.00  0.00     0.355 C 
ATOM      7  O   UNL A   1      34.293  28.638  24.846  1.00  0.00    -0.244 OA
BRANCH   6   8
ATOM      8  C   UNL A   1      32.081  28.225  24.050  1.00  0.00     0.128 A 
ATOM      9  N   UNL A   1      32.111  27.535  22.826  1.00  0.00    -0.333 N 
ATOM     10  C   UNL A   1      30.818  27.326  22.368  1.00  0.00     0.087 A 
ATOM     11  C   UNL A   1      29.939  27.896  23.239  1.00  0.00     0.020 A 
ATOM     12  C   UNL A   1      30.711  28.421  24.293  1.00  0.00     0.035 A 
BRANCH   9  13
ATOM     13  C   UNL A   1      33.193  26.941  22.046  1.00  0.00     0.222 C 
BRANCH  13  14
ATOM     14  C   UNL A   1      33.303  25.456  22.130  1.00  0.00     0.242 C 
ATOM     15  O   UNL A   1      33.212  24.798  21.088  1.00  0.00    -0.273 OA
BRANCH  14  16
ATOM     16  N   UNL A   1      33.323  24.866  23.384  1.00  0.00    -0.336 N 
ATOM     17  C   UNL A   1      35.295  23.967  24.579  1.00  0.00     0.031 C 
ATOM     18  C   UNL A   1      34.247  25.084  24.527  1.00  0.00     0.082 C 
ATOM     19  C   UNL A   1      33.629  25.141  25.955  1.00  0.00     0.025 C 
ATOM     20  C   UNL A   1      32.152  24.928  26.105  1.00  0.00     0.004 C 
ATOM     21  C   UNL A   1      32.199  23.998  23.581  1.00  0.00     0.082 C 
ATOM     22  C   UNL A   1      31.475  24.581  24.822  1.00  0.00     0.025 C 
ATOM     23  C   UNL A   1      32.529  22.570  23.118  1.00  0.00     0.031 C 
ENDBRANCH  14  16
ENDBRANCH  13  14
ENDBRANCH   9  13
ENDBRANCH   6   8
ENDBRANCH   5   6
ENDBRANCH   4   5
ENDBRANCH   3   4
ENDBRANCH   2   3
ENDBRANCH   1   2
BRANCH   1  24
ATOM     24  C   UNL A   1      32.931  34.362  28.160  1.00  0.00     0.188 C 
BRANCH  24  25
ATOM     25  O   UNL A   1      32.634  35.120  29.323  1.00  0.00    -0.376 OA
BRANCH  25  26
ATOM     26  C   UNL A   1      33.384  36.301  29.555  1.00  0.00     0.202 C 
BRANCH  26  27
ATOM     27  C   UNL A   1      33.337  36.894  30.961  1.00  0.00     0.261 C 
BRANCH  27  28
ATOM     28  O   UNL A   1      33.067  35.906  31.953  1.00  0.00    -0.460 OA
BRANCH  28  29
ATOM     29  C   UNL A   1      34.186  35.446  32.565  1.00  0.00     0.338 C 
ATOM     30  O   UNL A   1      35.130  36.101  32.976  1.00  0.00    -0.246 OA
BRANCH  29  31
ATOM     31  C   UNL A   1      34.133  33.961  32.620  1.00  0.00     0.060 A 
ATOM     32  C   UNL A   1      34.554  33.483  33.869  1.00  0.00     0.016 A 
ATOM     33  C   UNL A   1      34.658  33.448  31.435  1.00  0.00     0.016 A 
ATOM     34  C   UNL A   1      35.815  32.940  33.946  1.00  0.00     0.010 A 
ATOM     35  C   UNL A   1      35.962  33.030  31.500  1.00  0.00     0.010 A 
ATOM     36  C   UNL A   1      36.550  32.845  32.764  1.00  0.00    -0.014 A 
BRANCH  36  37
ATOM     37  C   UNL A   1      37.955  32.448  32.824  1.00  0.00     0.031 A 
ATOM     38  C   UNL A   1      38.179  31.151  32.052  1.00  0.00     0.074 A 
ATOM     39  C   UNL A   1      38.779  33.322  33.478  1.00  0.00     0.049 A 
ATOM     40  N   UNL A   1      39.265  30.473  31.862  1.00  0.00    -0.248 NA
ATOM     41  C   UNL A   1      37.020  30.519  31.351  1.00  0.00     0.031 C 
ATOM     42  C   UNL A   1      38.338  34.557  34.170  1.00  0.00     0.029 A 
ATOM     43  N   UNL A   1      40.137  33.358  33.704  1.00  0.00    -0.354 N 
ATOM     44  C   UNL A   1      38.983  29.524  30.865  1.00  0.00     0.074 A 
ATOM     45  C   UNL A   1      37.576  29.553  30.626  1.00  0.00     0.031 C 
ATOM     46  C   UNL A   1      39.372  35.152  34.801  1.00  0.00     0.029 A 
ATOM     47  C   UNL A   1      40.589  34.410  34.544  1.00  0.00     0.049 A 
ATOM     48  H   UNL A   1      40.753  32.700  33.308  1.00  0.00     0.167 HD
ATOM     49  C   UNL A   1      39.948  28.832  30.207  1.00  0.00     0.037 A 
ATOM     50  C   UNL A   1      41.855  34.643  35.015  1.00  0.00     0.037 A 
ATOM     51  C   UNL A   1      41.223  29.057  30.792  1.00  0.00     0.049 A 
ATOM     52  C   UNL A   1      42.706  33.719  34.247  1.00  0.00     0.074 A 
ATOM     53  C   UNL A   1      41.781  28.575  31.946  1.00  0.00     0.029 A 
ATOM     54  N   UNL A   1      41.948  30.142  30.366  1.00  0.00    -0.354 N 
ATOM     55  N   UNL A   1      42.990  33.868  32.988  1.00  0.00    -0.248 NA
ATOM     56  C   UNL A   1      43.190  32.493  34.886  1.00  0.00     0.031 C 
ATOM     57  C   UNL A   1      42.604  29.624  32.403  1.00  0.00     0.029 A 
ATOM     58  C   UNL A   1      42.612  30.656  31.459  1.00  0.00     0.049 A 
ATOM     59  H   UNL A   1      41.985  30.492  29.447  1.00  0.00     0.167 HD
ATOM     60  C   UNL A   1      43.390  32.605  32.618  1.00  0.00     0.074 A 
ATOM     61  C   UNL A   1      43.774  31.926  33.834  1.00  0.00     0.031 C 
ATOM     62  C   UNL A   1      42.937  32.064  31.459  1.00  0.00     0.037 A 
BRANCH  49  63
ATOM     63  C   UNL A   1      39.860  28.028  28.955  1.00  0.00     0.064 A 
ATOM     64  C   UNL A   1      39.407  26.696  29.041  1.00  0.00     0.173 A 
ATOM     65  C   UNL A   1      40.500  28.405  27.766  1.00  0.00     0.173 A 
ATOM     66  F   UNL A   1      38.748  26.267  30.128  1.00  0.00    -0.203 F 
ATOM     67  C   UNL A   1      39.680  25.764  28.044  1.00  0.00     0.198 A 
ATOM     68  C   UNL A   1      40.738  27.477  26.749  1.00  0.00     0.198 A 
ATOM     69  F   UNL A   1      40.985  29.645  27.606  1.00  0.00    -0.203 F 
ATOM     70  F   UNL A   1      39.335  24.481  28.219  1.00  0.00    -0.200 F 
ATOM     71  C   UNL A   1      40.362  26.152  26.906  1.00  0.00     0.200 A 
ATOM     72  F   UNL A   1      41.395  27.854  25.645  1.00  0.00    -0.200 F 
ATOM     73  F   UNL A   1      40.684  25.244  25.974  1.00  0.00    -0.200 F 
ENDBRANCH  49  63
BRANCH  50  74
ATOM     74  C   UNL A   1      42.540  35.501  36.059  1.00  0.00     0.064 A 
ATOM     75  C   UNL A   1      43.155  36.741  35.840  1.00  0.00     0.173 A 
ATOM     76  C   UNL A   1      42.493  35.118  37.431  1.00  0.00     0.173 A 
ATOM     77  F   UNL A   1      43.380  37.197  34.604  1.00  0.00    -0.203 F 
ATOM     78  C   UNL A   1      43.572  37.570  36.899  1.00  0.00     0.198 A 
ATOM     79  C   UNL A   1      42.865  35.956  38.483  1.00  0.00     0.198 A 
ATOM     80  F   UNL A   1      42.062  33.906  37.808  1.00  0.00    -0.203 F 
ATOM     81  F   UNL A   1      44.138  38.756  36.631  1.00  0.00    -0.200 F 
ATOM     82  C   UNL A   1      43.390  37.196  38.217  1.00  0.00     0.200 A 
ATOM     83  F   UNL A   1      42.681  35.554  39.750  1.00  0.00    -0.200 F 
ATOM     84  F   UNL A   1      43.722  38.018  39.221  1.00  0.00    -0.200 F 
ENDBRANCH  50  74
BRANCH  62  85
ATOM     85  C   UNL A   1      42.449  33.102  30.463  1.00  0.00     0.064 A 
ATOM     86  C   UNL A   1      43.378  33.905  29.782  1.00  0.00     0.173 A 
ATOM     87  C   UNL A   1      41.095  33.424  30.268  1.00  0.00     0.173 A 
ATOM     88  F   UNL A   1      44.690  33.654  29.897  1.00  0.00    -0.203 F 
ATOM     89  C   UNL A   1      42.973  34.978  28.982  1.00  0.00     0.198 A 
ATOM     90  C   UNL A   1      40.686  34.490  29.465  1.00  0.00     0.198 A 
ATOM     91  F   UNL A   1      40.134  32.706  30.841  1.00  0.00    -0.203 F 
ATOM     92  F   UNL A   1      43.890  35.726  28.354  1.00  0.00    -0.200 F 
ATOM     93  C   UNL A   1      41.628  35.273  28.828  1.00  0.00     0.200 A 
ATOM     94  F   UNL A   1      39.378  34.748  29.308  1.00  0.00    -0.200 F 
ATOM     95  F   UNL A   1      41.240  36.297  28.054  1.00  0.00    -0.200 F 
ENDBRANCH  62  85
ENDBRANCH  36  37
ENDBRANCH  29  31
ENDBRANCH  28  29
ENDBRANCH  27  28
ENDBRANCH  26  27
ENDBRANCH  25  26
ENDBRANCH  24  25
ENDBRANCH   1  24
TORSDOF 20
ENDMDL
MODEL 2
REMARK VINA RESULT:     -10.9      3.119      8.947
REMARK SMILES C[C@@H]1CCC[C@H](C)N1C(=O)Cn1cccc1C(=O)OCCOCCOCCOC(=O)c1ccc(-c2c3nc(c(-c4c(F)c(F)c(F)c(F)c4F)c4ccc([nH]4)c(-c4c(F)c(F)c(F)c(F)c4F)c4nc(c(-c5c(F)c(F)c(F)c(F)c5F)c5ccc2[nH]5)C=C4)C=C3)cc1
REMARK SMILES IDX 23 1 22 2 21 3 20 4 19 5 17 6 18 7 16 8 12 9 13 10 14 11
REMARK SMILES IDX 15 12 11 13 9 14 10 15 8 16 1 17 2 18 3 19 4 20 6 21 5 22
REMARK SMILES IDX 7 23 24 24 25 25 26 26 27 27 28 28 29 29 30 30 31 31 32 32
REMARK SMILES IDX 93 33 33 34 92 35 34 36 35 37 36 38 86 39 37 40 91 41 85 42
REMARK SMILES IDX 87 43 38 44 90 45 84 46 83 47 39 49 71 50 51 51 70 52 52 53
REMARK SMILES IDX 55 54 69 55 88 56 53 57 54 58 68 60 89 61 56 62 40 63 41 64
REMARK SMILES IDX 49 65 42 66 43 67 47 68 50 69 44 70 45 71 48 72 46 73 72 74
REMARK SMILES IDX 73 75 81 76 74 77 75 78 79 79 82 80 76 81 77 82 80 83 78 84
REMARK SMILES IDX 57 85 58 86 66 87 59 88 60 89 64 90 67 91 61 92 62 93 65 94
REMARK SMILES IDX 63 95
REMARK H PARENT 87 48 55 59
REMARK Flexibility Score: inf
ROOT
ATOM      1  C   UNL A   1      34.695  32.625  28.005  1.00  0.00     0.188 C 
ENDROOT
BRANCH   1   2
ATOM      2  O   UNL A   1      34.074  31.312  28.176  1.00  0.00    -0.376 OA
BRANCH   2   3
ATOM      3  C   UNL A   1      33.236  30.890  27.081  1.00  0.00     0.202 C 
BRANCH   3   4
ATOM      4  C   UNL A   1      32.255  29.629  27.248  1.00  0.00     0.261 C 
BRANCH   4   5
ATOM      5  O   UNL A   1      32.491  28.397  26.480  1.00  0.00    -0.459 OA
BRANCH   5   6
ATOM      6  C   UNL A   1      33.055  28.421  25.216  1.00  0.00     0.355 C 
ATOM      7  O   UNL A   1      34.250  28.515  25.051  1.00  0.00    -0.244 OA
BRANCH   6   8
ATOM      8  C   UNL A   1      32.109  28.015  24.121  1.00  0.00     0.128 A 
ATOM      9  N   UNL A   1      32.225  27.415  22.855  1.00  0.00    -0.333 N 
ATOM     10  C   UNL A   1      30.972  27.294  22.271  1.00  0.00     0.087 A 
ATOM     11  C   UNL A   1      30.038  27.835  23.102  1.00  0.00     0.020 A 
ATOM     12  C   UNL A   1      30.730  28.249  24.257  1.00  0.00     0.035 A 
BRANCH   9  13
ATOM     13  C   UNL A   1      33.352  26.835  22.130  1.00  0.00     0.222 C 
BRANCH  13  14
ATOM     14  C   UNL A   1      33.356  25.347  22.036  1.00  0.00     0.242 C 
ATOM     15  O   UNL A   1      33.071  24.824  20.954  1.00  0.00    -0.273 OA
BRANCH  14  16
ATOM     16  N   UNL A   1      33.502  24.613  23.203  1.00  0.00    -0.336 N 
ATOM     17  C   UNL A   1      35.406  23.159  23.822  1.00  0.00     0.031 C 
ATOM     18  C   UNL A   1      34.675  24.476  24.104  1.00  0.00     0.082 C 
ATOM     19  C   UNL A   1      34.412  24.486  25.639  1.00  0.00     0.025 C 
ATOM     20  C   UNL A   1      32.995  24.586  26.121  1.00  0.00     0.004 C 
ATOM     21  C   UNL A   1      32.270  23.995  23.599  1.00  0.00     0.082 C 
ATOM     22  C   UNL A   1      31.994  24.560  25.016  1.00  0.00     0.025 C 
ATOM     23  C   UNL A   1      32.135  22.599  22.968  1.00  0.00     0.031 C 
ENDBRANCH  14  16
ENDBRANCH  13  14
ENDBRANCH   9  13
ENDBRANCH   6   8
ENDBRANCH   5   6
ENDBRANCH   4   5
ENDBRANCH   3   4
ENDBRANCH   2   3
ENDBRANCH   1   2
BRANCH   1  24
ATOM     24  C   UNL A   1      33.780  33.798  28.450  1.00  0.00     0.188 C 
BRANCH  24  25
ATOM     25  O   UNL A   1      33.574  34.054  29.832  1.00  0.00    -0.376 OA
BRANCH  25  26
ATOM     26  C   UNL A   1      34.703  34.393  30.620  1.00  0.00     0.202 C 
BRANCH  26  27
ATOM     27  C   UNL A   1      35.027  33.486  31.804  1.00  0.00     0.261 C 
BRANCH  27  28
ATOM     28  O   UNL A   1      35.267  32.140  31.401  1.00  0.00    -0.460 OA
BRANCH  28  29
ATOM     29  C   UNL A   1      36.493  31.687  31.763  1.00  0.00     0.338 C 
ATOM     30  O   UNL A   1      37.478  32.352  32.042  1.00  0.00    -0.246 OA
BRANCH  29  31
ATOM     31  C   UNL A   1      36.493  30.201  31.720  1.00  0.00     0.060 A 
ATOM     32  C   UNL A   1      37.525  29.669  32.507  1.00  0.00     0.016 A 
ATOM     33  C   UNL A   1      36.301  29.789  30.403  1.00  0.00     0.016 A 
ATOM     34  C   UNL A   1      38.634  29.187  31.852  1.00  0.00     0.010 A 
ATOM     35  C   UNL A   1      37.439  29.435  29.724  1.00  0.00     0.010 A 
ATOM     36  C   UNL A   1      38.618  29.203  30.457  1.00  0.00    -0.014 A 
BRANCH  36  37
ATOM     37  C   UNL A   1      39.837  28.875  29.722  1.00  0.00     0.031 A 
ATOM     38  C   UNL A   1      40.743  30.098  29.613  1.00  0.00     0.074 A 
ATOM     39  C   UNL A   1      39.956  27.564  29.348  1.00  0.00     0.049 A 
ATOM     40  N   UNL A   1      41.900  30.228  29.049  1.00  0.00    -0.248 NA
ATOM     41  C   UNL A   1      40.314  31.374  30.262  1.00  0.00     0.031 C 
ATOM     42  C   UNL A   1      38.929  26.517  29.565  1.00  0.00     0.029 A 
ATOM     43  N   UNL A   1      40.943  26.844  28.713  1.00  0.00    -0.354 N 
ATOM     44  C   UNL A   1      42.421  31.463  29.469  1.00  0.00     0.074 A 
ATOM     45  C   UNL A   1      41.385  32.156  30.164  1.00  0.00     0.031 C 
ATOM     46  C   UNL A   1      39.301  25.351  28.997  1.00  0.00     0.029 A 
ATOM     47  C   UNL A   1      40.616  25.496  28.409  1.00  0.00     0.049 A 
ATOM     48  H   UNL A   1      41.817  27.238  28.485  1.00  0.00     0.167 HD
ATOM     49  C   UNL A   1      43.725  31.810  29.311  1.00  0.00     0.037 A 
ATOM     50  C   UNL A   1      41.352  24.576  27.708  1.00  0.00     0.037 A 
ATOM     51  C   UNL A   1      44.411  30.856  28.512  1.00  0.00     0.049 A 
ATOM     52  C   UNL A   1      42.677  25.202  27.563  1.00  0.00     0.074 A 
ATOM     53  C   UNL A   1      44.393  30.634  27.161  1.00  0.00     0.029 A 
ATOM     54  N   UNL A   1      44.953  29.760  29.137  1.00  0.00    -0.354 N 
ATOM     55  N   UNL A   1      43.522  25.352  28.539  1.00  0.00    -0.248 NA
ATOM     56  C   UNL A   1      43.050  25.798  26.278  1.00  0.00     0.031 C 
ATOM     57  C   UNL A   1      44.569  29.242  27.032  1.00  0.00     0.029 A 
ATOM     58  C   UNL A   1      44.805  28.682  28.291  1.00  0.00     0.049 A 
ATOM     59  H   UNL A   1      45.370  29.746  30.028  1.00  0.00     0.167 HD
ATOM     60  C   UNL A   1      44.357  26.338  28.066  1.00  0.00     0.074 A 
ATOM     61  C   UNL A   1      44.213  26.339  26.628  1.00  0.00     0.031 C 
ATOM     62  C   UNL A   1      44.719  27.364  28.877  1.00  0.00     0.037 A 
BRANCH  49  63
ATOM     63  C   UNL A   1      44.500  32.918  29.938  1.00  0.00     0.064 A 
ATOM     64  C   UNL A   1      44.847  32.810  31.300  1.00  0.00     0.173 A 
ATOM     65  C   UNL A   1      44.616  34.187  29.353  1.00  0.00     0.173 A 
ATOM     66  F   UNL A   1      44.803  31.622  31.924  1.00  0.00    -0.203 F 
ATOM     67  C   UNL A   1      45.182  33.926  32.061  1.00  0.00     0.198 A 
ATOM     68  C   UNL A   1      44.989  35.299  30.111  1.00  0.00     0.198 A 
ATOM     69  F   UNL A   1      44.282  34.387  28.070  1.00  0.00    -0.203 F 
ATOM     70  F   UNL A   1      45.390  33.795  33.378  1.00  0.00    -0.200 F 
ATOM     71  C   UNL A   1      45.234  35.173  31.469  1.00  0.00     0.200 A 
ATOM     72  F   UNL A   1      45.045  36.507  29.535  1.00  0.00    -0.200 F 
ATOM     73  F   UNL A   1      45.491  36.259  32.212  1.00  0.00    -0.200 F 
ENDBRANCH  49  63
BRANCH  50  74
ATOM     74  C   UNL A   1      41.160  23.218  27.066  1.00  0.00     0.064 A 
ATOM     75  C   UNL A   1      42.088  22.168  27.053  1.00  0.00     0.173 A 
ATOM     76  C   UNL A   1      39.898  22.876  26.499  1.00  0.00     0.173 A 
ATOM     77  F   UNL A   1      43.352  22.352  27.444  1.00  0.00    -0.203 F 
ATOM     78  C   UNL A   1      41.747  20.869  26.627  1.00  0.00     0.198 A 
ATOM     79  C   UNL A   1      39.545  21.580  26.118  1.00  0.00     0.198 A 
ATOM     80  F   UNL A   1      38.941  23.794  26.308  1.00  0.00    -0.203 F 
ATOM     81  F   UNL A   1      42.670  19.898  26.654  1.00  0.00    -0.200 F 
ATOM     82  C   UNL A   1      40.467  20.568  26.200  1.00  0.00     0.200 A 
ATOM     83  F   UNL A   1      38.295  21.328  25.700  1.00  0.00    -0.200 F 
ATOM     84  F   UNL A   1      40.128  19.316  25.864  1.00  0.00    -0.200 F 
ENDBRANCH  50  74
BRANCH  62  85
ATOM     85  C   UNL A   1      44.574  27.040  30.353  1.00  0.00     0.064 A 
ATOM     86  C   UNL A   1      45.446  26.120  30.955  1.00  0.00     0.173 A 
ATOM     87  C   UNL A   1      43.516  27.501  31.156  1.00  0.00     0.173 A 
ATOM     88  F   UNL A   1      46.494  25.644  30.267  1.00  0.00    -0.203 F 
ATOM     89  C   UNL A   1      45.251  25.671  32.265  1.00  0.00     0.198 A 
ATOM     90  C   UNL A   1      43.321  27.061  32.466  1.00  0.00     0.198 A 
ATOM     91  F   UNL A   1      42.651  28.401  30.693  1.00  0.00    -0.203 F 
ATOM     92  F   UNL A   1      46.102  24.785  32.801  1.00  0.00    -0.200 F 
ATOM     93  C   UNL A   1      44.185  26.137  33.017  1.00  0.00     0.200 A 
ATOM     94  F   UNL A   1      42.297  27.541  33.189  1.00  0.00    -0.200 F 
ATOM     95  F   UNL A   1      44.003  25.713  34.276  1.00  0.00    -0.200 F 
ENDBRANCH  62  85
ENDBRANCH  36  37
ENDBRANCH  29  31
ENDBRANCH  28  29
ENDBRANCH  27  28
ENDBRANCH  26  27
ENDBRANCH  25  26
ENDBRANCH  24  25
ENDBRANCH   1  24
TORSDOF 20
ENDMDL
MODEL 3
REMARK VINA RESULT:     -10.9      3.968      8.983
REMARK SMILES C[C@@H]1CCC[C@H](C)N1C(=O)Cn1cccc1C(=O)OCCOCCOCCOC(=O)c1ccc(-c2c3nc(c(-c4c(F)c(F)c(F)c(F)c4F)c4ccc([nH]4)c(-c4c(F)c(F)c(F)c(F)c4F)c4nc(c(-c5c(F)c(F)c(F)c(F)c5F)c5ccc2[nH]5)C=C4)C=C3)cc1
REMARK SMILES IDX 23 1 22 2 21 3 20 4 19 5 17 6 18 7 16 8 12 9 13 10 14 11
REMARK SMILES IDX 15 12 11 13 9 14 10 15 8 16 1 17 2 18 3 19 4 20 6 21 5 22
REMARK SMILES IDX 7 23 24 24 25 25 26 26 27 27 28 28 29 29 30 30 31 31 32 32
REMARK SMILES IDX 93 33 33 34 92 35 34 36 35 37 36 38 86 39 37 40 91 41 85 42
REMARK SMILES IDX 87 43 38 44 90 45 84 46 83 47 39 49 71 50 51 51 70 52 52 53
REMARK SMILES IDX 55 54 69 55 88 56 53 57 54 58 68 60 89 61 56 62 40 63 41 64
REMARK SMILES IDX 49 65 42 66 43 67 47 68 50 69 44 70 45 71 48 72 46 73 72 74
REMARK SMILES IDX 73 75 81 76 74 77 75 78 79 79 82 80 76 81 77 82 80 83 78 84
REMARK SMILES IDX 57 85 58 86 66 87 59 88 60 89 64 90 67 91 61 92 62 93 65 94
REMARK SMILES IDX 63 95
REMARK H PARENT 87 48 55 59
REMARK Flexibility Score: inf
ROOT
ATOM      1  C   UNL A   1      40.478  20.908  26.581  1.00  0.00     0.188 C 
ENDROOT
BRANCH   1   2
ATOM      2  O   UNL A   1      39.212  20.796  25.859  1.00  0.00    -0.376 OA
BRANCH   2   3
ATOM      3  C   UNL A   1      38.503  22.039  25.680  1.00  0.00     0.202 C 
BRANCH   3   4
ATOM      4  C   UNL A   1      37.276  22.133  24.646  1.00  0.00     0.261 C 
BRANCH   4   5
ATOM      5  O   UNL A   1      36.113  22.980  24.948  1.00  0.00    -0.459 OA
BRANCH   5   6
ATOM      6  C   UNL A   1      35.170  23.297  23.984  1.00  0.00     0.355 C 
ATOM      7  O   UNL A   1      35.471  23.453  22.824  1.00  0.00    -0.244 OA
BRANCH   6   8
ATOM      8  C   UNL A   1      33.750  23.120  24.443  1.00  0.00     0.128 A 
ATOM      9  N   UNL A   1      32.894  23.765  25.352  1.00  0.00    -0.333 N 
ATOM     10  C   UNL A   1      31.657  23.134  25.369  1.00  0.00     0.087 A 
ATOM     11  C   UNL A   1      31.691  22.066  24.524  1.00  0.00     0.020 A 
ATOM     12  C   UNL A   1      32.966  22.074  23.927  1.00  0.00     0.035 A 
BRANCH   9  13
ATOM     13  C   UNL A   1      33.029  24.974  26.159  1.00  0.00     0.222 C 
BRANCH  13  14
ATOM     14  C   UNL A   1      31.981  26.011  25.941  1.00  0.00     0.242 C 
ATOM     15  O   UNL A   1      30.972  25.990  26.653  1.00  0.00    -0.273 OA
BRANCH  14  16
ATOM     16  N   UNL A   1      32.095  26.843  24.838  1.00  0.00    -0.336 N 
ATOM     17  C   UNL A   1      33.250  26.345  22.706  1.00  0.00     0.031 C 
ATOM     18  C   UNL A   1      31.896  26.550  23.395  1.00  0.00     0.082 C 
ATOM     19  C   UNL A   1      31.149  27.614  22.538  1.00  0.00     0.025 C 
ATOM     20  C   UNL A   1      30.715  28.889  23.198  1.00  0.00     0.004 C 
ATOM     21  C   UNL A   1      32.350  28.201  25.221  1.00  0.00     0.082 C 
ATOM     22  C   UNL A   1      31.168  29.000  24.615  1.00  0.00     0.025 C 
ATOM     23  C   UNL A   1      33.861  28.461  25.331  1.00  0.00     0.031 C 
ENDBRANCH  14  16
ENDBRANCH  13  14
ENDBRANCH   9  13
ENDBRANCH   6   8
ENDBRANCH   5   6
ENDBRANCH   4   5
ENDBRANCH   3   4
ENDBRANCH   2   3
ENDBRANCH   1   2
BRANCH   1  24
ATOM     24  C   UNL A   1      40.562  22.175  27.476  1.00  0.00     0.188 C 
BRANCH  24  25
ATOM     25  O   UNL A   1      41.818  22.790  27.721  1.00  0.00    -0.376 OA
BRANCH  25  26
ATOM     26  C   UNL A   1      42.987  22.102  27.307  1.00  0.00     0.202 C 
BRANCH  26  27
ATOM     27  C   UNL A   1      43.875  22.792  26.276  1.00  0.00     0.261 C 
BRANCH  27  28
ATOM     28  O   UNL A   1      43.156  23.746  25.497  1.00  0.00    -0.460 OA
BRANCH  28  29
ATOM     29  C   UNL A   1      43.589  25.018  25.681  1.00  0.00     0.338 C 
ATOM     30  O   UNL A   1      44.648  25.379  26.170  1.00  0.00    -0.246 OA
BRANCH  29  31
ATOM     31  C   UNL A   1      42.527  25.960  25.238  1.00  0.00     0.060 A 
ATOM     32  C   UNL A   1      42.938  27.293  25.382  1.00  0.00     0.016 A 
ATOM     33  C   UNL A   1      41.302  25.523  25.736  1.00  0.00     0.016 A 
ATOM     34  C   UNL A   1      42.423  28.002  26.442  1.00  0.00     0.010 A 
ATOM     35  C   UNL A   1      40.867  26.157  26.872  1.00  0.00     0.010 A 
ATOM     36  C   UNL A   1      41.484  27.363  27.251  1.00  0.00    -0.014 A 
BRANCH  36  37
ATOM     37  C   UNL A   1      41.048  28.004  28.489  1.00  0.00     0.031 A 
ATOM     38  C   UNL A   1      41.916  27.555  29.661  1.00  0.00     0.074 A 
ATOM     39  C   UNL A   1      40.028  28.905  28.349  1.00  0.00     0.049 A 
ATOM     40  N   UNL A   1      41.862  27.886  30.910  1.00  0.00    -0.248 NA
ATOM     41  C   UNL A   1      43.047  26.612  29.401  1.00  0.00     0.031 C 
ATOM     42  C   UNL A   1      39.313  29.197  27.083  1.00  0.00     0.029 A 
ATOM     43  N   UNL A   1      39.379  29.747  29.224  1.00  0.00    -0.354 N 
ATOM     44  C   UNL A   1      43.043  27.413  31.507  1.00  0.00     0.074 A 
ATOM     45  C   UNL A   1      43.709  26.586  30.554  1.00  0.00     0.031 C 
ATOM     46  C   UNL A   1      38.294  30.057  27.291  1.00  0.00     0.029 A 
ATOM     47  C   UNL A   1      38.272  30.455  28.683  1.00  0.00     0.049 A 
ATOM     48  H   UNL A   1      39.662  29.852  30.161  1.00  0.00     0.167 HD
ATOM     49  C   UNL A   1      43.467  27.817  32.733  1.00  0.00     0.037 A 
ATOM     50  C   UNL A   1      37.391  31.283  29.328  1.00  0.00     0.037 A 
ATOM     51  C   UNL A   1      42.477  28.606  33.378  1.00  0.00     0.049 A 
ATOM     52  C   UNL A   1      37.992  31.495  30.655  1.00  0.00     0.074 A 
ATOM     53  C   UNL A   1      41.304  28.253  33.992  1.00  0.00     0.029 A 
ATOM     54  N   UNL A   1      42.459  29.955  33.126  1.00  0.00    -0.354 N 
ATOM     55  N   UNL A   1      39.052  32.218  30.867  1.00  0.00    -0.248 NA
ATOM     56  C   UNL A   1      37.451  30.776  31.810  1.00  0.00     0.031 C 
ATOM     57  C   UNL A   1      40.439  29.338  33.744  1.00  0.00     0.029 A 
ATOM     58  C   UNL A   1      41.142  30.357  33.095  1.00  0.00     0.049 A 
ATOM     59  H   UNL A   1      43.246  30.531  32.990  1.00  0.00     0.167 HD
ATOM     60  C   UNL A   1      39.483  31.768  32.093  1.00  0.00     0.074 A 
ATOM     61  C   UNL A   1      38.341  31.148  32.725  1.00  0.00     0.031 C 
ATOM     62  C   UNL A   1      40.800  31.510  32.294  1.00  0.00     0.037 A 
BRANCH  49  63
ATOM     63  C   UNL A   1      44.799  27.656  33.382  1.00  0.00     0.064 A 
ATOM     64  C   UNL A   1      44.936  26.700  34.409  1.00  0.00     0.173 A 
ATOM     65  C   UNL A   1      45.819  28.610  33.263  1.00  0.00     0.173 A 
ATOM     66  F   UNL A   1      44.024  25.728  34.564  1.00  0.00    -0.203 F 
ATOM     67  C   UNL A   1      45.975  26.763  35.333  1.00  0.00     0.198 A 
ATOM     68  C   UNL A   1      46.882  28.647  34.169  1.00  0.00     0.198 A 
ATOM     69  F   UNL A   1      45.759  29.573  32.332  1.00  0.00    -0.203 F 
ATOM     70  F   UNL A   1      46.002  25.905  36.363  1.00  0.00    -0.200 F 
ATOM     71  C   UNL A   1      46.937  27.748  35.223  1.00  0.00     0.200 A 
ATOM     72  F   UNL A   1      47.817  29.599  34.059  1.00  0.00    -0.200 F 
ATOM     73  F   UNL A   1      47.901  27.852  36.149  1.00  0.00    -0.200 F 
ENDBRANCH  49  63
BRANCH  50  74
ATOM     74  C   UNL A   1      36.054  31.946  29.066  1.00  0.00     0.064 A 
ATOM     75  C   UNL A   1      35.736  33.291  29.296  1.00  0.00     0.173 A 
ATOM     76  C   UNL A   1      35.015  31.211  28.424  1.00  0.00     0.173 A 
ATOM     77  F   UNL A   1      36.554  34.090  29.987  1.00  0.00    -0.203 F 
ATOM     78  C   UNL A   1      34.544  33.873  28.822  1.00  0.00     0.198 A 
ATOM     79  C   UNL A   1      33.854  31.795  27.915  1.00  0.00     0.198 A 
ATOM     80  F   UNL A   1      35.095  29.885  28.249  1.00  0.00    -0.203 F 
ATOM     81  F   UNL A   1      34.300  35.170  29.055  1.00  0.00    -0.200 F 
ATOM     82  C   UNL A   1      33.626  33.136  28.098  1.00  0.00     0.200 A 
ATOM     83  F   UNL A   1      32.981  31.046  27.225  1.00  0.00    -0.200 F 
ATOM     84  F   UNL A   1      32.528  33.710  27.587  1.00  0.00    -0.200 F 
ENDBRANCH  50  74
BRANCH  62  85
ATOM     85  C   UNL A   1      41.708  32.225  31.309  1.00  0.00     0.064 A 
ATOM     86  C   UNL A   1      41.849  33.620  31.376  1.00  0.00     0.173 A 
ATOM     87  C   UNL A   1      42.328  31.595  30.217  1.00  0.00     0.173 A 
ATOM     88  F   UNL A   1      41.305  34.299  32.397  1.00  0.00    -0.203 F 
ATOM     89  C   UNL A   1      42.542  34.336  30.395  1.00  0.00     0.198 A 
ATOM     90  C   UNL A   1      43.027  32.305  29.239  1.00  0.00     0.198 A 
ATOM     91  F   UNL A   1      42.284  30.272  30.076  1.00  0.00    -0.203 F 
ATOM     92  F   UNL A   1      42.648  35.669  30.490  1.00  0.00    -0.200 F 
ATOM     93  C   UNL A   1      43.126  33.679  29.324  1.00  0.00     0.200 A 
ATOM     94  F   UNL A   1      43.607  31.650  28.220  1.00  0.00    -0.200 F 
ATOM     95  F   UNL A   1      43.798  34.365  28.388  1.00  0.00    -0.200 F 
ENDBRANCH  62  85
ENDBRANCH  36  37
ENDBRANCH  29  31
ENDBRANCH  28  29
ENDBRANCH  27  28
ENDBRANCH  26  27
ENDBRANCH  25  26
ENDBRANCH  24  25
ENDBRANCH   1  24
TORSDOF 20
ENDMDL
