MODEL 1
REMARK VINA RESULT:     -12.1      0.000      0.000
REMARK SMILES COC(=O)c1c(NC(=O)[C@@H]2C[C@@H]2C(=O)OCCOCCOCCOC(=O)c2ccc(-c3c4nc(c(-c5c(F)c(F)c(F)c(F)c5F)c5ccc([nH]5)c(-c5c(F)c(F)c(F)c(F)c5F)c5nc(c(-c6c(F)c(F)c(F)c(F)c6F)c6ccc3[nH]6)C=C5)C=C4)cc2)sc2c1CC[N@@H+](Cc1ccccc1)C2
REMARK SMILES IDX 19 1 18 2 17 3 16 4 15 5 13 6 14 7 12 8 10 9 11 10 8 11 7 12
REMARK SMILES IDX 9 14 6 15 5 16 92 17 90 18 91 19 93 20 103 21 94 22 95 23
REMARK SMILES IDX 3 25 4 26 2 27 1 28 96 29 97 30 98 31 102 32 99 33 101 34
REMARK SMILES IDX 100 35 20 36 21 37 22 38 23 39 24 40 25 41 26 42 27 43 28 44
REMARK SMILES IDX 89 45 29 46 88 47 30 48 31 49 32 50 82 51 33 52 87 53 81 54
REMARK SMILES IDX 83 55 34 56 86 57 80 58 79 59 35 61 67 62 47 63 66 64 48 65
REMARK SMILES IDX 51 66 65 67 84 68 49 69 50 70 64 72 85 73 52 74 36 75 37 76
REMARK SMILES IDX 45 77 38 78 39 79 43 80 46 81 40 82 41 83 44 84 42 85 68 86
REMARK SMILES IDX 69 87 77 88 70 89 71 90 75 91 78 92 72 93 73 94 76 95 74 96
REMARK SMILES IDX 53 97 54 98 62 99 55 100 56 101 60 102 63 103 57 104 58 105
REMARK SMILES IDX 61 106 59 107
REMARK H PARENT 7 13 95 24 83 60 51 71
REMARK Flexibility Score: inf
ROOT
ATOM      1  C   UNL A   1      41.265  20.754  26.367  1.00  0.00     0.188 C 
ENDROOT
BRANCH   1   2
ATOM      2  O   UNL A   1      40.170  21.250  27.127  1.00  0.00    -0.376 OA
BRANCH   2   3
ATOM      3  C   UNL A   1      39.340  22.236  26.521  1.00  0.00     0.202 C 
BRANCH   3   4
ATOM      4  C   UNL A   1      38.356  21.756  25.441  1.00  0.00     0.261 C 
BRANCH   4   5
ATOM      5  O   UNL A   1      36.987  21.831  25.879  1.00  0.00    -0.463 OA
BRANCH   5   6
ATOM      6  C   UNL A   1      36.189  22.655  25.158  1.00  0.00     0.309 C 
ATOM      7  O   UNL A   1      36.377  23.852  25.001  1.00  0.00    -0.252 OA
BRANCH   6   8
ATOM      8  C   UNL A   1      35.098  21.969  24.402  1.00  0.00     0.112 C 
ATOM      9  C   UNL A   1      33.657  22.154  24.851  1.00  0.00     0.094 C 
ATOM     10  C   UNL A   1      34.275  20.790  24.833  1.00  0.00     0.030 C 
BRANCH   9  11
ATOM     11  C   UNL A   1      33.402  22.819  26.128  1.00  0.00     0.229 C 
ATOM     12  N   UNL A   1      33.327  24.171  26.183  1.00  0.00    -0.317 N 
ATOM     13  H   UNL A   1      33.271  24.514  27.103  1.00  0.00     0.170 HD
ATOM     14  O   UNL A   1      33.283  22.153  27.153  1.00  0.00    -0.274 OA
BRANCH  12  15
ATOM     15  C   UNL A   1      33.311  25.171  25.240  1.00  0.00     0.110 A 
ATOM     16  C   UNL A   1      33.121  25.415  23.881  1.00  0.00     0.098 A 
ATOM     17  C   UNL A   1      33.171  26.847  23.634  1.00  0.00    -0.006 A 
ATOM     18  S   UNL A   1      33.660  26.612  26.119  1.00  0.00    -0.116 S 
ATOM     19  C   UNL A   1      33.273  27.573  24.798  1.00  0.00     0.065 A 
ATOM     20  C   UNL A   1      32.878  27.536  22.328  1.00  0.00     0.099 C 
ATOM     21  C   UNL A   1      32.981  29.028  24.919  1.00  0.00     0.310 C 
ATOM     22  C   UNL A   1      32.605  29.049  22.519  1.00  0.00     0.267 C 
ATOM     23  N   UNL A   1      32.090  29.476  23.834  1.00  0.00    -0.326 N 
ATOM     24  H   UNL A   1      32.119  30.495  23.826  1.00  0.00     0.348 HD
BRANCH  16  25
ATOM     25  C   UNL A   1      32.845  24.520  22.754  1.00  0.00     0.341 C 
ATOM     26  O   UNL A   1      33.728  24.062  22.035  1.00  0.00    -0.246 OA
BRANCH  25  27
ATOM     27  O   UNL A   1      31.519  24.356  22.484  1.00  0.00    -0.465 OA
ATOM     28  C   UNL A   1      30.700  24.017  23.612  1.00  0.00     0.282 C 
ENDBRANCH  25  27
ENDBRANCH  16  25
BRANCH  23  29
ATOM     29  C   UNL A   1      30.651  29.254  24.071  1.00  0.00     0.299 C 
BRANCH  29  30
ATOM     30  C   UNL A   1      29.625  30.079  23.314  1.00  0.00     0.006 A 
ATOM     31  C   UNL A   1      29.069  31.231  23.893  1.00  0.00     0.009 A 
ATOM     32  C   UNL A   1      29.208  29.722  22.022  1.00  0.00     0.009 A 
ATOM     33  C   UNL A   1      28.180  32.038  23.175  1.00  0.00     0.001 A 
ATOM     34  C   UNL A   1      28.337  30.539  21.296  1.00  0.00     0.001 A 
ATOM     35  C   UNL A   1      27.826  31.698  21.872  1.00  0.00     0.000 A 
ENDBRANCH  29  30
ENDBRANCH  23  29
ENDBRANCH  12  15
ENDBRANCH   9  11
ENDBRANCH   6   8
ENDBRANCH   5   6
ENDBRANCH   4   5
ENDBRANCH   3   4
ENDBRANCH   2   3
ENDBRANCH   1   2
BRANCH   1  36
ATOM     36  C   UNL A   1      41.979  19.516  26.924  1.00  0.00     0.188 C 
BRANCH  36  37
ATOM     37  O   UNL A   1      42.686  18.699  26.013  1.00  0.00    -0.376 OA
BRANCH  37  38
ATOM     38  C   UNL A   1      43.946  18.087  26.242  1.00  0.00     0.202 C 
BRANCH  38  39
ATOM     39  C   UNL A   1      45.225  18.514  25.524  1.00  0.00     0.261 C 
BRANCH  39  40
ATOM     40  O   UNL A   1      45.439  19.901  25.441  1.00  0.00    -0.460 OA
BRANCH  40  41
ATOM     41  C   UNL A   1      44.900  20.511  24.359  1.00  0.00     0.338 C 
ATOM     42  O   UNL A   1      44.521  20.010  23.331  1.00  0.00    -0.246 OA
BRANCH  41  43
ATOM     43  C   UNL A   1      44.919  21.953  24.663  1.00  0.00     0.060 A 
ATOM     44  C   UNL A   1      45.830  22.384  25.622  1.00  0.00     0.016 A 
ATOM     45  C   UNL A   1      43.928  22.809  24.144  1.00  0.00     0.016 A 
ATOM     46  C   UNL A   1      45.592  23.592  26.235  1.00  0.00     0.010 A 
ATOM     47  C   UNL A   1      43.683  24.009  24.762  1.00  0.00     0.010 A 
ATOM     48  C   UNL A   1      44.461  24.336  25.863  1.00  0.00    -0.014 A 
BRANCH  48  49
ATOM     49  C   UNL A   1      44.167  25.527  26.624  1.00  0.00     0.031 A 
ATOM     50  C   UNL A   1      45.146  26.603  26.392  1.00  0.00     0.074 A 
ATOM     51  C   UNL A   1      43.106  25.637  27.444  1.00  0.00     0.049 A 
ATOM     52  N   UNL A   1      46.024  27.031  27.232  1.00  0.00    -0.248 NA
ATOM     53  C   UNL A   1      45.287  27.141  25.031  1.00  0.00     0.031 C 
ATOM     54  C   UNL A   1      41.955  24.742  27.572  1.00  0.00     0.029 A 
ATOM     55  N   UNL A   1      42.805  26.649  28.302  1.00  0.00    -0.354 N 
ATOM     56  C   UNL A   1      46.696  28.049  26.576  1.00  0.00     0.074 A 
ATOM     57  C   UNL A   1      46.329  27.958  25.186  1.00  0.00     0.031 C 
ATOM     58  C   UNL A   1      40.987  25.365  28.283  1.00  0.00     0.029 A 
ATOM     59  C   UNL A   1      41.496  26.639  28.765  1.00  0.00     0.049 A 
ATOM     60  H   UNL A   1      43.462  27.330  28.575  1.00  0.00     0.167 HD
ATOM     61  C   UNL A   1      47.260  29.053  27.296  1.00  0.00     0.037 A 
ATOM     62  C   UNL A   1      40.873  27.645  29.432  1.00  0.00     0.037 A 
ATOM     63  C   UNL A   1      47.522  28.641  28.654  1.00  0.00     0.049 A 
ATOM     64  C   UNL A   1      41.929  28.504  30.031  1.00  0.00     0.074 A 
ATOM     65  C   UNL A   1      48.221  27.589  29.221  1.00  0.00     0.029 A 
ATOM     66  N   UNL A   1      46.709  29.117  29.655  1.00  0.00    -0.354 N 
ATOM     67  N   UNL A   1      42.687  28.134  31.025  1.00  0.00    -0.248 NA
ATOM     68  C   UNL A   1      42.452  29.596  29.222  1.00  0.00     0.031 C 
ATOM     69  C   UNL A   1      47.434  27.177  30.337  1.00  0.00     0.029 A 
ATOM     70  C   UNL A   1      46.349  28.047  30.434  1.00  0.00     0.049 A 
ATOM     71  H   UNL A   1      46.435  30.053  29.788  1.00  0.00     0.167 HD
ATOM     72  C   UNL A   1      43.948  28.598  30.690  1.00  0.00     0.074 A 
ATOM     73  C   UNL A   1      43.727  29.568  29.619  1.00  0.00     0.031 C 
ATOM     74  C   UNL A   1      45.072  27.942  31.099  1.00  0.00     0.037 A 
BRANCH  61  75
ATOM     75  C   UNL A   1      47.157  30.497  26.879  1.00  0.00     0.064 A 
ATOM     76  C   UNL A   1      48.291  31.320  26.994  1.00  0.00     0.173 A 
ATOM     77  C   UNL A   1      45.930  31.170  26.674  1.00  0.00     0.173 A 
ATOM     78  F   UNL A   1      49.500  30.786  27.224  1.00  0.00    -0.203 F 
ATOM     79  C   UNL A   1      48.191  32.713  26.985  1.00  0.00     0.198 A 
ATOM     80  C   UNL A   1      45.844  32.557  26.607  1.00  0.00     0.198 A 
ATOM     81  F   UNL A   1      44.755  30.532  26.652  1.00  0.00    -0.203 F 
ATOM     82  F   UNL A   1      49.276  33.457  27.237  1.00  0.00    -0.200 F 
ATOM     83  C   UNL A   1      46.967  33.330  26.796  1.00  0.00     0.200 A 
ATOM     84  F   UNL A   1      44.643  33.133  26.449  1.00  0.00    -0.200 F 
ATOM     85  F   UNL A   1      46.860  34.663  26.851  1.00  0.00    -0.200 F 
ENDBRANCH  61  75
BRANCH  62  86
ATOM     86  C   UNL A   1      39.458  28.085  29.338  1.00  0.00     0.064 A 
ATOM     87  C   UNL A   1      38.658  28.196  30.489  1.00  0.00     0.173 A 
ATOM     88  C   UNL A   1      38.946  28.682  28.169  1.00  0.00     0.173 A 
ATOM     89  F   UNL A   1      39.084  27.696  31.659  1.00  0.00    -0.203 F 
ATOM     90  C   UNL A   1      37.443  28.888  30.479  1.00  0.00     0.198 A 
ATOM     91  C   UNL A   1      37.729  29.363  28.157  1.00  0.00     0.198 A 
ATOM     92  F   UNL A   1      39.660  28.703  27.034  1.00  0.00    -0.203 F 
ATOM     93  F   UNL A   1      36.745  29.033  31.615  1.00  0.00    -0.200 F 
ATOM     94  C   UNL A   1      36.985  29.482  29.315  1.00  0.00     0.200 A 
ATOM     95  F   UNL A   1      37.315  29.963  27.032  1.00  0.00    -0.200 F 
ATOM     96  F   UNL A   1      35.854  30.201  29.318  1.00  0.00    -0.200 F 
ENDBRANCH  62  86
BRANCH  74  97
ATOM     97  C   UNL A   1      44.933  26.886  32.162  1.00  0.00     0.064 A 
ATOM     98  C   UNL A   1      44.641  25.532  31.909  1.00  0.00     0.173 A 
ATOM     99  C   UNL A   1      45.225  27.242  33.486  1.00  0.00     0.173 A 
ATOM    100  F   UNL A   1      44.457  25.083  30.661  1.00  0.00    -0.203 F 
ATOM    101  C   UNL A   1      44.586  24.600  32.945  1.00  0.00     0.198 A 
ATOM    102  C   UNL A   1      45.214  26.301  34.510  1.00  0.00     0.198 A 
ATOM    103  F   UNL A   1      45.565  28.507  33.783  1.00  0.00    -0.203 F 
ATOM    104  F   UNL A   1      44.277  23.321  32.683  1.00  0.00    -0.200 F 
ATOM    105  C   UNL A   1      44.879  24.984  34.244  1.00  0.00     0.200 A 
ATOM    106  F   UNL A   1      45.548  26.668  35.755  1.00  0.00    -0.200 F 
ATOM    107  F   UNL A   1      44.861  24.081  35.234  1.00  0.00    -0.200 F 
ENDBRANCH  74  97
ENDBRANCH  48  49
ENDBRANCH  41  43
ENDBRANCH  40  41
ENDBRANCH  39  40
ENDBRANCH  38  39
ENDBRANCH  37  38
ENDBRANCH  36  37
ENDBRANCH   1  36
TORSDOF 23
ENDMDL
MODEL 2
REMARK VINA RESULT:     -11.9      1.210      2.250
REMARK SMILES COC(=O)c1c(NC(=O)[C@@H]2C[C@@H]2C(=O)OCCOCCOCCOC(=O)c2ccc(-c3c4nc(c(-c5c(F)c(F)c(F)c(F)c5F)c5ccc([nH]5)c(-c5c(F)c(F)c(F)c(F)c5F)c5nc(c(-c6c(F)c(F)c(F)c(F)c6F)c6ccc3[nH]6)C=C5)C=C4)cc2)sc2c1CC[N@@H+](Cc1ccccc1)C2
REMARK SMILES IDX 19 1 18 2 17 3 16 4 15 5 13 6 14 7 12 8 10 9 11 10 8 11 7 12
REMARK SMILES IDX 9 14 6 15 5 16 92 17 90 18 91 19 93 20 103 21 94 22 95 23
REMARK SMILES IDX 3 25 4 26 2 27 1 28 96 29 97 30 98 31 102 32 99 33 101 34
REMARK SMILES IDX 100 35 20 36 21 37 22 38 23 39 24 40 25 41 26 42 27 43 28 44
REMARK SMILES IDX 89 45 29 46 88 47 30 48 31 49 32 50 82 51 33 52 87 53 81 54
REMARK SMILES IDX 83 55 34 56 86 57 80 58 79 59 35 61 67 62 47 63 66 64 48 65
REMARK SMILES IDX 51 66 65 67 84 68 49 69 50 70 64 72 85 73 52 74 36 75 37 76
REMARK SMILES IDX 45 77 38 78 39 79 43 80 46 81 40 82 41 83 44 84 42 85 68 86
REMARK SMILES IDX 69 87 77 88 70 89 71 90 75 91 78 92 72 93 73 94 76 95 74 96
REMARK SMILES IDX 53 97 54 98 62 99 55 100 56 101 60 102 63 103 57 104 58 105
REMARK SMILES IDX 61 106 59 107
REMARK H PARENT 7 13 95 24 83 60 51 71
REMARK Flexibility Score: inf
ROOT
ATOM      1  C   UNL A   1      41.247  20.507  27.261  1.00  0.00     0.188 C 
ENDROOT
BRANCH   1   2
ATOM      2  O   UNL A   1      40.204  21.472  27.334  1.00  0.00    -0.376 OA
BRANCH   2   3
ATOM      3  C   UNL A   1      39.655  21.944  26.107  1.00  0.00     0.202 C 
BRANCH   3   4
ATOM      4  C   UNL A   1      38.124  22.058  26.022  1.00  0.00     0.261 C 
BRANCH   4   5
ATOM      5  O   UNL A   1      37.625  21.727  24.714  1.00  0.00    -0.463 OA
BRANCH   5   6
ATOM      6  C   UNL A   1      36.596  22.490  24.272  1.00  0.00     0.309 C 
ATOM      7  O   UNL A   1      36.707  23.614  23.806  1.00  0.00    -0.252 OA
BRANCH   6   8
ATOM      8  C   UNL A   1      35.271  21.800  24.236  1.00  0.00     0.112 C 
ATOM      9  C   UNL A   1      34.148  22.309  25.125  1.00  0.00     0.094 C 
ATOM     10  C   UNL A   1      34.665  20.912  25.284  1.00  0.00     0.030 C 
BRANCH   9  11
ATOM     11  C   UNL A   1      34.459  23.318  26.137  1.00  0.00     0.229 C 
ATOM     12  N   UNL A   1      33.878  24.541  26.072  1.00  0.00    -0.317 N 
ATOM     13  H   UNL A   1      34.247  25.175  26.728  1.00  0.00     0.170 HD
ATOM     14  O   UNL A   1      35.264  23.064  27.028  1.00  0.00    -0.274 OA
BRANCH  12  15
ATOM     15  C   UNL A   1      32.890  25.095  25.293  1.00  0.00     0.110 A 
ATOM     16  C   UNL A   1      31.506  25.173  25.142  1.00  0.00     0.098 A 
ATOM     17  C   UNL A   1      31.189  26.098  24.066  1.00  0.00    -0.006 A 
ATOM     18  S   UNL A   1      33.730  26.004  24.094  1.00  0.00    -0.116 S 
ATOM     19  C   UNL A   1      32.308  26.727  23.571  1.00  0.00     0.065 A 
ATOM     20  C   UNL A   1      29.814  26.568  23.673  1.00  0.00     0.099 C 
ATOM     21  C   UNL A   1      32.290  27.967  22.747  1.00  0.00     0.310 C 
ATOM     22  C   UNL A   1      29.865  27.846  22.800  1.00  0.00     0.267 C 
ATOM     23  N   UNL A   1      31.042  28.721  22.962  1.00  0.00    -0.326 N 
ATOM     24  H   UNL A   1      30.980  29.411  22.214  1.00  0.00     0.348 HD
BRANCH  16  25
ATOM     25  C   UNL A   1      30.404  24.553  25.880  1.00  0.00     0.341 C 
ATOM     26  O   UNL A   1      29.654  25.188  26.616  1.00  0.00    -0.246 OA
BRANCH  25  27
ATOM     27  O   UNL A   1      30.372  23.193  25.795  1.00  0.00    -0.465 OA
ATOM     28  C   UNL A   1      30.852  22.494  26.953  1.00  0.00     0.282 C 
ENDBRANCH  25  27
ENDBRANCH  16  25
BRANCH  23  29
ATOM     29  C   UNL A   1      31.037  29.606  24.141  1.00  0.00     0.299 C 
BRANCH  29  30
ATOM     30  C   UNL A   1      31.923  29.284  25.331  1.00  0.00     0.006 A 
ATOM     31  C   UNL A   1      31.407  28.592  26.439  1.00  0.00     0.009 A 
ATOM     32  C   UNL A   1      33.275  29.660  25.360  1.00  0.00     0.009 A 
ATOM     33  C   UNL A   1      32.233  28.226  27.505  1.00  0.00     0.001 A 
ATOM     34  C   UNL A   1      34.107  29.276  26.416  1.00  0.00     0.001 A 
ATOM     35  C   UNL A   1      33.586  28.556  27.487  1.00  0.00     0.000 A 
ENDBRANCH  29  30
ENDBRANCH  23  29
ENDBRANCH  12  15
ENDBRANCH   9  11
ENDBRANCH   6   8
ENDBRANCH   5   6
ENDBRANCH   4   5
ENDBRANCH   3   4
ENDBRANCH   2   3
ENDBRANCH   1   2
BRANCH   1  36
ATOM     36  C   UNL A   1      41.588  19.974  25.864  1.00  0.00     0.188 C 
BRANCH  36  37
ATOM     37  O   UNL A   1      42.210  18.708  25.778  1.00  0.00    -0.376 OA
BRANCH  37  38
ATOM     38  C   UNL A   1      43.498  18.374  26.274  1.00  0.00     0.202 C 
BRANCH  38  39
ATOM     39  C   UNL A   1      44.781  18.571  25.468  1.00  0.00     0.261 C 
BRANCH  39  40
ATOM     40  O   UNL A   1      45.268  19.889  25.418  1.00  0.00    -0.460 OA
BRANCH  40  41
ATOM     41  C   UNL A   1      44.843  20.629  24.367  1.00  0.00     0.338 C 
ATOM     42  O   UNL A   1      44.502  20.249  23.276  1.00  0.00    -0.246 OA
BRANCH  41  43
ATOM     43  C   UNL A   1      44.934  22.034  24.805  1.00  0.00     0.060 A 
ATOM     44  C   UNL A   1      45.698  22.293  25.938  1.00  0.00     0.016 A 
ATOM     45  C   UNL A   1      44.127  23.024  24.211  1.00  0.00     0.016 A 
ATOM     46  C   UNL A   1      45.462  23.467  26.614  1.00  0.00     0.010 A 
ATOM     47  C   UNL A   1      43.883  24.191  24.891  1.00  0.00     0.010 A 
ATOM     48  C   UNL A   1      44.482  24.350  26.131  1.00  0.00    -0.014 A 
BRANCH  48  49
ATOM     49  C   UNL A   1      44.165  25.501  26.942  1.00  0.00     0.031 A 
ATOM     50  C   UNL A   1      45.190  26.554  26.856  1.00  0.00     0.074 A 
ATOM     51  C   UNL A   1      43.047  25.597  27.684  1.00  0.00     0.049 A 
ATOM     52  N   UNL A   1      46.012  26.900  27.787  1.00  0.00    -0.248 NA
ATOM     53  C   UNL A   1      45.454  27.169  25.547  1.00  0.00     0.031 C 
ATOM     54  C   UNL A   1      41.863  24.736  27.665  1.00  0.00     0.029 A 
ATOM     55  N   UNL A   1      42.709  26.564  28.580  1.00  0.00    -0.354 N 
ATOM     56  C   UNL A   1      46.764  27.932  27.250  1.00  0.00     0.074 A 
ATOM     57  C   UNL A   1      46.505  27.939  25.833  1.00  0.00     0.031 C 
ATOM     58  C   UNL A   1      40.860  25.347  28.339  1.00  0.00     0.029 A 
ATOM     59  C   UNL A   1      41.367  26.571  28.938  1.00  0.00     0.049 A 
ATOM     60  H   UNL A   1      43.361  27.204  28.945  1.00  0.00     0.167 HD
ATOM     61  C   UNL A   1      47.299  28.870  28.075  1.00  0.00     0.037 A 
ATOM     62  C   UNL A   1      40.724  27.555  29.619  1.00  0.00     0.037 A 
ATOM     63  C   UNL A   1      47.440  28.366  29.420  1.00  0.00     0.049 A 
ATOM     64  C   UNL A   1      41.754  28.339  30.351  1.00  0.00     0.074 A 
ATOM     65  C   UNL A   1      48.060  27.258  29.970  1.00  0.00     0.029 A 
ATOM     66  N   UNL A   1      46.565  28.808  30.383  1.00  0.00    -0.354 N 
ATOM     67  N   UNL A   1      42.420  27.882  31.374  1.00  0.00    -0.248 NA
ATOM     68  C   UNL A   1      42.371  29.459  29.656  1.00  0.00     0.031 C 
ATOM     69  C   UNL A   1      47.176  26.806  30.993  1.00  0.00     0.029 A 
ATOM     70  C   UNL A   1      46.114  27.705  31.062  1.00  0.00     0.049 A 
ATOM     71  H   UNL A   1      46.310  29.743  30.555  1.00  0.00     0.167 HD
ATOM     72  C   UNL A   1      43.717  28.322  31.167  1.00  0.00     0.074 A 
ATOM     73  C   UNL A   1      43.610  29.363  30.147  1.00  0.00     0.031 C 
ATOM     74  C   UNL A   1      44.785  27.604  31.619  1.00  0.00     0.037 A 
BRANCH  61  75
ATOM     75  C   UNL A   1      47.272  30.340  27.744  1.00  0.00     0.064 A 
ATOM     76  C   UNL A   1      46.053  30.927  27.360  1.00  0.00     0.173 A 
ATOM     77  C   UNL A   1      48.430  31.109  27.485  1.00  0.00     0.173 A 
ATOM     78  F   UNL A   1      44.897  30.268  27.529  1.00  0.00    -0.203 F 
ATOM     79  C   UNL A   1      46.008  32.155  26.697  1.00  0.00     0.198 A 
ATOM     80  C   UNL A   1      48.374  32.358  26.877  1.00  0.00     0.198 A 
ATOM     81  F   UNL A   1      49.665  30.640  27.695  1.00  0.00    -0.203 F 
ATOM     82  F   UNL A   1      44.839  32.611  26.227  1.00  0.00    -0.200 F 
ATOM     83  C   UNL A   1      47.168  32.867  26.452  1.00  0.00     0.200 A 
ATOM     84  F   UNL A   1      49.515  33.018  26.626  1.00  0.00    -0.200 F 
ATOM     85  F   UNL A   1      47.132  34.012  25.759  1.00  0.00    -0.200 F 
ENDBRANCH  61  75
BRANCH  62  86
ATOM     86  C   UNL A   1      39.335  28.049  29.445  1.00  0.00     0.064 A 
ATOM     87  C   UNL A   1      38.486  28.224  30.552  1.00  0.00     0.173 A 
ATOM     88  C   UNL A   1      38.904  28.632  28.236  1.00  0.00     0.173 A 
ATOM     89  F   UNL A   1      38.835  27.742  31.755  1.00  0.00    -0.203 F 
ATOM     90  C   UNL A   1      37.303  28.964  30.465  1.00  0.00     0.198 A 
ATOM     91  C   UNL A   1      37.718  29.361  28.147  1.00  0.00     0.198 A 
ATOM     92  F   UNL A   1      39.671  28.592  27.137  1.00  0.00    -0.203 F 
ATOM     93  F   UNL A   1      36.559  29.170  31.561  1.00  0.00    -0.200 F 
ATOM     94  C   UNL A   1      36.925  29.543  29.265  1.00  0.00     0.200 A 
ATOM     95  F   UNL A   1      37.383  29.945  26.988  1.00  0.00    -0.200 F 
ATOM     96  F   UNL A   1      35.826  30.306  29.194  1.00  0.00    -0.200 F 
ENDBRANCH  62  86
BRANCH  74  97
ATOM     97  C   UNL A   1      44.531  26.490  32.598  1.00  0.00     0.064 A 
ATOM     98  C   UNL A   1      44.292  25.150  32.240  1.00  0.00     0.173 A 
ATOM     99  C   UNL A   1      44.653  26.775  33.966  1.00  0.00     0.173 A 
ATOM    100  F   UNL A   1      44.271  24.768  30.956  1.00  0.00    -0.203 F 
ATOM    101  C   UNL A   1      44.123  24.162  33.209  1.00  0.00     0.198 A 
ATOM    102  C   UNL A   1      44.529  25.779  34.929  1.00  0.00     0.198 A 
ATOM    103  F   UNL A   1      44.935  28.024  34.370  1.00  0.00    -0.203 F 
ATOM    104  F   UNL A   1      43.869  22.897  32.843  1.00  0.00    -0.200 F 
ATOM    105  C   UNL A   1      44.248  24.476  34.553  1.00  0.00     0.200 A 
ATOM    106  F   UNL A   1      44.702  26.080  36.223  1.00  0.00    -0.200 F 
ATOM    107  F   UNL A   1      44.121  23.520  35.483  1.00  0.00    -0.200 F 
ENDBRANCH  74  97
ENDBRANCH  48  49
ENDBRANCH  41  43
ENDBRANCH  40  41
ENDBRANCH  39  40
ENDBRANCH  38  39
ENDBRANCH  37  38
ENDBRANCH  36  37
ENDBRANCH   1  36
TORSDOF 23
ENDMDL
MODEL 3
REMARK VINA RESULT:     -11.3      2.859      4.108
REMARK SMILES COC(=O)c1c(NC(=O)[C@@H]2C[C@@H]2C(=O)OCCOCCOCCOC(=O)c2ccc(-c3c4nc(c(-c5c(F)c(F)c(F)c(F)c5F)c5ccc([nH]5)c(-c5c(F)c(F)c(F)c(F)c5F)c5nc(c(-c6c(F)c(F)c(F)c(F)c6F)c6ccc3[nH]6)C=C5)C=C4)cc2)sc2c1CC[N@@H+](Cc1ccccc1)C2
REMARK SMILES IDX 19 1 18 2 17 3 16 4 15 5 13 6 14 7 12 8 10 9 11 10 8 11 7 12
REMARK SMILES IDX 9 14 6 15 5 16 92 17 90 18 91 19 93 20 103 21 94 22 95 23
REMARK SMILES IDX 3 25 4 26 2 27 1 28 96 29 97 30 98 31 102 32 99 33 101 34
REMARK SMILES IDX 100 35 20 36 21 37 22 38 23 39 24 40 25 41 26 42 27 43 28 44
REMARK SMILES IDX 89 45 29 46 88 47 30 48 31 49 32 50 82 51 33 52 87 53 81 54
REMARK SMILES IDX 83 55 34 56 86 57 80 58 79 59 35 61 67 62 47 63 66 64 48 65
REMARK SMILES IDX 51 66 65 67 84 68 49 69 50 70 64 72 85 73 52 74 36 75 37 76
REMARK SMILES IDX 45 77 38 78 39 79 43 80 46 81 40 82 41 83 44 84 42 85 68 86
REMARK SMILES IDX 69 87 77 88 70 89 71 90 75 91 78 92 72 93 73 94 76 95 74 96
REMARK SMILES IDX 53 97 54 98 62 99 55 100 56 101 60 102 63 103 57 104 58 105
REMARK SMILES IDX 61 106 59 107
REMARK H PARENT 7 13 95 24 83 60 51 71
REMARK Flexibility Score: inf
ROOT
ATOM      1  C   UNL A   1      40.747  21.866  27.666  1.00  0.00     0.188 C 
ENDROOT
BRANCH   1   2
ATOM      2  O   UNL A   1      40.147  23.084  27.242  1.00  0.00    -0.376 OA
BRANCH   2   3
ATOM      3  C   UNL A   1      39.141  23.009  26.236  1.00  0.00     0.202 C 
BRANCH   3   4
ATOM      4  C   UNL A   1      37.974  24.006  26.336  1.00  0.00     0.261 C 
BRANCH   4   5
ATOM      5  O   UNL A   1      36.694  23.348  26.336  1.00  0.00    -0.463 OA
BRANCH   5   6
ATOM      6  C   UNL A   1      35.716  23.976  25.641  1.00  0.00     0.309 C 
ATOM      7  O   UNL A   1      34.832  24.659  26.137  1.00  0.00    -0.252 OA
BRANCH   6   8
ATOM      8  C   UNL A   1      35.863  23.918  24.155  1.00  0.00     0.112 C 
ATOM      9  C   UNL A   1      34.921  23.034  23.354  1.00  0.00     0.094 C 
ATOM     10  C   UNL A   1      36.399  22.789  23.325  1.00  0.00     0.030 C 
BRANCH   9  11
ATOM     11  C   UNL A   1      34.046  22.110  24.072  1.00  0.00     0.229 C 
ATOM     12  N   UNL A   1      32.816  22.517  24.472  1.00  0.00    -0.317 N 
ATOM     13  H   UNL A   1      32.363  21.859  25.046  1.00  0.00     0.170 HD
ATOM     14  O   UNL A   1      34.436  20.976  24.336  1.00  0.00    -0.274 OA
BRANCH  12  15
ATOM     15  C   UNL A   1      32.060  23.644  24.254  1.00  0.00     0.110 A 
ATOM     16  C   UNL A   1      31.284  24.605  24.902  1.00  0.00     0.098 A 
ATOM     17  C   UNL A   1      30.859  25.611  23.942  1.00  0.00    -0.006 A 
ATOM     18  S   UNL A   1      32.137  23.906  22.552  1.00  0.00    -0.116 S 
ATOM     19  C   UNL A   1      31.419  25.416  22.701  1.00  0.00     0.065 A 
ATOM     20  C   UNL A   1      30.125  26.886  24.256  1.00  0.00     0.099 C 
ATOM     21  C   UNL A   1      31.484  26.447  21.628  1.00  0.00     0.310 C 
ATOM     22  C   UNL A   1      30.211  27.906  23.094  1.00  0.00     0.267 C 
ATOM     23  N   UNL A   1      31.377  27.802  22.196  1.00  0.00    -0.326 N 
ATOM     24  H   UNL A   1      31.187  28.436  21.420  1.00  0.00     0.348 HD
BRANCH  16  25
ATOM     25  C   UNL A   1      30.904  24.773  26.306  1.00  0.00     0.341 C 
ATOM     26  O   UNL A   1      31.633  25.310  27.135  1.00  0.00    -0.246 OA
BRANCH  25  27
ATOM     27  O   UNL A   1      29.738  24.154  26.646  1.00  0.00    -0.465 OA
ATOM     28  C   UNL A   1      29.874  22.813  27.135  1.00  0.00     0.282 C 
ENDBRANCH  25  27
ENDBRANCH  16  25
BRANCH  23  29
ATOM     29  C   UNL A   1      32.639  28.373  22.703  1.00  0.00     0.299 C 
BRANCH  29  30
ATOM     30  C   UNL A   1      32.834  28.569  24.196  1.00  0.00     0.006 A 
ATOM     31  C   UNL A   1      32.249  29.662  24.855  1.00  0.00     0.009 A 
ATOM     32  C   UNL A   1      33.594  27.668  24.959  1.00  0.00     0.009 A 
ATOM     33  C   UNL A   1      32.361  29.809  26.241  1.00  0.00     0.001 A 
ATOM     34  C   UNL A   1      33.689  27.802  26.347  1.00  0.00     0.001 A 
ATOM     35  C   UNL A   1      33.070  28.871  26.988  1.00  0.00     0.000 A 
ENDBRANCH  29  30
ENDBRANCH  23  29
ENDBRANCH  12  15
ENDBRANCH   9  11
ENDBRANCH   6   8
ENDBRANCH   5   6
ENDBRANCH   4   5
ENDBRANCH   3   4
ENDBRANCH   2   3
ENDBRANCH   1   2
BRANCH   1  36
ATOM     36  C   UNL A   1      40.717  20.706  26.664  1.00  0.00     0.188 C 
BRANCH  36  37
ATOM     37  O   UNL A   1      41.953  20.250  26.150  1.00  0.00    -0.376 OA
BRANCH  37  38
ATOM     38  C   UNL A   1      43.168  20.985  26.117  1.00  0.00     0.202 C 
BRANCH  38  39
ATOM     39  C   UNL A   1      43.503  21.997  25.024  1.00  0.00     0.261 C 
BRANCH  39  40
ATOM     40  O   UNL A   1      42.784  23.204  25.075  1.00  0.00    -0.460 OA
BRANCH  40  41
ATOM     41  C   UNL A   1      43.535  24.328  25.154  1.00  0.00     0.338 C 
ATOM     42  O   UNL A   1      44.576  24.571  24.598  1.00  0.00    -0.246 OA
BRANCH  41  43
ATOM     43  C   UNL A   1      42.847  25.201  26.122  1.00  0.00     0.060 A 
ATOM     44  C   UNL A   1      41.829  26.010  25.628  1.00  0.00     0.016 A 
ATOM     45  C   UNL A   1      43.335  25.341  27.436  1.00  0.00     0.016 A 
ATOM     46  C   UNL A   1      41.473  27.115  26.368  1.00  0.00     0.010 A 
ATOM     47  C   UNL A   1      42.989  26.448  28.169  1.00  0.00     0.010 A 
ATOM     48  C   UNL A   1      42.135  27.369  27.580  1.00  0.00    -0.014 A 
BRANCH  48  49
ATOM     49  C   UNL A   1      41.835  28.608  28.256  1.00  0.00     0.031 A 
ATOM     50  C   UNL A   1      42.880  29.628  28.059  1.00  0.00     0.074 A 
ATOM     51  C   UNL A   1      40.715  28.805  28.975  1.00  0.00     0.049 A 
ATOM     52  N   UNL A   1      43.703  30.060  28.951  1.00  0.00    -0.248 NA
ATOM     53  C   UNL A   1      43.160  30.088  26.692  1.00  0.00     0.031 C 
ATOM     54  C   UNL A   1      39.517  27.969  29.044  1.00  0.00     0.029 A 
ATOM     55  N   UNL A   1      40.391  29.872  29.755  1.00  0.00    -0.354 N 
ATOM     56  C   UNL A   1      44.476  31.013  28.307  1.00  0.00     0.074 A 
ATOM     57  C   UNL A   1      44.223  30.867  26.897  1.00  0.00     0.031 C 
ATOM     58  C   UNL A   1      38.522  28.668  29.639  1.00  0.00     0.029 A 
ATOM     59  C   UNL A   1      39.048  29.942  30.102  1.00  0.00     0.049 A 
ATOM     60  H   UNL A   1      41.053  30.537  30.051  1.00  0.00     0.167 HD
ATOM     61  C   UNL A   1      45.024  32.028  29.026  1.00  0.00     0.037 A 
ATOM     62  C   UNL A   1      38.419  31.006  30.665  1.00  0.00     0.037 A 
ATOM     63  C   UNL A   1      45.150  31.674  30.420  1.00  0.00     0.049 A 
ATOM     64  C   UNL A   1      39.460  31.849  31.312  1.00  0.00     0.074 A 
ATOM     65  C   UNL A   1      45.748  30.623  31.094  1.00  0.00     0.029 A 
ATOM     66  N   UNL A   1      44.279  32.236  31.322  1.00  0.00    -0.354 N 
ATOM     67  N   UNL A   1      40.113  31.497  32.384  1.00  0.00    -0.248 NA
ATOM     68  C   UNL A   1      40.100  32.875  30.501  1.00  0.00     0.031 C 
ATOM     69  C   UNL A   1      44.851  30.304  32.155  1.00  0.00     0.029 A 
ATOM     70  C   UNL A   1      43.805  31.223  32.117  1.00  0.00     0.049 A 
ATOM     71  H   UNL A   1      44.040  33.188  31.387  1.00  0.00     0.167 HD
ATOM     72  C   UNL A   1      41.419  31.890  32.137  1.00  0.00     0.074 A 
ATOM     73  C   UNL A   1      41.335  32.812  31.007  1.00  0.00     0.031 C 
ATOM     74  C   UNL A   1      42.473  31.208  32.673  1.00  0.00     0.037 A 
BRANCH  61  75
ATOM     75  C   UNL A   1      45.024  33.451  28.533  1.00  0.00     0.064 A 
ATOM     76  C   UNL A   1      46.234  34.168  28.527  1.00  0.00     0.173 A 
ATOM     77  C   UNL A   1      43.853  34.227  28.370  1.00  0.00     0.173 A 
ATOM     78  F   UNL A   1      47.402  33.533  28.708  1.00  0.00    -0.203 F 
ATOM     79  C   UNL A   1      46.262  35.561  28.443  1.00  0.00     0.198 A 
ATOM     80  C   UNL A   1      43.889  35.611  28.228  1.00  0.00     0.198 A 
ATOM     81  F   UNL A   1      42.626  33.704  28.462  1.00  0.00    -0.203 F 
ATOM     82  F   UNL A   1      47.426  36.210  28.581  1.00  0.00    -0.200 F 
ATOM     83  C   UNL A   1      45.090  36.281  28.299  1.00  0.00     0.200 A 
ATOM     84  F   UNL A   1      42.738  36.290  28.117  1.00  0.00    -0.200 F 
ATOM     85  F   UNL A   1      45.109  37.620  28.284  1.00  0.00    -0.200 F 
ENDBRANCH  61  75
BRANCH  62  86
ATOM     86  C   UNL A   1      37.040  31.502  30.428  1.00  0.00     0.064 A 
ATOM     87  C   UNL A   1      36.163  31.737  31.502  1.00  0.00     0.173 A 
ATOM     88  C   UNL A   1      36.648  32.029  29.182  1.00  0.00     0.173 A 
ATOM     89  F   UNL A   1      36.474  31.310  32.735  1.00  0.00    -0.203 F 
ATOM     90  C   UNL A   1      34.989  32.481  31.345  1.00  0.00     0.198 A 
ATOM     91  C   UNL A   1      35.472  32.762  29.024  1.00  0.00     0.198 A 
ATOM     92  F   UNL A   1      37.445  31.930  28.108  1.00  0.00    -0.203 F 
ATOM     93  F   UNL A   1      34.217  32.744  32.409  1.00  0.00    -0.200 F 
ATOM     94  C   UNL A   1      34.650  33.003  30.109  1.00  0.00     0.200 A 
ATOM     95  F   UNL A   1      35.174  33.292  27.829  1.00  0.00    -0.200 F 
ATOM     96  F   UNL A   1      33.560  33.771  29.970  1.00  0.00    -0.200 F 
ENDBRANCH  62  86
BRANCH  74  97
ATOM     97  C   UNL A   1      42.194  30.214  33.769  1.00  0.00     0.064 A 
ATOM     98  C   UNL A   1      41.792  28.882  33.556  1.00  0.00     0.173 A 
ATOM     99  C   UNL A   1      42.462  30.599  35.090  1.00  0.00     0.173 A 
ATOM    100  F   UNL A   1      41.621  28.398  32.319  1.00  0.00    -0.203 F 
ATOM    101  C   UNL A   1      41.610  28.004  34.624  1.00  0.00     0.198 A 
ATOM    102  C   UNL A   1      42.324  29.707  36.148  1.00  0.00     0.198 A 
ATOM    103  F   UNL A   1      42.902  31.840  35.353  1.00  0.00    -0.203 F 
ATOM    104  F   UNL A   1      41.199  26.747  34.397  1.00  0.00    -0.200 F 
ATOM    105  C   UNL A   1      41.882  28.415  35.918  1.00  0.00     0.200 A 
ATOM    106  F   UNL A   1      42.638  30.096  37.392  1.00  0.00    -0.200 F 
ATOM    107  F   UNL A   1      41.742  27.560  36.941  1.00  0.00    -0.200 F 
ENDBRANCH  74  97
ENDBRANCH  48  49
ENDBRANCH  41  43
ENDBRANCH  40  41
ENDBRANCH  39  40
ENDBRANCH  38  39
ENDBRANCH  37  38
ENDBRANCH  36  37
ENDBRANCH   1  36
TORSDOF 23
ENDMDL
