MODEL 1
REMARK VINA RESULT:     -13.1      0.000      0.000
REMARK SMILES Cc1c(CC(=O)OCCOCCOCCOC(=O)c2ccc(-c3c4nc(c(-c5c(F)c(F)c(F)c(F)c5F)c5ccc([nH]5)c(-c5c(F)c(F)c(F)c(F)c5F)c5nc(c(-c6c(F)c(F)c(F)c(F)c6F)c6ccc3[nH]6)C=C5)C=C4)cc2)cc(-c2ccccc2)cc1-c1ccccc1
REMARK SMILES IDX 11 1 10 2 9 3 8 4 7 5 5 6 6 7 4 8 3 9 1 10 2 11 91 12 82 13
REMARK SMILES IDX 90 14 83 15 92 16 93 17 97 18 94 19 96 20 95 21 84 22 85 23
REMARK SMILES IDX 89 24 86 25 88 26 87 27 12 28 13 29 14 30 15 31 16 32 17 33
REMARK SMILES IDX 18 34 19 35 20 36 81 37 21 38 80 39 22 40 23 41 24 42 74 43
REMARK SMILES IDX 25 44 79 45 73 46 75 47 26 48 78 49 72 50 71 51 27 53 59 54
REMARK SMILES IDX 39 55 58 56 40 57 43 58 57 59 76 60 41 61 42 62 56 64 77 65
REMARK SMILES IDX 44 66 28 67 29 68 37 69 30 70 31 71 35 72 38 73 32 74 33 75
REMARK SMILES IDX 36 76 34 77 60 78 61 79 69 80 62 81 63 82 67 83 70 84 64 85
REMARK SMILES IDX 65 86 68 87 66 88 45 89 46 90 54 91 47 92 48 93 52 94 55 95
REMARK SMILES IDX 49 96 50 97 53 98 51 99
REMARK H PARENT 75 52 43 63
REMARK Flexibility Score: inf
ROOT
ATOM      1  C   UNL A   1      31.242  26.618  24.925  1.00  0.00     0.188 C 
ENDROOT
BRANCH   1   2
ATOM      2  O   UNL A   1      31.331  27.240  23.640  1.00  0.00    -0.376 OA
BRANCH   2   3
ATOM      3  C   UNL A   1      32.457  27.954  23.150  1.00  0.00     0.202 C 
BRANCH   3   4
ATOM      4  C   UNL A   1      33.534  27.116  22.178  1.00  0.00     0.261 C 
BRANCH   4   5
ATOM      5  O   UNL A   1      33.945  25.486  22.162  1.00  0.00    -0.463 OA
BRANCH   5   6
ATOM      6  C   UNL A   1      33.491  24.148  22.171  1.00  0.00     0.310 C 
ATOM      7  O   UNL A   1      33.422  23.320  21.264  1.00  0.00    -0.252 OA
BRANCH   6   8
ATOM      8  C   UNL A   1      33.060  23.553  23.467  1.00  0.00     0.158 C 
BRANCH   8   9
ATOM      9  C   UNL A   1      33.912  22.419  23.844  1.00  0.00    -0.033 A 
ATOM     10  C   UNL A   1      31.993  20.797  23.512  1.00  0.00     0.045 C 
ATOM     11  C   UNL A   1      33.405  21.121  23.974  1.00  0.00    -0.039 A 
ATOM     12  C   UNL A   1      34.261  20.148  24.518  1.00  0.00    -0.015 A 
ATOM     13  C   UNL A   1      35.207  22.751  24.206  1.00  0.00     0.013 A 
ATOM     14  C   UNL A   1      35.545  20.527  24.987  1.00  0.00     0.017 A 
ATOM     15  C   UNL A   1      36.025  21.832  24.831  1.00  0.00    -0.017 A 
BRANCH  12  16
ATOM     16  C   UNL A   1      33.821  18.753  24.582  1.00  0.00    -0.018 A 
ATOM     17  C   UNL A   1      34.396  17.772  23.767  1.00  0.00     0.009 A 
ATOM     18  C   UNL A   1      32.885  18.368  25.557  1.00  0.00     0.009 A 
ATOM     19  C   UNL A   1      34.033  16.434  23.921  1.00  0.00     0.001 A 
ATOM     20  C   UNL A   1      32.536  17.031  25.721  1.00  0.00     0.001 A 
ATOM     21  C   UNL A   1      33.106  16.066  24.897  1.00  0.00     0.000 A 
ENDBRANCH  12  16
BRANCH  15  22
ATOM     22  C   UNL A   1      37.296  22.356  25.322  1.00  0.00    -0.018 A 
ATOM     23  C   UNL A   1      38.356  21.482  25.604  1.00  0.00     0.009 A 
ATOM     24  C   UNL A   1      37.372  23.681  25.780  1.00  0.00     0.009 A 
ATOM     25  C   UNL A   1      39.464  21.925  26.325  1.00  0.00     0.001 A 
ATOM     26  C   UNL A   1      38.481  24.123  26.500  1.00  0.00     0.001 A 
ATOM     27  C   UNL A   1      39.525  23.244  26.773  1.00  0.00     0.000 A 
ENDBRANCH  15  22
ENDBRANCH   8   9
ENDBRANCH   6   8
ENDBRANCH   5   6
ENDBRANCH   4   5
ENDBRANCH   3   4
ENDBRANCH   2   3
ENDBRANCH   1   2
BRANCH   1  28
ATOM     28  C   UNL A   1      32.616  26.825  25.591  1.00  0.00     0.188 C 
BRANCH  28  29
ATOM     29  O   UNL A   1      32.524  27.307  26.926  1.00  0.00    -0.376 OA
BRANCH  29  30
ATOM     30  C   UNL A   1      32.490  28.740  27.041  1.00  0.00     0.202 C 
BRANCH  30  31
ATOM     31  C   UNL A   1      33.593  29.543  26.291  1.00  0.00     0.261 C 
BRANCH  31  32
ATOM     32  O   UNL A   1      34.547  30.069  27.254  1.00  0.00    -0.460 OA
BRANCH  32  33
ATOM     33  C   UNL A   1      34.357  31.260  27.904  1.00  0.00     0.338 C 
ATOM     34  O   UNL A   1      33.548  32.121  27.594  1.00  0.00    -0.246 OA
BRANCH  33  35
ATOM     35  C   UNL A   1      35.524  31.466  28.849  1.00  0.00     0.060 A 
ATOM     36  C   UNL A   1      36.626  32.300  28.614  1.00  0.00     0.016 A 
ATOM     37  C   UNL A   1      35.738  30.467  29.738  1.00  0.00     0.016 A 
ATOM     38  C   UNL A   1      37.967  31.950  29.072  1.00  0.00     0.010 A 
ATOM     39  C   UNL A   1      37.061  30.049  29.867  1.00  0.00     0.010 A 
ATOM     40  C   UNL A   1      38.282  30.688  29.598  1.00  0.00    -0.014 A 
BRANCH  40  41
ATOM     41  C   UNL A   1      39.749  29.956  29.542  1.00  0.00     0.031 A 
ATOM     42  C   UNL A   1      40.379  28.470  29.100  1.00  0.00     0.074 A 
ATOM     43  C   UNL A   1      40.748  30.792  29.914  1.00  0.00     0.049 A 
ATOM     44  N   UNL A   1      41.472  27.945  29.647  1.00  0.00    -0.248 NA
ATOM     45  C   UNL A   1      39.877  27.424  28.145  1.00  0.00     0.031 C 
ATOM     46  C   UNL A   1      42.191  30.614  29.786  1.00  0.00     0.029 A 
ATOM     47  N   UNL A   1      40.624  31.982  30.635  1.00  0.00    -0.354 N 
ATOM     48  C   UNL A   1      41.743  26.721  29.024  1.00  0.00     0.074 A 
ATOM     49  C   UNL A   1      40.544  26.323  28.436  1.00  0.00     0.031 C 
ATOM     50  C   UNL A   1      42.804  31.454  30.631  1.00  0.00     0.029 A 
ATOM     51  C   UNL A   1      41.782  32.126  31.409  1.00  0.00     0.049 A 
ATOM     52  H   UNL A   1      39.862  32.605  30.604  1.00  0.00     0.167 HD
ATOM     53  C   UNL A   1      42.956  26.131  28.858  1.00  0.00     0.037 A 
ATOM     54  C   UNL A   1      41.662  32.124  32.768  1.00  0.00     0.037 A 
ATOM     55  C   UNL A   1      43.893  26.727  29.769  1.00  0.00     0.049 A 
ATOM     56  C   UNL A   1      42.258  30.884  33.416  1.00  0.00     0.074 A 
ATOM     57  C   UNL A   1      44.881  27.682  29.676  1.00  0.00     0.029 A 
ATOM     58  N   UNL A   1      43.604  26.585  31.112  1.00  0.00    -0.354 N 
ATOM     59  N   UNL A   1      43.001  30.000  32.803  1.00  0.00    -0.248 NA
ATOM     60  C   UNL A   1      41.976  30.495  34.801  1.00  0.00     0.031 C 
ATOM     61  C   UNL A   1      45.028  28.253  30.982  1.00  0.00     0.029 A 
ATOM     62  C   UNL A   1      44.182  27.589  31.856  1.00  0.00     0.049 A 
ATOM     63  H   UNL A   1      43.056  25.859  31.487  1.00  0.00     0.167 HD
ATOM     64  C   UNL A   1      43.166  28.911  33.617  1.00  0.00     0.074 A 
ATOM     65  C   UNL A   1      42.530  29.277  34.867  1.00  0.00     0.031 C 
ATOM     66  C   UNL A   1      43.747  27.741  33.233  1.00  0.00     0.037 A 
BRANCH  53  67
ATOM     67  C   UNL A   1      43.266  25.029  27.824  1.00  0.00     0.064 A 
ATOM     68  C   UNL A   1      42.850  23.703  28.058  1.00  0.00     0.173 A 
ATOM     69  C   UNL A   1      44.037  25.173  26.632  1.00  0.00     0.173 A 
ATOM     70  F   UNL A   1      42.163  23.388  29.165  1.00  0.00    -0.203 F 
ATOM     71  C   UNL A   1      43.150  22.643  27.181  1.00  0.00     0.198 A 
ATOM     72  C   UNL A   1      44.259  24.135  25.717  1.00  0.00     0.198 A 
ATOM     73  F   UNL A   1      44.700  26.292  26.322  1.00  0.00    -0.203 F 
ATOM     74  F   UNL A   1      42.790  21.391  27.500  1.00  0.00    -0.200 F 
ATOM     75  C   UNL A   1      43.831  22.863  25.999  1.00  0.00     0.200 A 
ATOM     76  F   UNL A   1      44.937  24.382  24.584  1.00  0.00    -0.200 F 
ATOM     77  F   UNL A   1      44.111  21.855  25.162  1.00  0.00    -0.200 F 
ENDBRANCH  53  67
BRANCH  54  78
ATOM     78  C   UNL A   1      40.472  32.909  33.233  1.00  0.00     0.064 A 
ATOM     79  C   UNL A   1      39.266  32.200  33.451  1.00  0.00     0.173 A 
ATOM     80  C   UNL A   1      40.535  34.208  33.753  1.00  0.00     0.173 A 
ATOM     81  F   UNL A   1      39.134  30.942  32.997  1.00  0.00    -0.203 F 
ATOM     82  C   UNL A   1      38.237  32.715  34.238  1.00  0.00     0.198 A 
ATOM     83  C   UNL A   1      39.483  34.738  34.510  1.00  0.00     0.198 A 
ATOM     84  F   UNL A   1      41.660  34.929  33.664  1.00  0.00    -0.203 F 
ATOM     85  F   UNL A   1      37.180  31.949  34.542  1.00  0.00    -0.200 F 
ATOM     86  C   UNL A   1      38.350  33.982  34.775  1.00  0.00     0.200 A 
ATOM     87  F   UNL A   1      39.622  35.939  35.090  1.00  0.00    -0.200 F 
ATOM     88  F   UNL A   1      37.414  34.444  35.616  1.00  0.00    -0.200 F 
ENDBRANCH  54  78
BRANCH  66  89
ATOM     89  C   UNL A   1      43.926  26.620  34.206  1.00  0.00     0.064 A 
ATOM     90  C   UNL A   1      45.216  26.222  34.584  1.00  0.00     0.173 A 
ATOM     91  C   UNL A   1      42.854  25.837  34.673  1.00  0.00     0.173 A 
ATOM     92  F   UNL A   1      46.286  26.924  34.180  1.00  0.00    -0.203 F 
ATOM     93  C   UNL A   1      45.424  25.095  35.374  1.00  0.00     0.198 A 
ATOM     94  C   UNL A   1      43.067  24.684  35.423  1.00  0.00     0.198 A 
ATOM     95  F   UNL A   1      41.582  26.178  34.411  1.00  0.00    -0.203 F 
ATOM     96  F   UNL A   1      46.669  24.760  35.737  1.00  0.00    -0.200 F 
ATOM     97  C   UNL A   1      44.352  24.313  35.773  1.00  0.00     0.200 A 
ATOM     98  F   UNL A   1      42.024  23.928  35.794  1.00  0.00    -0.200 F 
ATOM     99  F   UNL A   1      44.559  23.205  36.497  1.00  0.00    -0.200 F 
ENDBRANCH  66  89
ENDBRANCH  40  41
ENDBRANCH  33  35
ENDBRANCH  32  33
ENDBRANCH  31  32
ENDBRANCH  30  31
ENDBRANCH  29  30
ENDBRANCH  28  29
ENDBRANCH   1  28
TORSDOF 20
ENDMDL
MODEL 2
REMARK VINA RESULT:     -12.7      2.771      5.842
REMARK SMILES Cc1c(CC(=O)OCCOCCOCCOC(=O)c2ccc(-c3c4nc(c(-c5c(F)c(F)c(F)c(F)c5F)c5ccc([nH]5)c(-c5c(F)c(F)c(F)c(F)c5F)c5nc(c(-c6c(F)c(F)c(F)c(F)c6F)c6ccc3[nH]6)C=C5)C=C4)cc2)cc(-c2ccccc2)cc1-c1ccccc1
REMARK SMILES IDX 11 1 10 2 9 3 8 4 7 5 5 6 6 7 4 8 3 9 1 10 2 11 91 12 82 13
REMARK SMILES IDX 90 14 83 15 92 16 93 17 97 18 94 19 96 20 95 21 84 22 85 23
REMARK SMILES IDX 89 24 86 25 88 26 87 27 12 28 13 29 14 30 15 31 16 32 17 33
REMARK SMILES IDX 18 34 19 35 20 36 81 37 21 38 80 39 22 40 23 41 24 42 74 43
REMARK SMILES IDX 25 44 79 45 73 46 75 47 26 48 78 49 72 50 71 51 27 53 59 54
REMARK SMILES IDX 39 55 58 56 40 57 43 58 57 59 76 60 41 61 42 62 56 64 77 65
REMARK SMILES IDX 44 66 28 67 29 68 37 69 30 70 31 71 35 72 38 73 32 74 33 75
REMARK SMILES IDX 36 76 34 77 60 78 61 79 69 80 62 81 63 82 67 83 70 84 64 85
REMARK SMILES IDX 65 86 68 87 66 88 45 89 46 90 54 91 47 92 48 93 52 94 55 95
REMARK SMILES IDX 49 96 50 97 53 98 51 99
REMARK H PARENT 75 52 43 63
REMARK Flexibility Score: inf
ROOT
ATOM      1  C   UNL A   1      33.263  35.312  29.989  1.00  0.00     0.188 C 
ENDROOT
BRANCH   1   2
ATOM      2  O   UNL A   1      34.414  34.938  29.226  1.00  0.00    -0.376 OA
BRANCH   2   3
ATOM      3  C   UNL A   1      34.391  34.174  28.029  1.00  0.00     0.202 C 
BRANCH   3   4
ATOM      4  C   UNL A   1      33.453  32.786  28.020  1.00  0.00     0.261 C 
BRANCH   4   5
ATOM      5  O   UNL A   1      33.579  31.393  27.087  1.00  0.00    -0.463 OA
BRANCH   5   6
ATOM      6  C   UNL A   1      33.675  29.984  27.067  1.00  0.00     0.310 C 
ATOM      7  O   UNL A   1      33.494  29.156  27.959  1.00  0.00    -0.252 OA
BRANCH   6   8
ATOM      8  C   UNL A   1      33.989  29.312  25.775  1.00  0.00     0.158 C 
BRANCH   8   9
ATOM      9  C   UNL A   1      32.840  28.545  25.278  1.00  0.00    -0.033 A 
ATOM     10  C   UNL A   1      34.028  26.356  25.753  1.00  0.00     0.045 C 
ATOM     11  C   UNL A   1      32.875  27.151  25.160  1.00  0.00    -0.039 A 
ATOM     12  C   UNL A   1      31.796  26.535  24.503  1.00  0.00    -0.015 A 
ATOM     13  C   UNL A   1      31.788  29.306  24.797  1.00  0.00     0.013 A 
ATOM     14  C   UNL A   1      30.782  27.337  23.917  1.00  0.00     0.017 A 
ATOM     15  C   UNL A   1      30.772  28.728  24.064  1.00  0.00    -0.017 A 
BRANCH  12  16
ATOM     16  C   UNL A   1      31.726  25.074  24.440  1.00  0.00    -0.018 A 
ATOM     17  C   UNL A   1      31.175  24.327  25.487  1.00  0.00     0.009 A 
ATOM     18  C   UNL A   1      32.115  24.414  23.261  1.00  0.00     0.009 A 
ATOM     19  C   UNL A   1      31.025  22.947  25.358  1.00  0.00     0.001 A 
ATOM     20  C   UNL A   1      31.950  23.039  23.128  1.00  0.00     0.001 A 
ATOM     21  C   UNL A   1      31.411  22.306  24.181  1.00  0.00     0.000 A 
ENDBRANCH  12  16
BRANCH  15  22
ATOM     22  C   UNL A   1      29.824  29.660  23.463  1.00  0.00    -0.018 A 
ATOM     23  C   UNL A   1      29.677  30.951  23.988  1.00  0.00     0.009 A 
ATOM     24  C   UNL A   1      28.864  29.187  22.553  1.00  0.00     0.009 A 
ATOM     25  C   UNL A   1      28.597  31.749  23.612  1.00  0.00     0.001 A 
ATOM     26  C   UNL A   1      27.786  29.985  22.176  1.00  0.00     0.001 A 
ATOM     27  C   UNL A   1      27.653  31.265  22.707  1.00  0.00     0.000 A 
ENDBRANCH  15  22
ENDBRANCH   8   9
ENDBRANCH   6   8
ENDBRANCH   5   6
ENDBRANCH   4   5
ENDBRANCH   3   4
ENDBRANCH   2   3
ENDBRANCH   1   2
BRANCH   1  28
ATOM     28  C   UNL A   1      33.722  35.352  31.458  1.00  0.00     0.188 C 
BRANCH  28  29
ATOM     29  O   UNL A   1      34.793  34.456  31.733  1.00  0.00    -0.376 OA
BRANCH  29  30
ATOM     30  C   UNL A   1      34.415  33.287  32.481  1.00  0.00     0.202 C 
BRANCH  30  31
ATOM     31  C   UNL A   1      35.149  31.956  32.143  1.00  0.00     0.261 C 
BRANCH  31  32
ATOM     32  O   UNL A   1      35.275  31.826  30.700  1.00  0.00    -0.460 OA
BRANCH  32  33
ATOM     33  C   UNL A   1      36.489  31.805  30.065  1.00  0.00     0.338 C 
ATOM     34  O   UNL A   1      37.085  32.779  29.633  1.00  0.00    -0.246 OA
BRANCH  33  35
ATOM     35  C   UNL A   1      36.800  30.366  29.704  1.00  0.00     0.060 A 
ATOM     36  C   UNL A   1      37.215  29.372  30.600  1.00  0.00     0.016 A 
ATOM     37  C   UNL A   1      37.132  30.149  28.409  1.00  0.00     0.016 A 
ATOM     38  C   UNL A   1      38.168  28.336  30.213  1.00  0.00     0.010 A 
ATOM     39  C   UNL A   1      38.250  29.344  28.202  1.00  0.00     0.010 A 
ATOM     40  C   UNL A   1      38.874  28.372  29.001  1.00  0.00    -0.014 A 
BRANCH  40  41
ATOM     41  C   UNL A   1      40.350  27.713  28.722  1.00  0.00     0.031 A 
ATOM     42  C   UNL A   1      40.981  26.245  28.229  1.00  0.00     0.074 A 
ATOM     43  C   UNL A   1      41.348  28.614  28.892  1.00  0.00     0.049 A 
ATOM     44  N   UNL A   1      42.178  25.798  28.601  1.00  0.00    -0.248 NA
ATOM     45  C   UNL A   1      40.388  25.136  27.406  1.00  0.00     0.031 C 
ATOM     46  C   UNL A   1      42.757  28.504  28.529  1.00  0.00     0.029 A 
ATOM     47  N   UNL A   1      41.278  29.825  29.585  1.00  0.00    -0.354 N 
ATOM     48  C   UNL A   1      42.411  24.566  27.980  1.00  0.00     0.074 A 
ATOM     49  C   UNL A   1      41.156  24.083  27.616  1.00  0.00     0.031 C 
ATOM     50  C   UNL A   1      43.454  29.408  29.231  1.00  0.00     0.029 A 
ATOM     51  C   UNL A   1      42.539  30.060  30.148  1.00  0.00     0.049 A 
ATOM     52  H   UNL A   1      40.488  30.407  29.663  1.00  0.00     0.167 HD
ATOM     53  C   UNL A   1      43.611  24.031  27.631  1.00  0.00     0.037 A 
ATOM     54  C   UNL A   1      42.647  30.108  31.507  1.00  0.00     0.037 A 
ATOM     55  C   UNL A   1      44.651  24.711  28.352  1.00  0.00     0.049 A 
ATOM     56  C   UNL A   1      43.412  28.928  32.085  1.00  0.00     0.074 A 
ATOM     57  C   UNL A   1      45.554  25.710  28.063  1.00  0.00     0.029 A 
ATOM     58  N   UNL A   1      44.598  24.610  29.728  1.00  0.00    -0.354 N 
ATOM     59  N   UNL A   1      44.092  28.058  31.385  1.00  0.00    -0.248 NA
ATOM     60  C   UNL A   1      43.387  28.583  33.510  1.00  0.00     0.031 C 
ATOM     61  C   UNL A   1      45.883  26.341  29.307  1.00  0.00     0.029 A 
ATOM     62  C   UNL A   1      45.234  25.672  30.332  1.00  0.00     0.049 A 
ATOM     63  H   UNL A   1      44.162  23.874  30.214  1.00  0.00     0.167 HD
ATOM     64  C   UNL A   1      44.452  27.014  32.195  1.00  0.00     0.074 A 
ATOM     65  C   UNL A   1      44.013  27.398  33.521  1.00  0.00     0.031 C 
ATOM     66  C   UNL A   1      45.026  25.860  31.756  1.00  0.00     0.037 A 
BRANCH  53  67
ATOM     67  C   UNL A   1      43.806  22.904  26.596  1.00  0.00     0.064 A 
ATOM     68  C   UNL A   1      44.370  23.190  25.338  1.00  0.00     0.173 A 
ATOM     69  C   UNL A   1      43.385  21.547  26.727  1.00  0.00     0.173 A 
ATOM     70  F   UNL A   1      44.765  24.434  25.033  1.00  0.00    -0.203 F 
ATOM     71  C   UNL A   1      44.522  22.218  24.330  1.00  0.00     0.198 A 
ATOM     72  C   UNL A   1      43.617  20.562  25.757  1.00  0.00     0.198 A 
ATOM     73  F   UNL A   1      42.645  21.108  27.750  1.00  0.00    -0.203 F 
ATOM     74  F   UNL A   1      44.997  22.573  23.127  1.00  0.00    -0.200 F 
ATOM     75  C   UNL A   1      44.170  20.900  24.549  1.00  0.00     0.200 A 
ATOM     76  F   UNL A   1      43.249  19.293  25.999  1.00  0.00    -0.200 F 
ATOM     77  F   UNL A   1      44.321  19.974  23.592  1.00  0.00    -0.200 F 
ENDBRANCH  53  67
BRANCH  54  78
ATOM     78  C   UNL A   1      41.508  30.851  32.140  1.00  0.00     0.064 A 
ATOM     79  C   UNL A   1      41.479  32.258  31.986  1.00  0.00     0.173 A 
ATOM     80  C   UNL A   1      40.330  30.249  32.600  1.00  0.00     0.173 A 
ATOM     81  F   UNL A   1      42.566  32.907  31.533  1.00  0.00    -0.203 F 
ATOM     82  C   UNL A   1      40.313  32.999  32.170  1.00  0.00     0.198 A 
ATOM     83  C   UNL A   1      39.171  31.002  32.822  1.00  0.00     0.198 A 
ATOM     84  F   UNL A   1      40.235  28.917  32.705  1.00  0.00    -0.203 F 
ATOM     85  F   UNL A   1      40.295  34.305  31.867  1.00  0.00    -0.200 F 
ATOM     86  C   UNL A   1      39.156  32.368  32.580  1.00  0.00     0.200 A 
ATOM     87  F   UNL A   1      38.029  30.381  33.151  1.00  0.00    -0.200 F 
ATOM     88  F   UNL A   1      38.006  33.053  32.658  1.00  0.00    -0.200 F 
ENDBRANCH  54  78
BRANCH  66  89
ATOM     89  C   UNL A   1      45.428  24.790  32.721  1.00  0.00     0.064 A 
ATOM     90  C   UNL A   1      44.538  23.751  33.025  1.00  0.00     0.173 A 
ATOM     91  C   UNL A   1      46.626  24.840  33.458  1.00  0.00     0.173 A 
ATOM     92  F   UNL A   1      43.378  23.638  32.359  1.00  0.00    -0.203 F 
ATOM     93  C   UNL A   1      44.822  22.822  34.021  1.00  0.00     0.198 A 
ATOM     94  C   UNL A   1      46.887  23.939  34.486  1.00  0.00     0.198 A 
ATOM     95  F   UNL A   1      47.564  25.763  33.193  1.00  0.00    -0.203 F 
ATOM     96  F   UNL A   1      43.958  21.828  34.267  1.00  0.00    -0.200 F 
ATOM     97  C   UNL A   1      45.984  22.930  34.768  1.00  0.00     0.200 A 
ATOM     98  F   UNL A   1      48.010  24.058  35.209  1.00  0.00    -0.200 F 
ATOM     99  F   UNL A   1      46.235  22.059  35.755  1.00  0.00    -0.200 F 
ENDBRANCH  66  89
ENDBRANCH  40  41
ENDBRANCH  33  35
ENDBRANCH  32  33
ENDBRANCH  31  32
ENDBRANCH  30  31
ENDBRANCH  29  30
ENDBRANCH  28  29
ENDBRANCH   1  28
TORSDOF 20
ENDMDL
MODEL 3
REMARK VINA RESULT:     -12.6      1.466      2.066
REMARK SMILES Cc1c(CC(=O)OCCOCCOCCOC(=O)c2ccc(-c3c4nc(c(-c5c(F)c(F)c(F)c(F)c5F)c5ccc([nH]5)c(-c5c(F)c(F)c(F)c(F)c5F)c5nc(c(-c6c(F)c(F)c(F)c(F)c6F)c6ccc3[nH]6)C=C5)C=C4)cc2)cc(-c2ccccc2)cc1-c1ccccc1
REMARK SMILES IDX 11 1 10 2 9 3 8 4 7 5 5 6 6 7 4 8 3 9 1 10 2 11 91 12 82 13
REMARK SMILES IDX 90 14 83 15 92 16 93 17 97 18 94 19 96 20 95 21 84 22 85 23
REMARK SMILES IDX 89 24 86 25 88 26 87 27 12 28 13 29 14 30 15 31 16 32 17 33
REMARK SMILES IDX 18 34 19 35 20 36 81 37 21 38 80 39 22 40 23 41 24 42 74 43
REMARK SMILES IDX 25 44 79 45 73 46 75 47 26 48 78 49 72 50 71 51 27 53 59 54
REMARK SMILES IDX 39 55 58 56 40 57 43 58 57 59 76 60 41 61 42 62 56 64 77 65
REMARK SMILES IDX 44 66 28 67 29 68 37 69 30 70 31 71 35 72 38 73 32 74 33 75
REMARK SMILES IDX 36 76 34 77 60 78 61 79 69 80 62 81 63 82 67 83 70 84 64 85
REMARK SMILES IDX 65 86 68 87 66 88 45 89 46 90 54 91 47 92 48 93 52 94 55 95
REMARK SMILES IDX 49 96 50 97 53 98 51 99
REMARK H PARENT 75 52 43 63
REMARK Flexibility Score: inf
ROOT
ATOM      1  C   UNL A   1      31.447  29.714  24.740  1.00  0.00     0.188 C 
ENDROOT
BRANCH   1   2
ATOM      2  O   UNL A   1      31.944  28.937  23.647  1.00  0.00    -0.376 OA
BRANCH   2   3
ATOM      3  C   UNL A   1      32.292  27.561  23.712  1.00  0.00     0.202 C 
BRANCH   3   4
ATOM      4  C   UNL A   1      33.327  26.974  22.532  1.00  0.00     0.261 C 
BRANCH   4   5
ATOM      5  O   UNL A   1      33.802  25.397  22.188  1.00  0.00    -0.463 OA
BRANCH   5   6
ATOM      6  C   UNL A   1      33.468  24.025  22.217  1.00  0.00     0.310 C 
ATOM      7  O   UNL A   1      33.507  23.173  21.331  1.00  0.00    -0.252 OA
BRANCH   6   8
ATOM      8  C   UNL A   1      33.045  23.424  23.513  1.00  0.00     0.158 C 
BRANCH   8   9
ATOM      9  C   UNL A   1      33.938  22.330  23.912  1.00  0.00    -0.033 A 
ATOM     10  C   UNL A   1      32.080  20.632  23.609  1.00  0.00     0.045 C 
ATOM     11  C   UNL A   1      33.478  21.017  24.067  1.00  0.00    -0.039 A 
ATOM     12  C   UNL A   1      34.369  20.086  24.629  1.00  0.00    -0.015 A 
ATOM     13  C   UNL A   1      35.219  22.716  24.269  1.00  0.00     0.013 A 
ATOM     14  C   UNL A   1      35.638  20.522  25.092  1.00  0.00     0.017 A 
ATOM     15  C   UNL A   1      36.070  21.840  24.912  1.00  0.00    -0.017 A 
BRANCH  12  16
ATOM     16  C   UNL A   1      33.982  18.678  24.719  1.00  0.00    -0.018 A 
ATOM     17  C   UNL A   1      32.996  18.251  25.615  1.00  0.00     0.009 A 
ATOM     18  C   UNL A   1      34.528  17.751  23.813  1.00  0.00     0.009 A 
ATOM     19  C   UNL A   1      32.571  16.922  25.608  1.00  0.00     0.001 A 
ATOM     20  C   UNL A   1      34.093  16.430  23.796  1.00  0.00     0.001 A 
ATOM     21  C   UNL A   1      33.119  16.016  24.700  1.00  0.00     0.000 A 
ENDBRANCH  12  16
BRANCH  15  22
ATOM     22  C   UNL A   1      37.319  22.420  25.395  1.00  0.00    -0.018 A 
ATOM     23  C   UNL A   1      38.410  21.592  25.693  1.00  0.00     0.009 A 
ATOM     24  C   UNL A   1      37.345  23.755  25.829  1.00  0.00     0.009 A 
ATOM     25  C   UNL A   1      39.501  22.088  26.407  1.00  0.00     0.001 A 
ATOM     26  C   UNL A   1      38.436  24.251  26.541  1.00  0.00     0.001 A 
ATOM     27  C   UNL A   1      39.512  23.417  26.830  1.00  0.00     0.000 A 
ENDBRANCH  15  22
ENDBRANCH   8   9
ENDBRANCH   6   8
ENDBRANCH   5   6
ENDBRANCH   4   5
ENDBRANCH   3   4
ENDBRANCH   2   3
ENDBRANCH   1   2
BRANCH   1  28
ATOM     28  C   UNL A   1      32.586  29.766  25.776  1.00  0.00     0.188 C 
BRANCH  28  29
ATOM     29  O   UNL A   1      32.376  30.742  26.789  1.00  0.00    -0.376 OA
BRANCH  29  30
ATOM     30  C   UNL A   1      33.541  31.042  27.578  1.00  0.00     0.202 C 
BRANCH  30  31
ATOM     31  C   UNL A   1      33.829  32.541  27.884  1.00  0.00     0.261 C 
BRANCH  31  32
ATOM     32  O   UNL A   1      34.791  32.636  28.970  1.00  0.00    -0.460 OA
BRANCH  32  33
ATOM     33  C   UNL A   1      34.516  33.287  30.144  1.00  0.00     0.338 C 
ATOM     34  O   UNL A   1      33.648  34.130  30.305  1.00  0.00    -0.246 OA
BRANCH  33  35
ATOM     35  C   UNL A   1      35.663  33.028  31.100  1.00  0.00     0.060 A 
ATOM     36  C   UNL A   1      36.838  33.788  31.189  1.00  0.00     0.016 A 
ATOM     37  C   UNL A   1      35.763  31.758  31.562  1.00  0.00     0.016 A 
ATOM     38  C   UNL A   1      38.129  33.176  31.489  1.00  0.00     0.010 A 
ATOM     39  C   UNL A   1      37.041  31.206  31.530  1.00  0.00     0.010 A 
ATOM     40  C   UNL A   1      38.320  31.786  31.516  1.00  0.00    -0.014 A 
BRANCH  40  41
ATOM     41  C   UNL A   1      39.722  30.996  31.197  1.00  0.00     0.031 A 
ATOM     42  C   UNL A   1      40.212  29.607  30.405  1.00  0.00     0.074 A 
ATOM     43  C   UNL A   1      40.801  31.670  31.664  1.00  0.00     0.049 A 
ATOM     44  N   UNL A   1      41.293  28.911  30.745  1.00  0.00    -0.248 NA
ATOM     45  C   UNL A   1      39.578  28.826  29.289  1.00  0.00     0.031 C 
ATOM     46  C   UNL A   1      42.216  31.438  31.395  1.00  0.00     0.029 A 
ATOM     47  N   UNL A   1      40.808  32.681  32.629  1.00  0.00    -0.354 N 
ATOM     48  C   UNL A   1      41.435  27.838  29.857  1.00  0.00     0.074 A 
ATOM     49  C   UNL A   1      40.177  27.650  29.289  1.00  0.00     0.031 C 
ATOM     50  C   UNL A   1      42.939  32.035  32.352  1.00  0.00     0.029 A 
ATOM     51  C   UNL A   1      42.019  32.583  33.328  1.00  0.00     0.049 A 
ATOM     52  H   UNL A   1      40.095  33.340  32.787  1.00  0.00     0.167 HD
ATOM     53  C   UNL A   1      42.589  27.226  29.481  1.00  0.00     0.037 A 
ATOM     54  C   UNL A   1      41.978  32.293  34.661  1.00  0.00     0.037 A 
ATOM     55  C   UNL A   1      43.620  27.553  30.427  1.00  0.00     0.049 A 
ATOM     56  C   UNL A   1      42.518  30.908  34.984  1.00  0.00     0.074 A 
ATOM     57  C   UNL A   1      44.669  28.444  30.466  1.00  0.00     0.029 A 
ATOM     58  N   UNL A   1      43.401  27.139  31.725  1.00  0.00    -0.354 N 
ATOM     59  N   UNL A   1      43.155  30.135  34.144  1.00  0.00    -0.248 NA
ATOM     60  C   UNL A   1      42.290  30.246  36.272  1.00  0.00     0.031 C 
ATOM     61  C   UNL A   1      44.935  28.707  31.849  1.00  0.00     0.029 A 
ATOM     62  C   UNL A   1      44.095  27.921  32.622  1.00  0.00     0.049 A 
ATOM     63  H   UNL A   1      42.823  26.384  31.978  1.00  0.00     0.167 HD
ATOM     64  C   UNL A   1      43.286  28.888  34.694  1.00  0.00     0.074 A 
ATOM     65  C   UNL A   1      42.754  29.011  36.036  1.00  0.00     0.031 C 
ATOM     66  C   UNL A   1      43.754  27.797  34.027  1.00  0.00     0.037 A 
BRANCH  53  67
ATOM     67  C   UNL A   1      42.753  26.358  28.216  1.00  0.00     0.064 A 
ATOM     68  C   UNL A   1      42.838  26.966  26.948  1.00  0.00     0.173 A 
ATOM     69  C   UNL A   1      42.744  24.933  28.155  1.00  0.00     0.173 A 
ATOM     70  F   UNL A   1      42.801  28.301  26.826  1.00  0.00    -0.203 F 
ATOM     71  C   UNL A   1      42.931  26.228  25.752  1.00  0.00     0.198 A 
ATOM     72  C   UNL A   1      42.926  24.202  26.973  1.00  0.00     0.198 A 
ATOM     73  F   UNL A   1      42.468  24.159  29.210  1.00  0.00    -0.203 F 
ATOM     74  F   UNL A   1      42.933  26.867  24.573  1.00  0.00    -0.200 F 
ATOM     75  C   UNL A   1      43.002  24.848  25.766  1.00  0.00     0.200 A 
ATOM     76  F   UNL A   1      42.977  22.861  27.024  1.00  0.00    -0.200 F 
ATOM     77  F   UNL A   1      43.098  24.147  24.629  1.00  0.00    -0.200 F 
ENDBRANCH  53  67
BRANCH  54  78
ATOM     78  C   UNL A   1      40.880  33.029  35.368  1.00  0.00     0.064 A 
ATOM     79  C   UNL A   1      39.663  32.338  35.582  1.00  0.00     0.173 A 
ATOM     80  C   UNL A   1      41.060  34.214  36.093  1.00  0.00     0.173 A 
ATOM     81  F   UNL A   1      39.423  31.183  34.936  1.00  0.00    -0.203 F 
ATOM     82  C   UNL A   1      38.739  32.745  36.543  1.00  0.00     0.198 A 
ATOM     83  C   UNL A   1      40.112  34.642  37.030  1.00  0.00     0.198 A 
ATOM     84  F   UNL A   1      42.209  34.897  36.016  1.00  0.00    -0.203 F 
ATOM     85  F   UNL A   1      37.675  31.977  36.817  1.00  0.00    -0.200 F 
ATOM     86  C   UNL A   1      38.969  33.894  37.274  1.00  0.00     0.200 A 
ATOM     87  F   UNL A   1      40.367  35.718  37.788  1.00  0.00    -0.200 F 
ATOM     88  F   UNL A   1      38.141  34.236  38.270  1.00  0.00    -0.200 F 
ENDBRANCH  54  78
BRANCH  66  89
ATOM     89  C   UNL A   1      43.907  26.482  34.724  1.00  0.00     0.064 A 
ATOM     90  C   UNL A   1      45.185  26.004  35.042  1.00  0.00     0.173 A 
ATOM     91  C   UNL A   1      42.823  25.617  34.965  1.00  0.00     0.173 A 
ATOM     92  F   UNL A   1      46.265  26.775  34.844  1.00  0.00    -0.203 F 
ATOM     93  C   UNL A   1      45.372  24.725  35.560  1.00  0.00     0.198 A 
ATOM     94  C   UNL A   1      43.016  24.323  35.438  1.00  0.00     0.198 A 
ATOM     95  F   UNL A   1      41.559  26.014  34.748  1.00  0.00    -0.203 F 
ATOM     96  F   UNL A   1      46.606  24.311  35.876  1.00  0.00    -0.200 F 
ATOM     97  C   UNL A   1      44.291  23.876  35.735  1.00  0.00     0.200 A 
ATOM     98  F   UNL A   1      41.964  23.506  35.594  1.00  0.00    -0.200 F 
ATOM     99  F   UNL A   1      44.478  22.631  36.193  1.00  0.00    -0.200 F 
ENDBRANCH  66  89
ENDBRANCH  40  41
ENDBRANCH  33  35
ENDBRANCH  32  33
ENDBRANCH  31  32
ENDBRANCH  30  31
ENDBRANCH  29  30
ENDBRANCH  28  29
ENDBRANCH   1  28
TORSDOF 20
ENDMDL
