MODEL 1
REMARK VINA RESULT:     -11.1      0.000      0.000
REMARK SMILES COC(=O)c1ccc(N2C[C@@H](C(=O)OCCOCCOCCOC(=O)c3ccc(-c4c5nc(c(-c6c(F)c(F)c(F)c(F)c6F)c6ccc([nH]6)c(-c6c(F)c(F)c(F)c(F)c6F)c6nc(c(-c7c(F)c(F)c(F)c(F)c7F)c7ccc4[nH]7)C=C6)C=C5)cc3)CC2=O)cc1
REMARK SMILES IDX 18 1 17 2 16 3 15 4 14 5 12 6 13 7 11 8 9 9 10 10 90 11
REMARK SMILES IDX 89 12 91 13 8 14 5 15 6 16 93 17 7 18 92 19 3 20 4 21 2 22
REMARK SMILES IDX 1 23 19 24 20 25 21 26 22 27 23 28 24 29 25 30 26 31 27 32
REMARK SMILES IDX 88 33 28 34 87 35 29 36 30 37 31 38 81 39 32 40 86 41 80 42
REMARK SMILES IDX 82 43 33 44 85 45 79 46 78 47 34 49 66 50 46 51 65 52 47 53
REMARK SMILES IDX 50 54 64 55 83 56 48 57 49 58 63 60 84 61 51 62 35 63 36 64
REMARK SMILES IDX 44 65 37 66 38 67 42 68 45 69 39 70 40 71 43 72 41 73 67 74
REMARK SMILES IDX 68 75 76 76 69 77 70 78 74 79 77 80 71 81 72 82 75 83 73 84
REMARK SMILES IDX 52 85 53 86 61 87 54 88 55 89 59 90 62 91 56 92 57 93 60 94
REMARK SMILES IDX 58 95
REMARK H PARENT 82 48 50 59
REMARK Flexibility Score: inf
ROOT
ATOM      1  C   UNL A   1      39.616  20.457  25.665  1.00  0.00     0.188 C 
ENDROOT
BRANCH   1   2
ATOM      2  O   UNL A   1      38.251  20.534  25.276  1.00  0.00    -0.376 OA
BRANCH   2   3
ATOM      3  C   UNL A   1      37.589  21.796  25.270  1.00  0.00     0.202 C 
BRANCH   3   4
ATOM      4  C   UNL A   1      36.208  21.902  24.603  1.00  0.00     0.261 C 
BRANCH   4   5
ATOM      5  O   UNL A   1      35.099  21.558  25.462  1.00  0.00    -0.463 OA
BRANCH   5   6
ATOM      6  C   UNL A   1      34.493  22.580  26.109  1.00  0.00     0.311 C 
ATOM      7  O   UNL A   1      35.050  23.327  26.904  1.00  0.00    -0.252 OA
BRANCH   6   8
ATOM      8  C   UNL A   1      33.043  22.792  25.723  1.00  0.00     0.128 C 
ATOM      9  N   UNL A   1      31.684  24.646  25.247  1.00  0.00    -0.312 N 
ATOM     10  C   UNL A   1      32.988  24.104  24.974  1.00  0.00     0.141 C 
ATOM     11  C   UNL A   1      31.072  24.034  26.328  1.00  0.00     0.227 C 
ATOM     12  C   UNL A   1      31.965  22.927  26.797  1.00  0.00     0.117 C 
ATOM     13  O   UNL A   1      29.992  24.292  26.839  1.00  0.00    -0.274 OA
BRANCH   9  14
ATOM     14  C   UNL A   1      31.285  25.861  24.672  1.00  0.00     0.044 A 
ATOM     15  C   UNL A   1      30.257  28.238  23.635  1.00  0.00     0.060 A 
ATOM     16  C   UNL A   1      30.874  28.235  24.889  1.00  0.00     0.018 A 
ATOM     17  C   UNL A   1      30.189  27.062  22.882  1.00  0.00     0.018 A 
ATOM     18  C   UNL A   1      31.366  27.043  25.415  1.00  0.00     0.027 A 
ATOM     19  C   UNL A   1      30.725  25.882  23.390  1.00  0.00     0.027 A 
BRANCH  15  20
ATOM     20  C   UNL A   1      29.688  29.509  23.142  1.00  0.00     0.337 C 
ATOM     21  O   UNL A   1      29.777  30.568  23.738  1.00  0.00    -0.246 OA
BRANCH  20  22
ATOM     22  O   UNL A   1      29.015  29.280  21.987  1.00  0.00    -0.465 OA
ATOM     23  C   UNL A   1      28.442  30.452  21.412  1.00  0.00     0.282 C 
ENDBRANCH  20  22
ENDBRANCH  15  20
ENDBRANCH   9  14
ENDBRANCH   6   8
ENDBRANCH   5   6
ENDBRANCH   4   5
ENDBRANCH   3   4
ENDBRANCH   2   3
ENDBRANCH   1   2
BRANCH   1  24
ATOM     24  C   UNL A   1      40.120  21.317  26.835  1.00  0.00     0.188 C 
BRANCH  24  25
ATOM     25  O   UNL A   1      41.480  21.150  27.151  1.00  0.00    -0.376 OA
BRANCH  25  26
ATOM     26  C   UNL A   1      42.334  20.634  26.148  1.00  0.00     0.202 C 
BRANCH  26  27
ATOM     27  C   UNL A   1      43.392  21.561  25.525  1.00  0.00     0.261 C 
BRANCH  27  28
ATOM     28  O   UNL A   1      42.919  22.778  24.920  1.00  0.00    -0.460 OA
BRANCH  28  29
ATOM     29  C   UNL A   1      43.723  23.866  25.003  1.00  0.00     0.338 C 
ATOM     30  O   UNL A   1      44.690  24.116  24.313  1.00  0.00    -0.246 OA
BRANCH  29  31
ATOM     31  C   UNL A   1      43.081  24.830  25.931  1.00  0.00     0.060 A 
ATOM     32  C   UNL A   1      43.429  26.188  25.856  1.00  0.00     0.016 A 
ATOM     33  C   UNL A   1      42.135  24.400  26.863  1.00  0.00     0.016 A 
ATOM     34  C   UNL A   1      42.849  27.114  26.728  1.00  0.00     0.010 A 
ATOM     35  C   UNL A   1      41.576  25.323  27.753  1.00  0.00     0.010 A 
ATOM     36  C   UNL A   1      41.950  26.679  27.711  1.00  0.00    -0.014 A 
BRANCH  36  37
ATOM     37  C   UNL A   1      41.547  27.589  28.815  1.00  0.00     0.031 A 
ATOM     38  C   UNL A   1      42.327  27.538  30.100  1.00  0.00     0.074 A 
ATOM     39  C   UNL A   1      40.508  28.435  28.694  1.00  0.00     0.049 A 
ATOM     40  N   UNL A   1      42.108  28.151  31.235  1.00  0.00    -0.248 NA
ATOM     41  C   UNL A   1      43.514  26.670  30.104  1.00  0.00     0.031 C 
ATOM     42  C   UNL A   1      39.700  28.616  27.491  1.00  0.00     0.029 A 
ATOM     43  N   UNL A   1      39.948  29.292  29.611  1.00  0.00    -0.354 N 
ATOM     44  C   UNL A   1      43.119  27.732  32.091  1.00  0.00     0.074 A 
ATOM     45  C   UNL A   1      43.936  26.793  31.353  1.00  0.00     0.031 C 
ATOM     46  C   UNL A   1      38.730  29.512  27.751  1.00  0.00     0.029 A 
ATOM     47  C   UNL A   1      38.828  29.938  29.147  1.00  0.00     0.049 A 
ATOM     48  H   UNL A   1      40.314  29.429  30.514  1.00  0.00     0.167 HD
ATOM     49  C   UNL A   1      43.347  28.099  33.374  1.00  0.00     0.037 A 
ATOM     50  C   UNL A   1      37.964  30.751  29.788  1.00  0.00     0.037 A 
ATOM     51  C   UNL A   1      42.534  29.032  34.107  1.00  0.00     0.049 A 
ATOM     52  C   UNL A   1      38.195  31.085  31.243  1.00  0.00     0.074 A 
ATOM     53  C   UNL A   1      42.698  29.485  35.405  1.00  0.00     0.029 A 
ATOM     54  N   UNL A   1      41.395  29.649  33.611  1.00  0.00    -0.354 N 
ATOM     55  N   UNL A   1      39.165  30.705  32.039  1.00  0.00    -0.248 NA
ATOM     56  C   UNL A   1      37.208  31.964  31.887  1.00  0.00     0.031 C 
ATOM     57  C   UNL A   1      41.624  30.325  35.715  1.00  0.00     0.029 A 
ATOM     58  C   UNL A   1      40.829  30.453  34.587  1.00  0.00     0.049 A 
ATOM     59  H   UNL A   1      41.041  29.532  32.699  1.00  0.00     0.167 HD
ATOM     60  C   UNL A   1      38.926  31.324  33.260  1.00  0.00     0.074 A 
ATOM     61  C   UNL A   1      37.725  32.115  33.098  1.00  0.00     0.031 C 
ATOM     62  C   UNL A   1      39.639  31.247  34.411  1.00  0.00     0.037 A 
BRANCH  49  63
ATOM     63  C   UNL A   1      44.509  27.462  34.081  1.00  0.00     0.064 A 
ATOM     64  C   UNL A   1      45.781  28.053  34.100  1.00  0.00     0.173 A 
ATOM     65  C   UNL A   1      44.335  26.259  34.781  1.00  0.00     0.173 A 
ATOM     66  F   UNL A   1      46.004  29.196  33.434  1.00  0.00    -0.203 F 
ATOM     67  C   UNL A   1      46.843  27.449  34.769  1.00  0.00     0.198 A 
ATOM     68  C   UNL A   1      45.389  25.674  35.477  1.00  0.00     0.198 A 
ATOM     69  F   UNL A   1      43.139  25.652  34.800  1.00  0.00    -0.203 F 
ATOM     70  F   UNL A   1      48.061  28.005  34.730  1.00  0.00    -0.200 F 
ATOM     71  C   UNL A   1      46.644  26.265  35.464  1.00  0.00     0.200 A 
ATOM     72  F   UNL A   1      45.192  24.537  36.160  1.00  0.00    -0.200 F 
ATOM     73  F   UNL A   1      47.663  25.689  36.116  1.00  0.00    -0.200 F 
ENDBRANCH  49  63
BRANCH  50  74
ATOM     74  C   UNL A   1      36.781  31.298  29.071  1.00  0.00     0.064 A 
ATOM     75  C   UNL A   1      36.705  32.655  28.725  1.00  0.00     0.173 A 
ATOM     76  C   UNL A   1      35.685  30.484  28.747  1.00  0.00     0.173 A 
ATOM     77  F   UNL A   1      37.713  33.482  29.039  1.00  0.00    -0.203 F 
ATOM     78  C   UNL A   1      35.573  33.180  28.105  1.00  0.00     0.198 A 
ATOM     79  C   UNL A   1      34.566  31.003  28.098  1.00  0.00     0.198 A 
ATOM     80  F   UNL A   1      35.700  29.180  29.061  1.00  0.00    -0.203 F 
ATOM     81  F   UNL A   1      35.505  34.491  27.837  1.00  0.00    -0.200 F 
ATOM     82  C   UNL A   1      34.507  32.352  27.785  1.00  0.00     0.200 A 
ATOM     83  F   UNL A   1      33.544  30.197  27.782  1.00  0.00    -0.200 F 
ATOM     84  F   UNL A   1      33.419  32.857  27.189  1.00  0.00    -0.200 F 
ENDBRANCH  50  74
BRANCH  62  85
ATOM     85  C   UNL A   1      39.177  32.078  35.577  1.00  0.00     0.064 A 
ATOM     86  C   UNL A   1      38.398  31.538  36.611  1.00  0.00     0.173 A 
ATOM     87  C   UNL A   1      39.562  33.424  35.683  1.00  0.00     0.173 A 
ATOM     88  F   UNL A   1      37.992  30.261  36.555  1.00  0.00    -0.203 F 
ATOM     89  C   UNL A   1      37.998  32.322  37.691  1.00  0.00     0.198 A 
ATOM     90  C   UNL A   1      39.191  34.195  36.781  1.00  0.00     0.198 A 
ATOM     91  F   UNL A   1      40.315  33.989  34.727  1.00  0.00    -0.203 F 
ATOM     92  F   UNL A   1      37.211  31.799  38.642  1.00  0.00    -0.200 F 
ATOM     93  C   UNL A   1      38.402  33.646  37.780  1.00  0.00     0.200 A 
ATOM     94  F   UNL A   1      39.599  35.469  36.873  1.00  0.00    -0.200 F 
ATOM     95  F   UNL A   1      38.026  34.396  38.826  1.00  0.00    -0.200 F 
ENDBRANCH  62  85
ENDBRANCH  36  37
ENDBRANCH  29  31
ENDBRANCH  28  29
ENDBRANCH  27  28
ENDBRANCH  26  27
ENDBRANCH  25  26
ENDBRANCH  24  25
ENDBRANCH   1  24
TORSDOF 20
ENDMDL
MODEL 2
REMARK VINA RESULT:     -11.0      5.576     11.333
REMARK SMILES COC(=O)c1ccc(N2C[C@@H](C(=O)OCCOCCOCCOC(=O)c3ccc(-c4c5nc(c(-c6c(F)c(F)c(F)c(F)c6F)c6ccc([nH]6)c(-c6c(F)c(F)c(F)c(F)c6F)c6nc(c(-c7c(F)c(F)c(F)c(F)c7F)c7ccc4[nH]7)C=C6)C=C5)cc3)CC2=O)cc1
REMARK SMILES IDX 18 1 17 2 16 3 15 4 14 5 12 6 13 7 11 8 9 9 10 10 90 11
REMARK SMILES IDX 89 12 91 13 8 14 5 15 6 16 93 17 7 18 92 19 3 20 4 21 2 22
REMARK SMILES IDX 1 23 19 24 20 25 21 26 22 27 23 28 24 29 25 30 26 31 27 32
REMARK SMILES IDX 88 33 28 34 87 35 29 36 30 37 31 38 81 39 32 40 86 41 80 42
REMARK SMILES IDX 82 43 33 44 85 45 79 46 78 47 34 49 66 50 46 51 65 52 47 53
REMARK SMILES IDX 50 54 64 55 83 56 48 57 49 58 63 60 84 61 51 62 35 63 36 64
REMARK SMILES IDX 44 65 37 66 38 67 42 68 45 69 39 70 40 71 43 72 41 73 67 74
REMARK SMILES IDX 68 75 76 76 69 77 70 78 74 79 77 80 71 81 72 82 75 83 73 84
REMARK SMILES IDX 52 85 53 86 61 87 54 88 55 89 59 90 62 91 56 92 57 93 60 94
REMARK SMILES IDX 58 95
REMARK H PARENT 82 48 50 59
REMARK Flexibility Score: inf
ROOT
ATOM      1  C   UNL A   1      33.511  37.786  31.920  1.00  0.00     0.188 C 
ENDROOT
BRANCH   1   2
ATOM      2  O   UNL A   1      32.809  37.466  30.726  1.00  0.00    -0.376 OA
BRANCH   2   3
ATOM      3  C   UNL A   1      33.348  36.499  29.829  1.00  0.00     0.202 C 
BRANCH   3   4
ATOM      4  C   UNL A   1      33.068  35.010  30.094  1.00  0.00     0.261 C 
BRANCH   4   5
ATOM      5  O   UNL A   1      33.879  34.100  29.321  1.00  0.00    -0.463 OA
BRANCH   5   6
ATOM      6  C   UNL A   1      33.289  33.521  28.250  1.00  0.00     0.311 C 
ATOM      7  O   UNL A   1      32.188  33.833  27.810  1.00  0.00    -0.252 OA
BRANCH   6   8
ATOM      8  C   UNL A   1      34.135  32.470  27.562  1.00  0.00     0.128 C 
ATOM      9  N   UNL A   1      33.942  30.167  27.143  1.00  0.00    -0.312 N 
ATOM     10  C   UNL A   1      33.182  31.388  27.104  1.00  0.00     0.141 C 
ATOM     11  C   UNL A   1      35.103  30.289  27.888  1.00  0.00     0.227 C 
ATOM     12  C   UNL A   1      35.216  31.715  28.334  1.00  0.00     0.117 C 
ATOM     13  O   UNL A   1      35.934  29.432  28.152  1.00  0.00    -0.274 OA
BRANCH   9  14
ATOM     14  C   UNL A   1      33.360  28.955  26.744  1.00  0.00     0.044 A 
ATOM     15  C   UNL A   1      32.363  26.426  26.119  1.00  0.00     0.060 A 
ATOM     16  C   UNL A   1      31.771  27.175  27.139  1.00  0.00     0.018 A 
ATOM     17  C   UNL A   1      33.428  26.957  25.384  1.00  0.00     0.018 A 
ATOM     18  C   UNL A   1      32.285  28.427  27.466  1.00  0.00     0.027 A 
ATOM     19  C   UNL A   1      33.908  28.230  25.680  1.00  0.00     0.027 A 
BRANCH  15  20
ATOM     20  C   UNL A   1      31.832  25.075  25.848  1.00  0.00     0.337 C 
ATOM     21  O   UNL A   1      32.180  24.385  24.906  1.00  0.00    -0.246 OA
BRANCH  20  22
ATOM     22  O   UNL A   1      30.872  24.780  26.760  1.00  0.00    -0.465 OA
ATOM     23  C   UNL A   1      30.396  23.439  26.684  1.00  0.00     0.282 C 
ENDBRANCH  20  22
ENDBRANCH  15  20
ENDBRANCH   9  14
ENDBRANCH   6   8
ENDBRANCH   5   6
ENDBRANCH   4   5
ENDBRANCH   3   4
ENDBRANCH   2   3
ENDBRANCH   1   2
BRANCH   1  24
ATOM     24  C   UNL A   1      33.305  36.922  33.174  1.00  0.00     0.188 C 
BRANCH  24  25
ATOM     25  O   UNL A   1      34.478  36.353  33.701  1.00  0.00    -0.376 OA
BRANCH  25  26
ATOM     26  C   UNL A   1      34.744  34.995  33.410  1.00  0.00     0.202 C 
BRANCH  26  27
ATOM     27  C   UNL A   1      35.968  34.647  32.544  1.00  0.00     0.261 C 
BRANCH  27  28
ATOM     28  O   UNL A   1      36.008  33.328  31.969  1.00  0.00    -0.460 OA
BRANCH  28  29
ATOM     29  C   UNL A   1      36.460  32.321  32.755  1.00  0.00     0.338 C 
ATOM     30  O   UNL A   1      35.988  31.947  33.810  1.00  0.00    -0.246 OA
BRANCH  29  31
ATOM     31  C   UNL A   1      37.500  31.587  31.992  1.00  0.00     0.060 A 
ATOM     32  C   UNL A   1      38.414  30.777  32.685  1.00  0.00     0.016 A 
ATOM     33  C   UNL A   1      37.568  31.688  30.602  1.00  0.00     0.016 A 
ATOM     34  C   UNL A   1      39.412  30.087  31.991  1.00  0.00     0.010 A 
ATOM     35  C   UNL A   1      38.584  31.018  29.911  1.00  0.00     0.010 A 
ATOM     36  C   UNL A   1      39.528  30.237  30.603  1.00  0.00    -0.014 A 
BRANCH  36  37
ATOM     37  C   UNL A   1      40.738  29.745  29.894  1.00  0.00     0.031 A 
ATOM     38  C   UNL A   1      41.846  30.724  29.614  1.00  0.00     0.074 A 
ATOM     39  C   UNL A   1      40.856  28.466  29.494  1.00  0.00     0.049 A 
ATOM     40  N   UNL A   1      42.947  30.565  28.924  1.00  0.00    -0.248 NA
ATOM     41  C   UNL A   1      41.684  32.069  30.187  1.00  0.00     0.031 C 
ATOM     42  C   UNL A   1      39.880  27.409  29.740  1.00  0.00     0.029 A 
ATOM     43  N   UNL A   1      41.852  27.848  28.776  1.00  0.00    -0.354 N 
ATOM     44  C   UNL A   1      43.599  31.791  28.968  1.00  0.00     0.074 A 
ATOM     45  C   UNL A   1      42.759  32.691  29.729  1.00  0.00     0.031 C 
ATOM     46  C   UNL A   1      40.314  26.274  29.162  1.00  0.00     0.029 A 
ATOM     47  C   UNL A   1      41.578  26.536  28.474  1.00  0.00     0.049 A 
ATOM     48  H   UNL A   1      42.681  28.302  28.503  1.00  0.00     0.167 HD
ATOM     49  C   UNL A   1      44.792  32.134  28.426  1.00  0.00     0.037 A 
ATOM     50  C   UNL A   1      42.254  25.661  27.704  1.00  0.00     0.037 A 
ATOM     51  C   UNL A   1      45.626  31.240  27.670  1.00  0.00     0.049 A 
ATOM     52  C   UNL A   1      43.544  26.090  27.044  1.00  0.00     0.074 A 
ATOM     53  C   UNL A   1      46.862  31.488  27.099  1.00  0.00     0.029 A 
ATOM     54  N   UNL A   1      45.304  29.925  27.367  1.00  0.00    -0.354 N 
ATOM     55  N   UNL A   1      44.167  27.242  27.109  1.00  0.00    -0.248 NA
ATOM     56  C   UNL A   1      44.224  25.093  26.204  1.00  0.00     0.031 C 
ATOM     57  C   UNL A   1      47.259  30.346  26.398  1.00  0.00     0.029 A 
ATOM     58  C   UNL A   1      46.304  29.361  26.591  1.00  0.00     0.049 A 
ATOM     59  H   UNL A   1      44.486  29.461  27.660  1.00  0.00     0.167 HD
ATOM     60  C   UNL A   1      45.323  27.097  26.352  1.00  0.00     0.074 A 
ATOM     61  C   UNL A   1      45.323  25.742  25.846  1.00  0.00     0.031 C 
ATOM     62  C   UNL A   1      46.300  28.005  26.102  1.00  0.00     0.037 A 
BRANCH  49  63
ATOM     63  C   UNL A   1      45.251  33.553  28.606  1.00  0.00     0.064 A 
ATOM     64  C   UNL A   1      46.188  33.912  29.585  1.00  0.00     0.173 A 
ATOM     65  C   UNL A   1      44.771  34.562  27.757  1.00  0.00     0.173 A 
ATOM     66  F   UNL A   1      46.667  32.987  30.431  1.00  0.00    -0.203 F 
ATOM     67  C   UNL A   1      46.607  35.232  29.728  1.00  0.00     0.198 A 
ATOM     68  C   UNL A   1      45.217  35.875  27.880  1.00  0.00     0.198 A 
ATOM     69  F   UNL A   1      43.876  34.275  26.800  1.00  0.00    -0.203 F 
ATOM     70  F   UNL A   1      47.464  35.560  30.704  1.00  0.00    -0.200 F 
ATOM     71  C   UNL A   1      46.128  36.211  28.870  1.00  0.00     0.200 A 
ATOM     72  F   UNL A   1      44.763  36.818  27.040  1.00  0.00    -0.200 F 
ATOM     73  F   UNL A   1      46.539  37.480  29.002  1.00  0.00    -0.200 F 
ENDBRANCH  49  63
BRANCH  50  74
ATOM     74  C   UNL A   1      41.722  24.288  27.488  1.00  0.00     0.064 A 
ATOM     75  C   UNL A   1      42.329  23.173  28.084  1.00  0.00     0.173 A 
ATOM     76  C   UNL A   1      40.617  24.058  26.654  1.00  0.00     0.173 A 
ATOM     77  F   UNL A   1      43.406  23.336  28.866  1.00  0.00    -0.203 F 
ATOM     78  C   UNL A   1      41.866  21.882  27.837  1.00  0.00     0.198 A 
ATOM     79  C   UNL A   1      40.135  22.769  26.433  1.00  0.00     0.198 A 
ATOM     80  F   UNL A   1      40.003  25.087  26.053  1.00  0.00    -0.203 F 
ATOM     81  F   UNL A   1      42.500  20.830  28.375  1.00  0.00    -0.200 F 
ATOM     82  C   UNL A   1      40.766  21.681  27.018  1.00  0.00     0.200 A 
ATOM     83  F   UNL A   1      39.066  22.581  25.649  1.00  0.00    -0.200 F 
ATOM     84  F   UNL A   1      40.321  20.440  26.781  1.00  0.00    -0.200 F 
ENDBRANCH  50  74
BRANCH  62  85
ATOM     85  C   UNL A   1      47.482  27.553  25.287  1.00  0.00     0.064 A 
ATOM     86  C   UNL A   1      48.583  26.911  25.870  1.00  0.00     0.173 A 
ATOM     87  C   UNL A   1      47.486  27.725  23.894  1.00  0.00     0.173 A 
ATOM     88  F   UNL A   1      48.637  26.731  27.198  1.00  0.00    -0.203 F 
ATOM     89  C   UNL A   1      49.658  26.483  25.092  1.00  0.00     0.198 A 
ATOM     90  C   UNL A   1      48.544  27.265  23.115  1.00  0.00     0.198 A 
ATOM     91  F   UNL A   1      46.453  28.325  23.282  1.00  0.00    -0.203 F 
ATOM     92  F   UNL A   1      50.723  25.917  25.677  1.00  0.00    -0.200 F 
ATOM     93  C   UNL A   1      49.633  26.652  23.716  1.00  0.00     0.200 A 
ATOM     94  F   UNL A   1      48.509  27.413  21.783  1.00  0.00    -0.200 F 
ATOM     95  F   UNL A   1      50.662  26.230  22.968  1.00  0.00    -0.200 F 
ENDBRANCH  62  85
ENDBRANCH  36  37
ENDBRANCH  29  31
ENDBRANCH  28  29
ENDBRANCH  27  28
ENDBRANCH  26  27
ENDBRANCH  25  26
ENDBRANCH  24  25
ENDBRANCH   1  24
TORSDOF 20
ENDMDL
MODEL 3
REMARK VINA RESULT:     -10.7      2.410      4.185
REMARK SMILES COC(=O)c1ccc(N2C[C@@H](C(=O)OCCOCCOCCOC(=O)c3ccc(-c4c5nc(c(-c6c(F)c(F)c(F)c(F)c6F)c6ccc([nH]6)c(-c6c(F)c(F)c(F)c(F)c6F)c6nc(c(-c7c(F)c(F)c(F)c(F)c7F)c7ccc4[nH]7)C=C6)C=C5)cc3)CC2=O)cc1
REMARK SMILES IDX 18 1 17 2 16 3 15 4 14 5 12 6 13 7 11 8 9 9 10 10 90 11
REMARK SMILES IDX 89 12 91 13 8 14 5 15 6 16 93 17 7 18 92 19 3 20 4 21 2 22
REMARK SMILES IDX 1 23 19 24 20 25 21 26 22 27 23 28 24 29 25 30 26 31 27 32
REMARK SMILES IDX 88 33 28 34 87 35 29 36 30 37 31 38 81 39 32 40 86 41 80 42
REMARK SMILES IDX 82 43 33 44 85 45 79 46 78 47 34 49 66 50 46 51 65 52 47 53
REMARK SMILES IDX 50 54 64 55 83 56 48 57 49 58 63 60 84 61 51 62 35 63 36 64
REMARK SMILES IDX 44 65 37 66 38 67 42 68 45 69 39 70 40 71 43 72 41 73 67 74
REMARK SMILES IDX 68 75 76 76 69 77 70 78 74 79 77 80 71 81 72 82 75 83 73 84
REMARK SMILES IDX 52 85 53 86 61 87 54 88 55 89 59 90 62 91 56 92 57 93 60 94
REMARK SMILES IDX 58 95
REMARK H PARENT 82 48 50 59
REMARK Flexibility Score: inf
ROOT
ATOM      1  C   UNL A   1      46.133  19.083  25.592  1.00  0.00     0.188 C 
ENDROOT
BRANCH   1   2
ATOM      2  O   UNL A   1      45.020  18.205  25.494  1.00  0.00    -0.376 OA
BRANCH   2   3
ATOM      3  C   UNL A   1      43.728  18.734  25.210  1.00  0.00     0.202 C 
BRANCH   3   4
ATOM      4  C   UNL A   1      42.599  18.511  26.230  1.00  0.00     0.261 C 
BRANCH   4   5
ATOM      5  O   UNL A   1      42.284  19.666  27.037  1.00  0.00    -0.463 OA
BRANCH   5   6
ATOM      6  C   UNL A   1      41.798  20.747  26.385  1.00  0.00     0.311 C 
ATOM      7  O   UNL A   1      42.284  21.220  25.364  1.00  0.00    -0.252 OA
BRANCH   6   8
ATOM      8  C   UNL A   1      40.527  21.318  26.980  1.00  0.00     0.128 C 
ATOM      9  N   UNL A   1      38.523  22.201  26.134  1.00  0.00    -0.312 N 
ATOM     10  C   UNL A   1      39.441  21.110  25.949  1.00  0.00     0.141 C 
ATOM     11  C   UNL A   1      39.068  23.231  26.884  1.00  0.00     0.227 C 
ATOM     12  C   UNL A   1      40.431  22.802  27.331  1.00  0.00     0.117 C 
ATOM     13  O   UNL A   1      38.570  24.308  27.177  1.00  0.00    -0.274 OA
BRANCH   9  14
ATOM     14  C   UNL A   1      37.365  22.298  25.349  1.00  0.00     0.044 A 
ATOM     15  C   UNL A   1      34.941  22.579  23.999  1.00  0.00     0.060 A 
ATOM     16  C   UNL A   1      35.851  23.639  24.022  1.00  0.00     0.018 A 
ATOM     17  C   UNL A   1      35.259  21.365  24.616  1.00  0.00     0.018 A 
ATOM     18  C   UNL A   1      37.051  23.505  24.717  1.00  0.00     0.027 A 
ATOM     19  C   UNL A   1      36.480  21.218  25.267  1.00  0.00     0.027 A 
BRANCH  15  20
ATOM     20  C   UNL A   1      33.651  22.785  23.309  1.00  0.00     0.337 C 
ATOM     21  O   UNL A   1      33.538  22.895  22.101  1.00  0.00    -0.246 OA
BRANCH  20  22
ATOM     22  O   UNL A   1      32.662  22.895  24.230  1.00  0.00    -0.465 OA
ATOM     23  C   UNL A   1      31.411  23.308  23.688  1.00  0.00     0.282 C 
ENDBRANCH  20  22
ENDBRANCH  15  20
ENDBRANCH   9  14
ENDBRANCH   6   8
ENDBRANCH   5   6
ENDBRANCH   4   5
ENDBRANCH   3   4
ENDBRANCH   2   3
ENDBRANCH   1   2
BRANCH   1  24
ATOM     24  C   UNL A   1      46.436  20.055  24.441  1.00  0.00     0.188 C 
BRANCH  24  25
ATOM     25  O   UNL A   1      45.707  21.258  24.474  1.00  0.00    -0.376 OA
BRANCH  25  26
ATOM     26  C   UNL A   1      45.685  21.985  25.687  1.00  0.00     0.202 C 
BRANCH  26  27
ATOM     27  C   UNL A   1      46.207  23.432  25.695  1.00  0.00     0.261 C 
BRANCH  27  28
ATOM     28  O   UNL A   1      45.522  24.379  24.855  1.00  0.00    -0.460 OA
BRANCH  28  29
ATOM     29  C   UNL A   1      44.172  24.442  24.962  1.00  0.00     0.338 C 
ATOM     30  O   UNL A   1      43.357  23.798  24.333  1.00  0.00    -0.246 OA
BRANCH  29  31
ATOM     31  C   UNL A   1      43.854  25.267  26.154  1.00  0.00     0.060 A 
ATOM     32  C   UNL A   1      43.122  24.694  27.207  1.00  0.00     0.016 A 
ATOM     33  C   UNL A   1      44.283  26.592  26.239  1.00  0.00     0.016 A 
ATOM     34  C   UNL A   1      42.797  25.454  28.334  1.00  0.00     0.010 A 
ATOM     35  C   UNL A   1      43.933  27.359  27.355  1.00  0.00     0.010 A 
ATOM     36  C   UNL A   1      43.165  26.805  28.396  1.00  0.00    -0.014 A 
BRANCH  36  37
ATOM     37  C   UNL A   1      42.591  27.692  29.441  1.00  0.00     0.031 A 
ATOM     38  C   UNL A   1      43.286  27.765  30.774  1.00  0.00     0.074 A 
ATOM     39  C   UNL A   1      41.476  28.412  29.226  1.00  0.00     0.049 A 
ATOM     40  N   UNL A   1      42.926  28.379  31.871  1.00  0.00    -0.248 NA
ATOM     41  C   UNL A   1      44.560  27.037  30.882  1.00  0.00     0.031 C 
ATOM     42  C   UNL A   1      40.733  28.467  27.970  1.00  0.00     0.029 A 
ATOM     43  N   UNL A   1      40.765  29.224  30.077  1.00  0.00    -0.354 N 
ATOM     44  C   UNL A   1      43.918  28.100  32.802  1.00  0.00     0.074 A 
ATOM     45  C   UNL A   1      44.882  27.240  32.150  1.00  0.00     0.031 C 
ATOM     46  C   UNL A   1      39.655  29.255  28.138  1.00  0.00     0.029 A 
ATOM     47  C   UNL A   1      39.612  29.727  29.523  1.00  0.00     0.049 A 
ATOM     48  H   UNL A   1      41.053  29.426  30.996  1.00  0.00     0.167 HD
ATOM     49  C   UNL A   1      44.019  28.525  34.084  1.00  0.00     0.037 A 
ATOM     50  C   UNL A   1      38.624  30.454  30.079  1.00  0.00     0.037 A 
ATOM     51  C   UNL A   1      43.061  29.380  34.733  1.00  0.00     0.049 A 
ATOM     52  C   UNL A   1      38.719  30.851  31.534  1.00  0.00     0.074 A 
ATOM     53  C   UNL A   1      43.087  29.883  36.022  1.00  0.00     0.029 A 
ATOM     54  N   UNL A   1      41.895  29.850  34.145  1.00  0.00    -0.354 N 
ATOM     55  N   UNL A   1      39.671  30.604  32.401  1.00  0.00    -0.248 NA
ATOM     56  C   UNL A   1      37.600  31.629  32.085  1.00  0.00     0.031 C 
ATOM     57  C   UNL A   1      41.908  30.604  36.235  1.00  0.00     0.029 A 
ATOM     58  C   UNL A   1      41.180  30.610  35.056  1.00  0.00     0.049 A 
ATOM     59  H   UNL A   1      41.618  29.669  33.217  1.00  0.00     0.167 HD
ATOM     60  C   UNL A   1      39.284  31.225  33.583  1.00  0.00     0.074 A 
ATOM     61  C   UNL A   1      38.016  31.870  33.320  1.00  0.00     0.031 C 
ATOM     62  C   UNL A   1      39.924  31.260  34.779  1.00  0.00     0.037 A 
BRANCH  49  63
ATOM     63  C   UNL A   1      45.195  28.043  34.884  1.00  0.00     0.064 A 
ATOM     64  C   UNL A   1      45.137  26.878  35.662  1.00  0.00     0.173 A 
ATOM     65  C   UNL A   1      46.412  28.741  34.839  1.00  0.00     0.173 A 
ATOM     66  F   UNL A   1      43.992  26.182  35.750  1.00  0.00    -0.203 F 
ATOM     67  C   UNL A   1      46.243  26.445  36.389  1.00  0.00     0.198 A 
ATOM     68  C   UNL A   1      47.526  28.287  35.540  1.00  0.00     0.198 A 
ATOM     69  F   UNL A   1      46.526  29.859  34.108  1.00  0.00    -0.203 F 
ATOM     70  F   UNL A   1      46.148  25.357  37.167  1.00  0.00    -0.200 F 
ATOM     71  C   UNL A   1      47.439  27.144  36.321  1.00  0.00     0.200 A 
ATOM     72  F   UNL A   1      48.685  28.957  35.461  1.00  0.00    -0.200 F 
ATOM     73  F   UNL A   1      48.505  26.721  37.012  1.00  0.00    -0.200 F 
ENDBRANCH  49  63
BRANCH  50  74
ATOM     74  C   UNL A   1      37.436  30.844  29.272  1.00  0.00     0.064 A 
ATOM     75  C   UNL A   1      37.266  32.161  28.822  1.00  0.00     0.173 A 
ATOM     76  C   UNL A   1      36.430  29.917  28.962  1.00  0.00     0.173 A 
ATOM     77  F   UNL A   1      38.185  33.093  29.117  1.00  0.00    -0.203 F 
ATOM     78  C   UNL A   1      36.127  32.540  28.114  1.00  0.00     0.198 A 
ATOM     79  C   UNL A   1      35.306  30.290  28.226  1.00  0.00     0.198 A 
ATOM     80  F   UNL A   1      36.538  28.645  29.373  1.00  0.00    -0.203 F 
ATOM     81  F   UNL A   1      35.964  33.819  27.746  1.00  0.00    -0.200 F 
ATOM     82  C   UNL A   1      35.151  31.604  27.810  1.00  0.00     0.200 A 
ATOM     83  F   UNL A   1      34.371  29.378  27.927  1.00  0.00    -0.200 F 
ATOM     84  F   UNL A   1      34.056  31.968  27.130  1.00  0.00    -0.200 F 
ENDBRANCH  50  74
BRANCH  62  85
ATOM     85  C   UNL A   1      39.296  32.064  35.885  1.00  0.00     0.064 A 
ATOM     86  C   UNL A   1      38.363  31.506  36.771  1.00  0.00     0.173 A 
ATOM     87  C   UNL A   1      39.673  33.401  36.088  1.00  0.00     0.173 A 
ATOM     88  F   UNL A   1      37.958  30.237  36.616  1.00  0.00    -0.203 F 
ATOM     89  C   UNL A   1      37.810  32.266  37.800  1.00  0.00     0.198 A 
ATOM     90  C   UNL A   1      39.145  34.146  37.139  1.00  0.00     0.198 A 
ATOM     91  F   UNL A   1      40.569  33.983  35.276  1.00  0.00    -0.203 F 
ATOM     92  F   UNL A   1      36.882  31.726  38.603  1.00  0.00    -0.200 F 
ATOM     93  C   UNL A   1      38.208  33.581  37.989  1.00  0.00     0.200 A 
ATOM     94  F   UNL A   1      39.546  35.412  37.330  1.00  0.00    -0.200 F 
ATOM     95  F   UNL A   1      37.683  34.306  38.987  1.00  0.00    -0.200 F 
ENDBRANCH  62  85
ENDBRANCH  36  37
ENDBRANCH  29  31
ENDBRANCH  28  29
ENDBRANCH  27  28
ENDBRANCH  26  27
ENDBRANCH  25  26
ENDBRANCH  24  25
ENDBRANCH   1  24
TORSDOF 20
ENDMDL
