MODEL 1
REMARK VINA RESULT:     -12.9      0.000      0.000
REMARK SMILES Cc1oc2cc3c(cc2c1C)[C@H](C)[C@@H](CC(=O)N[C@H](CC1=c2ccccc2=NC1)C(=O)OCCOCCOCCOC(=O)c1ccc(-c2c4nc(c(-c5c(F)c(F)c(F)c(F)c5F)c5ccc([nH]5)c(-c5c(F)c(F)c(F)c(F)c5F)c5nc(c(-c6c(F)c(F)c(F)c(F)c6F)c6ccc2[nH]6)C=C5)C=C4)cc1)C(=O)O3
REMARK SMILES IDX 36 1 35 2 34 3 33 4 32 5 30 6 31 7 19 8 18 9 16 10 17 11
REMARK SMILES IDX 15 13 14 14 1 15 2 16 3 17 10 18 4 19 9 20 11 21 5 22 8 23
REMARK SMILES IDX 6 24 7 25 109 26 12 27 107 28 13 29 108 30 20 31 21 32 22 33
REMARK SMILES IDX 29 34 23 35 27 36 28 37 24 38 26 39 25 40 37 41 38 42 39 43
REMARK SMILES IDX 40 44 41 45 42 46 43 47 44 48 45 49 106 50 46 51 105 52
REMARK SMILES IDX 47 53 48 54 49 55 99 56 50 57 104 58 98 59 100 60 51 61
REMARK SMILES IDX 103 62 97 63 96 64 52 66 84 67 64 68 83 69 65 70 68 71 82 72
REMARK SMILES IDX 101 73 66 74 67 75 81 77 102 78 69 79 53 80 54 81 62 82
REMARK SMILES IDX 55 83 56 84 60 85 63 86 57 87 58 88 61 89 59 90 85 91 86 92
REMARK SMILES IDX 94 93 87 94 88 95 92 96 95 97 89 98 90 99 93 100 91 101
REMARK SMILES IDX 70 102 71 103 79 104 72 105 73 106 77 107 80 108 74 109
REMARK SMILES IDX 75 110 78 111 76 112
REMARK H PARENT 18 12 100 65 68 76
REMARK Flexibility Score: inf
ROOT
ATOM      1  C   UNL A   1      32.568  30.926  27.178  1.00  0.00     0.188 C 
ENDROOT
BRANCH   1   2
ATOM      2  O   UNL A   1      33.079  30.039  26.200  1.00  0.00    -0.376 OA
BRANCH   2   3
ATOM      3  C   UNL A   1      33.071  28.672  26.618  1.00  0.00     0.202 C 
BRANCH   3   4
ATOM      4  C   UNL A   1      31.945  28.204  27.579  1.00  0.00     0.261 C 
BRANCH   4   5
ATOM      5  O   UNL A   1      30.790  27.570  26.976  1.00  0.00    -0.462 OA
BRANCH   5   6
ATOM      6  C   UNL A   1      30.897  26.301  26.488  1.00  0.00     0.329 C 
ATOM      7  O   UNL A   1      31.389  25.374  27.122  1.00  0.00    -0.250 OA
BRANCH   6   8
ATOM      8  C   UNL A   1      30.296  26.130  25.069  1.00  0.00     0.196 C 
BRANCH   8   9
ATOM      9  N   UNL A   1      30.443  24.767  24.448  1.00  0.00    -0.342 N 
ATOM     10  C   UNL A   1      31.261  24.163  23.554  1.00  0.00     0.221 C 
ATOM     11  O   UNL A   1      30.770  23.196  22.957  1.00  0.00    -0.275 OA
ATOM     12  H   UNL A   1      29.757  24.146  24.783  1.00  0.00     0.164 HD
BRANCH  10  13
ATOM     13  C   UNL A   1      32.722  24.505  23.292  1.00  0.00     0.116 C 
BRANCH  13  14
ATOM     14  C   UNL A   1      33.759  23.753  24.130  1.00  0.00     0.116 C 
ATOM     15  C   UNL A   1      41.307  21.843  27.517  1.00  0.00     0.088 C 
ATOM     16  C   UNL A   1      40.052  22.380  26.951  1.00  0.00     0.105 A 
ATOM     17  O   UNL A   1      39.328  21.496  26.214  1.00  0.00    -0.461 OA
ATOM     18  C   UNL A   1      39.406  23.604  27.016  1.00  0.00    -0.002 A 
ATOM     19  C   UNL A   1      38.198  22.134  25.819  1.00  0.00     0.138 A 
ATOM     20  C   UNL A   1      38.196  23.445  26.272  1.00  0.00     0.024 A 
ATOM     21  C   UNL A   1      39.833  24.831  27.728  1.00  0.00     0.049 C 
ATOM     22  C   UNL A   1      37.182  21.565  25.069  1.00  0.00     0.095 A 
ATOM     23  C   UNL A   1      37.105  24.279  25.944  1.00  0.00     0.020 A 
ATOM     24  C   UNL A   1      36.107  22.407  24.778  1.00  0.00     0.138 A 
ATOM     25  C   UNL A   1      36.028  23.754  25.207  1.00  0.00    -0.001 A 
ATOM     26  O   UNL A   1      35.126  21.823  23.976  1.00  0.00    -0.426 OA
ATOM     27  C   UNL A   1      34.879  24.642  24.716  1.00  0.00     0.035 C 
ATOM     28  C   UNL A   1      34.548  22.834  23.283  1.00  0.00     0.315 C 
ATOM     29  C   UNL A   1      34.313  25.622  25.741  1.00  0.00     0.014 C 
ATOM     30  O   UNL A   1      34.766  23.042  22.094  1.00  0.00    -0.251 OA
ENDBRANCH  13  14
ENDBRANCH  10  13
ENDBRANCH   8   9
BRANCH   8  31
ATOM     31  C   UNL A   1      30.266  27.207  23.909  1.00  0.00     0.070 C 
BRANCH  31  32
ATOM     32  C   UNL A   1      30.623  28.731  23.817  1.00  0.00    -0.037 C 
ATOM     33  C   UNL A   1      29.672  29.679  23.913  1.00  0.00     0.001 A 
ATOM     34  C   UNL A   1      31.230  28.988  22.427  1.00  0.00     0.174 C 
ATOM     35  C   UNL A   1      29.799  31.113  24.172  1.00  0.00     0.010 A 
ATOM     36  C   UNL A   1      29.179  29.607  22.495  1.00  0.00     0.065 A 
ATOM     37  N   UNL A   1      30.021  29.220  21.583  1.00  0.00    -0.280 NA
ATOM     38  C   UNL A   1      28.761  31.895  23.815  1.00  0.00     0.001 A 
ATOM     39  C   UNL A   1      27.828  30.180  22.356  1.00  0.00     0.028 A 
ATOM     40  C   UNL A   1      27.644  31.288  23.101  1.00  0.00     0.002 A 
ENDBRANCH  31  32
ENDBRANCH   8  31
ENDBRANCH   6   8
ENDBRANCH   5   6
ENDBRANCH   4   5
ENDBRANCH   3   4
ENDBRANCH   2   3
ENDBRANCH   1   2
BRANCH   1  41
ATOM     41  C   UNL A   1      33.400  32.122  27.622  1.00  0.00     0.188 C 
BRANCH  41  42
ATOM     42  O   UNL A   1      34.361  31.893  28.633  1.00  0.00    -0.376 OA
BRANCH  42  43
ATOM     43  C   UNL A   1      35.702  31.714  28.167  1.00  0.00     0.202 C 
BRANCH  43  44
ATOM     44  C   UNL A   1      36.154  30.266  27.873  1.00  0.00     0.261 C 
BRANCH  44  45
ATOM     45  O   UNL A   1      35.919  29.391  29.011  1.00  0.00    -0.460 OA
BRANCH  45  46
ATOM     46  C   UNL A   1      36.571  29.688  30.169  1.00  0.00     0.338 C 
ATOM     47  O   UNL A   1      36.082  29.850  31.273  1.00  0.00    -0.246 OA
BRANCH  46  48
ATOM     48  C   UNL A   1      38.017  29.467  29.956  1.00  0.00     0.060 A 
ATOM     49  C   UNL A   1      38.591  28.213  29.829  1.00  0.00     0.016 A 
ATOM     50  C   UNL A   1      38.835  30.592  29.910  1.00  0.00     0.016 A 
ATOM     51  C   UNL A   1      39.988  28.112  29.710  1.00  0.00     0.010 A 
ATOM     52  C   UNL A   1      40.219  30.506  29.849  1.00  0.00     0.010 A 
ATOM     53  C   UNL A   1      40.811  29.257  29.739  1.00  0.00    -0.014 A 
BRANCH  53  54
ATOM     54  C   UNL A   1      42.283  29.144  29.642  1.00  0.00     0.031 A 
ATOM     55  C   UNL A   1      42.951  28.287  30.707  1.00  0.00     0.074 A 
ATOM     56  C   UNL A   1      42.765  29.098  28.384  1.00  0.00     0.049 A 
ATOM     57  N   UNL A   1      43.359  27.050  30.677  1.00  0.00    -0.248 NA
ATOM     58  C   UNL A   1      43.103  28.908  32.032  1.00  0.00     0.031 C 
ATOM     59  C   UNL A   1      42.634  28.015  27.418  1.00  0.00     0.029 A 
ATOM     60  N   UNL A   1      43.620  30.020  27.794  1.00  0.00    -0.354 N 
ATOM     61  C   UNL A   1      43.857  26.745  31.952  1.00  0.00     0.074 A 
ATOM     62  C   UNL A   1      43.652  27.925  32.756  1.00  0.00     0.031 C 
ATOM     63  C   UNL A   1      43.469  28.259  26.389  1.00  0.00     0.029 A 
ATOM     64  C   UNL A   1      44.221  29.493  26.640  1.00  0.00     0.049 A 
ATOM     65  H   UNL A   1      43.783  30.928  28.140  1.00  0.00     0.167 HD
ATOM     66  C   UNL A   1      44.478  25.578  32.291  1.00  0.00     0.037 A 
ATOM     67  C   UNL A   1      45.566  29.641  26.427  1.00  0.00     0.037 A 
ATOM     68  C   UNL A   1      44.624  24.628  31.233  1.00  0.00     0.049 A 
ATOM     69  C   UNL A   1      46.134  28.436  27.148  1.00  0.00     0.074 A 
ATOM     70  C   UNL A   1      44.028  23.466  30.798  1.00  0.00     0.029 A 
ATOM     71  N   UNL A   1      45.665  24.828  30.360  1.00  0.00    -0.354 N 
ATOM     72  N   UNL A   1      46.118  27.195  26.734  1.00  0.00    -0.248 NA
ATOM     73  C   UNL A   1      46.369  28.595  28.585  1.00  0.00     0.031 C 
ATOM     74  C   UNL A   1      44.442  23.321  29.435  1.00  0.00     0.029 A 
ATOM     75  C   UNL A   1      45.242  24.421  29.126  1.00  0.00     0.049 A 
ATOM     76  H   UNL A   1      46.551  25.196  30.581  1.00  0.00     0.167 HD
ATOM     77  C   UNL A   1      46.043  26.420  27.898  1.00  0.00     0.074 A 
ATOM     78  C   UNL A   1      46.237  27.343  28.998  1.00  0.00     0.031 C 
ATOM     79  C   UNL A   1      45.625  25.119  27.921  1.00  0.00     0.037 A 
BRANCH  66  80
ATOM     80  C   UNL A   1      45.236  25.308  33.547  1.00  0.00     0.064 A 
ATOM     81  C   UNL A   1      44.613  24.506  34.520  1.00  0.00     0.173 A 
ATOM     82  C   UNL A   1      46.371  26.023  33.944  1.00  0.00     0.173 A 
ATOM     83  F   UNL A   1      43.520  23.793  34.197  1.00  0.00    -0.203 F 
ATOM     84  C   UNL A   1      45.050  24.485  35.841  1.00  0.00     0.198 A 
ATOM     85  C   UNL A   1      46.825  25.982  35.264  1.00  0.00     0.198 A 
ATOM     86  F   UNL A   1      47.020  26.814  33.084  1.00  0.00    -0.203 F 
ATOM     87  F   UNL A   1      44.374  23.775  36.755  1.00  0.00    -0.200 F 
ATOM     88  C   UNL A   1      46.150  25.234  36.217  1.00  0.00     0.200 A 
ATOM     89  F   UNL A   1      47.894  26.707  35.625  1.00  0.00    -0.200 F 
ATOM     90  F   UNL A   1      46.547  25.252  37.496  1.00  0.00    -0.200 F 
ENDBRANCH  66  80
BRANCH  67  91
ATOM     91  C   UNL A   1      46.094  31.041  26.579  1.00  0.00     0.064 A 
ATOM     92  C   UNL A   1      45.217  32.118  26.329  1.00  0.00     0.173 A 
ATOM     93  C   UNL A   1      47.381  31.388  27.017  1.00  0.00     0.173 A 
ATOM     94  F   UNL A   1      44.006  31.892  25.796  1.00  0.00    -0.203 F 
ATOM     95  C   UNL A   1      45.542  33.431  26.666  1.00  0.00     0.198 A 
ATOM     96  C   UNL A   1      47.701  32.703  27.373  1.00  0.00     0.198 A 
ATOM     97  F   UNL A   1      48.345  30.467  27.139  1.00  0.00    -0.203 F 
ATOM     98  F   UNL A   1      44.640  34.406  26.487  1.00  0.00    -0.200 F 
ATOM     99  C   UNL A   1      46.771  33.718  27.227  1.00  0.00     0.200 A 
ATOM    100  F   UNL A   1      48.904  32.976  27.896  1.00  0.00    -0.200 F 
ATOM    101  F   UNL A   1      47.056  34.964  27.628  1.00  0.00    -0.200 F 
ENDBRANCH  67  91
BRANCH  79 102
ATOM    102  C   UNL A   1      45.341  24.498  26.598  1.00  0.00     0.064 A 
ATOM    103  C   UNL A   1      46.385  24.062  25.776  1.00  0.00     0.173 A 
ATOM    104  C   UNL A   1      44.023  24.278  26.165  1.00  0.00     0.173 A 
ATOM    105  F   UNL A   1      47.662  24.230  26.154  1.00  0.00    -0.203 F 
ATOM    106  C   UNL A   1      46.119  23.415  24.574  1.00  0.00     0.198 A 
ATOM    107  C   UNL A   1      43.761  23.597  24.981  1.00  0.00     0.198 A 
ATOM    108  F   UNL A   1      42.980  24.692  26.900  1.00  0.00    -0.203 F 
ATOM    109  F   UNL A   1      47.134  23.002  23.800  1.00  0.00    -0.200 F 
ATOM    110  C   UNL A   1      44.811  23.167  24.186  1.00  0.00     0.200 A 
ATOM    111  F   UNL A   1      42.496  23.334  24.623  1.00  0.00    -0.200 F 
ATOM    112  F   UNL A   1      44.561  22.501  23.051  1.00  0.00    -0.200 F 
ENDBRANCH  79 102
ENDBRANCH  53  54
ENDBRANCH  46  48
ENDBRANCH  45  46
ENDBRANCH  44  45
ENDBRANCH  43  44
ENDBRANCH  42  43
ENDBRANCH  41  42
ENDBRANCH   1  41
TORSDOF 22
ENDMDL
MODEL 2
REMARK VINA RESULT:     -11.4      1.512      6.379
REMARK SMILES Cc1oc2cc3c(cc2c1C)[C@H](C)[C@@H](CC(=O)N[C@H](CC1=c2ccccc2=NC1)C(=O)OCCOCCOCCOC(=O)c1ccc(-c2c4nc(c(-c5c(F)c(F)c(F)c(F)c5F)c5ccc([nH]5)c(-c5c(F)c(F)c(F)c(F)c5F)c5nc(c(-c6c(F)c(F)c(F)c(F)c6F)c6ccc2[nH]6)C=C5)C=C4)cc1)C(=O)O3
REMARK SMILES IDX 36 1 35 2 34 3 33 4 32 5 30 6 31 7 19 8 18 9 16 10 17 11
REMARK SMILES IDX 15 13 14 14 1 15 2 16 3 17 10 18 4 19 9 20 11 21 5 22 8 23
REMARK SMILES IDX 6 24 7 25 109 26 12 27 107 28 13 29 108 30 20 31 21 32 22 33
REMARK SMILES IDX 29 34 23 35 27 36 28 37 24 38 26 39 25 40 37 41 38 42 39 43
REMARK SMILES IDX 40 44 41 45 42 46 43 47 44 48 45 49 106 50 46 51 105 52
REMARK SMILES IDX 47 53 48 54 49 55 99 56 50 57 104 58 98 59 100 60 51 61
REMARK SMILES IDX 103 62 97 63 96 64 52 66 84 67 64 68 83 69 65 70 68 71 82 72
REMARK SMILES IDX 101 73 66 74 67 75 81 77 102 78 69 79 53 80 54 81 62 82
REMARK SMILES IDX 55 83 56 84 60 85 63 86 57 87 58 88 61 89 59 90 85 91 86 92
REMARK SMILES IDX 94 93 87 94 88 95 92 96 95 97 89 98 90 99 93 100 91 101
REMARK SMILES IDX 70 102 71 103 79 104 72 105 73 106 77 107 80 108 74 109
REMARK SMILES IDX 75 110 78 111 76 112
REMARK H PARENT 18 12 100 65 68 76
REMARK Flexibility Score: inf
ROOT
ATOM      1  C   UNL A   1      34.330  30.470  27.197  1.00  0.00     0.188 C 
ENDROOT
BRANCH   1   2
ATOM      2  O   UNL A   1      33.600  29.631  26.321  1.00  0.00    -0.376 OA
BRANCH   2   3
ATOM      3  C   UNL A   1      32.954  28.545  26.990  1.00  0.00     0.202 C 
BRANCH   3   4
ATOM      4  C   UNL A   1      31.484  28.736  27.449  1.00  0.00     0.261 C 
BRANCH   4   5
ATOM      5  O   UNL A   1      30.599  27.597  27.307  1.00  0.00    -0.462 OA
BRANCH   5   6
ATOM      6  C   UNL A   1      31.004  26.518  26.578  1.00  0.00     0.329 C 
ATOM      7  O   UNL A   1      31.828  25.703  26.978  1.00  0.00    -0.250 OA
BRANCH   6   8
ATOM      8  C   UNL A   1      30.288  26.392  25.208  1.00  0.00     0.196 C 
BRANCH   8   9
ATOM      9  N   UNL A   1      30.327  25.033  24.563  1.00  0.00    -0.342 N 
ATOM     10  C   UNL A   1      31.083  24.389  23.642  1.00  0.00     0.221 C 
ATOM     11  O   UNL A   1      30.514  23.468  23.041  1.00  0.00    -0.275 OA
ATOM     12  H   UNL A   1      29.605  24.456  24.902  1.00  0.00     0.164 HD
BRANCH  10  13
ATOM     13  C   UNL A   1      32.558  24.631  23.356  1.00  0.00     0.116 C 
BRANCH  13  14
ATOM     14  C   UNL A   1      33.555  23.765  24.130  1.00  0.00     0.116 C 
ATOM     15  C   UNL A   1      41.046  20.939  26.956  1.00  0.00     0.088 C 
ATOM     16  C   UNL A   1      39.830  21.626  26.477  1.00  0.00     0.105 A 
ATOM     17  O   UNL A   1      38.936  20.831  25.828  1.00  0.00    -0.461 OA
ATOM     18  C   UNL A   1      39.356  22.926  26.555  1.00  0.00    -0.002 A 
ATOM     19  C   UNL A   1      37.870  21.606  25.506  1.00  0.00     0.138 A 
ATOM     20  C   UNL A   1      38.078  22.914  25.917  1.00  0.00     0.024 A 
ATOM     21  C   UNL A   1      39.998  24.099  27.192  1.00  0.00     0.049 C 
ATOM     22  C   UNL A   1      36.730  21.161  24.858  1.00  0.00     0.095 A 
ATOM     23  C   UNL A   1      37.081  23.879  25.652  1.00  0.00     0.020 A 
ATOM     24  C   UNL A   1      35.753  22.133  24.629  1.00  0.00     0.138 A 
ATOM     25  C   UNL A   1      35.887  23.486  25.021  1.00  0.00    -0.001 A 
ATOM     26  O   UNL A   1      34.640  21.668  23.927  1.00  0.00    -0.426 OA
ATOM     27  C   UNL A   1      34.827  24.509  24.597  1.00  0.00     0.035 C 
ATOM     28  C   UNL A   1      34.144  22.733  23.251  1.00  0.00     0.315 C 
ATOM     29  C   UNL A   1      34.482  25.576  25.633  1.00  0.00     0.014 C 
ATOM     30  O   UNL A   1      34.286  22.886  22.043  1.00  0.00    -0.251 OA
ENDBRANCH  13  14
ENDBRANCH  10  13
ENDBRANCH   8   9
BRANCH   8  31
ATOM     31  C   UNL A   1      30.216  27.486  24.064  1.00  0.00     0.070 C 
BRANCH  31  32
ATOM     32  C   UNL A   1      30.535  29.019  23.991  1.00  0.00    -0.037 C 
ATOM     33  C   UNL A   1      29.555  29.930  23.835  1.00  0.00     0.001 A 
ATOM     34  C   UNL A   1      31.427  29.255  22.761  1.00  0.00     0.174 C 
ATOM     35  C   UNL A   1      29.575  31.376  24.057  1.00  0.00     0.010 A 
ATOM     36  C   UNL A   1      29.394  29.791  22.347  1.00  0.00     0.065 A 
ATOM     37  N   UNL A   1      30.429  29.410  21.662  1.00  0.00    -0.280 NA
ATOM     38  C   UNL A   1      28.618  32.102  23.447  1.00  0.00     0.001 A 
ATOM     39  C   UNL A   1      28.089  30.304  21.889  1.00  0.00     0.028 A 
ATOM     40  C   UNL A   1      27.708  31.427  22.529  1.00  0.00     0.002 A 
ENDBRANCH  31  32
ENDBRANCH   8  31
ENDBRANCH   6   8
ENDBRANCH   5   6
ENDBRANCH   4   5
ENDBRANCH   3   4
ENDBRANCH   2   3
ENDBRANCH   1   2
BRANCH   1  41
ATOM     41  C   UNL A   1      33.727  31.793  27.654  1.00  0.00     0.188 C 
BRANCH  41  42
ATOM     42  O   UNL A   1      34.614  32.742  28.209  1.00  0.00    -0.376 OA
BRANCH  42  43
ATOM     43  C   UNL A   1      35.311  32.308  29.381  1.00  0.00     0.202 C 
BRANCH  43  44
ATOM     44  C   UNL A   1      36.856  32.342  29.329  1.00  0.00     0.261 C 
BRANCH  44  45
ATOM     45  O   UNL A   1      37.389  31.256  28.522  1.00  0.00    -0.460 OA
BRANCH  45  46
ATOM     46  C   UNL A   1      37.538  30.046  29.129  1.00  0.00     0.338 C 
ATOM     47  O   UNL A   1      36.657  29.294  29.508  1.00  0.00    -0.246 OA
BRANCH  46  48
ATOM     48  C   UNL A   1      38.945  29.619  28.972  1.00  0.00     0.060 A 
ATOM     49  C   UNL A   1      39.990  30.131  29.722  1.00  0.00     0.016 A 
ATOM     50  C   UNL A   1      39.218  28.667  27.994  1.00  0.00     0.016 A 
ATOM     51  C   UNL A   1      41.302  29.714  29.437  1.00  0.00     0.010 A 
ATOM     52  C   UNL A   1      40.512  28.287  27.664  1.00  0.00     0.010 A 
ATOM     53  C   UNL A   1      41.571  28.805  28.393  1.00  0.00    -0.014 A 
BRANCH  53  54
ATOM     54  C   UNL A   1      42.956  28.389  28.078  1.00  0.00     0.031 A 
ATOM     55  C   UNL A   1      43.981  29.511  28.011  1.00  0.00     0.074 A 
ATOM     56  C   UNL A   1      43.328  27.209  28.611  1.00  0.00     0.049 A 
ATOM     57  N   UNL A   1      44.845  29.934  28.890  1.00  0.00    -0.248 NA
ATOM     58  C   UNL A   1      43.965  30.328  26.786  1.00  0.00     0.031 C 
ATOM     59  C   UNL A   1      43.572  26.902  30.014  1.00  0.00     0.029 A 
ATOM     60  N   UNL A   1      43.702  26.069  27.910  1.00  0.00    -0.354 N 
ATOM     61  C   UNL A   1      45.510  31.032  28.327  1.00  0.00     0.074 A 
ATOM     62  C   UNL A   1      44.909  31.244  27.033  1.00  0.00     0.031 C 
ATOM     63  C   UNL A   1      44.167  25.695  30.089  1.00  0.00     0.029 A 
ATOM     64  C   UNL A   1      44.381  25.161  28.739  1.00  0.00     0.049 A 
ATOM     65  H   UNL A   1      43.514  25.916  26.956  1.00  0.00     0.167 HD
ATOM     66  C   UNL A   1      46.567  31.683  28.895  1.00  0.00     0.037 A 
ATOM     67  C   UNL A   1      45.538  24.564  28.313  1.00  0.00     0.037 A 
ATOM     68  C   UNL A   1      47.005  31.165  30.152  1.00  0.00     0.049 A 
ATOM     69  C   UNL A   1      46.588  25.573  28.732  1.00  0.00     0.074 A 
ATOM     70  C   UNL A   1      46.892  31.469  31.490  1.00  0.00     0.029 A 
ATOM     71  N   UNL A   1      47.817  30.059  30.118  1.00  0.00    -0.354 N 
ATOM     72  N   UNL A   1      47.038  25.779  29.944  1.00  0.00    -0.248 NA
ATOM     73  C   UNL A   1      46.838  26.670  27.795  1.00  0.00     0.031 C 
ATOM     74  C   UNL A   1      47.234  30.260  32.178  1.00  0.00     0.029 A 
ATOM     75  C   UNL A   1      47.506  29.295  31.208  1.00  0.00     0.049 A 
ATOM     76  H   UNL A   1      48.497  29.853  29.437  1.00  0.00     0.167 HD
ATOM     77  C   UNL A   1      47.358  27.142  29.990  1.00  0.00     0.074 A 
ATOM     78  C   UNL A   1      47.245  27.619  28.627  1.00  0.00     0.031 C 
ATOM     79  C   UNL A   1      47.496  27.852  31.149  1.00  0.00     0.037 A 
BRANCH  66  80
ATOM     80  C   UNL A   1      47.454  32.682  28.231  1.00  0.00     0.064 A 
ATOM     81  C   UNL A   1      47.032  34.024  28.231  1.00  0.00     0.173 A 
ATOM     82  C   UNL A   1      48.504  32.345  27.371  1.00  0.00     0.173 A 
ATOM     83  F   UNL A   1      46.030  34.409  29.039  1.00  0.00    -0.203 F 
ATOM     84  C   UNL A   1      47.574  34.961  27.356  1.00  0.00     0.198 A 
ATOM     85  C   UNL A   1      49.065  33.292  26.511  1.00  0.00     0.198 A 
ATOM     86  F   UNL A   1      48.962  31.091  27.304  1.00  0.00    -0.203 F 
ATOM     87  F   UNL A   1      47.082  36.207  27.327  1.00  0.00    -0.200 F 
ATOM     88  C   UNL A   1      48.582  34.591  26.485  1.00  0.00     0.200 A 
ATOM     89  F   UNL A   1      50.045  32.931  25.669  1.00  0.00    -0.200 F 
ATOM     90  F   UNL A   1      49.076  35.479  25.610  1.00  0.00    -0.200 F 
ENDBRANCH  66  80
BRANCH  67  91
ATOM     91  C   UNL A   1      45.475  23.930  26.951  1.00  0.00     0.064 A 
ATOM     92  C   UNL A   1      44.272  23.307  26.558  1.00  0.00     0.173 A 
ATOM     93  C   UNL A   1      46.495  23.954  25.987  1.00  0.00     0.173 A 
ATOM     94  F   UNL A   1      43.281  23.131  27.448  1.00  0.00    -0.203 F 
ATOM     95  C   UNL A   1      44.041  22.903  25.244  1.00  0.00     0.198 A 
ATOM     96  C   UNL A   1      46.259  23.566  24.665  1.00  0.00     0.198 A 
ATOM     97  F   UNL A   1      47.728  24.378  26.292  1.00  0.00    -0.203 F 
ATOM     98  F   UNL A   1      42.848  22.395  24.904  1.00  0.00    -0.200 F 
ATOM     99  C   UNL A   1      45.022  23.071  24.287  1.00  0.00     0.200 A 
ATOM    100  F   UNL A   1      47.224  23.711  23.746  1.00  0.00    -0.200 F 
ATOM    101  F   UNL A   1      44.777  22.760  23.007  1.00  0.00    -0.200 F 
ENDBRANCH  67  91
BRANCH  79 102
ATOM    102  C   UNL A   1      47.391  27.072  32.413  1.00  0.00     0.064 A 
ATOM    103  C   UNL A   1      48.506  26.409  32.935  1.00  0.00     0.173 A 
ATOM    104  C   UNL A   1      46.193  27.029  33.146  1.00  0.00     0.173 A 
ATOM    105  F   UNL A   1      49.679  26.438  32.285  1.00  0.00    -0.203 F 
ATOM    106  C   UNL A   1      48.428  25.742  34.154  1.00  0.00     0.198 A 
ATOM    107  C   UNL A   1      46.130  26.394  34.381  1.00  0.00     0.198 A 
ATOM    108  F   UNL A   1      45.084  27.629  32.685  1.00  0.00    -0.203 F 
ATOM    109  F   UNL A   1      49.508  25.114  34.640  1.00  0.00    -0.200 F 
ATOM    110  C   UNL A   1      47.249  25.750  34.883  1.00  0.00     0.200 A 
ATOM    111  F   UNL A   1      44.996  26.427  35.096  1.00  0.00    -0.200 F 
ATOM    112  F   UNL A   1      47.193  25.147  36.078  1.00  0.00    -0.200 F 
ENDBRANCH  79 102
ENDBRANCH  53  54
ENDBRANCH  46  48
ENDBRANCH  45  46
ENDBRANCH  44  45
ENDBRANCH  43  44
ENDBRANCH  42  43
ENDBRANCH  41  42
ENDBRANCH   1  41
TORSDOF 22
ENDMDL
