MODEL 1
REMARK VINA RESULT:     -11.5      0.000      0.000
REMARK SMILES C=C(C(=O)OCCOCCOCCOC(=O)c1ccc(-c2c3nc(c(-c4c(F)c(F)c(F)c(F)c4F)c4ccc([nH]4)c(-c4c(F)c(F)c(F)c(F)c4F)c4nc(c(-c5c(F)c(F)c(F)c(F)c5F)c5ccc2[nH]5)C=C4)C=C3)cc1)[C@@H]1CC[C@]2(C)C[C@@H](O)CC(=C)[C@H]2C1
REMARK SMILES IDX 9 1 8 2 7 3 6 4 5 5 3 6 4 7 2 8 1 9 80 10 81 11 92 12 82 13
REMARK SMILES IDX 91 14 83 15 89 16 84 17 85 18 88 19 90 20 86 21 87 22 10 24
REMARK SMILES IDX 11 25 12 26 13 27 14 28 15 29 16 30 17 31 18 32 79 33 19 34
REMARK SMILES IDX 78 35 20 36 21 37 22 38 72 39 23 40 77 41 71 42 73 43 24 44
REMARK SMILES IDX 76 45 70 46 69 47 25 49 57 50 37 51 56 52 38 53 41 54 55 55
REMARK SMILES IDX 74 56 39 57 40 58 54 60 75 61 42 62 26 63 27 64 35 65 28 66
REMARK SMILES IDX 29 67 33 68 36 69 30 70 31 71 34 72 32 73 58 74 59 75 67 76
REMARK SMILES IDX 60 77 61 78 65 79 68 80 62 81 63 82 66 83 64 84 43 85 44 86
REMARK SMILES IDX 52 87 45 88 46 89 50 90 53 91 47 92 48 93 51 94 49 95
REMARK H PARENT 87 23 73 48 41 59
REMARK Flexibility Score: inf
ROOT
ATOM      1  C   UNL A   1      37.894  21.737  25.845  1.00  0.00     0.188 C 
ENDROOT
BRANCH   1   2
ATOM      2  O   UNL A   1      37.392  22.988  25.417  1.00  0.00    -0.376 OA
BRANCH   2   3
ATOM      3  C   UNL A   1      36.163  23.444  25.963  1.00  0.00     0.202 C 
BRANCH   3   4
ATOM      4  C   UNL A   1      35.249  22.403  26.613  1.00  0.00     0.261 C 
BRANCH   4   5
ATOM      5  O   UNL A   1      33.868  22.623  26.266  1.00  0.00    -0.460 OA
BRANCH   5   6
ATOM      6  C   UNL A   1      33.419  22.044  25.114  1.00  0.00     0.333 C 
ATOM      7  O   UNL A   1      33.903  21.080  24.568  1.00  0.00    -0.247 OA
BRANCH   6   8
ATOM      8  C   UNL A   1      32.132  22.694  24.670  1.00  0.00     0.033 C 
ATOM      9  C   UNL A   1      31.071  22.567  25.486  1.00  0.00     0.020 C 
BRANCH   8  10
ATOM     10  C   UNL A   1      32.207  23.524  23.382  1.00  0.00     0.026 C 
ATOM     11  C   UNL A   1      33.630  23.933  22.955  1.00  0.00     0.009 C 
ATOM     12  C   UNL A   1      31.251  24.746  23.338  1.00  0.00     0.017 C 
ATOM     13  C   UNL A   1      34.170  25.217  23.594  1.00  0.00     0.008 C 
ATOM     14  C   UNL A   1      31.808  25.986  24.068  1.00  0.00     0.021 C 
ATOM     15  C   UNL A   1      33.202  26.423  23.540  1.00  0.00    -0.024 C 
ATOM     16  C   UNL A   1      30.944  27.239  24.112  1.00  0.00    -0.071 C 
ATOM     17  C   UNL A   1      33.147  26.920  22.070  1.00  0.00     0.012 C 
ATOM     18  C   UNL A   1      33.767  27.557  24.468  1.00  0.00     0.039 C 
ATOM     19  C   UNL A   1      31.374  28.191  25.203  1.00  0.00     0.062 C 
ATOM     20  C   UNL A   1      30.044  27.625  23.196  1.00  0.00     0.008 C 
ATOM     21  C   UNL A   1      32.791  28.685  24.873  1.00  0.00     0.119 C 
BRANCH  21  22
ATOM     22  O   UNL A   1      32.752  29.684  23.851  1.00  0.00    -0.393 OA
ATOM     23  H   UNL A   1      31.896  30.140  23.877  1.00  0.00     0.210 HD
ENDBRANCH  21  22
ENDBRANCH   8  10
ENDBRANCH   6   8
ENDBRANCH   5   6
ENDBRANCH   4   5
ENDBRANCH   3   4
ENDBRANCH   2   3
ENDBRANCH   1   2
BRANCH   1  24
ATOM     24  C   UNL A   1      39.420  21.489  25.901  1.00  0.00     0.188 C 
BRANCH  24  25
ATOM     25  O   UNL A   1      39.947  20.191  26.057  1.00  0.00    -0.376 OA
BRANCH  25  26
ATOM     26  C   UNL A   1      41.224  20.016  26.645  1.00  0.00     0.202 C 
BRANCH  26  27
ATOM     27  C   UNL A   1      42.486  20.622  26.015  1.00  0.00     0.261 C 
BRANCH  27  28
ATOM     28  O   UNL A   1      42.889  21.888  26.555  1.00  0.00    -0.460 OA
BRANCH  28  29
ATOM     29  C   UNL A   1      42.785  22.938  25.705  1.00  0.00     0.338 C 
ATOM     30  O   UNL A   1      43.053  22.969  24.517  1.00  0.00    -0.246 OA
BRANCH  29  31
ATOM     31  C   UNL A   1      42.249  24.107  26.420  1.00  0.00     0.060 A 
ATOM     32  C   UNL A   1      42.759  25.376  26.144  1.00  0.00     0.016 A 
ATOM     33  C   UNL A   1      41.347  23.933  27.465  1.00  0.00     0.016 A 
ATOM     34  C   UNL A   1      42.393  26.472  26.920  1.00  0.00     0.010 A 
ATOM     35  C   UNL A   1      40.981  25.034  28.246  1.00  0.00     0.010 A 
ATOM     36  C   UNL A   1      41.534  26.305  28.005  1.00  0.00    -0.014 A 
BRANCH  36  37
ATOM     37  C   UNL A   1      41.332  27.410  28.974  1.00  0.00     0.031 A 
ATOM     38  C   UNL A   1      42.226  27.489  30.177  1.00  0.00     0.074 A 
ATOM     39  C   UNL A   1      40.394  28.354  28.786  1.00  0.00     0.049 A 
ATOM     40  N   UNL A   1      42.066  28.148  31.294  1.00  0.00    -0.248 NA
ATOM     41  C   UNL A   1      43.474  26.713  30.107  1.00  0.00     0.031 C 
ATOM     42  C   UNL A   1      39.559  28.499  27.597  1.00  0.00     0.029 A 
ATOM     43  N   UNL A   1      39.970  29.360  29.622  1.00  0.00    -0.354 N 
ATOM     44  C   UNL A   1      43.152  27.808  32.090  1.00  0.00     0.074 A 
ATOM     45  C   UNL A   1      43.979  26.906  31.316  1.00  0.00     0.031 C 
ATOM     46  C   UNL A   1      38.699  29.512  27.790  1.00  0.00     0.029 A 
ATOM     47  C   UNL A   1      38.859  30.014  29.151  1.00  0.00     0.049 A 
ATOM     48  H   UNL A   1      40.418  29.589  30.468  1.00  0.00     0.167 HD
ATOM     49  C   UNL A   1      43.415  28.200  33.359  1.00  0.00     0.037 A 
ATOM     50  C   UNL A   1      38.011  30.854  29.777  1.00  0.00     0.037 A 
ATOM     51  C   UNL A   1      42.601  29.133  34.094  1.00  0.00     0.049 A 
ATOM     52  C   UNL A   1      38.254  31.208  31.219  1.00  0.00     0.074 A 
ATOM     53  C   UNL A   1      42.773  29.604  35.383  1.00  0.00     0.029 A 
ATOM     54  N   UNL A   1      41.457  29.742  33.596  1.00  0.00    -0.354 N 
ATOM     55  N   UNL A   1      39.223  30.819  32.012  1.00  0.00    -0.248 NA
ATOM     56  C   UNL A   1      37.277  32.098  31.858  1.00  0.00     0.031 C 
ATOM     57  C   UNL A   1      41.703  30.452  35.684  1.00  0.00     0.029 A 
ATOM     58  C   UNL A   1      40.897  30.561  34.561  1.00  0.00     0.049 A 
ATOM     59  H   UNL A   1      41.096  29.610  32.688  1.00  0.00     0.167 HD
ATOM     60  C   UNL A   1      38.985  31.432  33.236  1.00  0.00     0.074 A 
ATOM     61  C   UNL A   1      37.782  32.223  33.079  1.00  0.00     0.031 C 
ATOM     62  C   UNL A   1      39.703  31.349  34.384  1.00  0.00     0.037 A 
BRANCH  49  63
ATOM     63  C   UNL A   1      44.575  27.554  34.058  1.00  0.00     0.064 A 
ATOM     64  C   UNL A   1      45.861  28.114  34.064  1.00  0.00     0.173 A 
ATOM     65  C   UNL A   1      44.386  26.339  34.736  1.00  0.00     0.173 A 
ATOM     66  F   UNL A   1      46.099  29.264  33.418  1.00  0.00    -0.203 F 
ATOM     67  C   UNL A   1      46.921  27.463  34.693  1.00  0.00     0.198 A 
ATOM     68  C   UNL A   1      45.440  25.707  35.391  1.00  0.00     0.198 A 
ATOM     69  F   UNL A   1      43.176  25.760  34.764  1.00  0.00    -0.203 F 
ATOM     70  F   UNL A   1      48.154  27.985  34.635  1.00  0.00    -0.200 F 
ATOM     71  C   UNL A   1      46.709  26.264  35.359  1.00  0.00     0.200 A 
ATOM     72  F   UNL A   1      45.229  24.557  36.044  1.00  0.00    -0.200 F 
ATOM     73  F   UNL A   1      47.731  25.640  35.961  1.00  0.00    -0.200 F 
ENDBRANCH  49  63
BRANCH  50  74
ATOM     74  C   UNL A   1      36.803  31.333  29.055  1.00  0.00     0.064 A 
ATOM     75  C   UNL A   1      35.721  30.482  28.803  1.00  0.00     0.173 A 
ATOM     76  C   UNL A   1      36.698  32.668  28.632  1.00  0.00     0.173 A 
ATOM     77  F   UNL A   1      35.786  29.191  29.162  1.00  0.00    -0.203 F 
ATOM     78  C   UNL A   1      34.577  30.948  28.158  1.00  0.00     0.198 A 
ATOM     79  C   UNL A   1      35.542  33.141  28.016  1.00  0.00     0.198 A 
ATOM     80  F   UNL A   1      37.710  33.522  28.845  1.00  0.00    -0.203 F 
ATOM     81  F   UNL A   1      33.566  30.107  27.901  1.00  0.00    -0.200 F 
ATOM     82  C   UNL A   1      34.484  32.280  27.775  1.00  0.00     0.200 A 
ATOM     83  F   UNL A   1      35.453  34.430  27.664  1.00  0.00    -0.200 F 
ATOM     84  F   UNL A   1      33.375  32.730  27.173  1.00  0.00    -0.200 F 
ENDBRANCH  50  74
BRANCH  62  85
ATOM     85  C   UNL A   1      39.239  32.167  35.554  1.00  0.00     0.064 A 
ATOM     86  C   UNL A   1      38.397  31.635  36.541  1.00  0.00     0.173 A 
ATOM     87  C   UNL A   1      39.706  33.480  35.725  1.00  0.00     0.173 A 
ATOM     88  F   UNL A   1      37.912  30.391  36.416  1.00  0.00    -0.203 F 
ATOM     89  C   UNL A   1      38.032  32.392  37.652  1.00  0.00     0.198 A 
ATOM     90  C   UNL A   1      39.361  34.223  36.849  1.00  0.00     0.198 A 
ATOM     91  F   UNL A   1      40.518  34.032  34.811  1.00  0.00    -0.203 F 
ATOM     92  F   UNL A   1      37.201  31.876  38.569  1.00  0.00    -0.200 F 
ATOM     93  C   UNL A   1      38.522  33.681  37.810  1.00  0.00     0.200 A 
ATOM     94  F   UNL A   1      39.849  35.462  37.007  1.00  0.00    -0.200 F 
ATOM     95  F   UNL A   1      38.184  34.400  38.889  1.00  0.00    -0.200 F 
ENDBRANCH  62  85
ENDBRANCH  36  37
ENDBRANCH  29  31
ENDBRANCH  28  29
ENDBRANCH  27  28
ENDBRANCH  26  27
ENDBRANCH  25  26
ENDBRANCH  24  25
ENDBRANCH   1  24
TORSDOF 19
ENDMDL
MODEL 2
REMARK VINA RESULT:     -11.2      2.981      9.124
REMARK SMILES C=C(C(=O)OCCOCCOCCOC(=O)c1ccc(-c2c3nc(c(-c4c(F)c(F)c(F)c(F)c4F)c4ccc([nH]4)c(-c4c(F)c(F)c(F)c(F)c4F)c4nc(c(-c5c(F)c(F)c(F)c(F)c5F)c5ccc2[nH]5)C=C4)C=C3)cc1)[C@@H]1CC[C@]2(C)C[C@@H](O)CC(=C)[C@H]2C1
REMARK SMILES IDX 9 1 8 2 7 3 6 4 5 5 3 6 4 7 2 8 1 9 80 10 81 11 92 12 82 13
REMARK SMILES IDX 91 14 83 15 89 16 84 17 85 18 88 19 90 20 86 21 87 22 10 24
REMARK SMILES IDX 11 25 12 26 13 27 14 28 15 29 16 30 17 31 18 32 79 33 19 34
REMARK SMILES IDX 78 35 20 36 21 37 22 38 72 39 23 40 77 41 71 42 73 43 24 44
REMARK SMILES IDX 76 45 70 46 69 47 25 49 57 50 37 51 56 52 38 53 41 54 55 55
REMARK SMILES IDX 74 56 39 57 40 58 54 60 75 61 42 62 26 63 27 64 35 65 28 66
REMARK SMILES IDX 29 67 33 68 36 69 30 70 31 71 34 72 32 73 58 74 59 75 67 76
REMARK SMILES IDX 60 77 61 78 65 79 68 80 62 81 63 82 66 83 64 84 43 85 44 86
REMARK SMILES IDX 52 87 45 88 46 89 50 90 53 91 47 92 48 93 51 94 49 95
REMARK H PARENT 87 23 73 48 41 59
REMARK Flexibility Score: inf
ROOT
ATOM      1  C   UNL A   1      34.871  31.694  27.968  1.00  0.00     0.188 C 
ENDROOT
BRANCH   1   2
ATOM      2  O   UNL A   1      33.692  30.927  27.812  1.00  0.00    -0.376 OA
BRANCH   2   3
ATOM      3  C   UNL A   1      33.729  29.802  26.947  1.00  0.00     0.202 C 
BRANCH   3   4
ATOM      4  C   UNL A   1      32.609  28.768  27.084  1.00  0.00     0.261 C 
BRANCH   4   5
ATOM      5  O   UNL A   1      32.338  28.113  25.831  1.00  0.00    -0.460 OA
BRANCH   5   6
ATOM      6  C   UNL A   1      31.846  26.841  25.890  1.00  0.00     0.333 C 
ATOM      7  O   UNL A   1      31.453  26.277  26.884  1.00  0.00    -0.247 OA
BRANCH   6   8
ATOM      8  C   UNL A   1      31.727  26.261  24.502  1.00  0.00     0.033 C 
ATOM      9  C   UNL A   1      30.497  26.221  23.959  1.00  0.00     0.020 C 
BRANCH   8  10
ATOM     10  C   UNL A   1      33.046  25.880  23.816  1.00  0.00     0.026 C 
ATOM     11  C   UNL A   1      32.902  24.915  22.624  1.00  0.00     0.009 C 
ATOM     12  C   UNL A   1      34.165  25.397  24.778  1.00  0.00     0.017 C 
ATOM     13  C   UNL A   1      32.870  23.424  22.978  1.00  0.00     0.008 C 
ATOM     14  C   UNL A   1      34.037  23.910  25.169  1.00  0.00     0.021 C 
ATOM     15  C   UNL A   1      33.993  22.963  23.939  1.00  0.00    -0.024 C 
ATOM     16  C   UNL A   1      35.066  23.332  26.130  1.00  0.00    -0.071 C 
ATOM     17  C   UNL A   1      35.326  22.968  23.143  1.00  0.00     0.012 C 
ATOM     18  C   UNL A   1      33.665  21.507  24.426  1.00  0.00     0.039 C 
ATOM     19  C   UNL A   1      34.589  22.052  26.775  1.00  0.00     0.062 C 
ATOM     20  C   UNL A   1      36.341  23.724  26.272  1.00  0.00     0.008 C 
ATOM     21  C   UNL A   1      34.424  20.996  25.672  1.00  0.00     0.119 C 
BRANCH  21  22
ATOM     22  O   UNL A   1      35.694  20.468  25.284  1.00  0.00    -0.393 OA
ATOM     23  H   UNL A   1      36.395  20.907  25.791  1.00  0.00     0.210 HD
ENDBRANCH  21  22
ENDBRANCH   8  10
ENDBRANCH   6   8
ENDBRANCH   5   6
ENDBRANCH   4   5
ENDBRANCH   3   4
ENDBRANCH   2   3
ENDBRANCH   1   2
BRANCH   1  24
ATOM     24  C   UNL A   1      34.800  33.113  28.579  1.00  0.00     0.188 C 
BRANCH  24  25
ATOM     25  O   UNL A   1      34.237  34.191  27.866  1.00  0.00    -0.376 OA
BRANCH  25  26
ATOM     26  C   UNL A   1      34.220  35.485  28.444  1.00  0.00     0.202 C 
BRANCH  26  27
ATOM     27  C   UNL A   1      32.983  36.015  29.183  1.00  0.00     0.261 C 
BRANCH  27  28
ATOM     28  O   UNL A   1      32.542  35.212  30.286  1.00  0.00    -0.460 OA
BRANCH  28  29
ATOM     29  C   UNL A   1      32.671  35.786  31.507  1.00  0.00     0.338 C 
ATOM     30  O   UNL A   1      32.040  36.723  31.964  1.00  0.00    -0.246 OA
BRANCH  29  31
ATOM     31  C   UNL A   1      33.707  35.084  32.281  1.00  0.00     0.060 A 
ATOM     32  C   UNL A   1      35.007  35.588  32.306  1.00  0.00     0.016 A 
ATOM     33  C   UNL A   1      33.428  33.851  32.862  1.00  0.00     0.016 A 
ATOM     34  C   UNL A   1      36.040  34.858  32.888  1.00  0.00     0.010 A 
ATOM     35  C   UNL A   1      34.467  33.116  33.445  1.00  0.00     0.010 A 
ATOM     36  C   UNL A   1      35.789  33.596  33.425  1.00  0.00    -0.014 A 
BRANCH  36  37
ATOM     37  C   UNL A   1      36.916  32.718  33.824  1.00  0.00     0.031 A 
ATOM     38  C   UNL A   1      37.573  32.943  35.154  1.00  0.00     0.074 A 
ATOM     39  C   UNL A   1      37.340  31.711  33.040  1.00  0.00     0.049 A 
ATOM     40  N   UNL A   1      38.734  32.533  35.591  1.00  0.00    -0.248 NA
ATOM     41  C   UNL A   1      36.811  33.746  36.124  1.00  0.00     0.031 C 
ATOM     42  C   UNL A   1      36.706  31.273  31.800  1.00  0.00     0.029 A 
ATOM     43  N   UNL A   1      38.435  30.889  33.169  1.00  0.00    -0.354 N 
ATOM     44  C   UNL A   1      38.877  33.089  36.856  1.00  0.00     0.074 A 
ATOM     45  C   UNL A   1      37.670  33.843  37.127  1.00  0.00     0.031 C 
ATOM     46  C   UNL A   1      37.439  30.285  31.262  1.00  0.00     0.029 A 
ATOM     47  C   UNL A   1      38.641  30.096  32.069  1.00  0.00     0.049 A 
ATOM     48  H   UNL A   1      39.009  30.871  33.969  1.00  0.00     0.167 HD
ATOM     49  C   UNL A   1      39.933  32.993  37.698  1.00  0.00     0.037 A 
ATOM     50  C   UNL A   1      39.717  29.371  31.706  1.00  0.00     0.037 A 
ATOM     51  C   UNL A   1      41.105  32.202  37.426  1.00  0.00     0.049 A 
ATOM     52  C   UNL A   1      40.927  29.348  32.601  1.00  0.00     0.074 A 
ATOM     53  C   UNL A   1      42.233  32.028  38.208  1.00  0.00     0.029 A 
ATOM     54  N   UNL A   1      41.294  31.446  36.278  1.00  0.00    -0.354 N 
ATOM     55  N   UNL A   1      41.112  29.945  33.753  1.00  0.00    -0.248 NA
ATOM     56  C   UNL A   1      42.083  28.570  32.136  1.00  0.00     0.031 C 
ATOM     57  C   UNL A   1      43.128  31.214  37.507  1.00  0.00     0.029 A 
ATOM     58  C   UNL A   1      42.532  30.827  36.316  1.00  0.00     0.049 A 
ATOM     59  H   UNL A   1      40.644  31.361  35.543  1.00  0.00     0.167 HD
ATOM     60  C   UNL A   1      42.394  29.599  34.162  1.00  0.00     0.074 A 
ATOM     61  C   UNL A   1      42.940  28.736  33.135  1.00  0.00     0.031 C 
ATOM     62  C   UNL A   1      43.056  29.963  35.289  1.00  0.00     0.037 A 
BRANCH  49  63
ATOM     63  C   UNL A   1      39.905  33.830  38.943  1.00  0.00     0.064 A 
ATOM     64  C   UNL A   1      39.321  33.387  40.139  1.00  0.00     0.173 A 
ATOM     65  C   UNL A   1      40.478  35.112  38.930  1.00  0.00     0.173 A 
ATOM     66  F   UNL A   1      38.745  32.178  40.202  1.00  0.00    -0.203 F 
ATOM     67  C   UNL A   1      39.282  34.210  41.263  1.00  0.00     0.198 A 
ATOM     68  C   UNL A   1      40.466  35.919  40.064  1.00  0.00     0.198 A 
ATOM     69  F   UNL A   1      41.052  35.585  37.814  1.00  0.00    -0.203 F 
ATOM     70  F   UNL A   1      38.665  33.790  42.377  1.00  0.00    -0.200 F 
ATOM     71  C   UNL A   1      39.858  35.472  41.227  1.00  0.00     0.200 A 
ATOM     72  F   UNL A   1      41.034  37.132  40.029  1.00  0.00    -0.200 F 
ATOM     73  F   UNL A   1      39.816  36.262  42.309  1.00  0.00    -0.200 F 
ENDBRANCH  49  63
BRANCH  50  74
ATOM     74  C   UNL A   1      39.719  28.689  30.385  1.00  0.00     0.064 A 
ATOM     75  C   UNL A   1      40.232  29.316  29.244  1.00  0.00     0.173 A 
ATOM     76  C   UNL A   1      39.232  27.380  30.248  1.00  0.00     0.173 A 
ATOM     77  F   UNL A   1      40.682  30.578  29.318  1.00  0.00    -0.203 F 
ATOM     78  C   UNL A   1      40.264  28.657  28.016  1.00  0.00     0.198 A 
ATOM     79  C   UNL A   1      39.292  26.710  29.029  1.00  0.00     0.198 A 
ATOM     80  F   UNL A   1      38.724  26.737  31.311  1.00  0.00    -0.203 F 
ATOM     81  F   UNL A   1      40.733  29.288  26.931  1.00  0.00    -0.200 F 
ATOM     82  C   UNL A   1      39.804  27.351  27.912  1.00  0.00     0.200 A 
ATOM     83  F   UNL A   1      38.862  25.445  28.939  1.00  0.00    -0.200 F 
ATOM     84  F   UNL A   1      39.853  26.713  26.735  1.00  0.00    -0.200 F 
ENDBRANCH  50  74
BRANCH  62  85
ATOM     85  C   UNL A   1      44.429  29.394  35.501  1.00  0.00     0.064 A 
ATOM     86  C   UNL A   1      44.628  28.164  36.143  1.00  0.00     0.173 A 
ATOM     87  C   UNL A   1      45.554  30.059  34.988  1.00  0.00     0.173 A 
ATOM     88  F   UNL A   1      43.588  27.497  36.663  1.00  0.00    -0.203 F 
ATOM     89  C   UNL A   1      45.906  27.624  36.271  1.00  0.00     0.198 A 
ATOM     90  C   UNL A   1      46.825  29.503  35.094  1.00  0.00     0.198 A 
ATOM     91  F   UNL A   1      45.416  31.236  34.360  1.00  0.00    -0.203 F 
ATOM     92  F   UNL A   1      46.079  26.461  36.915  1.00  0.00    -0.200 F 
ATOM     93  C   UNL A   1      47.001  28.289  35.738  1.00  0.00     0.200 A 
ATOM     94  F   UNL A   1      47.879  30.140  34.564  1.00  0.00    -0.200 F 
ATOM     95  F   UNL A   1      48.227  27.758  35.847  1.00  0.00    -0.200 F 
ENDBRANCH  62  85
ENDBRANCH  36  37
ENDBRANCH  29  31
ENDBRANCH  28  29
ENDBRANCH  27  28
ENDBRANCH  26  27
ENDBRANCH  25  26
ENDBRANCH  24  25
ENDBRANCH   1  24
TORSDOF 19
ENDMDL
MODEL 3
REMARK VINA RESULT:     -11.0      5.190      7.376
REMARK SMILES C=C(C(=O)OCCOCCOCCOC(=O)c1ccc(-c2c3nc(c(-c4c(F)c(F)c(F)c(F)c4F)c4ccc([nH]4)c(-c4c(F)c(F)c(F)c(F)c4F)c4nc(c(-c5c(F)c(F)c(F)c(F)c5F)c5ccc2[nH]5)C=C4)C=C3)cc1)[C@@H]1CC[C@]2(C)C[C@@H](O)CC(=C)[C@H]2C1
REMARK SMILES IDX 9 1 8 2 7 3 6 4 5 5 3 6 4 7 2 8 1 9 80 10 81 11 92 12 82 13
REMARK SMILES IDX 91 14 83 15 89 16 84 17 85 18 88 19 90 20 86 21 87 22 10 24
REMARK SMILES IDX 11 25 12 26 13 27 14 28 15 29 16 30 17 31 18 32 79 33 19 34
REMARK SMILES IDX 78 35 20 36 21 37 22 38 72 39 23 40 77 41 71 42 73 43 24 44
REMARK SMILES IDX 76 45 70 46 69 47 25 49 57 50 37 51 56 52 38 53 41 54 55 55
REMARK SMILES IDX 74 56 39 57 40 58 54 60 75 61 42 62 26 63 27 64 35 65 28 66
REMARK SMILES IDX 29 67 33 68 36 69 30 70 31 71 34 72 32 73 58 74 59 75 67 76
REMARK SMILES IDX 60 77 61 78 65 79 68 80 62 81 63 82 66 83 64 84 43 85 44 86
REMARK SMILES IDX 52 87 45 88 46 89 50 90 53 91 47 92 48 93 51 94 49 95
REMARK H PARENT 87 23 73 48 41 59
REMARK Flexibility Score: inf
ROOT
ATOM      1  C   UNL A   1      40.194  22.004  26.130  1.00  0.00     0.188 C 
ENDROOT
BRANCH   1   2
ATOM      2  O   UNL A   1      38.836  22.283  26.409  1.00  0.00    -0.376 OA
BRANCH   2   3
ATOM      3  C   UNL A   1      37.844  21.719  25.564  1.00  0.00     0.202 C 
BRANCH   3   4
ATOM      4  C   UNL A   1      37.077  22.669  24.642  1.00  0.00     0.261 C 
BRANCH   4   5
ATOM      5  O   UNL A   1      35.704  22.811  25.053  1.00  0.00    -0.460 OA
BRANCH   5   6
ATOM      6  C   UNL A   1      34.851  23.407  24.170  1.00  0.00     0.333 C 
ATOM      7  O   UNL A   1      35.148  23.852  23.086  1.00  0.00    -0.247 OA
BRANCH   6   8
ATOM      8  C   UNL A   1      33.432  23.320  24.675  1.00  0.00     0.033 C 
ATOM      9  C   UNL A   1      32.627  22.420  24.081  1.00  0.00     0.020 C 
BRANCH   8  10
ATOM     10  C   UNL A   1      33.093  24.195  25.888  1.00  0.00     0.026 C 
ATOM     11  C   UNL A   1      31.589  24.334  26.189  1.00  0.00     0.009 C 
ATOM     12  C   UNL A   1      33.783  25.585  25.902  1.00  0.00     0.017 C 
ATOM     13  C   UNL A   1      30.858  25.441  25.421  1.00  0.00     0.008 C 
ATOM     14  C   UNL A   1      33.053  26.640  25.046  1.00  0.00     0.021 C 
ATOM     15  C   UNL A   1      31.563  26.819  25.446  1.00  0.00    -0.024 C 
ATOM     16  C   UNL A   1      33.654  28.037  24.964  1.00  0.00    -0.071 C 
ATOM     17  C   UNL A   1      31.403  27.405  26.875  1.00  0.00     0.012 C 
ATOM     18  C   UNL A   1      30.861  27.756  24.400  1.00  0.00     0.039 C 
ATOM     19  C   UNL A   1      33.134  28.814  23.778  1.00  0.00     0.062 C 
ATOM     20  C   UNL A   1      34.385  28.652  25.905  1.00  0.00     0.008 C 
ATOM     21  C   UNL A   1      31.625  29.031  23.976  1.00  0.00     0.119 C 
BRANCH  21  22
ATOM     22  O   UNL A   1      31.386  30.078  24.919  1.00  0.00    -0.393 OA
ATOM     23  H   UNL A   1      31.542  30.937  24.495  1.00  0.00     0.210 HD
ENDBRANCH  21  22
ENDBRANCH   8  10
ENDBRANCH   6   8
ENDBRANCH   5   6
ENDBRANCH   4   5
ENDBRANCH   3   4
ENDBRANCH   2   3
ENDBRANCH   1   2
BRANCH   1  24
ATOM     24  C   UNL A   1      40.810  20.648  26.546  1.00  0.00     0.188 C 
BRANCH  24  25
ATOM     25  O   UNL A   1      41.793  20.015  25.756  1.00  0.00    -0.376 OA
BRANCH  25  26
ATOM     26  C   UNL A   1      42.281  18.738  26.129  1.00  0.00     0.202 C 
BRANCH  26  27
ATOM     27  C   UNL A   1      43.696  18.279  25.750  1.00  0.00     0.261 C 
BRANCH  27  28
ATOM     28  O   UNL A   1      44.093  18.579  24.406  1.00  0.00    -0.460 OA
BRANCH  28  29
ATOM     29  C   UNL A   1      45.222  19.319  24.287  1.00  0.00     0.338 C 
ATOM     30  O   UNL A   1      46.313  18.959  23.882  1.00  0.00    -0.246 OA
BRANCH  29  31
ATOM     31  C   UNL A   1      44.957  20.705  24.703  1.00  0.00     0.060 A 
ATOM     32  C   UNL A   1      44.529  21.637  23.759  1.00  0.00     0.016 A 
ATOM     33  C   UNL A   1      45.268  21.117  25.995  1.00  0.00     0.016 A 
ATOM     34  C   UNL A   1      44.432  22.986  24.086  1.00  0.00     0.010 A 
ATOM     35  C   UNL A   1      45.173  22.474  26.324  1.00  0.00     0.010 A 
ATOM     36  C   UNL A   1      44.794  23.425  25.359  1.00  0.00    -0.014 A 
BRANCH  36  37
ATOM     37  C   UNL A   1      44.925  24.876  25.639  1.00  0.00     0.031 A 
ATOM     38  C   UNL A   1      46.262  25.532  25.447  1.00  0.00     0.074 A 
ATOM     39  C   UNL A   1      43.875  25.619  26.030  1.00  0.00     0.049 A 
ATOM     40  N   UNL A   1      46.703  26.674  25.902  1.00  0.00    -0.248 NA
ATOM     41  C   UNL A   1      47.233  24.790  24.627  1.00  0.00     0.031 C 
ATOM     42  C   UNL A   1      42.491  25.160  26.110  1.00  0.00     0.029 A 
ATOM     43  N   UNL A   1      43.825  26.923  26.461  1.00  0.00    -0.354 N 
ATOM     44  C   UNL A   1      48.027  26.755  25.489  1.00  0.00     0.074 A 
ATOM     45  C   UNL A   1      48.308  25.559  24.723  1.00  0.00     0.031 C 
ATOM     46  C   UNL A   1      41.731  26.155  26.595  1.00  0.00     0.029 A 
ATOM     47  C   UNL A   1      42.593  27.278  26.950  1.00  0.00     0.049 A 
ATOM     48  H   UNL A   1      44.593  27.539  26.421  1.00  0.00     0.167 HD
ATOM     49  C   UNL A   1      48.926  27.733  25.751  1.00  0.00     0.037 A 
ATOM     50  C   UNL A   1      42.221  28.346  27.683  1.00  0.00     0.037 A 
ATOM     51  C   UNL A   1      48.613  28.936  26.479  1.00  0.00     0.049 A 
ATOM     52  C   UNL A   1      43.248  29.380  28.055  1.00  0.00     0.074 A 
ATOM     53  C   UNL A   1      49.444  29.995  26.800  1.00  0.00     0.029 A 
ATOM     54  N   UNL A   1      47.361  29.238  26.997  1.00  0.00    -0.354 N 
ATOM     55  N   UNL A   1      44.524  29.422  27.753  1.00  0.00    -0.248 NA
ATOM     56  C   UNL A   1      42.792  30.502  28.886  1.00  0.00     0.031 C 
ATOM     57  C   UNL A   1      48.709  30.909  27.561  1.00  0.00     0.029 A 
ATOM     58  C   UNL A   1      47.403  30.453  27.659  1.00  0.00     0.049 A 
ATOM     59  H   UNL A   1      46.560  28.672  26.906  1.00  0.00     0.167 HD
ATOM     60  C   UNL A   1      45.017  30.582  28.337  1.00  0.00     0.074 A 
ATOM     61  C   UNL A   1      43.902  31.217  29.008  1.00  0.00     0.031 C 
ATOM     62  C   UNL A   1      46.281  31.076  28.315  1.00  0.00     0.037 A 
BRANCH  49  63
ATOM     63  C   UNL A   1      50.347  27.500  25.327  1.00  0.00     0.064 A 
ATOM     64  C   UNL A   1      50.797  27.748  24.022  1.00  0.00     0.173 A 
ATOM     65  C   UNL A   1      51.278  27.012  26.259  1.00  0.00     0.173 A 
ATOM     66  F   UNL A   1      49.945  28.199  23.089  1.00  0.00    -0.203 F 
ATOM     67  C   UNL A   1      52.115  27.482  23.658  1.00  0.00     0.198 A 
ATOM     68  C   UNL A   1      52.602  26.778  25.900  1.00  0.00     0.198 A 
ATOM     69  F   UNL A   1      50.902  26.760  27.522  1.00  0.00    -0.203 F 
ATOM     70  F   UNL A   1      52.508  27.669  22.390  1.00  0.00    -0.200 F 
ATOM     71  C   UNL A   1      53.017  27.003  24.597  1.00  0.00     0.200 A 
ATOM     72  F   UNL A   1      53.473  26.328  26.812  1.00  0.00    -0.200 F 
ATOM     73  F   UNL A   1      54.284  26.746  24.243  1.00  0.00    -0.200 F 
ENDBRANCH  49  63
BRANCH  50  74
ATOM     74  C   UNL A   1      40.825  28.425  28.188  1.00  0.00     0.064 A 
ATOM     75  C   UNL A   1      40.492  27.994  29.477  1.00  0.00     0.173 A 
ATOM     76  C   UNL A   1      39.801  28.967  27.395  1.00  0.00     0.173 A 
ATOM     77  F   UNL A   1      41.430  27.442  30.262  1.00  0.00    -0.203 F 
ATOM     78  C   UNL A   1      39.188  28.105  29.957  1.00  0.00     0.198 A 
ATOM     79  C   UNL A   1      38.505  29.107  27.886  1.00  0.00     0.198 A 
ATOM     80  F   UNL A   1      40.067  29.390  26.150  1.00  0.00    -0.203 F 
ATOM     81  F   UNL A   1      38.887  27.658  31.184  1.00  0.00    -0.200 F 
ATOM     82  C   UNL A   1      38.199  28.672  29.165  1.00  0.00     0.200 A 
ATOM     83  F   UNL A   1      37.559  29.669  27.122  1.00  0.00    -0.200 F 
ATOM     84  F   UNL A   1      36.950  28.795  29.635  1.00  0.00    -0.200 F 
ENDBRANCH  50  74
BRANCH  62  85
ATOM     85  C   UNL A   1      46.524  32.391  28.996  1.00  0.00     0.064 A 
ATOM     86  C   UNL A   1      46.959  32.466  30.326  1.00  0.00     0.173 A 
ATOM     87  C   UNL A   1      46.390  33.591  28.279  1.00  0.00     0.173 A 
ATOM     88  F   UNL A   1      47.090  31.349  31.058  1.00  0.00    -0.203 F 
ATOM     89  C   UNL A   1      47.242  33.695  30.917  1.00  0.00     0.198 A 
ATOM     90  C   UNL A   1      46.699  34.815  28.865  1.00  0.00     0.198 A 
ATOM     91  F   UNL A   1      45.982  33.573  27.001  1.00  0.00    -0.203 F 
ATOM     92  F   UNL A   1      47.628  33.746  32.200  1.00  0.00    -0.200 F 
ATOM     93  C   UNL A   1      47.122  34.867  30.183  1.00  0.00     0.200 A 
ATOM     94  F   UNL A   1      46.597  35.943  28.148  1.00  0.00    -0.200 F 
ATOM     95  F   UNL A   1      47.412  36.046  30.749  1.00  0.00    -0.200 F 
ENDBRANCH  62  85
ENDBRANCH  36  37
ENDBRANCH  29  31
ENDBRANCH  28  29
ENDBRANCH  27  28
ENDBRANCH  26  27
ENDBRANCH  25  26
ENDBRANCH  24  25
ENDBRANCH   1  24
TORSDOF 19
ENDMDL
