MODEL 1
REMARK VINA RESULT:     -11.1      0.000      0.000
REMARK SMILES O=C(Cc1ccccc1Nc1c(Cl)cccc1C(F)(F)F)OCCOCCOCCOC(=O)c1ccc(-c2c3nc(c(-c4c(F)c(F)c(F)c(F)c4F)c4ccc([nH]4)c(-c4c(F)c(F)c(F)c(F)c4F)c4nc(c(-c5c(F)c(F)c(F)c(F)c5F)c5ccc2[nH]5)C=C4)C=C3)cc1
REMARK SMILES IDX 26 1 25 2 24 3 23 4 22 5 2 6 1 7 3 8 4 9 5 10 9 11 6 12 8 13
REMARK SMILES IDX 7 14 10 15 11 17 12 18 17 19 13 20 14 21 16 22 15 23 18 24
REMARK SMILES IDX 19 25 20 26 21 27 27 28 28 29 29 30 30 31 31 32 32 33 33 34
REMARK SMILES IDX 34 35 35 36 96 37 36 38 95 39 37 40 38 41 39 42 89 43 40 44
REMARK SMILES IDX 94 45 88 46 90 47 41 48 93 49 87 50 86 51 42 53 74 54 54 55
REMARK SMILES IDX 73 56 55 57 58 58 72 59 91 60 56 61 57 62 71 64 92 65 59 66
REMARK SMILES IDX 43 67 44 68 52 69 45 70 46 71 50 72 53 73 47 74 48 75 51 76
REMARK SMILES IDX 49 77 75 78 76 79 84 80 77 81 78 82 82 83 85 84 79 85 80 86
REMARK SMILES IDX 83 87 81 88 60 89 61 90 69 91 62 92 63 93 67 94 70 95 64 96
REMARK SMILES IDX 65 97 68 98 66 99
REMARK H PARENT 10 16 90 52 58 63
REMARK Flexibility Score: inf
ROOT
ATOM      1  C   UNL A   1      34.861  21.299  24.936  1.00  0.00     0.188 C 
ENDROOT
BRANCH   1   2
ATOM      2  O   UNL A   1      34.491  22.244  23.951  1.00  0.00    -0.376 OA
BRANCH   2   3
ATOM      3  C   UNL A   1      33.702  23.342  24.371  1.00  0.00     0.202 C 
BRANCH   3   4
ATOM      4  C   UNL A   1      34.441  24.667  24.217  1.00  0.00     0.261 C 
BRANCH   4   5
ATOM      5  O   UNL A   1      33.624  25.832  23.953  1.00  0.00    -0.463 OA
BRANCH   5   6
ATOM      6  C   UNL A   1      33.628  26.631  22.867  1.00  0.00     0.310 C 
ATOM      7  O   UNL A   1      33.765  26.132  21.750  1.00  0.00    -0.252 OA
BRANCH   6   8
ATOM      8  C   UNL A   1      33.592  28.129  23.027  1.00  0.00     0.160 C 
BRANCH   8   9
ATOM      9  C   UNL A   1      33.198  28.696  24.373  1.00  0.00    -0.013 A 
ATOM     10  C   UNL A   1      34.078  28.564  25.463  1.00  0.00     0.006 A 
ATOM     11  C   UNL A   1      31.911  29.257  24.582  1.00  0.00     0.042 A 
ATOM     12  C   UNL A   1      33.724  29.023  26.728  1.00  0.00     0.000 A 
ATOM     13  C   UNL A   1      31.572  29.690  25.871  1.00  0.00     0.026 A 
ATOM     14  C   UNL A   1      32.470  29.580  26.933  1.00  0.00     0.002 A 
BRANCH  11  15
ATOM     15  N   UNL A   1      31.010  29.408  23.500  1.00  0.00    -0.354 N 
ATOM     16  H   UNL A   1      31.417  29.741  22.668  1.00  0.00     0.167 HD
BRANCH  15  17
ATOM     17  C   UNL A   1      29.616  29.158  23.419  1.00  0.00     0.070 A 
ATOM     18  C   UNL A   1      29.180  27.810  23.431  1.00  0.00     0.065 A 
ATOM     19  C   UNL A   1      28.638  30.170  23.377  1.00  0.00     0.080 A 
ATOM     20  Cl  UNL A   1      30.333  26.525  23.583  1.00  0.00    -0.082 Cl
ATOM     21  C   UNL A   1      27.830  27.465  23.365  1.00  0.00     0.023 A 
ATOM     22  C   UNL A   1      27.271  29.802  23.348  1.00  0.00     0.015 A 
ATOM     23  C   UNL A   1      26.871  28.467  23.327  1.00  0.00     0.002 A 
BRANCH  19  24
ATOM     24  C   UNL A   1      28.957  31.647  23.356  1.00  0.00     0.418 C 
ATOM     25  F   UNL A   1      29.663  32.003  22.239  1.00  0.00    -0.166 F 
ATOM     26  F   UNL A   1      27.838  32.423  23.324  1.00  0.00    -0.166 F 
ATOM     27  F   UNL A   1      29.710  32.092  24.398  1.00  0.00    -0.166 F 
ENDBRANCH  19  24
ENDBRANCH  15  17
ENDBRANCH  11  15
ENDBRANCH   8   9
ENDBRANCH   6   8
ENDBRANCH   5   6
ENDBRANCH   4   5
ENDBRANCH   3   4
ENDBRANCH   2   3
ENDBRANCH   1   2
BRANCH   1  28
ATOM     28  C   UNL A   1      36.383  21.091  25.025  1.00  0.00     0.188 C 
BRANCH  28  29
ATOM     29  O   UNL A   1      37.200  22.086  25.630  1.00  0.00    -0.376 OA
BRANCH  29  30
ATOM     30  C   UNL A   1      38.596  21.859  25.778  1.00  0.00     0.202 C 
BRANCH  30  31
ATOM     31  C   UNL A   1      39.114  20.431  25.570  1.00  0.00     0.261 C 
BRANCH  31  32
ATOM     32  O   UNL A   1      39.950  19.942  26.639  1.00  0.00    -0.460 OA
BRANCH  32  33
ATOM     33  C   UNL A   1      41.238  19.695  26.295  1.00  0.00     0.338 C 
ATOM     34  O   UNL A   1      41.675  18.717  25.713  1.00  0.00    -0.246 OA
BRANCH  33  35
ATOM     35  C   UNL A   1      42.100  20.854  26.605  1.00  0.00     0.060 A 
ATOM     36  C   UNL A   1      42.218  21.243  27.946  1.00  0.00     0.016 A 
ATOM     37  C   UNL A   1      42.663  21.636  25.595  1.00  0.00     0.016 A 
ATOM     38  C   UNL A   1      42.853  22.441  28.278  1.00  0.00     0.010 A 
ATOM     39  C   UNL A   1      43.289  22.847  25.929  1.00  0.00     0.010 A 
ATOM     40  C   UNL A   1      43.352  23.276  27.269  1.00  0.00    -0.014 A 
BRANCH  40  41
ATOM     41  C   UNL A   1      43.783  24.659  27.606  1.00  0.00     0.031 A 
ATOM     42  C   UNL A   1      42.741  25.709  27.886  1.00  0.00     0.074 A 
ATOM     43  C   UNL A   1      45.082  24.984  27.729  1.00  0.00     0.049 A 
ATOM     44  N   UNL A   1      42.896  26.976  28.182  1.00  0.00    -0.248 NA
ATOM     45  C   UNL A   1      41.339  25.268  27.848  1.00  0.00     0.031 C 
ATOM     46  C   UNL A   1      46.201  24.058  27.581  1.00  0.00     0.029 A 
ATOM     47  N   UNL A   1      45.675  26.192  28.012  1.00  0.00    -0.354 N 
ATOM     48  C   UNL A   1      41.619  27.476  28.389  1.00  0.00     0.074 A 
ATOM     49  C   UNL A   1      40.695  26.389  28.139  1.00  0.00     0.031 C 
ATOM     50  C   UNL A   1      47.346  24.741  27.753  1.00  0.00     0.029 A 
ATOM     51  C   UNL A   1      47.045  26.152  27.968  1.00  0.00     0.049 A 
ATOM     52  H   UNL A   1      45.165  27.006  28.226  1.00  0.00     0.167 HD
ATOM     53  C   UNL A   1      41.246  28.719  28.775  1.00  0.00     0.037 A 
ATOM     54  C   UNL A   1      47.961  27.136  28.055  1.00  0.00     0.037 A 
ATOM     55  C   UNL A   1      42.151  29.814  29.018  1.00  0.00     0.049 A 
ATOM     56  C   UNL A   1      47.518  28.546  28.338  1.00  0.00     0.074 A 
ATOM     57  C   UNL A   1      41.852  31.106  29.420  1.00  0.00     0.029 A 
ATOM     58  N   UNL A   1      43.527  29.750  28.877  1.00  0.00    -0.354 N 
ATOM     59  N   UNL A   1      46.309  29.006  28.537  1.00  0.00    -0.248 NA
ATOM     60  C   UNL A   1      48.571  29.569  28.426  1.00  0.00     0.031 C 
ATOM     61  C   UNL A   1      43.045  31.836  29.476  1.00  0.00     0.029 A 
ATOM     62  C   UNL A   1      44.091  30.987  29.156  1.00  0.00     0.049 A 
ATOM     63  H   UNL A   1      44.032  28.945  28.616  1.00  0.00     0.167 HD
ATOM     64  C   UNL A   1      46.457  30.358  28.814  1.00  0.00     0.074 A 
ATOM     65  C   UNL A   1      47.874  30.645  28.759  1.00  0.00     0.031 C 
ATOM     66  C   UNL A   1      45.500  31.274  29.102  1.00  0.00     0.037 A 
BRANCH  53  67
ATOM     67  C   UNL A   1      39.781  28.973  28.957  1.00  0.00     0.064 A 
ATOM     68  C   UNL A   1      38.969  29.367  27.881  1.00  0.00     0.173 A 
ATOM     69  C   UNL A   1      39.172  28.768  30.203  1.00  0.00     0.173 A 
ATOM     70  F   UNL A   1      39.509  29.587  26.674  1.00  0.00    -0.203 F 
ATOM     71  C   UNL A   1      37.601  29.558  28.052  1.00  0.00     0.198 A 
ATOM     72  C   UNL A   1      37.800  28.939  30.364  1.00  0.00     0.198 A 
ATOM     73  F   UNL A   1      39.906  28.388  31.260  1.00  0.00    -0.203 F 
ATOM     74  F   UNL A   1      36.849  29.965  27.020  1.00  0.00    -0.200 F 
ATOM     75  C   UNL A   1      37.017  29.337  29.291  1.00  0.00     0.200 A 
ATOM     76  F   UNL A   1      37.234  28.714  31.558  1.00  0.00    -0.200 F 
ATOM     77  F   UNL A   1      35.697  29.511  29.451  1.00  0.00    -0.200 F 
ENDBRANCH  53  67
BRANCH  54  78
ATOM     78  C   UNL A   1      49.397  26.836  27.821  1.00  0.00     0.064 A 
ATOM     79  C   UNL A   1      49.935  26.777  26.529  1.00  0.00     0.173 A 
ATOM     80  C   UNL A   1      50.252  26.552  28.898  1.00  0.00     0.173 A 
ATOM     81  F   UNL A   1      49.150  27.008  25.467  1.00  0.00    -0.203 F 
ATOM     82  C   UNL A   1      51.267  26.421  26.322  1.00  0.00     0.198 A 
ATOM     83  C   UNL A   1      51.589  26.223  28.690  1.00  0.00     0.198 A 
ATOM     84  F   UNL A   1      49.785  26.588  30.156  1.00  0.00    -0.203 F 
ATOM     85  F   UNL A   1      51.742  26.315  25.073  1.00  0.00    -0.200 F 
ATOM     86  C   UNL A   1      52.093  26.148  27.402  1.00  0.00     0.200 A 
ATOM     87  F   UNL A   1      52.381  25.965  29.740  1.00  0.00    -0.200 F 
ATOM     88  F   UNL A   1      53.370  25.794  27.201  1.00  0.00    -0.200 F 
ENDBRANCH  54  78
BRANCH  66  89
ATOM     89  C   UNL A   1      45.957  32.668  29.422  1.00  0.00     0.064 A 
ATOM     90  C   UNL A   1      46.231  33.072  30.737  1.00  0.00     0.173 A 
ATOM     91  C   UNL A   1      46.130  33.611  28.397  1.00  0.00     0.173 A 
ATOM     92  F   UNL A   1      46.065  32.213  31.755  1.00  0.00    -0.203 F 
ATOM     93  C   UNL A   1      46.630  34.376  31.018  1.00  0.00     0.198 A 
ATOM     94  C   UNL A   1      46.555  34.906  28.678  1.00  0.00     0.198 A 
ATOM     95  F   UNL A   1      45.885  33.276  27.122  1.00  0.00    -0.203 F 
ATOM     96  F   UNL A   1      46.831  34.755  32.287  1.00  0.00    -0.200 F 
ATOM     97  C   UNL A   1      46.796  35.290  29.988  1.00  0.00     0.200 A 
ATOM     98  F   UNL A   1      46.725  35.786  27.681  1.00  0.00    -0.200 F 
ATOM     99  F   UNL A   1      47.176  36.547  30.260  1.00  0.00    -0.200 F 
ENDBRANCH  66  89
ENDBRANCH  40  41
ENDBRANCH  33  35
ENDBRANCH  32  33
ENDBRANCH  31  32
ENDBRANCH  30  31
ENDBRANCH  29  30
ENDBRANCH  28  29
ENDBRANCH   1  28
TORSDOF 21
ENDMDL
MODEL 2
REMARK VINA RESULT:     -11.1      1.213      2.100
REMARK SMILES O=C(Cc1ccccc1Nc1c(Cl)cccc1C(F)(F)F)OCCOCCOCCOC(=O)c1ccc(-c2c3nc(c(-c4c(F)c(F)c(F)c(F)c4F)c4ccc([nH]4)c(-c4c(F)c(F)c(F)c(F)c4F)c4nc(c(-c5c(F)c(F)c(F)c(F)c5F)c5ccc2[nH]5)C=C4)C=C3)cc1
REMARK SMILES IDX 26 1 25 2 24 3 23 4 22 5 2 6 1 7 3 8 4 9 5 10 9 11 6 12 8 13
REMARK SMILES IDX 7 14 10 15 11 17 12 18 17 19 13 20 14 21 16 22 15 23 18 24
REMARK SMILES IDX 19 25 20 26 21 27 27 28 28 29 29 30 30 31 31 32 32 33 33 34
REMARK SMILES IDX 34 35 35 36 96 37 36 38 95 39 37 40 38 41 39 42 89 43 40 44
REMARK SMILES IDX 94 45 88 46 90 47 41 48 93 49 87 50 86 51 42 53 74 54 54 55
REMARK SMILES IDX 73 56 55 57 58 58 72 59 91 60 56 61 57 62 71 64 92 65 59 66
REMARK SMILES IDX 43 67 44 68 52 69 45 70 46 71 50 72 53 73 47 74 48 75 51 76
REMARK SMILES IDX 49 77 75 78 76 79 84 80 77 81 78 82 82 83 85 84 79 85 80 86
REMARK SMILES IDX 83 87 81 88 60 89 61 90 69 91 62 92 63 93 67 94 70 95 64 96
REMARK SMILES IDX 65 97 68 98 66 99
REMARK H PARENT 10 16 90 52 58 63
REMARK Flexibility Score: inf
ROOT
ATOM      1  C   UNL A   1      34.813  21.362  25.069  1.00  0.00     0.188 C 
ENDROOT
BRANCH   1   2
ATOM      2  O   UNL A   1      34.431  22.227  24.017  1.00  0.00    -0.376 OA
BRANCH   2   3
ATOM      3  C   UNL A   1      33.691  23.382  24.364  1.00  0.00     0.202 C 
BRANCH   3   4
ATOM      4  C   UNL A   1      34.465  24.663  24.070  1.00  0.00     0.261 C 
BRANCH   4   5
ATOM      5  O   UNL A   1      33.677  25.868  23.913  1.00  0.00    -0.463 OA
BRANCH   5   6
ATOM      6  C   UNL A   1      33.734  26.784  22.926  1.00  0.00     0.310 C 
ATOM      7  O   UNL A   1      33.874  26.411  21.761  1.00  0.00    -0.252 OA
BRANCH   6   8
ATOM      8  C   UNL A   1      33.754  28.255  23.256  1.00  0.00     0.160 C 
BRANCH   8   9
ATOM      9  C   UNL A   1      33.317  28.684  24.639  1.00  0.00    -0.013 A 
ATOM     10  C   UNL A   1      34.126  28.371  25.748  1.00  0.00     0.006 A 
ATOM     11  C   UNL A   1      32.053  29.295  24.850  1.00  0.00     0.042 A 
ATOM     12  C   UNL A   1      33.728  28.701  27.040  1.00  0.00     0.000 A 
ATOM     13  C   UNL A   1      31.668  29.594  26.164  1.00  0.00     0.026 A 
ATOM     14  C   UNL A   1      32.498  29.306  27.248  1.00  0.00     0.002 A 
BRANCH  11  15
ATOM     15  N   UNL A   1      31.223  29.626  23.752  1.00  0.00    -0.354 N 
ATOM     16  H   UNL A   1      31.690  30.051  22.997  1.00  0.00     0.167 HD
BRANCH  15  17
ATOM     17  C   UNL A   1      29.830  29.444  23.561  1.00  0.00     0.070 A 
ATOM     18  C   UNL A   1      29.012  30.599  23.494  1.00  0.00     0.065 A 
ATOM     19  C   UNL A   1      29.219  28.188  23.386  1.00  0.00     0.080 A 
ATOM     20  Cl  UNL A   1      29.722  32.175  23.601  1.00  0.00    -0.082 Cl
ATOM     21  C   UNL A   1      27.632  30.521  23.298  1.00  0.00     0.023 A 
ATOM     22  C   UNL A   1      27.823  28.130  23.153  1.00  0.00     0.015 A 
ATOM     23  C   UNL A   1      27.036  29.281  23.123  1.00  0.00     0.002 A 
BRANCH  19  24
ATOM     24  C   UNL A   1      29.966  26.876  23.438  1.00  0.00     0.418 C 
ATOM     25  F   UNL A   1      29.117  25.801  23.438  1.00  0.00    -0.166 F 
ATOM     26  F   UNL A   1      30.766  26.687  22.352  1.00  0.00    -0.166 F 
ATOM     27  F   UNL A   1      30.750  26.698  24.536  1.00  0.00    -0.166 F 
ENDBRANCH  19  24
ENDBRANCH  15  17
ENDBRANCH  11  15
ENDBRANCH   8   9
ENDBRANCH   6   8
ENDBRANCH   5   6
ENDBRANCH   4   5
ENDBRANCH   3   4
ENDBRANCH   2   3
ENDBRANCH   1   2
BRANCH   1  28
ATOM     28  C   UNL A   1      36.332  21.126  25.129  1.00  0.00     0.188 C 
BRANCH  28  29
ATOM     29  O   UNL A   1      37.177  22.099  25.731  1.00  0.00    -0.376 OA
BRANCH  29  30
ATOM     30  C   UNL A   1      38.579  21.870  25.801  1.00  0.00     0.202 C 
BRANCH  30  31
ATOM     31  C   UNL A   1      39.088  20.455  25.504  1.00  0.00     0.261 C 
BRANCH  31  32
ATOM     32  O   UNL A   1      39.909  19.889  26.547  1.00  0.00    -0.460 OA
BRANCH  32  33
ATOM     33  C   UNL A   1      41.200  19.659  26.203  1.00  0.00     0.338 C 
ATOM     34  O   UNL A   1      41.645  18.702  25.597  1.00  0.00    -0.246 OA
BRANCH  33  35
ATOM     35  C   UNL A   1      42.053  20.815  26.550  1.00  0.00     0.060 A 
ATOM     36  C   UNL A   1      42.128  21.192  27.897  1.00  0.00     0.016 A 
ATOM     37  C   UNL A   1      42.648  21.605  25.565  1.00  0.00     0.016 A 
ATOM     38  C   UNL A   1      42.754  22.387  28.259  1.00  0.00     0.010 A 
ATOM     39  C   UNL A   1      43.264  22.812  25.929  1.00  0.00     0.010 A 
ATOM     40  C   UNL A   1      43.285  23.230  27.274  1.00  0.00    -0.014 A 
BRANCH  40  41
ATOM     41  C   UNL A   1      43.707  24.609  27.636  1.00  0.00     0.031 A 
ATOM     42  C   UNL A   1      42.657  25.651  27.920  1.00  0.00     0.074 A 
ATOM     43  C   UNL A   1      45.003  24.937  27.779  1.00  0.00     0.049 A 
ATOM     44  N   UNL A   1      42.804  26.915  28.236  1.00  0.00    -0.248 NA
ATOM     45  C   UNL A   1      41.258  25.205  27.859  1.00  0.00     0.031 C 
ATOM     46  C   UNL A   1      46.127  24.019  27.630  1.00  0.00     0.029 A 
ATOM     47  N   UNL A   1      45.588  26.143  28.087  1.00  0.00    -0.354 N 
ATOM     48  C   UNL A   1      41.523  27.406  28.436  1.00  0.00     0.074 A 
ATOM     49  C   UNL A   1      40.606  26.320  28.159  1.00  0.00     0.031 C 
ATOM     50  C   UNL A   1      47.267  24.703  27.825  1.00  0.00     0.029 A 
ATOM     51  C   UNL A   1      46.959  26.110  28.057  1.00  0.00     0.049 A 
ATOM     52  H   UNL A   1      45.072  26.953  28.307  1.00  0.00     0.167 HD
ATOM     53  C   UNL A   1      41.141  28.642  28.836  1.00  0.00     0.037 A 
ATOM     54  C   UNL A   1      47.870  27.096  28.169  1.00  0.00     0.037 A 
ATOM     55  C   UNL A   1      42.038  29.736  29.105  1.00  0.00     0.049 A 
ATOM     56  C   UNL A   1      47.417  28.500  28.468  1.00  0.00     0.074 A 
ATOM     57  C   UNL A   1      41.730  31.022  29.522  1.00  0.00     0.029 A 
ATOM     58  N   UNL A   1      43.416  29.680  28.979  1.00  0.00    -0.354 N 
ATOM     59  N   UNL A   1      46.205  28.952  28.660  1.00  0.00    -0.248 NA
ATOM     60  C   UNL A   1      48.465  29.525  28.584  1.00  0.00     0.031 C 
ATOM     61  C   UNL A   1      42.918  31.755  29.603  1.00  0.00     0.029 A 
ATOM     62  C   UNL A   1      43.971  30.915  29.283  1.00  0.00     0.049 A 
ATOM     63  H   UNL A   1      43.927  28.881  28.712  1.00  0.00     0.167 HD
ATOM     64  C   UNL A   1      46.343  30.301  28.959  1.00  0.00     0.074 A 
ATOM     65  C   UNL A   1      47.760  30.594  28.924  1.00  0.00     0.031 C 
ATOM     66  C   UNL A   1      45.380  31.208  29.249  1.00  0.00     0.037 A 
BRANCH  53  67
ATOM     67  C   UNL A   1      39.672  28.887  29.004  1.00  0.00     0.064 A 
ATOM     68  C   UNL A   1      39.046  28.742  30.253  1.00  0.00     0.173 A 
ATOM     69  C   UNL A   1      38.894  29.323  27.923  1.00  0.00     0.173 A 
ATOM     70  F   UNL A   1      39.747  28.315  31.313  1.00  0.00    -0.203 F 
ATOM     71  C   UNL A   1      37.689  29.012  30.407  1.00  0.00     0.198 A 
ATOM     72  C   UNL A   1      37.542  29.614  28.086  1.00  0.00     0.198 A 
ATOM     73  F   UNL A   1      39.448  29.480  26.711  1.00  0.00    -0.203 F 
ATOM     74  F   UNL A   1      37.104  28.837  31.600  1.00  0.00    -0.200 F 
ATOM     75  C   UNL A   1      36.941  29.455  29.326  1.00  0.00     0.200 A 
ATOM     76  F   UNL A   1      36.823  30.053  27.045  1.00  0.00    -0.200 F 
ATOM     77  F   UNL A   1      35.637  29.727  29.479  1.00  0.00    -0.200 F 
ENDBRANCH  53  67
BRANCH  54  78
ATOM     78  C   UNL A   1      49.310  26.805  27.948  1.00  0.00     0.064 A 
ATOM     79  C   UNL A   1      50.176  26.529  29.014  1.00  0.00     0.173 A 
ATOM     80  C   UNL A   1      49.856  26.848  26.656  1.00  0.00     0.173 A 
ATOM     81  F   UNL A   1      49.706  26.510  30.269  1.00  0.00    -0.203 F 
ATOM     82  C   UNL A   1      51.539  26.331  28.797  1.00  0.00     0.198 A 
ATOM     83  C   UNL A   1      51.213  26.623  26.439  1.00  0.00     0.198 A 
ATOM     84  F   UNL A   1      49.070  27.115  25.601  1.00  0.00    -0.203 F 
ATOM     85  F   UNL A   1      52.356  26.127  29.839  1.00  0.00    -0.200 F 
ATOM     86  C   UNL A   1      52.055  26.375  27.511  1.00  0.00     0.200 A 
ATOM     87  F   UNL A   1      51.703  26.663  25.192  1.00  0.00    -0.200 F 
ATOM     88  F   UNL A   1      53.368  26.197  27.305  1.00  0.00    -0.200 F 
ENDBRANCH  54  78
BRANCH  66  89
ATOM     89  C   UNL A   1      45.828  32.599  29.594  1.00  0.00     0.064 A 
ATOM     90  C   UNL A   1      46.115  32.976  30.915  1.00  0.00     0.173 A 
ATOM     91  C   UNL A   1      45.978  33.566  28.590  1.00  0.00     0.173 A 
ATOM     92  F   UNL A   1      45.970  32.093  31.916  1.00  0.00    -0.203 F 
ATOM     93  C   UNL A   1      46.505  34.277  31.220  1.00  0.00     0.198 A 
ATOM     94  C   UNL A   1      46.394  34.859  28.894  1.00  0.00     0.198 A 
ATOM     95  F   UNL A   1      45.719  33.258  27.310  1.00  0.00    -0.203 F 
ATOM     96  F   UNL A   1      46.719  34.629  32.496  1.00  0.00    -0.200 F 
ATOM     97  C   UNL A   1      46.648  35.216  30.210  1.00  0.00     0.200 A 
ATOM     98  F   UNL A   1      46.542  35.763  27.915  1.00  0.00    -0.200 F 
ATOM     99  F   UNL A   1      47.020  36.470  30.505  1.00  0.00    -0.200 F 
ENDBRANCH  66  89
ENDBRANCH  40  41
ENDBRANCH  33  35
ENDBRANCH  32  33
ENDBRANCH  31  32
ENDBRANCH  30  31
ENDBRANCH  29  30
ENDBRANCH  28  29
ENDBRANCH   1  28
TORSDOF 21
ENDMDL
MODEL 3
REMARK VINA RESULT:     -10.9      1.770      2.900
REMARK SMILES O=C(Cc1ccccc1Nc1c(Cl)cccc1C(F)(F)F)OCCOCCOCCOC(=O)c1ccc(-c2c3nc(c(-c4c(F)c(F)c(F)c(F)c4F)c4ccc([nH]4)c(-c4c(F)c(F)c(F)c(F)c4F)c4nc(c(-c5c(F)c(F)c(F)c(F)c5F)c5ccc2[nH]5)C=C4)C=C3)cc1
REMARK SMILES IDX 26 1 25 2 24 3 23 4 22 5 2 6 1 7 3 8 4 9 5 10 9 11 6 12 8 13
REMARK SMILES IDX 7 14 10 15 11 17 12 18 17 19 13 20 14 21 16 22 15 23 18 24
REMARK SMILES IDX 19 25 20 26 21 27 27 28 28 29 29 30 30 31 31 32 32 33 33 34
REMARK SMILES IDX 34 35 35 36 96 37 36 38 95 39 37 40 38 41 39 42 89 43 40 44
REMARK SMILES IDX 94 45 88 46 90 47 41 48 93 49 87 50 86 51 42 53 74 54 54 55
REMARK SMILES IDX 73 56 55 57 58 58 72 59 91 60 56 61 57 62 71 64 92 65 59 66
REMARK SMILES IDX 43 67 44 68 52 69 45 70 46 71 50 72 53 73 47 74 48 75 51 76
REMARK SMILES IDX 49 77 75 78 76 79 84 80 77 81 78 82 82 83 85 84 79 85 80 86
REMARK SMILES IDX 83 87 81 88 60 89 61 90 69 91 62 92 63 93 67 94 70 95 64 96
REMARK SMILES IDX 65 97 68 98 66 99
REMARK H PARENT 10 16 90 52 58 63
REMARK Flexibility Score: inf
ROOT
ATOM      1  C   UNL A   1      33.305  21.868  24.103  1.00  0.00     0.188 C 
ENDROOT
BRANCH   1   2
ATOM      2  O   UNL A   1      32.471  22.998  23.936  1.00  0.00    -0.376 OA
BRANCH   2   3
ATOM      3  C   UNL A   1      32.807  23.905  22.903  1.00  0.00     0.202 C 
BRANCH   3   4
ATOM      4  C   UNL A   1      34.048  24.722  23.243  1.00  0.00     0.261 C 
BRANCH   4   5
ATOM      5  O   UNL A   1      33.839  26.130  23.506  1.00  0.00    -0.463 OA
BRANCH   5   6
ATOM      6  C   UNL A   1      33.668  27.132  22.620  1.00  0.00     0.310 C 
ATOM      7  O   UNL A   1      33.543  26.867  21.424  1.00  0.00    -0.252 OA
BRANCH   6   8
ATOM      8  C   UNL A   1      33.755  28.568  23.071  1.00  0.00     0.160 C 
BRANCH   8   9
ATOM      9  C   UNL A   1      33.271  28.911  24.463  1.00  0.00    -0.013 A 
ATOM     10  C   UNL A   1      34.130  28.716  25.561  1.00  0.00     0.006 A 
ATOM     11  C   UNL A   1      31.931  29.318  24.692  1.00  0.00     0.042 A 
ATOM     12  C   UNL A   1      33.699  28.968  26.860  1.00  0.00     0.000 A 
ATOM     13  C   UNL A   1      31.517  29.542  26.012  1.00  0.00     0.026 A 
ATOM     14  C   UNL A   1      32.392  29.375  27.085  1.00  0.00     0.002 A 
BRANCH  11  15
ATOM     15  N   UNL A   1      31.049  29.528  23.604  1.00  0.00    -0.354 N 
ATOM     16  H   UNL A   1      31.462  29.945  22.814  1.00  0.00     0.167 HD
BRANCH  15  17
ATOM     17  C   UNL A   1      29.668  29.236  23.467  1.00  0.00     0.070 A 
ATOM     18  C   UNL A   1      29.272  27.875  23.468  1.00  0.00     0.065 A 
ATOM     19  C   UNL A   1      28.663  30.218  23.379  1.00  0.00     0.080 A 
ATOM     20  Cl  UNL A   1      30.455  26.627  23.675  1.00  0.00    -0.082 Cl
ATOM     21  C   UNL A   1      27.937  27.490  23.348  1.00  0.00     0.023 A 
ATOM     22  C   UNL A   1      27.310  29.809  23.294  1.00  0.00     0.015 A 
ATOM     23  C   UNL A   1      26.951  28.462  23.265  1.00  0.00     0.002 A 
BRANCH  19  24
ATOM     24  C   UNL A   1      28.938  31.703  23.362  1.00  0.00     0.418 C 
ATOM     25  F   UNL A   1      29.653  32.081  22.258  1.00  0.00    -0.166 F 
ATOM     26  F   UNL A   1      27.797  32.446  23.310  1.00  0.00    -0.166 F 
ATOM     27  F   UNL A   1      29.659  32.171  24.417  1.00  0.00    -0.166 F 
ENDBRANCH  19  24
ENDBRANCH  15  17
ENDBRANCH  11  15
ENDBRANCH   8   9
ENDBRANCH   6   8
ENDBRANCH   5   6
ENDBRANCH   4   5
ENDBRANCH   3   4
ENDBRANCH   2   3
ENDBRANCH   1   2
BRANCH   1  28
ATOM     28  C   UNL A   1      33.792  21.692  25.551  1.00  0.00     0.188 C 
BRANCH  28  29
ATOM     29  O   UNL A   1      34.870  20.807  25.834  1.00  0.00    -0.376 OA
BRANCH  29  30
ATOM     30  C   UNL A   1      35.742  20.399  24.788  1.00  0.00     0.202 C 
BRANCH  30  31
ATOM     31  C   UNL A   1      37.105  21.092  24.683  1.00  0.00     0.261 C 
BRANCH  31  32
ATOM     32  O   UNL A   1      37.587  21.645  25.925  1.00  0.00    -0.460 OA
BRANCH  32  33
ATOM     33  C   UNL A   1      38.922  21.526  26.129  1.00  0.00     0.338 C 
ATOM     34  O   UNL A   1      39.652  20.626  25.753  1.00  0.00    -0.246 OA
BRANCH  33  35
ATOM     35  C   UNL A   1      39.465  22.732  26.788  1.00  0.00     0.060 A 
ATOM     36  C   UNL A   1      38.913  23.972  26.443  1.00  0.00     0.016 A 
ATOM     37  C   UNL A   1      40.589  22.669  27.614  1.00  0.00     0.016 A 
ATOM     38  C   UNL A   1      39.512  25.155  26.880  1.00  0.00     0.010 A 
ATOM     39  C   UNL A   1      41.198  23.859  28.041  1.00  0.00     0.010 A 
ATOM     40  C   UNL A   1      40.687  25.109  27.643  1.00  0.00    -0.014 A 
BRANCH  40  41
ATOM     41  C   UNL A   1      41.461  26.358  27.877  1.00  0.00     0.031 A 
ATOM     42  C   UNL A   1      40.806  27.508  28.595  1.00  0.00     0.074 A 
ATOM     43  C   UNL A   1      42.753  26.466  27.519  1.00  0.00     0.049 A 
ATOM     44  N   UNL A   1      41.292  28.689  28.888  1.00  0.00    -0.248 NA
ATOM     45  C   UNL A   1      39.429  27.290  29.063  1.00  0.00     0.031 C 
ATOM     46  C   UNL A   1      43.548  25.410  26.902  1.00  0.00     0.029 A 
ATOM     47  N   UNL A   1      43.622  27.525  27.632  1.00  0.00    -0.354 N 
ATOM     48  C   UNL A   1      40.293  29.344  29.594  1.00  0.00     0.074 A 
ATOM     49  C   UNL A   1      39.155  28.449  29.645  1.00  0.00     0.031 C 
ATOM     50  C   UNL A   1      44.784  25.886  26.670  1.00  0.00     0.029 A 
ATOM     51  C   UNL A   1      44.850  27.287  27.070  1.00  0.00     0.049 A 
ATOM     52  H   UNL A   1      43.386  28.373  28.073  1.00  0.00     0.167 HD
ATOM     53  C   UNL A   1      40.324  30.570  30.169  1.00  0.00     0.037 A 
ATOM     54  C   UNL A   1      45.902  28.103  26.865  1.00  0.00     0.037 A 
ATOM     55  C   UNL A   1      41.443  31.476  30.119  1.00  0.00     0.049 A 
ATOM     56  C   UNL A   1      45.862  29.516  27.381  1.00  0.00     0.074 A 
ATOM     57  C   UNL A   1      41.556  32.737  30.683  1.00  0.00     0.029 A 
ATOM     58  N   UNL A   1      42.637  31.225  29.464  1.00  0.00    -0.354 N 
ATOM     59  N   UNL A   1      44.916  30.122  28.051  1.00  0.00    -0.248 NA
ATOM     60  C   UNL A   1      47.047  30.349  27.129  1.00  0.00     0.031 C 
ATOM     61  C   UNL A   1      42.802  33.267  30.330  1.00  0.00     0.029 A 
ATOM     62  C   UNL A   1      43.483  32.318  29.586  1.00  0.00     0.049 A 
ATOM     63  H   UNL A   1      42.853  30.394  28.982  1.00  0.00     0.167 HD
ATOM     64  C   UNL A   1      45.404  31.391  28.336  1.00  0.00     0.074 A 
ATOM     65  C   UNL A   1      46.732  31.467  27.766  1.00  0.00     0.031 C 
ATOM     66  C   UNL A   1      44.805  32.395  29.020  1.00  0.00     0.037 A 
BRANCH  53  67
ATOM     67  C   UNL A   1      39.098  31.015  30.907  1.00  0.00     0.064 A 
ATOM     68  C   UNL A   1      38.950  30.781  32.283  1.00  0.00     0.173 A 
ATOM     69  C   UNL A   1      38.089  31.728  30.246  1.00  0.00     0.173 A 
ATOM     70  F   UNL A   1      39.883  30.091  32.955  1.00  0.00    -0.203 F 
ATOM     71  C   UNL A   1      37.826  31.235  32.967  1.00  0.00     0.198 A 
ATOM     72  C   UNL A   1      36.977  32.201  30.938  1.00  0.00     0.198 A 
ATOM     73  F   UNL A   1      38.187  31.979  28.932  1.00  0.00    -0.203 F 
ATOM     74  F   UNL A   1      37.688  30.974  34.274  1.00  0.00    -0.200 F 
ATOM     75  C   UNL A   1      36.845  31.951  32.296  1.00  0.00     0.200 A 
ATOM     76  F   UNL A   1      36.036  32.902  30.292  1.00  0.00    -0.200 F 
ATOM     77  F   UNL A   1      35.769  32.398  32.959  1.00  0.00    -0.200 F 
ENDBRANCH  53  67
BRANCH  54  78
ATOM     78  C   UNL A   1      47.073  27.623  26.087  1.00  0.00     0.064 A 
ATOM     79  C   UNL A   1      48.197  27.071  26.716  1.00  0.00     0.173 A 
ATOM     80  C   UNL A   1      47.106  27.757  24.690  1.00  0.00     0.173 A 
ATOM     81  F   UNL A   1      48.225  26.953  28.051  1.00  0.00    -0.203 F 
ATOM     82  C   UNL A   1      49.318  26.694  25.979  1.00  0.00     0.198 A 
ATOM     83  C   UNL A   1      48.217  27.355  23.953  1.00  0.00     0.198 A 
ATOM     84  F   UNL A   1      46.059  28.287  24.040  1.00  0.00    -0.203 F 
ATOM     85  F   UNL A   1      50.403  26.223  26.609  1.00  0.00    -0.200 F 
ATOM     86  C   UNL A   1      49.326  26.833  24.599  1.00  0.00     0.200 A 
ATOM     87  F   UNL A   1      48.215  27.489  22.620  1.00  0.00    -0.200 F 
ATOM     88  F   UNL A   1      50.410  26.482  23.893  1.00  0.00    -0.200 F 
ENDBRANCH  54  78
BRANCH  66  89
ATOM     89  C   UNL A   1      45.598  33.653  29.229  1.00  0.00     0.064 A 
ATOM     90  C   UNL A   1      46.502  33.787  30.294  1.00  0.00     0.173 A 
ATOM     91  C   UNL A   1      45.456  34.736  28.349  1.00  0.00     0.173 A 
ATOM     92  F   UNL A   1      46.661  32.787  31.175  1.00  0.00    -0.203 F 
ATOM     93  C   UNL A   1      47.211  34.970  30.487  1.00  0.00     0.198 A 
ATOM     94  C   UNL A   1      46.187  35.907  28.529  1.00  0.00     0.198 A 
ATOM     95  F   UNL A   1      44.608  34.659  27.313  1.00  0.00    -0.203 F 
ATOM     96  F   UNL A   1      48.026  35.096  31.543  1.00  0.00    -0.200 F 
ATOM     97  C   UNL A   1      47.056  36.027  29.602  1.00  0.00     0.200 A 
ATOM     98  F   UNL A   1      46.044  36.924  27.667  1.00  0.00    -0.200 F 
ATOM     99  F   UNL A   1      47.736  37.167  29.792  1.00  0.00    -0.200 F 
ENDBRANCH  66  89
ENDBRANCH  40  41
ENDBRANCH  33  35
ENDBRANCH  32  33
ENDBRANCH  31  32
ENDBRANCH  30  31
ENDBRANCH  29  30
ENDBRANCH  28  29
ENDBRANCH   1  28
TORSDOF 21
ENDMDL
