MODEL 1
REMARK VINA RESULT:     -10.0      0.000      0.000
REMARK SMILES CC#CC[C@H](C(=O)OCCOCCOCCOC(=O)c1ccc(-c2c3nc(c(-c4c(F)c(F)c(F)c(F)c4F)c4ccc([nH]4)c(-c4c(F)c(F)c(F)c(F)c4F)c4nc(c(-c5c(F)c(F)c(F)c(F)c5F)c5ccc2[nH]5)C=C4)C=C3)cc1)c1cccc(Br)c1
REMARK SMILES IDX 12 1 11 2 10 3 9 4 8 5 6 6 7 7 5 8 4 9 3 10 1 11 2 12 83 13
REMARK SMILES IDX 84 14 89 15 85 16 87 17 86 18 88 19 13 20 14 21 15 22 16 23
REMARK SMILES IDX 17 24 18 25 19 26 20 27 21 28 82 29 22 30 81 31 23 32 24 33
REMARK SMILES IDX 25 34 75 35 26 36 80 37 74 38 76 39 27 40 79 41 73 42 72 43
REMARK SMILES IDX 28 45 60 46 40 47 59 48 41 49 44 50 58 51 77 52 42 53 43 54
REMARK SMILES IDX 57 56 78 57 45 58 29 59 30 60 38 61 31 62 32 63 36 64 39 65
REMARK SMILES IDX 33 66 34 67 37 68 35 69 61 70 62 71 70 72 63 73 64 74 68 75
REMARK SMILES IDX 71 76 65 77 66 78 69 79 67 80 46 81 47 82 55 83 48 84 49 85
REMARK SMILES IDX 53 86 56 87 50 88 51 89 54 90 52 91
REMARK H PARENT 76 44 44 55
REMARK Flexibility Score: inf
ROOT
ATOM      1  C   UNL A   1      34.559  32.419  28.132  1.00  0.00     0.188 C 
ENDROOT
BRANCH   1   2
ATOM      2  O   UNL A   1      35.699  31.583  28.032  1.00  0.00    -0.376 OA
BRANCH   2   3
ATOM      3  C   UNL A   1      35.437  30.195  27.824  1.00  0.00     0.202 C 
BRANCH   3   4
ATOM      4  C   UNL A   1      34.124  29.812  27.105  1.00  0.00     0.261 C 
BRANCH   4   5
ATOM      5  O   UNL A   1      33.669  28.440  27.274  1.00  0.00    -0.463 OA
BRANCH   5   6
ATOM      6  C   UNL A   1      33.479  27.714  26.136  1.00  0.00     0.314 C 
ATOM      7  O   UNL A   1      33.667  26.499  26.085  1.00  0.00    -0.252 OA
BRANCH   6   8
ATOM      8  C   UNL A   1      32.885  28.445  24.924  1.00  0.00     0.141 C 
BRANCH   8   9
ATOM      9  C   UNL A   1      33.876  28.235  23.743  1.00  0.00     0.109 C 
BRANCH   9  10
ATOM     10  C   UNL A   1      33.483  27.201  22.759  1.00  0.00    -0.102 C 
ATOM     11  C   UNL A   1      32.535  25.578  20.874  1.00  0.00     0.107 C 
ATOM     12  C   UNL A   1      33.081  26.432  21.935  1.00  0.00    -0.107 C 
ENDBRANCH   9  10
ENDBRANCH   8   9
BRANCH   8  13
ATOM     13  C   UNL A   1      31.427  28.257  24.494  1.00  0.00    -0.032 A 
ATOM     14  C   UNL A   1      30.711  27.069  24.630  1.00  0.00     0.005 A 
ATOM     15  C   UNL A   1      30.828  29.283  23.725  1.00  0.00     0.020 A 
ATOM     16  C   UNL A   1      29.502  26.870  23.950  1.00  0.00     0.001 A 
ATOM     17  C   UNL A   1      29.633  29.074  23.034  1.00  0.00     0.018 A 
ATOM     18  C   UNL A   1      28.977  27.857  23.125  1.00  0.00     0.016 A 
ATOM     19  Br  UNL A   1      28.941  30.425  21.906  1.00  0.00    -0.051 Br
ENDBRANCH   8  13
ENDBRANCH   6   8
ENDBRANCH   5   6
ENDBRANCH   4   5
ENDBRANCH   3   4
ENDBRANCH   2   3
ENDBRANCH   1   2
BRANCH   1  20
ATOM     20  C   UNL A   1      34.666  33.623  29.076  1.00  0.00     0.188 C 
BRANCH  20  21
ATOM     21  O   UNL A   1      33.433  34.221  29.442  1.00  0.00    -0.376 OA
BRANCH  21  22
ATOM     22  C   UNL A   1      33.204  35.580  29.082  1.00  0.00     0.202 C 
BRANCH  22  23
ATOM     23  C   UNL A   1      32.735  36.561  30.166  1.00  0.00     0.261 C 
BRANCH  23  24
ATOM     24  O   UNL A   1      32.115  35.967  31.322  1.00  0.00    -0.460 OA
BRANCH  24  25
ATOM     25  C   UNL A   1      32.684  36.180  32.532  1.00  0.00     0.338 C 
ATOM     26  O   UNL A   1      32.216  36.827  33.450  1.00  0.00    -0.246 OA
BRANCH  25  27
ATOM     27  C   UNL A   1      33.869  35.281  32.643  1.00  0.00     0.060 A 
ATOM     28  C   UNL A   1      33.672  33.948  33.034  1.00  0.00     0.016 A 
ATOM     29  C   UNL A   1      35.150  35.717  32.292  1.00  0.00     0.016 A 
ATOM     30  C   UNL A   1      34.757  33.068  33.122  1.00  0.00     0.010 A 
ATOM     31  C   UNL A   1      36.237  34.841  32.390  1.00  0.00     0.010 A 
ATOM     32  C   UNL A   1      36.054  33.522  32.843  1.00  0.00    -0.014 A 
BRANCH  32  33
ATOM     33  C   UNL A   1      37.241  32.707  33.219  1.00  0.00     0.031 A 
ATOM     34  C   UNL A   1      37.916  33.000  34.533  1.00  0.00     0.074 A 
ATOM     35  C   UNL A   1      37.724  31.735  32.424  1.00  0.00     0.049 A 
ATOM     36  N   UNL A   1      39.018  32.507  35.039  1.00  0.00    -0.248 NA
ATOM     37  C   UNL A   1      37.256  33.998  35.390  1.00  0.00     0.031 C 
ATOM     38  C   UNL A   1      37.147  31.314  31.152  1.00  0.00     0.029 A 
ATOM     39  N   UNL A   1      38.832  30.933  32.574  1.00  0.00    -0.354 N 
ATOM     40  C   UNL A   1      39.187  33.142  36.264  1.00  0.00     0.074 A 
ATOM     41  C   UNL A   1      38.098  34.083  36.406  1.00  0.00     0.031 C 
ATOM     42  C   UNL A   1      37.910  30.338  30.629  1.00  0.00     0.029 A 
ATOM     43  C   UNL A   1      39.054  30.095  31.509  1.00  0.00     0.049 A 
ATOM     44  H   UNL A   1      39.411  30.956  33.371  1.00  0.00     0.167 HD
ATOM     45  C   UNL A   1      40.157  32.953  37.190  1.00  0.00     0.037 A 
ATOM     46  C   UNL A   1      40.079  29.254  31.259  1.00  0.00     0.037 A 
ATOM     47  C   UNL A   1      41.242  32.019  37.047  1.00  0.00     0.049 A 
ATOM     48  C   UNL A   1      41.199  29.126  32.265  1.00  0.00     0.074 A 
ATOM     49  C   UNL A   1      42.267  31.745  37.935  1.00  0.00     0.029 A 
ATOM     50  N   UNL A   1      41.451  31.214  35.936  1.00  0.00    -0.354 N 
ATOM     51  N   UNL A   1      41.345  29.714  33.427  1.00  0.00    -0.248 NA
ATOM     52  C   UNL A   1      42.300  28.212  31.920  1.00  0.00     0.031 C 
ATOM     53  C   UNL A   1      43.134  30.827  37.334  1.00  0.00     0.029 A 
ATOM     54  C   UNL A   1      42.607  30.468  36.104  1.00  0.00     0.049 A 
ATOM     55  H   UNL A   1      40.865  31.178  35.146  1.00  0.00     0.167 HD
ATOM     56  C   UNL A   1      42.526  29.216  33.967  1.00  0.00     0.074 A 
ATOM     57  C   UNL A   1      43.052  28.267  33.009  1.00  0.00     0.031 C 
ATOM     58  C   UNL A   1      43.119  29.516  35.150  1.00  0.00     0.037 A 
BRANCH  45  59
ATOM     59  C   UNL A   1      40.108  33.804  38.429  1.00  0.00     0.064 A 
ATOM     60  C   UNL A   1      39.336  33.447  39.546  1.00  0.00     0.173 A 
ATOM     61  C   UNL A   1      40.862  34.985  38.507  1.00  0.00     0.173 A 
ATOM     62  F   UNL A   1      38.585  32.335  39.521  1.00  0.00    -0.203 F 
ATOM     63  C   UNL A   1      39.292  34.258  40.677  1.00  0.00     0.198 A 
ATOM     64  C   UNL A   1      40.847  35.773  39.655  1.00  0.00     0.198 A 
ATOM     65  F   UNL A   1      41.622  35.373  37.472  1.00  0.00    -0.203 F 
ATOM     66  F   UNL A   1      38.500  33.929  41.706  1.00  0.00    -0.200 F 
ATOM     67  C   UNL A   1      40.054  35.416  40.733  1.00  0.00     0.200 A 
ATOM     68  F   UNL A   1      41.597  36.882  39.713  1.00  0.00    -0.200 F 
ATOM     69  F   UNL A   1      40.016  36.193  41.825  1.00  0.00    -0.200 F 
ENDBRANCH  45  59
BRANCH  46  70
ATOM     70  C   UNL A   1      40.112  28.469  29.994  1.00  0.00     0.064 A 
ATOM     71  C   UNL A   1      40.740  28.971  28.845  1.00  0.00     0.173 A 
ATOM     72  C   UNL A   1      39.484  27.218  29.895  1.00  0.00     0.173 A 
ATOM     73  F   UNL A   1      41.327  30.177  28.875  1.00  0.00    -0.203 F 
ATOM     74  C   UNL A   1      40.722  28.264  27.643  1.00  0.00     0.198 A 
ATOM     75  C   UNL A   1      39.497  26.496  28.702  1.00  0.00     0.198 A 
ATOM     76  F   UNL A   1      38.859  26.693  30.959  1.00  0.00    -0.203 F 
ATOM     77  F   UNL A   1      41.278  28.798  26.547  1.00  0.00    -0.200 F 
ATOM     78  C   UNL A   1      40.106  27.024  27.575  1.00  0.00     0.200 A 
ATOM     79  F   UNL A   1      38.908  25.293  28.644  1.00  0.00    -0.200 F 
ATOM     80  F   UNL A   1      40.089  26.344  26.420  1.00  0.00    -0.200 F 
ENDBRANCH  46  70
BRANCH  58  81
ATOM     81  C   UNL A   1      44.378  28.773  35.509  1.00  0.00     0.064 A 
ATOM     82  C   UNL A   1      44.353  27.553  36.200  1.00  0.00     0.173 A 
ATOM     83  C   UNL A   1      45.630  29.271  35.111  1.00  0.00     0.173 A 
ATOM     84  F   UNL A   1      43.186  27.034  36.613  1.00  0.00    -0.203 F 
ATOM     85  C   UNL A   1      45.531  26.878  36.507  1.00  0.00     0.198 A 
ATOM     86  C   UNL A   1      46.803  28.574  35.386  1.00  0.00     0.198 A 
ATOM     87  F   UNL A   1      45.716  30.428  34.437  1.00  0.00    -0.203 F 
ATOM     88  F   UNL A   1      45.485  25.741  37.218  1.00  0.00    -0.200 F 
ATOM     89  C   UNL A   1      46.754  27.383  36.093  1.00  0.00     0.200 A 
ATOM     90  F   UNL A   1      47.981  29.055  34.965  1.00  0.00    -0.200 F 
ATOM     91  F   UNL A   1      47.887  26.726  36.381  1.00  0.00    -0.200 F 
ENDBRANCH  58  81
ENDBRANCH  32  33
ENDBRANCH  25  27
ENDBRANCH  24  25
ENDBRANCH  23  24
ENDBRANCH  22  23
ENDBRANCH  21  22
ENDBRANCH  20  21
ENDBRANCH   1  20
TORSDOF 20
ENDMDL
MODEL 2
REMARK VINA RESULT:      -9.8      5.689      9.765
REMARK SMILES CC#CC[C@H](C(=O)OCCOCCOCCOC(=O)c1ccc(-c2c3nc(c(-c4c(F)c(F)c(F)c(F)c4F)c4ccc([nH]4)c(-c4c(F)c(F)c(F)c(F)c4F)c4nc(c(-c5c(F)c(F)c(F)c(F)c5F)c5ccc2[nH]5)C=C4)C=C3)cc1)c1cccc(Br)c1
REMARK SMILES IDX 12 1 11 2 10 3 9 4 8 5 6 6 7 7 5 8 4 9 3 10 1 11 2 12 83 13
REMARK SMILES IDX 84 14 89 15 85 16 87 17 86 18 88 19 13 20 14 21 15 22 16 23
REMARK SMILES IDX 17 24 18 25 19 26 20 27 21 28 82 29 22 30 81 31 23 32 24 33
REMARK SMILES IDX 25 34 75 35 26 36 80 37 74 38 76 39 27 40 79 41 73 42 72 43
REMARK SMILES IDX 28 45 60 46 40 47 59 48 41 49 44 50 58 51 77 52 42 53 43 54
REMARK SMILES IDX 57 56 78 57 45 58 29 59 30 60 38 61 31 62 32 63 36 64 39 65
REMARK SMILES IDX 33 66 34 67 37 68 35 69 61 70 62 71 70 72 63 73 64 74 68 75
REMARK SMILES IDX 71 76 65 77 66 78 69 79 67 80 46 81 47 82 55 83 48 84 49 85
REMARK SMILES IDX 53 86 56 87 50 88 51 89 54 90 52 91
REMARK H PARENT 76 44 44 55
REMARK Flexibility Score: inf
ROOT
ATOM      1  C   UNL A   1      33.640  19.968  24.384  1.00  0.00     0.188 C 
ENDROOT
BRANCH   1   2
ATOM      2  O   UNL A   1      32.496  20.801  24.475  1.00  0.00    -0.376 OA
BRANCH   2   3
ATOM      3  C   UNL A   1      32.106  21.456  23.268  1.00  0.00     0.202 C 
BRANCH   3   4
ATOM      4  C   UNL A   1      32.194  22.997  23.227  1.00  0.00     0.261 C 
BRANCH   4   5
ATOM      5  O   UNL A   1      33.368  23.563  22.578  1.00  0.00    -0.463 OA
BRANCH   5   6
ATOM      6  C   UNL A   1      33.526  24.913  22.665  1.00  0.00     0.314 C 
ATOM      7  O   UNL A   1      33.908  25.601  21.719  1.00  0.00    -0.252 OA
BRANCH   6   8
ATOM      8  C   UNL A   1      33.078  25.592  23.969  1.00  0.00     0.141 C 
BRANCH   8   9
ATOM      9  C   UNL A   1      34.213  25.360  25.007  1.00  0.00     0.109 C 
BRANCH   9  10
ATOM     10  C   UNL A   1      33.977  24.264  25.974  1.00  0.00    -0.102 C 
ATOM     11  C   UNL A   1      33.245  22.456  27.786  1.00  0.00     0.107 C 
ATOM     12  C   UNL A   1      33.697  23.434  26.790  1.00  0.00    -0.107 C 
ENDBRANCH   9  10
ENDBRANCH   8   9
BRANCH   8  13
ATOM     13  C   UNL A   1      32.553  27.031  23.999  1.00  0.00    -0.032 A 
ATOM     14  C   UNL A   1      33.154  28.075  24.699  1.00  0.00     0.005 A 
ATOM     15  C   UNL A   1      31.271  27.276  23.454  1.00  0.00     0.020 A 
ATOM     16  C   UNL A   1      32.471  29.276  24.935  1.00  0.00     0.001 A 
ATOM     17  C   UNL A   1      30.586  28.467  23.707  1.00  0.00     0.018 A 
ATOM     18  C   UNL A   1      31.175  29.462  24.470  1.00  0.00     0.016 A 
ATOM     19  Br  UNL A   1      28.818  28.696  23.077  1.00  0.00    -0.051 Br
ENDBRANCH   8  13
ENDBRANCH   6   8
ENDBRANCH   5   6
ENDBRANCH   4   5
ENDBRANCH   3   4
ENDBRANCH   2   3
ENDBRANCH   1   2
BRANCH   1  20
ATOM     20  C   UNL A   1      34.953  20.534  24.940  1.00  0.00     0.188 C 
BRANCH  20  21
ATOM     21  O   UNL A   1      35.452  21.681  24.271  1.00  0.00    -0.376 OA
BRANCH  21  22
ATOM     22  C   UNL A   1      36.859  21.904  24.266  1.00  0.00     0.202 C 
BRANCH  22  23
ATOM     23  C   UNL A   1      37.766  20.910  25.003  1.00  0.00     0.261 C 
BRANCH  23  24
ATOM     24  O   UNL A   1      38.303  21.363  26.260  1.00  0.00    -0.460 OA
BRANCH  24  25
ATOM     25  C   UNL A   1      39.625  21.187  26.490  1.00  0.00     0.338 C 
ATOM     26  O   UNL A   1      40.286  20.205  26.207  1.00  0.00    -0.246 OA
BRANCH  25  27
ATOM     27  C   UNL A   1      40.192  22.498  26.919  1.00  0.00     0.060 A 
ATOM     28  C   UNL A   1      39.711  23.672  26.321  1.00  0.00     0.016 A 
ATOM     29  C   UNL A   1      41.129  22.583  27.954  1.00  0.00     0.016 A 
ATOM     30  C   UNL A   1      40.201  24.922  26.718  1.00  0.00     0.010 A 
ATOM     31  C   UNL A   1      41.625  23.831  28.345  1.00  0.00     0.010 A 
ATOM     32  C   UNL A   1      41.194  25.006  27.703  1.00  0.00    -0.014 A 
BRANCH  32  33
ATOM     33  C   UNL A   1      41.940  26.275  27.925  1.00  0.00     0.031 A 
ATOM     34  C   UNL A   1      41.254  27.376  28.688  1.00  0.00     0.074 A 
ATOM     35  C   UNL A   1      43.189  26.463  27.462  1.00  0.00     0.049 A 
ATOM     36  N   UNL A   1      41.644  28.604  28.925  1.00  0.00    -0.248 NA
ATOM     37  C   UNL A   1      39.937  27.046  29.256  1.00  0.00     0.031 C 
ATOM     38  C   UNL A   1      43.988  25.471  26.750  1.00  0.00     0.029 A 
ATOM     39  N   UNL A   1      43.999  27.574  27.515  1.00  0.00    -0.354 N 
ATOM     40  C   UNL A   1      40.619  29.191  29.656  1.00  0.00     0.074 A 
ATOM     41  C   UNL A   1      39.573  28.201  29.789  1.00  0.00     0.031 C 
ATOM     42  C   UNL A   1      45.172  26.020  26.422  1.00  0.00     0.029 A 
ATOM     43  C   UNL A   1      45.196  27.415  26.862  1.00  0.00     0.049 A 
ATOM     44  H   UNL A   1      43.744  28.405  27.979  1.00  0.00     0.167 HD
ATOM     45  C   UNL A   1      40.556  30.441  30.175  1.00  0.00     0.037 A 
ATOM     46  C   UNL A   1      46.183  28.303  26.620  1.00  0.00     0.037 A 
ATOM     47  C   UNL A   1      41.595  31.427  30.039  1.00  0.00     0.049 A 
ATOM     48  C   UNL A   1      46.052  29.719  27.130  1.00  0.00     0.074 A 
ATOM     49  C   UNL A   1      41.631  32.716  30.541  1.00  0.00     0.029 A 
ATOM     50  N   UNL A   1      42.778  31.238  29.339  1.00  0.00    -0.354 N 
ATOM     51  N   UNL A   1      45.090  30.264  27.835  1.00  0.00    -0.248 NA
ATOM     52  C   UNL A   1      47.150  30.645  26.810  1.00  0.00     0.031 C 
ATOM     53  C   UNL A   1      42.803  33.330  30.086  1.00  0.00     0.029 A 
ATOM     54  C   UNL A   1      43.535  32.399  29.368  1.00  0.00     0.049 A 
ATOM     55  H   UNL A   1      43.040  30.404  28.888  1.00  0.00     0.167 HD
ATOM     56  C   UNL A   1      45.481  31.576  28.074  1.00  0.00     0.074 A 
ATOM     57  C   UNL A   1      46.776  31.743  27.448  1.00  0.00     0.031 C 
ATOM     58  C   UNL A   1      44.829  32.554  28.752  1.00  0.00     0.037 A 
BRANCH  45  59
ATOM     59  C   UNL A   1      39.302  30.823  30.910  1.00  0.00     0.064 A 
ATOM     60  C   UNL A   1      38.201  31.396  30.254  1.00  0.00     0.173 A 
ATOM     61  C   UNL A   1      39.192  30.591  32.291  1.00  0.00     0.173 A 
ATOM     62  F   UNL A   1      38.256  31.653  28.938  1.00  0.00    -0.203 F 
ATOM     63  C   UNL A   1      37.054  31.758  30.958  1.00  0.00     0.198 A 
ATOM     64  C   UNL A   1      38.029  30.918  32.983  1.00  0.00     0.198 A 
ATOM     65  F   UNL A   1      40.210  30.041  32.968  1.00  0.00    -0.203 F 
ATOM     66  F   UNL A   1      36.041  32.361  30.322  1.00  0.00    -0.200 F 
ATOM     67  C   UNL A   1      36.967  31.510  32.320  1.00  0.00     0.200 A 
ATOM     68  F   UNL A   1      37.940  30.662  34.296  1.00  0.00    -0.200 F 
ATOM     69  F   UNL A   1      35.860  31.853  32.995  1.00  0.00    -0.200 F 
ENDBRANCH  45  59
BRANCH  46  70
ATOM     70  C   UNL A   1      47.385  27.893  25.842  1.00  0.00     0.064 A 
ATOM     71  C   UNL A   1      47.365  27.859  24.440  1.00  0.00     0.173 A 
ATOM     72  C   UNL A   1      48.566  27.490  26.484  1.00  0.00     0.173 A 
ATOM     73  F   UNL A   1      46.250  28.202  23.777  1.00  0.00    -0.203 F 
ATOM     74  C   UNL A   1      48.470  27.419  23.712  1.00  0.00     0.198 A 
ATOM     75  C   UNL A   1      49.683  27.084  25.753  1.00  0.00     0.198 A 
ATOM     76  F   UNL A   1      48.639  27.493  27.823  1.00  0.00    -0.203 F 
ATOM     77  F   UNL A   1      48.400  27.341  22.376  1.00  0.00    -0.200 F 
ATOM     78  C   UNL A   1      49.630  27.039  24.369  1.00  0.00     0.200 A 
ATOM     79  F   UNL A   1      50.805  26.727  26.393  1.00  0.00    -0.200 F 
ATOM     80  F   UNL A   1      50.692  26.618  23.669  1.00  0.00    -0.200 F 
ENDBRANCH  46  70
BRANCH  58  81
ATOM     81  C   UNL A   1      45.523  33.881  28.907  1.00  0.00     0.064 A 
ATOM     82  C   UNL A   1      45.320  34.938  28.007  1.00  0.00     0.173 A 
ATOM     83  C   UNL A   1      46.370  34.112  30.003  1.00  0.00     0.173 A 
ATOM     84  F   UNL A   1      44.529  34.771  26.936  1.00  0.00    -0.203 F 
ATOM     85  C   UNL A   1      45.963  36.161  28.180  1.00  0.00     0.198 A 
ATOM     86  C   UNL A   1      46.981  35.348  30.195  1.00  0.00     0.198 A 
ATOM     87  F   UNL A   1      46.593  33.142  30.903  1.00  0.00    -0.203 F 
ATOM     88  F   UNL A   1      45.797  37.137  27.276  1.00  0.00    -0.200 F 
ATOM     89  C   UNL A   1      46.785  36.369  29.278  1.00  0.00     0.200 A 
ATOM     90  F   UNL A   1      47.757  35.552  31.268  1.00  0.00    -0.200 F 
ATOM     91  F   UNL A   1      47.394  37.551  29.448  1.00  0.00    -0.200 F 
ENDBRANCH  58  81
ENDBRANCH  32  33
ENDBRANCH  25  27
ENDBRANCH  24  25
ENDBRANCH  23  24
ENDBRANCH  22  23
ENDBRANCH  21  22
ENDBRANCH  20  21
ENDBRANCH   1  20
TORSDOF 20
ENDMDL
MODEL 3
REMARK VINA RESULT:      -9.7      6.449     10.755
REMARK SMILES CC#CC[C@H](C(=O)OCCOCCOCCOC(=O)c1ccc(-c2c3nc(c(-c4c(F)c(F)c(F)c(F)c4F)c4ccc([nH]4)c(-c4c(F)c(F)c(F)c(F)c4F)c4nc(c(-c5c(F)c(F)c(F)c(F)c5F)c5ccc2[nH]5)C=C4)C=C3)cc1)c1cccc(Br)c1
REMARK SMILES IDX 12 1 11 2 10 3 9 4 8 5 6 6 7 7 5 8 4 9 3 10 1 11 2 12 83 13
REMARK SMILES IDX 84 14 89 15 85 16 87 17 86 18 88 19 13 20 14 21 15 22 16 23
REMARK SMILES IDX 17 24 18 25 19 26 20 27 21 28 82 29 22 30 81 31 23 32 24 33
REMARK SMILES IDX 25 34 75 35 26 36 80 37 74 38 76 39 27 40 79 41 73 42 72 43
REMARK SMILES IDX 28 45 60 46 40 47 59 48 41 49 44 50 58 51 77 52 42 53 43 54
REMARK SMILES IDX 57 56 78 57 45 58 29 59 30 60 38 61 31 62 32 63 36 64 39 65
REMARK SMILES IDX 33 66 34 67 37 68 35 69 61 70 62 71 70 72 63 73 64 74 68 75
REMARK SMILES IDX 71 76 65 77 66 78 69 79 67 80 46 81 47 82 55 83 48 84 49 85
REMARK SMILES IDX 53 86 56 87 50 88 51 89 54 90 52 91
REMARK H PARENT 76 44 44 55
REMARK Flexibility Score: inf
ROOT
ATOM      1  C   UNL A   1      36.145  22.195  23.951  1.00  0.00     0.188 C 
ENDROOT
BRANCH   1   2
ATOM      2  O   UNL A   1      34.939  22.878  23.652  1.00  0.00    -0.376 OA
BRANCH   2   3
ATOM      3  C   UNL A   1      33.741  22.257  24.117  1.00  0.00     0.202 C 
BRANCH   3   4
ATOM      4  C   UNL A   1      33.626  21.959  25.628  1.00  0.00     0.261 C 
BRANCH   4   5
ATOM      5  O   UNL A   1      33.580  23.113  26.515  1.00  0.00    -0.463 OA
BRANCH   5   6
ATOM      6  C   UNL A   1      32.369  23.720  26.669  1.00  0.00     0.314 C 
ATOM      7  O   UNL A   1      31.620  23.479  27.615  1.00  0.00    -0.252 OA
BRANCH   6   8
ATOM      8  C   UNL A   1      32.010  24.837  25.677  1.00  0.00     0.141 C 
BRANCH   8   9
ATOM      9  C   UNL A   1      30.479  25.081  25.813  1.00  0.00     0.109 C 
BRANCH   9  10
ATOM     10  C   UNL A   1      29.913  26.096  24.897  1.00  0.00    -0.102 C 
ATOM     11  C   UNL A   1      29.224  27.956  23.121  1.00  0.00     0.107 C 
ATOM     12  C   UNL A   1      29.559  26.939  24.125  1.00  0.00    -0.107 C 
ENDBRANCH   9  10
ENDBRANCH   8   9
BRANCH   8  13
ATOM     13  C   UNL A   1      32.799  26.148  25.607  1.00  0.00    -0.032 A 
ATOM     14  C   UNL A   1      32.952  27.035  26.671  1.00  0.00     0.005 A 
ATOM     15  C   UNL A   1      33.229  26.592  24.334  1.00  0.00     0.020 A 
ATOM     16  C   UNL A   1      33.416  28.341  26.464  1.00  0.00     0.001 A 
ATOM     17  C   UNL A   1      33.673  27.900  24.129  1.00  0.00     0.018 A 
ATOM     18  C   UNL A   1      33.746  28.787  25.189  1.00  0.00     0.016 A 
ATOM     19  Br  UNL A   1      34.104  28.491  22.386  1.00  0.00    -0.051 Br
ENDBRANCH   8  13
ENDBRANCH   6   8
ENDBRANCH   5   6
ENDBRANCH   4   5
ENDBRANCH   3   4
ENDBRANCH   2   3
ENDBRANCH   1   2
BRANCH   1  20
ATOM     20  C   UNL A   1      37.253  23.013  24.625  1.00  0.00     0.188 C 
BRANCH  20  21
ATOM     21  O   UNL A   1      37.566  22.633  25.955  1.00  0.00    -0.376 OA
BRANCH  21  22
ATOM     22  C   UNL A   1      38.876  22.147  26.233  1.00  0.00     0.202 C 
BRANCH  22  23
ATOM     23  C   UNL A   1      39.343  20.855  25.549  1.00  0.00     0.261 C 
BRANCH  23  24
ATOM     24  O   UNL A   1      40.061  19.927  26.385  1.00  0.00    -0.460 OA
BRANCH  24  25
ATOM     25  C   UNL A   1      41.385  19.757  26.157  1.00  0.00     0.338 C 
ATOM     26  O   UNL A   1      41.903  18.846  25.539  1.00  0.00    -0.246 OA
BRANCH  25  27
ATOM     27  C   UNL A   1      42.084  21.006  26.575  1.00  0.00     0.060 A 
ATOM     28  C   UNL A   1      42.147  21.322  27.941  1.00  0.00     0.016 A 
ATOM     29  C   UNL A   1      42.738  21.821  25.645  1.00  0.00     0.016 A 
ATOM     30  C   UNL A   1      42.819  22.473  28.371  1.00  0.00     0.010 A 
ATOM     31  C   UNL A   1      43.402  22.975  26.075  1.00  0.00     0.010 A 
ATOM     32  C   UNL A   1      43.412  23.331  27.436  1.00  0.00    -0.014 A 
BRANCH  32  33
ATOM     33  C   UNL A   1      43.859  24.694  27.831  1.00  0.00     0.031 A 
ATOM     34  C   UNL A   1      42.805  25.724  28.141  1.00  0.00     0.074 A 
ATOM     35  C   UNL A   1      45.160  25.028  27.912  1.00  0.00     0.049 A 
ATOM     36  N   UNL A   1      42.930  27.000  28.407  1.00  0.00    -0.248 NA
ATOM     37  C   UNL A   1      41.414  25.245  28.141  1.00  0.00     0.031 C 
ATOM     38  C   UNL A   1      46.283  24.123  27.685  1.00  0.00     0.029 A 
ATOM     39  N   UNL A   1      45.752  26.236  28.195  1.00  0.00    -0.354 N 
ATOM     40  C   UNL A   1      41.638  27.474  28.593  1.00  0.00     0.074 A 
ATOM     41  C   UNL A   1      40.742  26.361  28.370  1.00  0.00     0.031 C 
ATOM     42  C   UNL A   1      47.431  24.810  27.828  1.00  0.00     0.029 A 
ATOM     43  C   UNL A   1      47.123  26.212  28.112  1.00  0.00     0.049 A 
ATOM     44  H   UNL A   1      45.241  27.043  28.437  1.00  0.00     0.167 HD
ATOM     45  C   UNL A   1      41.233  28.724  28.926  1.00  0.00     0.037 A 
ATOM     46  C   UNL A   1      48.021  27.212  28.222  1.00  0.00     0.037 A 
ATOM     47  C   UNL A   1      42.124  29.832  29.144  1.00  0.00     0.049 A 
ATOM     48  C   UNL A   1      47.542  28.617  28.503  1.00  0.00     0.074 A 
ATOM     49  C   UNL A   1      41.811  31.133  29.499  1.00  0.00     0.029 A 
ATOM     50  N   UNL A   1      43.504  29.774  29.016  1.00  0.00    -0.354 N 
ATOM     51  N   UNL A   1      46.321  29.057  28.696  1.00  0.00    -0.248 NA
ATOM     52  C   UNL A   1      48.570  29.666  28.585  1.00  0.00     0.031 C 
ATOM     53  C   UNL A   1      42.995  31.878  29.516  1.00  0.00     0.029 A 
ATOM     54  C   UNL A   1      44.054  31.025  29.252  1.00  0.00     0.049 A 
ATOM     55  H   UNL A   1      44.017  28.965  28.790  1.00  0.00     0.167 HD
ATOM     56  C   UNL A   1      46.438  30.417  28.957  1.00  0.00     0.074 A 
ATOM     57  C   UNL A   1      47.851  30.730  28.910  1.00  0.00     0.031 C 
ATOM     58  C   UNL A   1      45.463  31.326  29.215  1.00  0.00     0.037 A 
BRANCH  45  59
ATOM     59  C   UNL A   1      39.753  28.965  29.040  1.00  0.00     0.064 A 
ATOM     60  C   UNL A   1      38.970  29.318  27.930  1.00  0.00     0.173 A 
ATOM     61  C   UNL A   1      39.105  28.818  30.276  1.00  0.00     0.173 A 
ATOM     62  F   UNL A   1      39.540  29.486  26.726  1.00  0.00    -0.203 F 
ATOM     63  C   UNL A   1      37.603  29.553  28.060  1.00  0.00     0.198 A 
ATOM     64  C   UNL A   1      37.732  29.015  30.395  1.00  0.00     0.198 A 
ATOM     65  F   UNL A   1      39.802  28.476  31.370  1.00  0.00    -0.203 F 
ATOM     66  F   UNL A   1      36.888  29.951  27.000  1.00  0.00    -0.200 F 
ATOM     67  C   UNL A   1      36.985  29.393  29.292  1.00  0.00     0.200 A 
ATOM     68  F   UNL A   1      37.134  28.842  31.582  1.00  0.00    -0.200 F 
ATOM     69  F   UNL A   1      35.668  29.613  29.415  1.00  0.00    -0.200 F 
ENDBRANCH  45  59
BRANCH  46  70
ATOM     70  C   UNL A   1      49.475  26.935  28.051  1.00  0.00     0.064 A 
ATOM     71  C   UNL A   1      50.073  26.957  26.782  1.00  0.00     0.173 A 
ATOM     72  C   UNL A   1      50.288  26.605  29.145  1.00  0.00     0.173 A 
ATOM     73  F   UNL A   1      49.334  27.234  25.697  1.00  0.00    -0.203 F 
ATOM     74  C   UNL A   1      51.420  26.640  26.613  1.00  0.00     0.198 A 
ATOM     75  C   UNL A   1      51.644  26.323  28.979  1.00  0.00     0.198 A 
ATOM     76  F   UNL A   1      49.768  26.559  30.380  1.00  0.00    -0.203 F 
ATOM     77  F   UNL A   1      51.949  26.611  25.381  1.00  0.00    -0.200 F 
ATOM     78  C   UNL A   1      52.206  26.330  27.712  1.00  0.00     0.200 A 
ATOM     79  F   UNL A   1      52.401  26.033  30.046  1.00  0.00    -0.200 F 
ATOM     80  F   UNL A   1      53.501  26.027  27.550  1.00  0.00    -0.200 F 
ENDBRANCH  46  70
BRANCH  58  81
ATOM     81  C   UNL A   1      45.886  32.737  29.523  1.00  0.00     0.064 A 
ATOM     82  C   UNL A   1      46.204  33.153  30.824  1.00  0.00     0.173 A 
ATOM     83  C   UNL A   1      46.020  33.676  28.487  1.00  0.00     0.173 A 
ATOM     84  F   UNL A   1      46.084  32.301  31.854  1.00  0.00    -0.203 F 
ATOM     85  C   UNL A   1      46.607  34.461  31.081  1.00  0.00     0.198 A 
ATOM     86  C   UNL A   1      46.461  34.972  28.741  1.00  0.00     0.198 A 
ATOM     87  F   UNL A   1      45.742  33.332  27.220  1.00  0.00    -0.203 F 
ATOM     88  F   UNL A   1      46.851  34.850  32.341  1.00  0.00    -0.200 F 
ATOM     89  C   UNL A   1      46.744  35.367  30.039  1.00  0.00     0.200 A 
ATOM     90  F   UNL A   1      46.613  35.838  27.730  1.00  0.00    -0.200 F 
ATOM     91  F   UNL A   1      47.143  36.623  30.288  1.00  0.00    -0.200 F 
ENDBRANCH  58  81
ENDBRANCH  32  33
ENDBRANCH  25  27
ENDBRANCH  24  25
ENDBRANCH  23  24
ENDBRANCH  22  23
ENDBRANCH  21  22
ENDBRANCH  20  21
ENDBRANCH   1  20
TORSDOF 20
ENDMDL
