MODEL 1
REMARK VINA RESULT:     -11.0      0.000      0.000
REMARK SMILES O=C(COc1ccc(NC(=O)c2ccc(Br)cc2)cc1-c1nc2ccccc2o1)OCCOCCOCCOC(=O)c1ccc(-c2c3nc(c(-c4c(F)c(F)c(F)c(F)c4F)c4ccc([nH]4)c(-c4c(F)c(F)c(F)c(F)c4F)c4nc(c(-c5c(F)c(F)c(F)c(F)c5F)c5ccc2[nH]5)C=C4)C=C3)cc1
REMARK SMILES IDX 34 1 33 2 32 3 31 4 30 5 2 6 1 7 3 8 4 9 5 10 6 11 20 12
REMARK SMILES IDX 7 13 19 14 8 15 21 16 22 17 29 18 23 19 28 20 24 21 27 22
REMARK SMILES IDX 25 23 26 24 9 25 10 26 11 28 12 29 13 30 18 31 14 32 17 33
REMARK SMILES IDX 15 34 16 35 35 36 36 37 37 38 38 39 39 40 40 41 41 42 42 43
REMARK SMILES IDX 43 44 104 45 44 46 103 47 45 48 46 49 47 50 97 51 48 52
REMARK SMILES IDX 102 53 96 54 98 55 49 56 101 57 95 58 94 59 50 61 82 62
REMARK SMILES IDX 62 63 81 64 63 65 66 66 80 67 99 68 64 69 65 70 79 72 100 73
REMARK SMILES IDX 67 74 51 75 52 76 60 77 53 78 54 79 58 80 61 81 55 82 56 83
REMARK SMILES IDX 59 84 57 85 83 86 84 87 92 88 85 89 86 90 90 91 93 92 87 93
REMARK SMILES IDX 88 94 91 95 89 96 68 97 69 98 77 99 70 100 71 101 75 102
REMARK SMILES IDX 78 103 72 104 73 105 76 106 74 107
REMARK H PARENT 9 27 98 60 66 71
REMARK Flexibility Score: inf
ROOT
ATOM      1  C   UNL A   1      47.893  20.047  36.510  1.00  0.00     0.188 C 
ENDROOT
BRANCH   1   2
ATOM      2  O   UNL A   1      46.512  19.727  36.652  1.00  0.00    -0.376 OA
BRANCH   2   3
ATOM      3  C   UNL A   1      46.157  19.014  37.825  1.00  0.00     0.202 C 
BRANCH   3   4
ATOM      4  C   UNL A   1      44.971  18.098  37.594  1.00  0.00     0.261 C 
BRANCH   4   5
ATOM      5  O   UNL A   1      44.693  17.227  38.732  1.00  0.00    -0.461 OA
BRANCH   5   6
ATOM      6  C   UNL A   1      43.677  16.372  38.974  1.00  0.00     0.344 C 
ATOM      7  O   UNL A   1      43.442  15.430  38.218  1.00  0.00    -0.248 OA
BRANCH   6   8
ATOM      8  C   UNL A   1      42.836  16.643  40.175  1.00  0.00     0.352 C 
BRANCH   8   9
ATOM      9  O   UNL A   1      43.628  16.444  41.340  1.00  0.00    -0.481 OA
BRANCH   9  10
ATOM     10  C   UNL A   1      43.111  15.458  42.124  1.00  0.00     0.133 A 
ATOM     11  C   UNL A   1      41.919  14.998  41.594  1.00  0.00     0.049 A 
ATOM     12  C   UNL A   1      43.694  14.886  43.276  1.00  0.00     0.081 A 
ATOM     13  C   UNL A   1      41.402  13.822  42.068  1.00  0.00     0.030 A 
ATOM     14  C   UNL A   1      43.228  13.615  43.638  1.00  0.00     0.043 A 
ATOM     15  C   UNL A   1      42.141  13.040  42.950  1.00  0.00     0.042 A 
BRANCH  12  16
ATOM     16  C   UNL A   1      44.646  15.623  44.129  1.00  0.00     0.231 A 
ATOM     17  N   UNL A   1      44.647  16.919  44.400  1.00  0.00    -0.209 NA
ATOM     18  O   UNL A   1      45.768  14.955  44.574  1.00  0.00    -0.436 OA
ATOM     19  C   UNL A   1      45.909  17.160  44.901  1.00  0.00     0.110 A 
ATOM     20  C   UNL A   1      46.603  15.963  45.014  1.00  0.00     0.155 A 
ATOM     21  C   UNL A   1      46.583  18.369  45.143  1.00  0.00     0.032 A 
ATOM     22  C   UNL A   1      47.947  15.876  45.378  1.00  0.00     0.049 A 
ATOM     23  C   UNL A   1      47.953  18.323  45.444  1.00  0.00     0.003 A 
ATOM     24  C   UNL A   1      48.618  17.098  45.565  1.00  0.00     0.004 A 
ENDBRANCH  12  16
BRANCH  15  25
ATOM     25  N   UNL A   1      41.826  11.687  43.159  1.00  0.00    -0.322 N 
ATOM     26  C   UNL A   1      42.516  10.708  43.858  1.00  0.00     0.255 C 
ATOM     27  H   UNL A   1      40.984  11.386  42.745  1.00  0.00     0.170 HD
ATOM     28  O   UNL A   1      42.167   9.532  43.778  1.00  0.00    -0.269 OA
BRANCH  26  29
ATOM     29  C   UNL A   1      43.665  11.036  44.744  1.00  0.00     0.040 A 
ATOM     30  C   UNL A   1      44.961  10.803  44.265  1.00  0.00     0.015 A 
ATOM     31  C   UNL A   1      43.478  11.637  46.000  1.00  0.00     0.015 A 
ATOM     32  C   UNL A   1      46.067  11.229  45.008  1.00  0.00     0.016 A 
ATOM     33  C   UNL A   1      44.588  12.064  46.739  1.00  0.00     0.016 A 
ATOM     34  C   UNL A   1      45.875  11.868  46.234  1.00  0.00     0.018 A 
ATOM     35  Br  UNL A   1      47.371  12.493  47.208  1.00  0.00    -0.051 Br
ENDBRANCH  26  29
ENDBRANCH  15  25
ENDBRANCH   9  10
ENDBRANCH   8   9
ENDBRANCH   6   8
ENDBRANCH   5   6
ENDBRANCH   4   5
ENDBRANCH   3   4
ENDBRANCH   2   3
ENDBRANCH   1   2
BRANCH   1  36
ATOM     36  C   UNL A   1      48.215  21.423  35.849  1.00  0.00     0.188 C 
BRANCH  36  37
ATOM     37  O   UNL A   1      49.516  21.997  35.902  1.00  0.00    -0.376 OA
BRANCH  37  38
ATOM     38  C   UNL A   1      49.722  23.129  36.716  1.00  0.00     0.202 C 
BRANCH  38  39
ATOM     39  C   UNL A   1      48.554  24.124  36.706  1.00  0.00     0.261 C 
BRANCH  39  40
ATOM     40  O   UNL A   1      48.678  25.210  35.763  1.00  0.00    -0.460 OA
BRANCH  40  41
ATOM     41  C   UNL A   1      48.028  25.067  34.575  1.00  0.00     0.338 C 
ATOM     42  O   UNL A   1      48.264  24.251  33.710  1.00  0.00    -0.246 OA
BRANCH  41  43
ATOM     43  C   UNL A   1      46.837  25.974  34.532  1.00  0.00     0.060 A 
ATOM     44  C   UNL A   1      45.563  25.431  34.769  1.00  0.00     0.016 A 
ATOM     45  C   UNL A   1      46.959  27.336  34.240  1.00  0.00     0.016 A 
ATOM     46  C   UNL A   1      44.414  26.214  34.625  1.00  0.00     0.010 A 
ATOM     47  C   UNL A   1      45.806  28.117  34.071  1.00  0.00     0.010 A 
ATOM     48  C   UNL A   1      44.527  27.539  34.191  1.00  0.00    -0.014 A 
BRANCH  48  49
ATOM     49  C   UNL A   1      43.357  28.184  33.529  1.00  0.00     0.031 A 
ATOM     50  C   UNL A   1      43.107  27.834  32.081  1.00  0.00     0.074 A 
ATOM     51  C   UNL A   1      42.510  29.010  34.171  1.00  0.00     0.049 A 
ATOM     52  N   UNL A   1      42.188  28.270  31.256  1.00  0.00    -0.248 NA
ATOM     53  C   UNL A   1      44.033  26.859  31.480  1.00  0.00     0.031 C 
ATOM     54  C   UNL A   1      42.594  29.390  35.577  1.00  0.00     0.029 A 
ATOM     55  N   UNL A   1      41.402  29.680  33.705  1.00  0.00    -0.354 N 
ATOM     56  C   UNL A   1      42.440  27.636  30.044  1.00  0.00     0.074 A 
ATOM     57  C   UNL A   1      43.618  26.820  30.226  1.00  0.00     0.031 C 
ATOM     58  C   UNL A   1      41.584  30.234  35.859  1.00  0.00     0.029 A 
ATOM     59  C   UNL A   1      40.799  30.473  34.649  1.00  0.00     0.049 A 
ATOM     60  H   UNL A   1      41.074  29.599  32.781  1.00  0.00     0.167 HD
ATOM     61  C   UNL A   1      41.748  27.712  28.883  1.00  0.00     0.037 A 
ATOM     62  C   UNL A   1      39.741  31.305  34.539  1.00  0.00     0.037 A 
ATOM     63  C   UNL A   1      40.568  28.513  28.699  1.00  0.00     0.049 A 
ATOM     64  C   UNL A   1      39.023  31.426  33.214  1.00  0.00     0.074 A 
ATOM     65  C   UNL A   1      39.783  28.645  27.567  1.00  0.00     0.029 A 
ATOM     66  N   UNL A   1      40.007  29.325  29.672  1.00  0.00    -0.354 N 
ATOM     67  N   UNL A   1      39.253  30.808  32.081  1.00  0.00    -0.248 NA
ATOM     68  C   UNL A   1      37.885  32.356  33.162  1.00  0.00     0.031 C 
ATOM     69  C   UNL A   1      38.786  29.587  27.837  1.00  0.00     0.029 A 
ATOM     70  C   UNL A   1      38.900  29.981  29.159  1.00  0.00     0.049 A 
ATOM     71  H   UNL A   1      40.345  29.420  30.592  1.00  0.00     0.167 HD
ATOM     72  C   UNL A   1      38.264  31.233  31.201  1.00  0.00     0.074 A 
ATOM     73  C   UNL A   1      37.428  32.159  31.934  1.00  0.00     0.031 C 
ATOM     74  C   UNL A   1      38.062  30.884  29.906  1.00  0.00     0.037 A 
BRANCH  61  75
ATOM     75  C   UNL A   1      42.275  26.934  27.710  1.00  0.00     0.064 A 
ATOM     76  C   UNL A   1      43.219  27.475  26.822  1.00  0.00     0.173 A 
ATOM     77  C   UNL A   1      41.836  25.622  27.479  1.00  0.00     0.173 A 
ATOM     78  F   UNL A   1      43.659  28.732  26.985  1.00  0.00    -0.203 F 
ATOM     79  C   UNL A   1      43.676  26.742  25.728  1.00  0.00     0.198 A 
ATOM     80  C   UNL A   1      42.324  24.880  26.408  1.00  0.00     0.198 A 
ATOM     81  F   UNL A   1      40.937  25.057  28.298  1.00  0.00    -0.203 F 
ATOM     82  F   UNL A   1      44.528  27.301  24.859  1.00  0.00    -0.200 F 
ATOM     83  C   UNL A   1      43.234  25.443  25.527  1.00  0.00     0.200 A 
ATOM     84  F   UNL A   1      41.906  23.620  26.223  1.00  0.00    -0.200 F 
ATOM     85  F   UNL A   1      43.679  24.737  24.479  1.00  0.00    -0.200 F 
ENDBRANCH  61  75
BRANCH  62  86
ATOM     86  C   UNL A   1      39.279  32.095  35.715  1.00  0.00     0.064 A 
ATOM     87  C   UNL A   1      38.378  31.553  36.644  1.00  0.00     0.173 A 
ATOM     88  C   UNL A   1      39.691  33.421  35.909  1.00  0.00     0.173 A 
ATOM     89  F   UNL A   1      37.929  30.298  36.488  1.00  0.00    -0.203 F 
ATOM     90  C   UNL A   1      37.888  32.313  37.705  1.00  0.00     0.198 A 
ATOM     91  C   UNL A   1      39.227  34.170  36.990  1.00  0.00     0.198 A 
ATOM     92  F   UNL A   1      40.547  33.992  35.050  1.00  0.00    -0.203 F 
ATOM     93  F   UNL A   1      36.983  31.788  38.542  1.00  0.00    -0.200 F 
ATOM     94  C   UNL A   1      38.318  33.620  37.880  1.00  0.00     0.200 A 
ATOM     95  F   UNL A   1      39.655  35.429  37.163  1.00  0.00    -0.200 F 
ATOM     96  F   UNL A   1      37.849  34.351  38.900  1.00  0.00    -0.200 F 
ENDBRANCH  62  86
BRANCH  74  97
ATOM     97  C   UNL A   1      36.848  31.442  29.214  1.00  0.00     0.064 A 
ATOM     98  C   UNL A   1      36.759  32.786  28.821  1.00  0.00     0.173 A 
ATOM     99  C   UNL A   1      35.761  30.603  28.914  1.00  0.00     0.173 A 
ATOM    100  F   UNL A   1      37.763  33.635  29.088  1.00  0.00    -0.203 F 
ATOM    101  C   UNL A   1      35.614  33.278  28.198  1.00  0.00     0.198 A 
ATOM    102  C   UNL A   1      34.636  31.089  28.254  1.00  0.00     0.198 A 
ATOM    103  F   UNL A   1      35.795  29.305  29.253  1.00  0.00    -0.203 F 
ATOM    104  F   UNL A   1      35.526  34.580  27.894  1.00  0.00    -0.200 F 
ATOM    105  C   UNL A   1      34.557  32.428  27.909  1.00  0.00     0.200 A 
ATOM    106  F   UNL A   1      33.625  30.260  27.958  1.00  0.00    -0.200 F 
ATOM    107  F   UNL A   1      33.459  32.902  27.307  1.00  0.00    -0.200 F 
ENDBRANCH  74  97
ENDBRANCH  48  49
ENDBRANCH  41  43
ENDBRANCH  40  41
ENDBRANCH  39  40
ENDBRANCH  38  39
ENDBRANCH  37  38
ENDBRANCH  36  37
ENDBRANCH   1  36
TORSDOF 22
ENDMDL
MODEL 2
REMARK VINA RESULT:     -11.0      9.527     15.240
REMARK SMILES O=C(COc1ccc(NC(=O)c2ccc(Br)cc2)cc1-c1nc2ccccc2o1)OCCOCCOCCOC(=O)c1ccc(-c2c3nc(c(-c4c(F)c(F)c(F)c(F)c4F)c4ccc([nH]4)c(-c4c(F)c(F)c(F)c(F)c4F)c4nc(c(-c5c(F)c(F)c(F)c(F)c5F)c5ccc2[nH]5)C=C4)C=C3)cc1
REMARK SMILES IDX 34 1 33 2 32 3 31 4 30 5 2 6 1 7 3 8 4 9 5 10 6 11 20 12
REMARK SMILES IDX 7 13 19 14 8 15 21 16 22 17 29 18 23 19 28 20 24 21 27 22
REMARK SMILES IDX 25 23 26 24 9 25 10 26 11 28 12 29 13 30 18 31 14 32 17 33
REMARK SMILES IDX 15 34 16 35 35 36 36 37 37 38 38 39 39 40 40 41 41 42 42 43
REMARK SMILES IDX 43 44 104 45 44 46 103 47 45 48 46 49 47 50 97 51 48 52
REMARK SMILES IDX 102 53 96 54 98 55 49 56 101 57 95 58 94 59 50 61 82 62
REMARK SMILES IDX 62 63 81 64 63 65 66 66 80 67 99 68 64 69 65 70 79 72 100 73
REMARK SMILES IDX 67 74 51 75 52 76 60 77 53 78 54 79 58 80 61 81 55 82 56 83
REMARK SMILES IDX 59 84 57 85 83 86 84 87 92 88 85 89 86 90 90 91 93 92 87 93
REMARK SMILES IDX 88 94 91 95 89 96 68 97 69 98 77 99 70 100 71 101 75 102
REMARK SMILES IDX 78 103 72 104 73 105 76 106 74 107
REMARK H PARENT 9 27 98 60 66 71
REMARK Flexibility Score: inf
ROOT
ATOM      1  C   UNL A   1      41.972  24.881  28.470  1.00  0.00     0.188 C 
ENDROOT
BRANCH   1   2
ATOM      2  O   UNL A   1      40.721  24.271  28.166  1.00  0.00    -0.376 OA
BRANCH   2   3
ATOM      3  C   UNL A   1      40.295  24.367  26.816  1.00  0.00     0.202 C 
BRANCH   3   4
ATOM      4  C   UNL A   1      38.784  24.330  26.695  1.00  0.00     0.261 C 
BRANCH   4   5
ATOM      5  O   UNL A   1      38.265  22.991  26.437  1.00  0.00    -0.461 OA
BRANCH   5   6
ATOM      6  C   UNL A   1      37.307  22.552  25.593  1.00  0.00     0.344 C 
ATOM      7  O   UNL A   1      37.554  21.709  24.732  1.00  0.00    -0.248 OA
BRANCH   6   8
ATOM      8  C   UNL A   1      35.953  23.160  25.731  1.00  0.00     0.352 C 
BRANCH   8   9
ATOM      9  O   UNL A   1      35.110  22.245  26.420  1.00  0.00    -0.481 OA
BRANCH   9  10
ATOM     10  C   UNL A   1      33.799  22.470  26.133  1.00  0.00     0.133 A 
ATOM     11  C   UNL A   1      33.279  23.428  26.984  1.00  0.00     0.049 A 
ATOM     12  C   UNL A   1      33.043  21.905  25.082  1.00  0.00     0.081 A 
ATOM     13  C   UNL A   1      32.075  24.001  26.669  1.00  0.00     0.030 A 
ATOM     14  C   UNL A   1      31.892  22.608  24.702  1.00  0.00     0.043 A 
ATOM     15  C   UNL A   1      31.473  23.730  25.444  1.00  0.00     0.042 A 
BRANCH  12  16
ATOM     16  C   UNL A   1      33.364  20.589  24.497  1.00  0.00     0.231 A 
ATOM     17  N   UNL A   1      32.567  19.811  23.781  1.00  0.00    -0.209 NA
ATOM     18  O   UNL A   1      34.556  19.995  24.854  1.00  0.00    -0.436 OA
ATOM     19  C   UNL A   1      33.186  18.579  23.805  1.00  0.00     0.110 A 
ATOM     20  C   UNL A   1      34.407  18.682  24.457  1.00  0.00     0.155 A 
ATOM     21  C   UNL A   1      32.715  17.309  23.427  1.00  0.00     0.032 A 
ATOM     22  C   UNL A   1      35.223  17.590  24.753  1.00  0.00     0.049 A 
ATOM     23  C   UNL A   1      33.479  16.183  23.770  1.00  0.00     0.003 A 
ATOM     24  C   UNL A   1      34.712  16.324  24.415  1.00  0.00     0.004 A 
ENDBRANCH  12  16
BRANCH  15  25
ATOM     25  N   UNL A   1      30.462  24.561  24.933  1.00  0.00    -0.322 N 
ATOM     26  C   UNL A   1      30.256  25.922  25.101  1.00  0.00     0.255 C 
ATOM     27  H   UNL A   1      29.795  24.107  24.368  1.00  0.00     0.170 HD
ATOM     28  O   UNL A   1      29.208  26.438  24.717  1.00  0.00    -0.269 OA
BRANCH  26  29
ATOM     29  C   UNL A   1      31.287  26.805  25.710  1.00  0.00     0.040 A 
ATOM     30  C   UNL A   1      32.436  27.100  24.963  1.00  0.00     0.015 A 
ATOM     31  C   UNL A   1      31.097  27.399  26.968  1.00  0.00     0.015 A 
ATOM     32  C   UNL A   1      33.359  28.035  25.441  1.00  0.00     0.016 A 
ATOM     33  C   UNL A   1      32.023  28.337  27.442  1.00  0.00     0.016 A 
ATOM     34  C   UNL A   1      33.141  28.658  26.671  1.00  0.00     0.018 A 
ATOM     35  Br  UNL A   1      34.362  29.965  27.287  1.00  0.00    -0.051 Br
ENDBRANCH  26  29
ENDBRANCH  15  25
ENDBRANCH   9  10
ENDBRANCH   8   9
ENDBRANCH   6   8
ENDBRANCH   5   6
ENDBRANCH   4   5
ENDBRANCH   3   4
ENDBRANCH   2   3
ENDBRANCH   1   2
BRANCH   1  36
ATOM     36  C   UNL A   1      43.223  23.952  28.402  1.00  0.00     0.188 C 
BRANCH  36  37
ATOM     37  O   UNL A   1      43.141  22.610  27.937  1.00  0.00    -0.376 OA
BRANCH  37  38
ATOM     38  C   UNL A   1      43.269  22.363  26.556  1.00  0.00     0.202 C 
BRANCH  38  39
ATOM     39  C   UNL A   1      44.474  23.059  25.909  1.00  0.00     0.261 C 
BRANCH  39  40
ATOM     40  O   UNL A   1      44.191  24.330  25.287  1.00  0.00    -0.460 OA
BRANCH  40  41
ATOM     41  C   UNL A   1      45.243  25.178  25.120  1.00  0.00     0.338 C 
ATOM     42  O   UNL A   1      46.253  24.969  24.482  1.00  0.00    -0.246 OA
BRANCH  41  43
ATOM     43  C   UNL A   1      44.922  26.514  25.715  1.00  0.00     0.060 A 
ATOM     44  C   UNL A   1      45.979  27.353  26.106  1.00  0.00     0.016 A 
ATOM     45  C   UNL A   1      43.603  26.936  25.910  1.00  0.00     0.016 A 
ATOM     46  C   UNL A   1      45.728  28.558  26.771  1.00  0.00     0.010 A 
ATOM     47  C   UNL A   1      43.350  28.132  26.598  1.00  0.00     0.010 A 
ATOM     48  C   UNL A   1      44.414  28.910  27.096  1.00  0.00    -0.014 A 
BRANCH  48  49
ATOM     49  C   UNL A   1      44.177  29.851  28.228  1.00  0.00     0.031 A 
ATOM     50  C   UNL A   1      44.016  29.246  29.603  1.00  0.00     0.074 A 
ATOM     51  C   UNL A   1      44.149  31.188  28.080  1.00  0.00     0.049 A 
ATOM     52  N   UNL A   1      43.770  29.823  30.752  1.00  0.00    -0.248 NA
ATOM     53  C   UNL A   1      44.143  27.781  29.686  1.00  0.00     0.031 C 
ATOM     54  C   UNL A   1      44.346  31.910  26.828  1.00  0.00     0.029 A 
ATOM     55  N   UNL A   1      43.940  32.178  29.012  1.00  0.00    -0.354 N 
ATOM     56  C   UNL A   1      43.697  28.791  31.682  1.00  0.00     0.074 A 
ATOM     57  C   UNL A   1      43.883  27.554  30.962  1.00  0.00     0.031 C 
ATOM     58  C   UNL A   1      44.240  33.231  27.067  1.00  0.00     0.029 A 
ATOM     59  C   UNL A   1      43.942  33.445  28.483  1.00  0.00     0.049 A 
ATOM     60  H   UNL A   1      43.800  31.995  29.969  1.00  0.00     0.167 HD
ATOM     61  C   UNL A   1      43.508  28.863  33.021  1.00  0.00     0.037 A 
ATOM     62  C   UNL A   1      43.718  34.636  29.077  1.00  0.00     0.037 A 
ATOM     63  C   UNL A   1      43.334  30.093  33.745  1.00  0.00     0.049 A 
ATOM     64  C   UNL A   1      43.440  34.688  30.562  1.00  0.00     0.074 A 
ATOM     65  C   UNL A   1      43.153  30.274  35.105  1.00  0.00     0.029 A 
ATOM     66  N   UNL A   1      43.314  31.352  33.167  1.00  0.00    -0.354 N 
ATOM     67  N   UNL A   1      43.395  33.712  31.436  1.00  0.00    -0.248 NA
ATOM     68  C   UNL A   1      43.195  36.017  31.143  1.00  0.00     0.031 C 
ATOM     69  C   UNL A   1      42.958  31.639  35.340  1.00  0.00     0.029 A 
ATOM     70  C   UNL A   1      43.097  32.315  34.139  1.00  0.00     0.049 A 
ATOM     71  H   UNL A   1      43.436  31.535  32.207  1.00  0.00     0.167 HD
ATOM     72  C   UNL A   1      43.168  34.310  32.672  1.00  0.00     0.074 A 
ATOM     73  C   UNL A   1      43.090  35.736  32.433  1.00  0.00     0.031 C 
ATOM     74  C   UNL A   1      43.043  33.734  33.893  1.00  0.00     0.037 A 
BRANCH  61  75
ATOM     75  C   UNL A   1      43.439  27.568  33.781  1.00  0.00     0.064 A 
ATOM     76  C   UNL A   1      42.217  27.000  34.175  1.00  0.00     0.173 A 
ATOM     77  C   UNL A   1      44.617  26.881  34.109  1.00  0.00     0.173 A 
ATOM     78  F   UNL A   1      41.061  27.625  33.904  1.00  0.00    -0.203 F 
ATOM     79  C   UNL A   1      42.181  25.810  34.899  1.00  0.00     0.198 A 
ATOM     80  C   UNL A   1      44.575  25.673  34.799  1.00  0.00     0.198 A 
ATOM     81  F   UNL A   1      45.811  27.378  33.755  1.00  0.00    -0.203 F 
ATOM     82  F   UNL A   1      41.007  25.320  35.319  1.00  0.00    -0.200 F 
ATOM     83  C   UNL A   1      43.358  25.144  35.203  1.00  0.00     0.200 A 
ATOM     84  F   UNL A   1      45.713  25.024  35.079  1.00  0.00    -0.200 F 
ATOM     85  F   UNL A   1      43.322  23.996  35.893  1.00  0.00    -0.200 F 
ENDBRANCH  61  75
BRANCH  62  86
ATOM     86  C   UNL A   1      43.747  35.893  28.277  1.00  0.00     0.064 A 
ATOM     87  C   UNL A   1      44.947  36.588  28.062  1.00  0.00     0.173 A 
ATOM     88  C   UNL A   1      42.573  36.451  27.752  1.00  0.00     0.173 A 
ATOM     89  F   UNL A   1      46.096  36.114  28.568  1.00  0.00    -0.203 F 
ATOM     90  C   UNL A   1      44.968  37.802  27.376  1.00  0.00     0.198 A 
ATOM     91  C   UNL A   1      42.599  37.648  27.038  1.00  0.00     0.198 A 
ATOM     92  F   UNL A   1      41.396  35.834  27.932  1.00  0.00    -0.203 F 
ATOM     93  F   UNL A   1      46.120  38.472  27.238  1.00  0.00    -0.200 F 
ATOM     94  C   UNL A   1      43.793  38.328  26.859  1.00  0.00     0.200 A 
ATOM     95  F   UNL A   1      41.463  38.147  26.528  1.00  0.00    -0.200 F 
ATOM     96  F   UNL A   1      43.813  39.493  26.199  1.00  0.00    -0.200 F 
ENDBRANCH  62  86
BRANCH  74  97
ATOM     97  C   UNL A   1      42.886  34.643  35.081  1.00  0.00     0.064 A 
ATOM     98  C   UNL A   1      43.982  35.094  35.832  1.00  0.00     0.173 A 
ATOM     99  C   UNL A   1      41.609  35.093  35.458  1.00  0.00     0.173 A 
ATOM    100  F   UNL A   1      45.224  34.690  35.522  1.00  0.00    -0.203 F 
ATOM    101  C   UNL A   1      43.803  35.921  36.938  1.00  0.00     0.198 A 
ATOM    102  C   UNL A   1      41.438  35.952  36.540  1.00  0.00     0.198 A 
ATOM    103  F   UNL A   1      40.525  34.706  34.769  1.00  0.00    -0.203 F 
ATOM    104  F   UNL A   1      44.859  36.283  37.679  1.00  0.00    -0.200 F 
ATOM    105  C   UNL A   1      42.533  36.355  37.288  1.00  0.00     0.200 A 
ATOM    106  F   UNL A   1      40.211  36.387  36.861  1.00  0.00    -0.200 F 
ATOM    107  F   UNL A   1      42.364  37.153  38.349  1.00  0.00    -0.200 F 
ENDBRANCH  74  97
ENDBRANCH  48  49
ENDBRANCH  41  43
ENDBRANCH  40  41
ENDBRANCH  39  40
ENDBRANCH  38  39
ENDBRANCH  37  38
ENDBRANCH  36  37
ENDBRANCH   1  36
TORSDOF 22
ENDMDL
MODEL 3
REMARK VINA RESULT:     -10.9     10.329     18.936
REMARK SMILES O=C(COc1ccc(NC(=O)c2ccc(Br)cc2)cc1-c1nc2ccccc2o1)OCCOCCOCCOC(=O)c1ccc(-c2c3nc(c(-c4c(F)c(F)c(F)c(F)c4F)c4ccc([nH]4)c(-c4c(F)c(F)c(F)c(F)c4F)c4nc(c(-c5c(F)c(F)c(F)c(F)c5F)c5ccc2[nH]5)C=C4)C=C3)cc1
REMARK SMILES IDX 34 1 33 2 32 3 31 4 30 5 2 6 1 7 3 8 4 9 5 10 6 11 20 12
REMARK SMILES IDX 7 13 19 14 8 15 21 16 22 17 29 18 23 19 28 20 24 21 27 22
REMARK SMILES IDX 25 23 26 24 9 25 10 26 11 28 12 29 13 30 18 31 14 32 17 33
REMARK SMILES IDX 15 34 16 35 35 36 36 37 37 38 38 39 39 40 40 41 41 42 42 43
REMARK SMILES IDX 43 44 104 45 44 46 103 47 45 48 46 49 47 50 97 51 48 52
REMARK SMILES IDX 102 53 96 54 98 55 49 56 101 57 95 58 94 59 50 61 82 62
REMARK SMILES IDX 62 63 81 64 63 65 66 66 80 67 99 68 64 69 65 70 79 72 100 73
REMARK SMILES IDX 67 74 51 75 52 76 60 77 53 78 54 79 58 80 61 81 55 82 56 83
REMARK SMILES IDX 59 84 57 85 83 86 84 87 92 88 85 89 86 90 90 91 93 92 87 93
REMARK SMILES IDX 88 94 91 95 89 96 68 97 69 98 77 99 70 100 71 101 75 102
REMARK SMILES IDX 78 103 72 104 73 105 76 106 74 107
REMARK H PARENT 9 27 98 60 66 71
REMARK Flexibility Score: inf
ROOT
ATOM      1  C   UNL A   1      35.593  32.846  27.790  1.00  0.00     0.188 C 
ENDROOT
BRANCH   1   2
ATOM      2  O   UNL A   1      35.712  31.440  27.597  1.00  0.00    -0.376 OA
BRANCH   2   3
ATOM      3  C   UNL A   1      34.812  30.632  28.339  1.00  0.00     0.202 C 
BRANCH   3   4
ATOM      4  C   UNL A   1      34.335  29.435  27.540  1.00  0.00     0.261 C 
BRANCH   4   5
ATOM      5  O   UNL A   1      32.884  29.393  27.385  1.00  0.00    -0.461 OA
BRANCH   5   6
ATOM      6  C   UNL A   1      32.023  28.356  27.311  1.00  0.00     0.344 C 
ATOM      7  O   UNL A   1      31.361  28.007  28.287  1.00  0.00    -0.248 OA
BRANCH   6   8
ATOM      8  C   UNL A   1      31.942  27.636  26.008  1.00  0.00     0.352 C 
BRANCH   8   9
ATOM      9  O   UNL A   1      32.322  28.531  24.970  1.00  0.00    -0.481 OA
BRANCH   9  10
ATOM     10  C   UNL A   1      32.381  27.893  23.768  1.00  0.00     0.133 A 
ATOM     11  C   UNL A   1      33.600  27.258  23.620  1.00  0.00     0.049 A 
ATOM     12  C   UNL A   1      31.354  27.788  22.803  1.00  0.00     0.081 A 
ATOM     13  C   UNL A   1      33.739  26.330  22.622  1.00  0.00     0.030 A 
ATOM     14  C   UNL A   1      31.471  26.732  21.891  1.00  0.00     0.043 A 
ATOM     15  C   UNL A   1      32.631  25.932  21.880  1.00  0.00     0.042 A 
BRANCH  12  16
ATOM     16  C   UNL A   1      30.285  28.796  22.674  1.00  0.00     0.231 A 
ATOM     17  N   UNL A   1      29.604  29.112  21.584  1.00  0.00    -0.209 NA
ATOM     18  O   UNL A   1      30.058  29.640  23.742  1.00  0.00    -0.436 OA
ATOM     19  C   UNL A   1      29.022  30.325  21.886  1.00  0.00     0.110 A 
ATOM     20  C   UNL A   1      29.292  30.656  23.207  1.00  0.00     0.155 A 
ATOM     21  C   UNL A   1      28.381  31.266  21.061  1.00  0.00     0.032 A 
ATOM     22  C   UNL A   1      28.946  31.876  23.788  1.00  0.00     0.049 A 
ATOM     23  C   UNL A   1      28.081  32.529  21.594  1.00  0.00     0.003 A 
ATOM     24  C   UNL A   1      28.352  32.823  22.934  1.00  0.00     0.004 A 
ENDBRANCH  12  16
BRANCH  15  25
ATOM     25  N   UNL A   1      32.649  24.746  21.129  1.00  0.00    -0.322 N 
ATOM     26  C   UNL A   1      32.953  23.449  21.516  1.00  0.00     0.255 C 
ATOM     27  H   UNL A   1      32.410  24.850  20.179  1.00  0.00     0.170 HD
ATOM     28  O   UNL A   1      33.086  22.569  20.668  1.00  0.00    -0.269 OA
BRANCH  26  29
ATOM     29  C   UNL A   1      33.094  23.068  22.947  1.00  0.00     0.040 A 
ATOM     30  C   UNL A   1      34.377  23.069  23.512  1.00  0.00     0.015 A 
ATOM     31  C   UNL A   1      31.975  22.787  23.748  1.00  0.00     0.015 A 
ATOM     32  C   UNL A   1      34.535  22.856  24.885  1.00  0.00     0.016 A 
ATOM     33  C   UNL A   1      32.138  22.577  25.123  1.00  0.00     0.016 A 
ATOM     34  C   UNL A   1      33.415  22.624  25.685  1.00  0.00     0.018 A 
ATOM     35  Br  UNL A   1      33.629  22.394  27.550  1.00  0.00    -0.051 Br
ENDBRANCH  26  29
ENDBRANCH  15  25
ENDBRANCH   9  10
ENDBRANCH   8   9
ENDBRANCH   6   8
ENDBRANCH   5   6
ENDBRANCH   4   5
ENDBRANCH   3   4
ENDBRANCH   2   3
ENDBRANCH   1   2
BRANCH   1  36
ATOM     36  C   UNL A   1      36.667  33.506  28.709  1.00  0.00     0.188 C 
BRANCH  36  37
ATOM     37  O   UNL A   1      36.323  34.131  29.940  1.00  0.00    -0.376 OA
BRANCH  37  38
ATOM     38  C   UNL A   1      34.989  34.058  30.386  1.00  0.00     0.202 C 
BRANCH  38  39
ATOM     39  C   UNL A   1      34.761  33.030  31.503  1.00  0.00     0.261 C 
BRANCH  39  40
ATOM     40  O   UNL A   1      34.737  33.570  32.841  1.00  0.00    -0.460 OA
BRANCH  40  41
ATOM     41  C   UNL A   1      35.791  34.350  33.206  1.00  0.00     0.338 C 
ATOM     42  O   UNL A   1      35.781  35.549  33.388  1.00  0.00    -0.246 OA
BRANCH  41  43
ATOM     43  C   UNL A   1      36.977  33.491  33.522  1.00  0.00     0.060 A 
ATOM     44  C   UNL A   1      36.796  32.359  34.335  1.00  0.00     0.016 A 
ATOM     45  C   UNL A   1      38.256  33.798  33.048  1.00  0.00     0.016 A 
ATOM     46  C   UNL A   1      37.890  31.595  34.751  1.00  0.00     0.010 A 
ATOM     47  C   UNL A   1      39.358  33.047  33.485  1.00  0.00     0.010 A 
ATOM     48  C   UNL A   1      39.186  31.988  34.397  1.00  0.00    -0.014 A 
BRANCH  48  49
ATOM     49  C   UNL A   1      40.331  31.542  35.240  1.00  0.00     0.031 A 
ATOM     50  C   UNL A   1      40.730  32.440  36.388  1.00  0.00     0.074 A 
ATOM     51  C   UNL A   1      40.977  30.377  35.050  1.00  0.00     0.049 A 
ATOM     52  N   UNL A   1      41.702  32.316  37.255  1.00  0.00    -0.248 NA
ATOM     53  C   UNL A   1      39.918  33.655  36.574  1.00  0.00     0.031 C 
ATOM     54  C   UNL A   1      40.665  29.389  34.023  1.00  0.00     0.029 A 
ATOM     55  N   UNL A   1      42.042  29.833  35.730  1.00  0.00    -0.354 N 
ATOM     56  C   UNL A   1      41.625  33.440  38.071  1.00  0.00     0.074 A 
ATOM     57  C   UNL A   1      40.541  34.254  37.574  1.00  0.00     0.031 C 
ATOM     58  C   UNL A   1      41.526  28.360  34.135  1.00  0.00     0.029 A 
ATOM     59  C   UNL A   1      42.465  28.629  35.223  1.00  0.00     0.049 A 
ATOM     60  H   UNL A   1      42.462  30.267  36.507  1.00  0.00     0.167 HD
ATOM     61  C   UNL A   1      42.377  33.763  39.149  1.00  0.00     0.037 A 
ATOM     62  C   UNL A   1      43.500  27.845  35.593  1.00  0.00     0.037 A 
ATOM     63  C   UNL A   1      43.450  32.951  39.656  1.00  0.00     0.049 A 
ATOM     64  C   UNL A   1      44.370  28.259  36.758  1.00  0.00     0.074 A 
ATOM     65  C   UNL A   1      44.262  33.182  40.753  1.00  0.00     0.029 A 
ATOM     66  N   UNL A   1      43.865  31.753  39.096  1.00  0.00    -0.354 N 
ATOM     67  N   UNL A   1      44.276  29.310  37.536  1.00  0.00    -0.248 NA
ATOM     68  C   UNL A   1      45.485  27.364  37.101  1.00  0.00     0.031 C 
ATOM     69  C   UNL A   1      45.209  32.156  40.816  1.00  0.00     0.029 A 
ATOM     70  C   UNL A   1      44.939  31.245  39.808  1.00  0.00     0.049 A 
ATOM     71  H   UNL A   1      43.456  31.327  38.308  1.00  0.00     0.167 HD
ATOM     72  C   UNL A   1      45.283  29.177  38.487  1.00  0.00     0.074 A 
ATOM     73  C   UNL A   1      45.972  27.940  38.191  1.00  0.00     0.031 C 
ATOM     74  C   UNL A   1      45.603  30.000  39.517  1.00  0.00     0.037 A 
BRANCH  61  75
ATOM     75  C   UNL A   1      42.088  35.073  39.827  1.00  0.00     0.064 A 
ATOM     76  C   UNL A   1      42.682  36.275  39.410  1.00  0.00     0.173 A 
ATOM     77  C   UNL A   1      41.193  35.125  40.906  1.00  0.00     0.173 A 
ATOM     78  F   UNL A   1      43.561  36.279  38.396  1.00  0.00    -0.203 F 
ATOM     79  C   UNL A   1      42.415  37.473  40.070  1.00  0.00     0.198 A 
ATOM     80  C   UNL A   1      40.900  36.330  41.538  1.00  0.00     0.198 A 
ATOM     81  F   UNL A   1      40.596  34.007  41.344  1.00  0.00    -0.203 F 
ATOM     82  F   UNL A   1      43.042  38.596  39.694  1.00  0.00    -0.200 F 
ATOM     83  C   UNL A   1      41.519  37.501  41.127  1.00  0.00     0.200 A 
ATOM     84  F   UNL A   1      40.022  36.357  42.550  1.00  0.00    -0.200 F 
ATOM     85  F   UNL A   1      41.258  38.654  41.757  1.00  0.00    -0.200 F 
ENDBRANCH  61  75
BRANCH  62  86
ATOM     86  C   UNL A   1      43.781  26.577  34.863  1.00  0.00     0.064 A 
ATOM     87  C   UNL A   1      44.656  26.551  33.765  1.00  0.00     0.173 A 
ATOM     88  C   UNL A   1      43.149  25.377  35.215  1.00  0.00     0.173 A 
ATOM     89  F   UNL A   1      45.264  27.679  33.367  1.00  0.00    -0.203 F 
ATOM     90  C   UNL A   1      44.866  25.382  33.035  1.00  0.00     0.198 A 
ATOM     91  C   UNL A   1      43.385  24.201  34.505  1.00  0.00     0.198 A 
ATOM     92  F   UNL A   1      42.299  25.343  36.252  1.00  0.00    -0.203 F 
ATOM     93  F   UNL A   1      45.659  25.402  31.956  1.00  0.00    -0.200 F 
ATOM     94  C   UNL A   1      44.234  24.206  33.410  1.00  0.00     0.200 A 
ATOM     95  F   UNL A   1      42.782  23.062  34.879  1.00  0.00    -0.200 F 
ATOM     96  F   UNL A   1      44.437  23.082  32.709  1.00  0.00    -0.200 F 
ENDBRANCH  62  86
BRANCH  74  97
ATOM     97  C   UNL A   1      46.698  29.559  40.449  1.00  0.00     0.064 A 
ATOM     98  C   UNL A   1      48.042  29.906  40.246  1.00  0.00     0.173 A 
ATOM     99  C   UNL A   1      46.387  28.793  41.586  1.00  0.00     0.173 A 
ATOM    100  F   UNL A   1      48.398  30.630  39.174  1.00  0.00    -0.203 F 
ATOM    101  C   UNL A   1      49.036  29.467  41.118  1.00  0.00     0.198 A 
ATOM    102  C   UNL A   1      47.378  28.391  42.477  1.00  0.00     0.198 A 
ATOM    103  F   UNL A   1      45.117  28.442  41.839  1.00  0.00    -0.203 F 
ATOM    104  F   UNL A   1      50.321  29.755  40.865  1.00  0.00    -0.200 F 
ATOM    105  C   UNL A   1      48.704  28.716  42.235  1.00  0.00     0.200 A 
ATOM    106  F   UNL A   1      47.051  27.683  43.567  1.00  0.00    -0.200 F 
ATOM    107  F   UNL A   1      49.661  28.298  43.073  1.00  0.00    -0.200 F 
ENDBRANCH  74  97
ENDBRANCH  48  49
ENDBRANCH  41  43
ENDBRANCH  40  41
ENDBRANCH  39  40
ENDBRANCH  38  39
ENDBRANCH  37  38
ENDBRANCH  36  37
ENDBRANCH   1  36
TORSDOF 22
ENDMDL
