MODEL 1
REMARK VINA RESULT:      -9.9      0.000      0.000
REMARK SMILES COCCN(CC(=O)OCCOCCOCCOC(=O)c1ccc(-c2c3nc(c(-c4c(F)c(F)c(F)c(F)c4F)c4ccc([nH]4)c(-c4c(F)c(F)c(F)c(F)c4F)c4nc(c(-c5c(F)c(F)c(F)c(F)c5F)c5ccc2[nH]5)C=C4)C=C3)cc1)C(=O)c1cccc(N)c1
REMARK SMILES IDX 13 1 12 2 11 3 10 4 9 5 7 6 8 7 6 8 5 9 4 10 3 11 2 12 1 13
REMARK SMILES IDX 84 14 85 15 86 16 87 17 92 18 88 19 90 20 89 21 91 22 14 25
REMARK SMILES IDX 15 26 16 27 17 28 18 29 19 30 20 31 21 32 22 33 83 34 23 35
REMARK SMILES IDX 82 36 24 37 25 38 26 39 76 40 27 41 81 42 75 43 77 44 28 45
REMARK SMILES IDX 80 46 74 47 73 48 29 50 61 51 41 52 60 53 42 54 45 55 59 56
REMARK SMILES IDX 78 57 43 58 44 59 58 61 79 62 46 63 30 64 31 65 39 66 32 67
REMARK SMILES IDX 33 68 37 69 40 70 34 71 35 72 38 73 36 74 62 75 63 76 71 77
REMARK SMILES IDX 64 78 65 79 69 80 72 81 66 82 67 83 70 84 68 85 47 86 48 87
REMARK SMILES IDX 56 88 49 89 50 90 54 91 57 92 51 93 52 94 55 95 53 96
REMARK H PARENT 91 23 91 24 77 49 45 60
REMARK Flexibility Score: inf
ROOT
ATOM      1  C   UNL A   1      41.303  21.025  27.508  1.00  0.00     0.188 C 
ENDROOT
BRANCH   1   2
ATOM      2  O   UNL A   1      39.981  21.428  27.218  1.00  0.00    -0.376 OA
BRANCH   2   3
ATOM      3  C   UNL A   1      39.861  22.747  26.701  1.00  0.00     0.202 C 
BRANCH   3   4
ATOM      4  C   UNL A   1      38.432  23.332  26.472  1.00  0.00     0.261 C 
BRANCH   4   5
ATOM      5  O   UNL A   1      37.829  23.219  25.131  1.00  0.00    -0.462 OA
BRANCH   5   6
ATOM      6  C   UNL A   1      36.814  22.332  24.920  1.00  0.00     0.325 C 
ATOM      7  O   UNL A   1      36.834  21.193  25.385  1.00  0.00    -0.250 OA
BRANCH   6   8
ATOM      8  C   UNL A   1      35.554  22.810  24.058  1.00  0.00     0.242 C 
BRANCH   8   9
ATOM      9  N   UNL A   1      34.095  22.879  24.420  1.00  0.00    -0.325 N 
BRANCH   9  10
ATOM     10  C   UNL A   1      33.471  24.216  24.293  1.00  0.00     0.149 C 
BRANCH  10  11
ATOM     11  C   UNL A   1      33.494  24.803  22.849  1.00  0.00     0.181 C 
BRANCH  11  12
ATOM     12  O   UNL A   1      33.051  26.160  22.772  1.00  0.00    -0.383 OA
ATOM     13  C   UNL A   1      31.674  26.327  22.463  1.00  0.00     0.194 C 
ENDBRANCH  11  12
ENDBRANCH  10  11
ENDBRANCH   9  10
BRANCH   9  14
ATOM     14  C   UNL A   1      33.139  21.860  24.659  1.00  0.00     0.254 C 
ATOM     15  O   UNL A   1      32.137  22.062  25.345  1.00  0.00    -0.269 OA
BRANCH  14  16
ATOM     16  C   UNL A   1      33.182  20.490  24.098  1.00  0.00     0.042 A 
ATOM     17  C   UNL A   1      32.224  20.110  22.625  1.00  0.00     0.014 A 
ATOM     18  C   UNL A   1      34.149  19.267  24.926  1.00  0.00     0.039 A 
ATOM     19  C   UNL A   1      32.270  18.396  22.008  1.00  0.00     0.003 A 
ATOM     20  C   UNL A   1      34.240  17.605  24.494  1.00  0.00     0.032 A 
ATOM     21  C   UNL A   1      33.372  17.084  23.062  1.00  0.00     0.025 A 
BRANCH  20  22
ATOM     22  N   UNL A   1      34.899  16.670  25.271  1.00  0.00    -0.399 N 
ATOM     23  H   UNL A   1      34.959  16.795  26.246  1.00  0.00     0.156 HD
ATOM     24  H   UNL A   1      35.308  15.881  24.850  1.00  0.00     0.156 HD
ENDBRANCH  20  22
ENDBRANCH  14  16
ENDBRANCH   9  14
ENDBRANCH   8   9
ENDBRANCH   6   8
ENDBRANCH   5   6
ENDBRANCH   4   5
ENDBRANCH   3   4
ENDBRANCH   2   3
ENDBRANCH   1   2
BRANCH   1  25
ATOM     25  C   UNL A   1      41.865  19.850  26.689  1.00  0.00     0.188 C 
BRANCH  25  26
ATOM     26  O   UNL A   1      42.401  20.252  25.468  1.00  0.00    -0.376 OA
BRANCH  26  27
ATOM     27  C   UNL A   1      43.735  20.696  25.488  1.00  0.00     0.202 C 
BRANCH  27  28
ATOM     28  C   UNL A   1      44.263  21.730  24.462  1.00  0.00     0.261 C 
BRANCH  28  29
ATOM     29  O   UNL A   1      43.713  23.074  24.446  1.00  0.00    -0.460 OA
BRANCH  29  30
ATOM     30  C   UNL A   1      44.596  24.090  24.667  1.00  0.00     0.338 C 
ATOM     31  O   UNL A   1      45.773  24.042  24.352  1.00  0.00    -0.246 OA
BRANCH  30  32
ATOM     32  C   UNL A   1      43.938  25.207  25.553  1.00  0.00     0.060 A 
ATOM     33  C   UNL A   1      44.057  27.180  25.961  1.00  0.00     0.016 A 
ATOM     34  C   UNL A   1      43.287  24.147  26.881  1.00  0.00     0.016 A 
ATOM     35  C   UNL A   1      43.565  27.799  27.532  1.00  0.00     0.010 A 
ATOM     36  C   UNL A   1      42.797  24.907  28.398  1.00  0.00     0.010 A 
ATOM     37  C   UNL A   1      42.909  26.664  28.669  1.00  0.00    -0.014 A 
BRANCH  37  38
ATOM     38  C   UNL A   1      42.267  27.353  29.789  1.00  0.00     0.031 A 
ATOM     39  C   UNL A   1      43.053  27.460  31.030  1.00  0.00     0.074 A 
ATOM     40  C   UNL A   1      41.128  28.041  29.546  1.00  0.00     0.049 A 
ATOM     41  N   UNL A   1      42.798  28.154  32.096  1.00  0.00    -0.248 NA
ATOM     42  C   UNL A   1      44.315  26.705  31.071  1.00  0.00     0.031 C 
ATOM     43  C   UNL A   1      40.363  28.029  28.287  1.00  0.00     0.029 A 
ATOM     44  N   UNL A   1      40.450  28.956  30.307  1.00  0.00    -0.354 N 
ATOM     45  C   UNL A   1      43.859  27.906  32.944  1.00  0.00     0.074 A 
ATOM     46  C   UNL A   1      44.755  26.990  32.282  1.00  0.00     0.031 C 
ATOM     47  C   UNL A   1      39.402  28.961  28.327  1.00  0.00     0.029 A 
ATOM     48  C   UNL A   1      39.389  29.546  29.653  1.00  0.00     0.049 A 
ATOM     49  H   UNL A   1      40.697  29.172  31.234  1.00  0.00     0.167 HD
ATOM     50  C   UNL A   1      44.040  28.411  34.179  1.00  0.00     0.037 A 
ATOM     51  C   UNL A   1      38.485  30.435  30.103  1.00  0.00     0.037 A 
ATOM     52  C   UNL A   1      43.094  29.300  34.788  1.00  0.00     0.049 A 
ATOM     53  C   UNL A   1      38.658  30.882  31.526  1.00  0.00     0.074 A 
ATOM     54  C   UNL A   1      43.104  29.825  36.061  1.00  0.00     0.029 A 
ATOM     55  N   UNL A   1      41.949  29.776  34.155  1.00  0.00    -0.354 N 
ATOM     56  N   UNL A   1      39.632  30.602  32.360  1.00  0.00    -0.248 NA
ATOM     57  C   UNL A   1      37.610  31.738  32.084  1.00  0.00     0.031 C 
ATOM     58  C   UNL A   1      41.922  30.550  36.228  1.00  0.00     0.029 A 
ATOM     59  C   UNL A   1      41.222  30.563  35.028  1.00  0.00     0.049 A 
ATOM     60  H   UNL A   1      41.694  29.581  33.225  1.00  0.00     0.167 HD
ATOM     61  C   UNL A   1      39.326  31.253  33.541  1.00  0.00     0.074 A 
ATOM     62  C   UNL A   1      38.087  31.971  33.298  1.00  0.00     0.031 C 
ATOM     63  C   UNL A   1      39.994  31.256  34.721  1.00  0.00     0.037 A 
BRANCH  50  64
ATOM     64  C   UNL A   1      45.215  27.895  34.944  1.00  0.00     0.064 A 
ATOM     65  C   UNL A   1      45.147  26.749  35.751  1.00  0.00     0.173 A 
ATOM     66  C   UNL A   1      46.414  28.622  34.932  1.00  0.00     0.173 A 
ATOM     67  F   UNL A   1      44.002  26.055  35.845  1.00  0.00    -0.203 F 
ATOM     68  C   UNL A   1      46.230  26.365  36.536  1.00  0.00     0.198 A 
ATOM     69  C   UNL A   1      47.507  28.212  35.685  1.00  0.00     0.198 A 
ATOM     70  F   UNL A   1      46.515  29.748  34.209  1.00  0.00    -0.203 F 
ATOM     71  F   UNL A   1      46.117  25.316  37.363  1.00  0.00    -0.200 F 
ATOM     72  C   UNL A   1      47.412  27.090  36.493  1.00  0.00     0.200 A 
ATOM     73  F   UNL A   1      48.645  28.918  35.647  1.00  0.00    -0.200 F 
ATOM     74  F   UNL A   1      48.454  26.719  37.250  1.00  0.00    -0.200 F 
ENDBRANCH  50  64
BRANCH  51  75
ATOM     75  C   UNL A   1      37.327  30.866  29.264  1.00  0.00     0.064 A 
ATOM     76  C   UNL A   1      37.219  32.168  28.756  1.00  0.00     0.173 A 
ATOM     77  C   UNL A   1      36.267  29.982  28.985  1.00  0.00     0.173 A 
ATOM     78  F   UNL A   1      38.187  33.065  28.998  1.00  0.00    -0.203 F 
ATOM     79  C   UNL A   1      36.094  32.576  28.034  1.00  0.00     0.198 A 
ATOM     80  C   UNL A   1      35.164  30.378  28.230  1.00  0.00     0.198 A 
ATOM     81  F   UNL A   1      36.300  28.724  29.446  1.00  0.00    -0.203 F 
ATOM     82  F   UNL A   1      35.991  33.846  27.618  1.00  0.00    -0.200 F 
ATOM     83  C   UNL A   1      35.070  31.680  27.768  1.00  0.00     0.200 A 
ATOM     84  F   UNL A   1      34.189  29.499  27.962  1.00  0.00    -0.200 F 
ATOM     85  F   UNL A   1      33.990  32.072  27.079  1.00  0.00    -0.200 F 
ENDBRANCH  51  75
BRANCH  63  86
ATOM     86  C   UNL A   1      39.417  32.107  35.809  1.00  0.00     0.064 A 
ATOM     87  C   UNL A   1      38.495  31.603  36.735  1.00  0.00     0.173 A 
ATOM     88  C   UNL A   1      39.841  33.438  35.949  1.00  0.00     0.173 A 
ATOM     89  F   UNL A   1      38.053  30.339  36.631  1.00  0.00    -0.203 F 
ATOM     90  C   UNL A   1      37.987  32.413  37.743  1.00  0.00     0.198 A 
ATOM     91  C   UNL A   1      39.370  34.228  36.988  1.00  0.00     0.198 A 
ATOM     92  F   UNL A   1      40.732  33.959  35.091  1.00  0.00    -0.203 F 
ATOM     93  F   UNL A   1      37.055  31.935  38.578  1.00  0.00    -0.200 F 
ATOM     94  C   UNL A   1      38.435  33.720  37.876  1.00  0.00     0.200 A 
ATOM     95  F   UNL A   1      39.826  35.480  37.131  1.00  0.00    -0.200 F 
ATOM     96  F   UNL A   1      37.957  34.495  38.858  1.00  0.00    -0.200 F 
ENDBRANCH  63  86
ENDBRANCH  37  38
ENDBRANCH  30  32
ENDBRANCH  29  30
ENDBRANCH  28  29
ENDBRANCH  27  28
ENDBRANCH  26  27
ENDBRANCH  25  26
ENDBRANCH   1  25
TORSDOF 24
ENDMDL
MODEL 2
REMARK VINA RESULT:      -9.2      4.192      9.816
REMARK SMILES COCCN(CC(=O)OCCOCCOCCOC(=O)c1ccc(-c2c3nc(c(-c4c(F)c(F)c(F)c(F)c4F)c4ccc([nH]4)c(-c4c(F)c(F)c(F)c(F)c4F)c4nc(c(-c5c(F)c(F)c(F)c(F)c5F)c5ccc2[nH]5)C=C4)C=C3)cc1)C(=O)c1cccc(N)c1
REMARK SMILES IDX 13 1 12 2 11 3 10 4 9 5 7 6 8 7 6 8 5 9 4 10 3 11 2 12 1 13
REMARK SMILES IDX 84 14 85 15 86 16 87 17 92 18 88 19 90 20 89 21 91 22 14 25
REMARK SMILES IDX 15 26 16 27 17 28 18 29 19 30 20 31 21 32 22 33 83 34 23 35
REMARK SMILES IDX 82 36 24 37 25 38 26 39 76 40 27 41 81 42 75 43 77 44 28 45
REMARK SMILES IDX 80 46 74 47 73 48 29 50 61 51 41 52 60 53 42 54 45 55 59 56
REMARK SMILES IDX 78 57 43 58 44 59 58 61 79 62 46 63 30 64 31 65 39 66 32 67
REMARK SMILES IDX 33 68 37 69 40 70 34 71 35 72 38 73 36 74 62 75 63 76 71 77
REMARK SMILES IDX 64 78 65 79 69 80 72 81 66 82 67 83 70 84 68 85 47 86 48 87
REMARK SMILES IDX 56 88 49 89 50 90 54 91 57 92 51 93 52 94 55 95 53 96
REMARK H PARENT 91 23 91 24 77 49 45 60
REMARK Flexibility Score: inf
ROOT
ATOM      1  C   UNL A   1      32.330  29.136  26.152  1.00  0.00     0.188 C 
ENDROOT
BRANCH   1   2
ATOM      2  O   UNL A   1      31.961  29.540  24.850  1.00  0.00    -0.376 OA
BRANCH   2   3
ATOM      3  C   UNL A   1      32.480  28.726  23.806  1.00  0.00     0.202 C 
BRANCH   3   4
ATOM      4  C   UNL A   1      31.728  28.697  22.438  1.00  0.00     0.261 C 
BRANCH   4   5
ATOM      5  O   UNL A   1      30.841  27.557  22.144  1.00  0.00    -0.462 OA
BRANCH   5   6
ATOM      6  C   UNL A   1      30.327  26.818  23.171  1.00  0.00     0.325 C 
ATOM      7  O   UNL A   1      29.431  27.245  23.898  1.00  0.00    -0.250 OA
BRANCH   6   8
ATOM      8  C   UNL A   1      30.901  25.344  23.408  1.00  0.00     0.242 C 
BRANCH   8   9
ATOM      9  N   UNL A   1      32.284  24.886  23.784  1.00  0.00    -0.325 N 
BRANCH   9  10
ATOM     10  C   UNL A   1      32.627  25.008  25.219  1.00  0.00     0.149 C 
BRANCH  10  11
ATOM     11  C   UNL A   1      31.411  25.308  26.148  1.00  0.00     0.181 C 
BRANCH  11  12
ATOM     12  O   UNL A   1      31.183  24.304  27.139  1.00  0.00    -0.383 OA
ATOM     13  C   UNL A   1      31.899  23.092  26.945  1.00  0.00     0.194 C 
ENDBRANCH  11  12
ENDBRANCH  10  11
ENDBRANCH   9  10
BRANCH   9  14
ATOM     14  C   UNL A   1      33.259  24.155  23.058  1.00  0.00     0.254 C 
ATOM     15  O   UNL A   1      33.544  24.437  21.894  1.00  0.00    -0.269 OA
BRANCH  14  16
ATOM     16  C   UNL A   1      34.072  23.038  23.592  1.00  0.00     0.042 A 
ATOM     17  C   UNL A   1      33.289  21.454  23.920  1.00  0.00     0.014 A 
ATOM     18  C   UNL A   1      35.783  23.322  23.924  1.00  0.00     0.039 A 
ATOM     19  C   UNL A   1      34.324  20.132  24.627  1.00  0.00     0.003 A 
ATOM     20  C   UNL A   1      36.862  22.192  24.640  1.00  0.00     0.032 A 
ATOM     21  C   UNL A   1      36.247  20.589  25.001  1.00  0.00     0.025 A 
BRANCH  20  22
ATOM     22  N   UNL A   1      38.152  22.526  25.008  1.00  0.00    -0.399 N 
ATOM     23  H   UNL A   1      38.684  21.905  25.557  1.00  0.00     0.156 HD
ATOM     24  H   UNL A   1      38.539  23.385  24.723  1.00  0.00     0.156 HD
ENDBRANCH  20  22
ENDBRANCH  14  16
ENDBRANCH   9  14
ENDBRANCH   8   9
ENDBRANCH   6   8
ENDBRANCH   5   6
ENDBRANCH   4   5
ENDBRANCH   3   4
ENDBRANCH   2   3
ENDBRANCH   1   2
BRANCH   1  25
ATOM     25  C   UNL A   1      33.668  28.391  26.294  1.00  0.00     0.188 C 
BRANCH  25  26
ATOM     26  O   UNL A   1      34.651  29.163  26.909  1.00  0.00    -0.376 OA
BRANCH  26  27
ATOM     27  C   UNL A   1      34.252  30.430  27.370  1.00  0.00     0.202 C 
BRANCH  27  28
ATOM     28  C   UNL A   1      35.159  31.283  28.292  1.00  0.00     0.261 C 
BRANCH  28  29
ATOM     29  O   UNL A   1      34.587  32.384  29.047  1.00  0.00    -0.460 OA
BRANCH  29  30
ATOM     30  C   UNL A   1      34.865  32.410  30.382  1.00  0.00     0.338 C 
ATOM     31  O   UNL A   1      34.057  32.743  31.233  1.00  0.00    -0.246 OA
BRANCH  30  32
ATOM     32  C   UNL A   1      36.395  32.162  30.629  1.00  0.00     0.060 A 
ATOM     33  C   UNL A   1      38.210  32.529  29.824  1.00  0.00     0.016 A 
ATOM     34  C   UNL A   1      36.262  30.678  31.673  1.00  0.00     0.016 A 
ATOM     35  C   UNL A   1      39.557  31.440  30.123  1.00  0.00     0.010 A 
ATOM     36  C   UNL A   1      37.706  29.692  31.919  1.00  0.00     0.010 A 
ATOM     37  C   UNL A   1      39.281  30.101  31.192  1.00  0.00    -0.014 A 
BRANCH  37  38
ATOM     38  C   UNL A   1      40.543  29.475  31.588  1.00  0.00     0.031 A 
ATOM     39  C   UNL A   1      41.064  28.427  30.693  1.00  0.00     0.074 A 
ATOM     40  C   UNL A   1      41.252  30.047  32.587  1.00  0.00     0.049 A 
ATOM     41  N   UNL A   1      42.222  27.843  30.715  1.00  0.00    -0.248 NA
ATOM     42  C   UNL A   1      40.173  27.996  29.604  1.00  0.00     0.031 C 
ATOM     43  C   UNL A   1      40.799  31.156  33.444  1.00  0.00     0.029 A 
ATOM     44  N   UNL A   1      42.541  29.846  33.005  1.00  0.00    -0.354 N 
ATOM     45  C   UNL A   1      42.194  26.959  29.654  1.00  0.00     0.074 A 
ATOM     46  C   UNL A   1      40.906  27.069  29.015  1.00  0.00     0.031 C 
ATOM     47  C   UNL A   1      41.815  31.598  34.197  1.00  0.00     0.029 A 
ATOM     48  C   UNL A   1      42.954  30.727  33.981  1.00  0.00     0.049 A 
ATOM     49  H   UNL A   1      43.119  29.137  32.641  1.00  0.00     0.167 HD
ATOM     50  C   UNL A   1      43.179  26.125  29.273  1.00  0.00     0.037 A 
ATOM     51  C   UNL A   1      44.119  30.789  34.652  1.00  0.00     0.037 A 
ATOM     52  C   UNL A   1      44.430  26.048  29.970  1.00  0.00     0.049 A 
ATOM     53  C   UNL A   1      45.147  29.763  34.273  1.00  0.00     0.074 A 
ATOM     54  C   UNL A   1      45.487  25.194  29.748  1.00  0.00     0.029 A 
ATOM     55  N   UNL A   1      44.774  26.858  31.050  1.00  0.00    -0.354 N 
ATOM     56  N   UNL A   1      45.104  28.877  33.305  1.00  0.00    -0.248 NA
ATOM     57  C   UNL A   1      46.367  29.717  35.081  1.00  0.00     0.031 C 
ATOM     58  C   UNL A   1      46.436  25.429  30.746  1.00  0.00     0.029 A 
ATOM     59  C   UNL A   1      46.017  26.498  31.530  1.00  0.00     0.049 A 
ATOM     60  H   UNL A   1      44.214  27.580  31.417  1.00  0.00     0.167 HD
ATOM     61  C   UNL A   1      46.291  28.172  33.375  1.00  0.00     0.074 A 
ATOM     62  C   UNL A   1      47.048  28.762  34.466  1.00  0.00     0.031 C 
ATOM     63  C   UNL A   1      46.720  27.130  32.621  1.00  0.00     0.037 A 
BRANCH  50  64
ATOM     64  C   UNL A   1      42.859  25.180  28.160  1.00  0.00     0.064 A 
ATOM     65  C   UNL A   1      42.442  23.860  28.387  1.00  0.00     0.173 A 
ATOM     66  C   UNL A   1      43.062  25.589  26.834  1.00  0.00     0.173 A 
ATOM     67  F   UNL A   1      42.294  23.403  29.640  1.00  0.00    -0.203 F 
ATOM     68  C   UNL A   1      42.262  22.977  27.327  1.00  0.00     0.198 A 
ATOM     69  C   UNL A   1      42.842  24.716  25.775  1.00  0.00     0.198 A 
ATOM     70  F   UNL A   1      43.501  26.828  26.568  1.00  0.00    -0.203 F 
ATOM     71  F   UNL A   1      41.944  21.698  27.569  1.00  0.00    -0.200 F 
ATOM     72  C   UNL A   1      42.451  23.409  26.022  1.00  0.00     0.200 A 
ATOM     73  F   UNL A   1      43.032  25.135  24.517  1.00  0.00    -0.200 F 
ATOM     74  F   UNL A   1      42.278  22.558  25.001  1.00  0.00    -0.200 F 
ENDBRANCH  50  64
BRANCH  51  75
ATOM     75  C   UNL A   1      44.327  31.756  35.770  1.00  0.00     0.064 A 
ATOM     76  C   UNL A   1      43.941  31.467  37.087  1.00  0.00     0.173 A 
ATOM     77  C   UNL A   1      44.885  33.026  35.534  1.00  0.00     0.173 A 
ATOM     78  F   UNL A   1      43.388  30.280  37.378  1.00  0.00    -0.203 F 
ATOM     79  C   UNL A   1      44.076  32.411  38.108  1.00  0.00     0.198 A 
ATOM     80  C   UNL A   1      45.058  33.952  36.561  1.00  0.00     0.198 A 
ATOM     81  F   UNL A   1      45.270  33.373  34.297  1.00  0.00    -0.203 F 
ATOM     82  F   UNL A   1      43.637  32.128  39.343  1.00  0.00    -0.200 F 
ATOM     83  C   UNL A   1      44.638  33.651  37.846  1.00  0.00     0.200 A 
ATOM     84  F   UNL A   1      45.620  35.141  36.301  1.00  0.00    -0.200 F 
ATOM     85  F   UNL A   1      44.764  34.557  38.825  1.00  0.00    -0.200 F 
ENDBRANCH  51  75
BRANCH  63  86
ATOM     86  C   UNL A   1      48.091  26.610  32.925  1.00  0.00     0.064 A 
ATOM     87  C   UNL A   1      49.242  27.186  32.373  1.00  0.00     0.173 A 
ATOM     88  C   UNL A   1      48.245  25.547  33.827  1.00  0.00     0.173 A 
ATOM     89  F   UNL A   1      49.139  28.197  31.495  1.00  0.00    -0.203 F 
ATOM     90  C   UNL A   1      50.502  26.690  32.685  1.00  0.00     0.198 A 
ATOM     91  C   UNL A   1      49.508  25.088  34.176  1.00  0.00     0.198 A 
ATOM     92  F   UNL A   1      47.170  24.973  34.389  1.00  0.00    -0.203 F 
ATOM     93  F   UNL A   1      51.587  27.207  32.095  1.00  0.00    -0.200 F 
ATOM     94  C   UNL A   1      50.634  25.651  33.595  1.00  0.00     0.200 A 
ATOM     95  F   UNL A   1      49.634  24.105  35.077  1.00  0.00    -0.200 F 
ATOM     96  F   UNL A   1      51.850  25.185  33.907  1.00  0.00    -0.200 F 
ENDBRANCH  63  86
ENDBRANCH  37  38
ENDBRANCH  30  32
ENDBRANCH  29  30
ENDBRANCH  28  29
ENDBRANCH  27  28
ENDBRANCH  26  27
ENDBRANCH  25  26
ENDBRANCH   1  25
TORSDOF 24
ENDMDL
MODEL 3
REMARK VINA RESULT:      -9.0      1.688      3.729
REMARK SMILES COCCN(CC(=O)OCCOCCOCCOC(=O)c1ccc(-c2c3nc(c(-c4c(F)c(F)c(F)c(F)c4F)c4ccc([nH]4)c(-c4c(F)c(F)c(F)c(F)c4F)c4nc(c(-c5c(F)c(F)c(F)c(F)c5F)c5ccc2[nH]5)C=C4)C=C3)cc1)C(=O)c1cccc(N)c1
REMARK SMILES IDX 13 1 12 2 11 3 10 4 9 5 7 6 8 7 6 8 5 9 4 10 3 11 2 12 1 13
REMARK SMILES IDX 84 14 85 15 86 16 87 17 92 18 88 19 90 20 89 21 91 22 14 25
REMARK SMILES IDX 15 26 16 27 17 28 18 29 19 30 20 31 21 32 22 33 83 34 23 35
REMARK SMILES IDX 82 36 24 37 25 38 26 39 76 40 27 41 81 42 75 43 77 44 28 45
REMARK SMILES IDX 80 46 74 47 73 48 29 50 61 51 41 52 60 53 42 54 45 55 59 56
REMARK SMILES IDX 78 57 43 58 44 59 58 61 79 62 46 63 30 64 31 65 39 66 32 67
REMARK SMILES IDX 33 68 37 69 40 70 34 71 35 72 38 73 36 74 62 75 63 76 71 77
REMARK SMILES IDX 64 78 65 79 69 80 72 81 66 82 67 83 70 84 68 85 47 86 48 87
REMARK SMILES IDX 56 88 49 89 50 90 54 91 57 92 51 93 52 94 55 95 53 96
REMARK H PARENT 91 23 91 24 77 49 45 60
REMARK Flexibility Score: inf
ROOT
ATOM      1  C   UNL A   1      40.343  22.712  27.072  1.00  0.00     0.188 C 
ENDROOT
BRANCH   1   2
ATOM      2  O   UNL A   1      39.769  23.572  26.110  1.00  0.00    -0.376 OA
BRANCH   2   3
ATOM      3  C   UNL A   1      38.528  24.150  26.494  1.00  0.00     0.202 C 
BRANCH   3   4
ATOM      4  C   UNL A   1      37.237  23.723  25.729  1.00  0.00     0.261 C 
BRANCH   4   5
ATOM      5  O   UNL A   1      35.964  24.388  26.064  1.00  0.00    -0.462 OA
BRANCH   5   6
ATOM      6  C   UNL A   1      34.801  23.941  25.506  1.00  0.00     0.325 C 
ATOM      7  O   UNL A   1      34.685  23.760  24.295  1.00  0.00    -0.250 OA
BRANCH   6   8
ATOM      8  C   UNL A   1      33.567  23.624  26.473  1.00  0.00     0.242 C 
BRANCH   8   9
ATOM      9  N   UNL A   1      32.105  23.947  26.325  1.00  0.00    -0.325 N 
BRANCH   9  10
ATOM     10  C   UNL A   1      31.177  22.818  26.568  1.00  0.00     0.149 C 
BRANCH  10  11
ATOM     11  C   UNL A   1      31.063  21.811  25.383  1.00  0.00     0.181 C 
BRANCH  11  12
ATOM     12  O   UNL A   1      32.178  20.924  25.272  1.00  0.00    -0.383 OA
ATOM     13  C   UNL A   1      32.828  20.930  24.009  1.00  0.00     0.194 C 
ENDBRANCH  11  12
ENDBRANCH  10  11
ENDBRANCH   9  10
BRANCH   9  14
ATOM     14  C   UNL A   1      31.426  25.185  26.203  1.00  0.00     0.254 C 
ATOM     15  O   UNL A   1      30.347  25.389  26.762  1.00  0.00    -0.269 OA
BRANCH  14  16
ATOM     16  C   UNL A   1      31.922  26.371  25.469  1.00  0.00     0.042 A 
ATOM     17  C   UNL A   1      33.207  27.390  26.203  1.00  0.00     0.014 A 
ATOM     18  C   UNL A   1      31.197  26.762  23.906  1.00  0.00     0.039 A 
ATOM     19  C   UNL A   1      33.743  28.868  25.281  1.00  0.00     0.003 A 
ATOM     20  C   UNL A   1      31.560  28.148  22.956  1.00  0.00     0.032 A 
ATOM     21  C   UNL A   1      32.813  29.231  23.534  1.00  0.00     0.025 A 
BRANCH  20  22
ATOM     22  N   UNL A   1      30.852  28.472  21.813  1.00  0.00    -0.399 N 
ATOM     23  H   UNL A   1      29.880  28.622  21.862  1.00  0.00     0.156 HD
ATOM     24  H   UNL A   1      31.319  28.552  20.951  1.00  0.00     0.156 HD
ENDBRANCH  20  22
ENDBRANCH  14  16
ENDBRANCH   9  14
ENDBRANCH   8   9
ENDBRANCH   6   8
ENDBRANCH   5   6
ENDBRANCH   4   5
ENDBRANCH   3   4
ENDBRANCH   2   3
ENDBRANCH   1   2
BRANCH   1  25
ATOM     25  C   UNL A   1      41.034  21.443  26.543  1.00  0.00     0.188 C 
BRANCH  25  26
ATOM     26  O   UNL A   1      41.768  21.674  25.382  1.00  0.00    -0.376 OA
BRANCH  26  27
ATOM     27  C   UNL A   1      43.056  22.212  25.554  1.00  0.00     0.202 C 
BRANCH  27  28
ATOM     28  C   UNL A   1      43.387  23.671  25.152  1.00  0.00     0.261 C 
BRANCH  28  29
ATOM     29  O   UNL A   1      44.722  24.004  24.686  1.00  0.00    -0.460 OA
BRANCH  29  30
ATOM     30  C   UNL A   1      45.692  24.090  25.641  1.00  0.00     0.338 C 
ATOM     31  O   UNL A   1      46.836  23.701  25.478  1.00  0.00    -0.246 OA
BRANCH  30  32
ATOM     32  C   UNL A   1      45.076  24.550  27.010  1.00  0.00     0.060 A 
ATOM     33  C   UNL A   1      43.840  23.926  28.480  1.00  0.00     0.016 A 
ATOM     34  C   UNL A   1      45.197  26.349  26.768  1.00  0.00     0.016 A 
ATOM     35  C   UNL A   1      42.935  25.090  29.440  1.00  0.00     0.010 A 
ATOM     36  C   UNL A   1      44.259  27.404  27.828  1.00  0.00     0.010 A 
ATOM     37  C   UNL A   1      43.210  26.774  29.123  1.00  0.00    -0.014 A 
BRANCH  37  38
ATOM     38  C   UNL A   1      42.641  27.607  30.183  1.00  0.00     0.031 A 
ATOM     39  C   UNL A   1      43.522  27.907  31.325  1.00  0.00     0.074 A 
ATOM     40  C   UNL A   1      41.467  28.233  29.941  1.00  0.00     0.049 A 
ATOM     41  N   UNL A   1      43.334  28.745  32.297  1.00  0.00    -0.248 NA
ATOM     42  C   UNL A   1      44.805  27.188  31.366  1.00  0.00     0.031 C 
ATOM     43  C   UNL A   1      40.603  28.025  28.766  1.00  0.00     0.029 A 
ATOM     44  N   UNL A   1      40.826  29.237  30.617  1.00  0.00    -0.354 N 
ATOM     45  C   UNL A   1      44.468  28.641  33.079  1.00  0.00     0.074 A 
ATOM     46  C   UNL A   1      45.333  27.654  32.483  1.00  0.00     0.031 C 
ATOM     47  C   UNL A   1      39.621  28.936  28.753  1.00  0.00     0.029 A 
ATOM     48  C   UNL A   1      39.699  29.708  29.977  1.00  0.00     0.049 A 
ATOM     49  H   UNL A   1      41.142  29.590  31.479  1.00  0.00     0.167 HD
ATOM     50  C   UNL A   1      44.734  29.324  34.209  1.00  0.00     0.037 A 
ATOM     51  C   UNL A   1      38.809  30.637  30.370  1.00  0.00     0.037 A 
ATOM     52  C   UNL A   1      43.815  30.275  34.762  1.00  0.00     0.049 A 
ATOM     53  C   UNL A   1      39.085  31.290  31.694  1.00  0.00     0.074 A 
ATOM     54  C   UNL A   1      43.914  30.980  35.941  1.00  0.00     0.029 A 
ATOM     55  N   UNL A   1      42.609  30.635  34.167  1.00  0.00    -0.354 N 
ATOM     56  N   UNL A   1      40.131  31.150  32.475  1.00  0.00    -0.248 NA
ATOM     57  C   UNL A   1      38.060  32.200  32.210  1.00  0.00     0.031 C 
ATOM     58  C   UNL A   1      42.728  31.702  36.102  1.00  0.00     0.029 A 
ATOM     59  C   UNL A   1      41.933  31.528  34.975  1.00  0.00     0.049 A 
ATOM     60  H   UNL A   1      42.285  30.302  33.299  1.00  0.00     0.167 HD
ATOM     61  C   UNL A   1      39.903  31.961  33.571  1.00  0.00     0.074 A 
ATOM     62  C   UNL A   1      38.627  32.615  33.333  1.00  0.00     0.031 C 
ATOM     63  C   UNL A   1      40.664  32.148  34.677  1.00  0.00     0.037 A 
BRANCH  50  64
ATOM     64  C   UNL A   1      45.982  28.945  34.938  1.00  0.00     0.064 A 
ATOM     65  C   UNL A   1      47.244  29.451  34.589  1.00  0.00     0.173 A 
ATOM     66  C   UNL A   1      45.917  27.983  35.956  1.00  0.00     0.173 A 
ATOM     67  F   UNL A   1      47.366  30.326  33.579  1.00  0.00    -0.203 F 
ATOM     68  C   UNL A   1      48.396  28.989  35.218  1.00  0.00     0.198 A 
ATOM     69  C   UNL A   1      47.065  27.555  36.610  1.00  0.00     0.198 A 
ATOM     70  F   UNL A   1      44.739  27.439  36.298  1.00  0.00    -0.203 F 
ATOM     71  F   UNL A   1      49.598  29.422  34.813  1.00  0.00    -0.200 F 
ATOM     72  C   UNL A   1      48.304  28.050  36.235  1.00  0.00     0.200 A 
ATOM     73  F   UNL A   1      46.974  26.643  37.588  1.00  0.00    -0.200 F 
ATOM     74  F   UNL A   1      49.415  27.606  36.840  1.00  0.00    -0.200 F 
ENDBRANCH  50  64
BRANCH  51  75
ATOM     75  C   UNL A   1      37.575  30.921  29.579  1.00  0.00     0.064 A 
ATOM     76  C   UNL A   1      36.537  29.986  29.456  1.00  0.00     0.173 A 
ATOM     77  C   UNL A   1      37.424  32.136  28.884  1.00  0.00     0.173 A 
ATOM     78  F   UNL A   1      36.624  28.802  30.080  1.00  0.00    -0.203 F 
ATOM     79  C   UNL A   1      35.422  30.239  28.653  1.00  0.00     0.198 A 
ATOM     80  C   UNL A   1      36.293  32.404  28.115  1.00  0.00     0.198 A 
ATOM     81  F   UNL A   1      38.381  33.073  28.951  1.00  0.00    -0.203 F 
ATOM     82  F   UNL A   1      34.479  29.298  28.503  1.00  0.00    -0.200 F 
ATOM     83  C   UNL A   1      35.298  31.449  27.987  1.00  0.00     0.200 A 
ATOM     84  F   UNL A   1      36.173  33.584  27.492  1.00  0.00    -0.200 F 
ATOM     85  F   UNL A   1      34.231  31.689  27.214  1.00  0.00    -0.200 F 
ENDBRANCH  51  75
BRANCH  63  86
ATOM     86  C   UNL A   1      40.153  33.138  35.677  1.00  0.00     0.064 A 
ATOM     87  C   UNL A   1      39.241  32.779  36.677  1.00  0.00     0.173 A 
ATOM     88  C   UNL A   1      40.631  34.457  35.654  1.00  0.00     0.173 A 
ATOM     89  F   UNL A   1      38.748  31.531  36.728  1.00  0.00    -0.203 F 
ATOM     90  C   UNL A   1      38.795  33.717  37.600  1.00  0.00     0.198 A 
ATOM     91  C   UNL A   1      40.223  35.378  36.609  1.00  0.00     0.198 A 
ATOM     92  F   UNL A   1      41.515  34.842  34.721  1.00  0.00    -0.203 F 
ATOM     93  F   UNL A   1      37.871  33.374  38.507  1.00  0.00    -0.200 F 
ATOM     94  C   UNL A   1      39.296  35.012  37.573  1.00  0.00     0.200 A 
ATOM     95  F   UNL A   1      40.730  36.618  36.598  1.00  0.00    -0.200 F 
ATOM     96  F   UNL A   1      38.877  35.910  38.473  1.00  0.00    -0.200 F 
ENDBRANCH  63  86
ENDBRANCH  37  38
ENDBRANCH  30  32
ENDBRANCH  29  30
ENDBRANCH  28  29
ENDBRANCH  27  28
ENDBRANCH  26  27
ENDBRANCH  25  26
ENDBRANCH   1  25
TORSDOF 24
ENDMDL
