MODEL 1
REMARK VINA RESULT:     -12.1      0.000      0.000
REMARK SMILES C[C@H]1CCCC[C@H]1[N@H+]1[C@@H](C(=O)OCCOCCOCCOC(=O)c2ccc(-c3c4nc(c(-c5c(F)c(F)c(F)c(F)c5F)c5ccc([nH]5)c(-c5c(F)c(F)c(F)c(F)c5F)c5nc(c(-c6c(F)c(F)c(F)c(F)c6F)c6ccc3[nH]6)C=C5)C=C4)cc2)CC[C@@H]2CCCC[C@@H]21
REMARK SMILES IDX 17 1 16 2 15 3 14 4 13 5 12 6 10 7 11 8 9 9 8 10 94 11 87 13
REMARK SMILES IDX 89 14 93 15 88 16 90 17 92 18 91 19 7 20 1 21 2 22 3 23 4 24
REMARK SMILES IDX 6 25 5 26 18 27 19 28 20 29 21 30 22 31 23 32 24 33 25 34
REMARK SMILES IDX 86 35 26 36 85 37 27 38 28 39 29 40 79 41 30 42 84 43 78 44
REMARK SMILES IDX 80 45 31 46 83 47 77 48 76 49 32 51 64 52 44 53 63 54 45 55
REMARK SMILES IDX 48 56 62 57 81 58 46 59 47 60 61 62 82 63 49 64 33 65 34 66
REMARK SMILES IDX 42 67 35 68 36 69 40 70 43 71 37 72 38 73 41 74 39 75 65 76
REMARK SMILES IDX 66 77 74 78 67 79 68 80 72 81 75 82 69 83 70 84 73 85 71 86
REMARK SMILES IDX 50 87 51 88 59 89 52 90 53 91 57 92 60 93 54 94 55 95 58 96
REMARK SMILES IDX 56 97
REMARK H PARENT 8 12 80 50 48 61
REMARK Flexibility Score: inf
ROOT
ATOM      1  C   UNL A   1      40.974  21.108  26.774  1.00  0.00     0.188 C 
ENDROOT
BRANCH   1   2
ATOM      2  C   UNL A   1      39.635  21.691  26.250  1.00  0.00     0.188 C 
BRANCH   2   3
ATOM      3  O   UNL A   1      38.815  20.802  25.503  1.00  0.00    -0.376 OA
BRANCH   3   4
ATOM      4  C   UNL A   1      37.649  21.344  24.854  1.00  0.00     0.202 C 
BRANCH   4   5
ATOM      5  C   UNL A   1      37.087  22.700  25.362  1.00  0.00     0.261 C 
BRANCH   5   6
ATOM      6  O   UNL A   1      36.580  23.666  24.371  1.00  0.00    -0.459 OA
BRANCH   6   7
ATOM      7  C   UNL A   1      35.234  23.523  24.070  1.00  0.00     0.365 C 
ATOM      8  O   UNL A   1      34.840  22.531  23.449  1.00  0.00    -0.245 OA
BRANCH   7   9
ATOM      9  C   UNL A   1      34.261  24.710  24.431  1.00  0.00     0.295 C 
ATOM     10  N   UNL A   1      33.147  24.789  25.476  1.00  0.00    -0.318 N 
ATOM     11  C   UNL A   1      32.138  25.876  25.261  1.00  0.00     0.188 C 
ATOM     12  H   UNL A   1      34.043  24.431  25.805  1.00  0.00     0.349 HD
ATOM     13  C   UNL A   1      33.553  25.015  23.079  1.00  0.00     0.078 C 
ATOM     14  C   UNL A   1      32.641  26.999  24.340  1.00  0.00     0.048 C 
ATOM     15  C   UNL A   1      31.499  26.595  26.493  1.00  0.00     0.065 C 
ATOM     16  C   UNL A   1      32.988  26.422  22.978  1.00  0.00     0.016 C 
ATOM     17  C   UNL A   1      33.771  27.829  24.991  1.00  0.00     0.010 C 
ATOM     18  C   UNL A   1      32.223  27.856  26.965  1.00  0.00     0.006 C 
ATOM     19  C   UNL A   1      33.673  27.869  26.520  1.00  0.00     0.001 C 
BRANCH  10  20
ATOM     20  C   UNL A   1      32.813  23.903  26.591  1.00  0.00     0.187 C 
ATOM     21  C   UNL A   1      30.175  23.370  26.262  1.00  0.00     0.014 C 
ATOM     22  C   UNL A   1      31.611  22.886  26.442  1.00  0.00     0.044 C 
ATOM     23  C   UNL A   1      31.911  21.795  25.412  1.00  0.00     0.009 C 
ATOM     24  C   UNL A   1      33.143  21.004  25.797  1.00  0.00     0.001 C 
ATOM     25  C   UNL A   1      33.978  23.100  27.126  1.00  0.00     0.065 C 
ATOM     26  C   UNL A   1      34.255  21.897  26.262  1.00  0.00     0.006 C 
ENDBRANCH  10  20
ENDBRANCH   7   9
ENDBRANCH   6   7
ENDBRANCH   5   6
ENDBRANCH   4   5
ENDBRANCH   3   4
ENDBRANCH   2   3
ENDBRANCH   1   2
BRANCH   1  27
ATOM     27  O   UNL A   1      41.858  20.767  25.718  1.00  0.00    -0.376 OA
BRANCH  27  28
ATOM     28  C   UNL A   1      43.265  20.886  25.901  1.00  0.00     0.202 C 
BRANCH  28  29
ATOM     29  C   UNL A   1      44.030  21.890  25.024  1.00  0.00     0.261 C 
BRANCH  29  30
ATOM     30  O   UNL A   1      43.249  23.068  24.730  1.00  0.00    -0.460 OA
BRANCH  30  31
ATOM     31  C   UNL A   1      43.855  24.238  25.037  1.00  0.00     0.338 C 
ATOM     32  O   UNL A   1      44.847  24.700  24.489  1.00  0.00    -0.246 OA
BRANCH  31  33
ATOM     33  C   UNL A   1      43.019  25.018  25.981  1.00  0.00     0.060 A 
ATOM     34  C   UNL A   1      43.347  26.366  26.118  1.00  0.00     0.016 A 
ATOM     35  C   UNL A   1      41.952  24.497  26.719  1.00  0.00     0.016 A 
ATOM     36  C   UNL A   1      42.601  27.207  26.947  1.00  0.00     0.010 A 
ATOM     37  C   UNL A   1      41.224  25.336  27.589  1.00  0.00     0.010 A 
ATOM     38  C   UNL A   1      41.539  26.703  27.702  1.00  0.00    -0.014 A 
BRANCH  38  39
ATOM     39  C   UNL A   1      41.057  27.557  28.823  1.00  0.00     0.031 A 
ATOM     40  C   UNL A   1      41.892  27.540  30.075  1.00  0.00     0.074 A 
ATOM     41  C   UNL A   1      40.056  28.453  28.722  1.00  0.00     0.049 A 
ATOM     42  N   UNL A   1      41.717  28.155  31.215  1.00  0.00    -0.248 NA
ATOM     43  C   UNL A   1      43.122  26.734  30.005  1.00  0.00     0.031 C 
ATOM     44  C   UNL A   1      39.280  28.745  27.520  1.00  0.00     0.029 A 
ATOM     45  N   UNL A   1      39.544  29.316  29.667  1.00  0.00    -0.354 N 
ATOM     46  C   UNL A   1      42.804  27.793  32.001  1.00  0.00     0.074 A 
ATOM     47  C   UNL A   1      43.632  26.913  31.209  1.00  0.00     0.031 C 
ATOM     48  C   UNL A   1      38.392  29.719  27.799  1.00  0.00     0.029 A 
ATOM     49  C   UNL A   1      38.496  30.083  29.214  1.00  0.00     0.049 A 
ATOM     50  H   UNL A   1      39.897  29.379  30.583  1.00  0.00     0.167 HD
ATOM     51  C   UNL A   1      43.086  28.146  33.275  1.00  0.00     0.037 A 
ATOM     52  C   UNL A   1      37.699  30.948  29.877  1.00  0.00     0.037 A 
ATOM     53  C   UNL A   1      42.262  29.003  34.079  1.00  0.00     0.049 A 
ATOM     54  C   UNL A   1      37.919  31.187  31.355  1.00  0.00     0.074 A 
ATOM     55  C   UNL A   1      42.419  29.350  35.408  1.00  0.00     0.029 A 
ATOM     56  N   UNL A   1      41.118  29.643  33.627  1.00  0.00    -0.354 N 
ATOM     57  N   UNL A   1      38.884  30.762  32.133  1.00  0.00    -0.248 NA
ATOM     58  C   UNL A   1      36.921  32.018  32.051  1.00  0.00     0.031 C 
ATOM     59  C   UNL A   1      41.335  30.154  35.778  1.00  0.00     0.029 A 
ATOM     60  C   UNL A   1      40.545  30.367  34.660  1.00  0.00     0.049 A 
ATOM     61  H   UNL A   1      40.766  29.591  32.710  1.00  0.00     0.167 HD
ATOM     62  C   UNL A   1      38.637  31.306  33.390  1.00  0.00     0.074 A 
ATOM     63  C   UNL A   1      37.429  32.094  33.273  1.00  0.00     0.031 C 
ATOM     64  C   UNL A   1      39.353  31.170  34.534  1.00  0.00     0.037 A 
BRANCH  51  65
ATOM     65  C   UNL A   1      44.286  27.491  33.892  1.00  0.00     0.064 A 
ATOM     66  C   UNL A   1      44.211  26.251  34.545  1.00  0.00     0.173 A 
ATOM     67  C   UNL A   1      45.516  28.165  33.901  1.00  0.00     0.173 A 
ATOM     68  F   UNL A   1      43.047  25.585  34.596  1.00  0.00    -0.203 F 
ATOM     69  C   UNL A   1      45.307  25.740  35.233  1.00  0.00     0.198 A 
ATOM     70  C   UNL A   1      46.622  27.632  34.555  1.00  0.00     0.198 A 
ATOM     71  F   UNL A   1      45.639  29.357  33.297  1.00  0.00    -0.203 F 
ATOM     72  F   UNL A   1      45.186  24.603  35.934  1.00  0.00    -0.200 F 
ATOM     73  C   UNL A   1      46.511  26.429  35.236  1.00  0.00     0.200 A 
ATOM     74  F   UNL A   1      47.784  28.297  34.551  1.00  0.00    -0.200 F 
ATOM     75  F   UNL A   1      47.560  25.945  35.915  1.00  0.00    -0.200 F 
ENDBRANCH  51  65
BRANCH  52  76
ATOM     76  C   UNL A   1      36.572  31.634  29.180  1.00  0.00     0.064 A 
ATOM     77  C   UNL A   1      36.577  33.024  28.980  1.00  0.00     0.173 A 
ATOM     78  C   UNL A   1      35.432  30.928  28.767  1.00  0.00     0.173 A 
ATOM     79  F   UNL A   1      37.619  33.757  29.399  1.00  0.00    -0.203 F 
ATOM     80  C   UNL A   1      35.485  33.677  28.407  1.00  0.00     0.198 A 
ATOM     81  C   UNL A   1      34.354  31.577  28.168  1.00  0.00     0.198 A 
ATOM     82  F   UNL A   1      35.357  29.602  28.959  1.00  0.00    -0.203 F 
ATOM     83  F   UNL A   1      35.494  35.011  28.281  1.00  0.00    -0.200 F 
ATOM     84  C   UNL A   1      34.378  32.952  27.995  1.00  0.00     0.200 A 
ATOM     85  F   UNL A   1      33.285  30.872  27.774  1.00  0.00    -0.200 F 
ATOM     86  F   UNL A   1      33.326  33.579  27.448  1.00  0.00    -0.200 F 
ENDBRANCH  52  76
BRANCH  64  87
ATOM     87  C   UNL A   1      38.907  31.944  35.746  1.00  0.00     0.064 A 
ATOM     88  C   UNL A   1      38.157  31.357  36.776  1.00  0.00     0.173 A 
ATOM     89  C   UNL A   1      39.292  33.286  35.902  1.00  0.00     0.173 A 
ATOM     90  F   UNL A   1      37.755  30.081  36.676  1.00  0.00    -0.203 F 
ATOM     91  C   UNL A   1      37.787  32.091  37.901  1.00  0.00     0.198 A 
ATOM     92  C   UNL A   1      38.949  34.007  37.043  1.00  0.00     0.198 A 
ATOM     93  F   UNL A   1      40.019  33.897  34.954  1.00  0.00    -0.203 F 
ATOM     94  F   UNL A   1      37.029  31.524  38.850  1.00  0.00    -0.200 F 
ATOM     95  C   UNL A   1      38.190  33.412  38.037  1.00  0.00     0.200 A 
ATOM     96  F   UNL A   1      39.358  35.275  37.181  1.00  0.00    -0.200 F 
ATOM     97  F   UNL A   1      37.841  34.112  39.126  1.00  0.00    -0.200 F 
ENDBRANCH  64  87
ENDBRANCH  38  39
ENDBRANCH  31  33
ENDBRANCH  30  31
ENDBRANCH  29  30
ENDBRANCH  28  29
ENDBRANCH  27  28
ENDBRANCH   1  27
TORSDOF 18
ENDMDL
MODEL 2
REMARK VINA RESULT:     -11.7      5.207     10.450
REMARK SMILES C[C@H]1CCCC[C@H]1[N@H+]1[C@@H](C(=O)OCCOCCOCCOC(=O)c2ccc(-c3c4nc(c(-c5c(F)c(F)c(F)c(F)c5F)c5ccc([nH]5)c(-c5c(F)c(F)c(F)c(F)c5F)c5nc(c(-c6c(F)c(F)c(F)c(F)c6F)c6ccc3[nH]6)C=C5)C=C4)cc2)CC[C@@H]2CCCC[C@@H]21
REMARK SMILES IDX 17 1 16 2 15 3 14 4 13 5 12 6 10 7 11 8 9 9 8 10 94 11 87 13
REMARK SMILES IDX 89 14 93 15 88 16 90 17 92 18 91 19 7 20 1 21 2 22 3 23 4 24
REMARK SMILES IDX 6 25 5 26 18 27 19 28 20 29 21 30 22 31 23 32 24 33 25 34
REMARK SMILES IDX 86 35 26 36 85 37 27 38 28 39 29 40 79 41 30 42 84 43 78 44
REMARK SMILES IDX 80 45 31 46 83 47 77 48 76 49 32 51 64 52 44 53 63 54 45 55
REMARK SMILES IDX 48 56 62 57 81 58 46 59 47 60 61 62 82 63 49 64 33 65 34 66
REMARK SMILES IDX 42 67 35 68 36 69 40 70 43 71 37 72 38 73 41 74 39 75 65 76
REMARK SMILES IDX 66 77 74 78 67 79 68 80 72 81 75 82 69 83 70 84 73 85 71 86
REMARK SMILES IDX 50 87 51 88 59 89 52 90 53 91 57 92 60 93 54 94 55 95 58 96
REMARK SMILES IDX 56 97
REMARK H PARENT 8 12 80 50 48 61
REMARK Flexibility Score: inf
ROOT
ATOM      1  C   UNL A   1      34.408  34.106  28.703  1.00  0.00     0.188 C 
ENDROOT
BRANCH   1   2
ATOM      2  C   UNL A   1      33.958  32.684  28.279  1.00  0.00     0.188 C 
BRANCH   2   3
ATOM      3  O   UNL A   1      34.934  31.889  27.619  1.00  0.00    -0.376 OA
BRANCH   3   4
ATOM      4  C   UNL A   1      34.790  30.457  27.677  1.00  0.00     0.202 C 
BRANCH   4   5
ATOM      5  C   UNL A   1      33.663  29.796  26.839  1.00  0.00     0.261 C 
BRANCH   5   6
ATOM      6  O   UNL A   1      33.916  28.471  26.243  1.00  0.00    -0.459 OA
BRANCH   6   7
ATOM      7  C   UNL A   1      32.808  27.639  26.207  1.00  0.00     0.365 C 
ATOM      8  O   UNL A   1      31.740  28.008  26.703  1.00  0.00    -0.245 OA
BRANCH   7   9
ATOM      9  C   UNL A   1      32.990  26.182  25.632  1.00  0.00     0.295 C 
ATOM     10  N   UNL A   1      32.663  25.620  24.248  1.00  0.00    -0.318 N 
ATOM     11  C   UNL A   1      32.539  24.128  24.171  1.00  0.00     0.188 C 
ATOM     12  H   UNL A   1      33.196  26.489  24.262  1.00  0.00     0.349 HD
ATOM     13  C   UNL A   1      32.164  25.304  26.617  1.00  0.00     0.078 C 
ATOM     14  C   UNL A   1      33.218  23.401  25.343  1.00  0.00     0.048 C 
ATOM     15  C   UNL A   1      33.003  23.377  22.882  1.00  0.00     0.065 C 
ATOM     16  C   UNL A   1      32.586  23.845  26.651  1.00  0.00     0.016 C 
ATOM     17  C   UNL A   1      34.758  23.528  25.298  1.00  0.00     0.010 C 
ATOM     18  C   UNL A   1      34.454  22.894  22.890  1.00  0.00     0.006 C 
ATOM     19  C   UNL A   1      35.300  23.680  23.873  1.00  0.00     0.001 C 
BRANCH  10  20
ATOM     20  C   UNL A   1      32.320  26.294  22.995  1.00  0.00     0.187 C 
ATOM     21  C   UNL A   1      29.810  27.234  23.402  1.00  0.00     0.014 C 
ATOM     22  C   UNL A   1      31.267  27.473  23.011  1.00  0.00     0.044 C 
ATOM     23  C   UNL A   1      31.797  28.701  23.753  1.00  0.00     0.009 C 
ATOM     24  C   UNL A   1      33.065  29.222  23.112  1.00  0.00     0.001 C 
ATOM     25  C   UNL A   1      33.508  26.803  22.211  1.00  0.00     0.065 C 
ATOM     26  C   UNL A   1      34.012  28.110  22.768  1.00  0.00     0.006 C 
ENDBRANCH  10  20
ENDBRANCH   7   9
ENDBRANCH   6   7
ENDBRANCH   5   6
ENDBRANCH   4   5
ENDBRANCH   3   4
ENDBRANCH   2   3
ENDBRANCH   1   2
BRANCH   1  27
ATOM     27  O   UNL A   1      33.471  34.726  29.571  1.00  0.00    -0.376 OA
BRANCH  27  28
ATOM     28  C   UNL A   1      33.841  35.037  30.911  1.00  0.00     0.202 C 
BRANCH  28  29
ATOM     29  C   UNL A   1      34.305  33.891  31.822  1.00  0.00     0.261 C 
BRANCH  29  30
ATOM     30  O   UNL A   1      35.715  33.964  32.122  1.00  0.00    -0.460 OA
BRANCH  30  31
ATOM     31  C   UNL A   1      36.209  32.890  32.779  1.00  0.00     0.338 C 
ATOM     32  O   UNL A   1      35.846  32.488  33.878  1.00  0.00    -0.246 OA
BRANCH  31  33
ATOM     33  C   UNL A   1      37.100  32.107  31.890  1.00  0.00     0.060 A 
ATOM     34  C   UNL A   1      38.030  31.285  32.524  1.00  0.00     0.016 A 
ATOM     35  C   UNL A   1      37.060  32.141  30.493  1.00  0.00     0.016 A 
ATOM     36  C   UNL A   1      38.891  30.470  31.786  1.00  0.00     0.010 A 
ATOM     37  C   UNL A   1      37.959  31.350  29.745  1.00  0.00     0.010 A 
ATOM     38  C   UNL A   1      38.876  30.498  30.389  1.00  0.00    -0.014 A 
BRANCH  38  39
ATOM     39  C   UNL A   1      40.057  29.908  29.700  1.00  0.00     0.031 A 
ATOM     40  C   UNL A   1      41.281  30.780  29.620  1.00  0.00     0.074 A 
ATOM     41  C   UNL A   1      40.151  28.619  29.322  1.00  0.00     0.049 A 
ATOM     42  N   UNL A   1      42.443  30.553  29.067  1.00  0.00    -0.248 NA
ATOM     43  C   UNL A   1      41.178  32.082  30.298  1.00  0.00     0.031 C 
ATOM     44  C   UNL A   1      39.136  27.588  29.515  1.00  0.00     0.029 A 
ATOM     45  N   UNL A   1      41.192  27.951  28.712  1.00  0.00    -0.354 N 
ATOM     46  C   UNL A   1      43.198  31.693  29.314  1.00  0.00     0.074 A 
ATOM     47  C   UNL A   1      42.368  32.602  30.069  1.00  0.00     0.031 C 
ATOM     48  C   UNL A   1      39.602  26.419  29.035  1.00  0.00     0.029 A 
ATOM     49  C   UNL A   1      40.928  26.627  28.448  1.00  0.00     0.049 A 
ATOM     50  H   UNL A   1      42.046  28.382  28.485  1.00  0.00     0.167 HD
ATOM     51  C   UNL A   1      44.467  31.971  28.936  1.00  0.00     0.037 A 
ATOM     52  C   UNL A   1      41.661  25.708  27.784  1.00  0.00     0.037 A 
ATOM     53  C   UNL A   1      45.295  31.084  28.169  1.00  0.00     0.049 A 
ATOM     54  C   UNL A   1      43.004  26.097  27.205  1.00  0.00     0.074 A 
ATOM     55  C   UNL A   1      46.562  31.309  27.665  1.00  0.00     0.029 A 
ATOM     56  N   UNL A   1      44.933  29.801  27.789  1.00  0.00    -0.354 N 
ATOM     57  N   UNL A   1      43.679  27.211  27.344  1.00  0.00    -0.248 NA
ATOM     58  C   UNL A   1      43.678  25.097  26.358  1.00  0.00     0.031 C 
ATOM     59  C   UNL A   1      46.943  30.184  26.927  1.00  0.00     0.029 A 
ATOM     60  C   UNL A   1      45.945  29.229  27.035  1.00  0.00     0.049 A 
ATOM     61  H   UNL A   1      44.083  29.361  28.020  1.00  0.00     0.167 HD
ATOM     62  C   UNL A   1      44.870  27.032  26.646  1.00  0.00     0.074 A 
ATOM     63  C   UNL A   1      44.827  25.700  26.082  1.00  0.00     0.031 C 
ATOM     64  C   UNL A   1      45.908  27.893  26.494  1.00  0.00     0.037 A 
BRANCH  51  65
ATOM     65  C   UNL A   1      44.967  33.347  29.261  1.00  0.00     0.064 A 
ATOM     66  C   UNL A   1      45.717  33.619  30.415  1.00  0.00     0.173 A 
ATOM     67  C   UNL A   1      44.609  34.426  28.439  1.00  0.00     0.173 A 
ATOM     68  F   UNL A   1      46.050  32.625  31.253  1.00  0.00    -0.203 F 
ATOM     69  C   UNL A   1      46.038  34.927  30.764  1.00  0.00     0.198 A 
ATOM     70  C   UNL A   1      44.968  35.729  28.769  1.00  0.00     0.198 A 
ATOM     71  F   UNL A   1      43.886  34.220  27.328  1.00  0.00    -0.203 F 
ATOM     72  F   UNL A   1      46.669  35.175  31.921  1.00  0.00    -0.200 F 
ATOM     73  C   UNL A   1      45.666  35.980  29.940  1.00  0.00     0.200 A 
ATOM     74  F   UNL A   1      44.613  36.742  27.969  1.00  0.00    -0.200 F 
ATOM     75  F   UNL A   1      45.960  37.240  30.287  1.00  0.00    -0.200 F 
ENDBRANCH  51  65
BRANCH  52  76
ATOM     76  C   UNL A   1      41.139  24.326  27.570  1.00  0.00     0.064 A 
ATOM     77  C   UNL A   1      41.763  23.213  28.155  1.00  0.00     0.173 A 
ATOM     78  C   UNL A   1      40.053  24.081  26.716  1.00  0.00     0.173 A 
ATOM     79  F   UNL A   1      42.836  23.384  28.941  1.00  0.00    -0.203 F 
ATOM     80  C   UNL A   1      41.330  21.915  27.886  1.00  0.00     0.198 A 
ATOM     81  C   UNL A   1      39.601  22.785  26.470  1.00  0.00     0.198 A 
ATOM     82  F   UNL A   1      39.436  25.103  26.104  1.00  0.00    -0.203 F 
ATOM     83  F   UNL A   1      41.980  20.869  28.413  1.00  0.00    -0.200 F 
ATOM     84  C   UNL A   1      40.245  21.702  27.049  1.00  0.00     0.200 A 
ATOM     85  F   UNL A   1      38.554  22.585  25.659  1.00  0.00    -0.200 F 
ATOM     86  F   UNL A   1      39.830  20.455  26.786  1.00  0.00    -0.200 F 
ENDBRANCH  52  76
BRANCH  64  87
ATOM     87  C   UNL A   1      47.126  27.410  25.753  1.00  0.00     0.064 A 
ATOM     88  C   UNL A   1      47.308  27.639  24.381  1.00  0.00     0.173 A 
ATOM     89  C   UNL A   1      48.158  26.758  26.449  1.00  0.00     0.173 A 
ATOM     90  F   UNL A   1      46.352  28.249  23.665  1.00  0.00    -0.203 F 
ATOM     91  C   UNL A   1      48.462  27.208  23.730  1.00  0.00     0.198 A 
ATOM     92  C   UNL A   1      49.325  26.360  25.801  1.00  0.00     0.198 A 
ATOM     93  F   UNL A   1      48.045  26.524  27.765  1.00  0.00    -0.203 F 
ATOM     94  F   UNL A   1      48.592  27.393  22.408  1.00  0.00    -0.200 F 
ATOM     95  C   UNL A   1      49.472  26.577  24.441  1.00  0.00     0.200 A 
ATOM     96  F   UNL A   1      50.308  25.771  26.496  1.00  0.00    -0.200 F 
ATOM     97  F   UNL A   1      50.586  26.175  23.813  1.00  0.00    -0.200 F 
ENDBRANCH  64  87
ENDBRANCH  38  39
ENDBRANCH  31  33
ENDBRANCH  30  31
ENDBRANCH  29  30
ENDBRANCH  28  29
ENDBRANCH  27  28
ENDBRANCH   1  27
TORSDOF 18
ENDMDL
MODEL 3
REMARK VINA RESULT:     -11.7      4.285      6.483
REMARK SMILES C[C@H]1CCCC[C@H]1[N@H+]1[C@@H](C(=O)OCCOCCOCCOC(=O)c2ccc(-c3c4nc(c(-c5c(F)c(F)c(F)c(F)c5F)c5ccc([nH]5)c(-c5c(F)c(F)c(F)c(F)c5F)c5nc(c(-c6c(F)c(F)c(F)c(F)c6F)c6ccc3[nH]6)C=C5)C=C4)cc2)CC[C@@H]2CCCC[C@@H]21
REMARK SMILES IDX 17 1 16 2 15 3 14 4 13 5 12 6 10 7 11 8 9 9 8 10 94 11 87 13
REMARK SMILES IDX 89 14 93 15 88 16 90 17 92 18 91 19 7 20 1 21 2 22 3 23 4 24
REMARK SMILES IDX 6 25 5 26 18 27 19 28 20 29 21 30 22 31 23 32 24 33 25 34
REMARK SMILES IDX 86 35 26 36 85 37 27 38 28 39 29 40 79 41 30 42 84 43 78 44
REMARK SMILES IDX 80 45 31 46 83 47 77 48 76 49 32 51 64 52 44 53 63 54 45 55
REMARK SMILES IDX 48 56 62 57 81 58 46 59 47 60 61 62 82 63 49 64 33 65 34 66
REMARK SMILES IDX 42 67 35 68 36 69 40 70 43 71 37 72 38 73 41 74 39 75 65 76
REMARK SMILES IDX 66 77 74 78 67 79 68 80 72 81 75 82 69 83 70 84 73 85 71 86
REMARK SMILES IDX 50 87 51 88 59 89 52 90 53 91 57 92 60 93 54 94 55 95 58 96
REMARK SMILES IDX 56 97
REMARK H PARENT 8 12 80 50 48 61
REMARK Flexibility Score: inf
ROOT
ATOM      1  C   UNL A   1      35.710  20.518  25.110  1.00  0.00     0.188 C 
ENDROOT
BRANCH   1   2
ATOM      2  C   UNL A   1      36.079  21.841  25.830  1.00  0.00     0.188 C 
BRANCH   2   3
ATOM      3  O   UNL A   1      35.071  22.405  26.659  1.00  0.00    -0.376 OA
BRANCH   3   4
ATOM      4  C   UNL A   1      34.747  23.796  26.475  1.00  0.00     0.202 C 
BRANCH   4   5
ATOM      5  C   UNL A   1      35.078  24.455  25.109  1.00  0.00     0.261 C 
BRANCH   5   6
ATOM      6  O   UNL A   1      34.366  23.981  23.909  1.00  0.00    -0.459 OA
BRANCH   6   7
ATOM      7  C   UNL A   1      33.745  24.983  23.178  1.00  0.00     0.365 C 
ATOM      8  O   UNL A   1      33.528  24.827  21.974  1.00  0.00    -0.245 OA
BRANCH   7   9
ATOM      9  C   UNL A   1      33.446  26.353  23.900  1.00  0.00     0.295 C 
ATOM     10  N   UNL A   1      32.191  26.828  24.634  1.00  0.00    -0.318 N 
ATOM     11  C   UNL A   1      32.070  28.311  24.808  1.00  0.00     0.188 C 
ATOM     12  H   UNL A   1      32.540  25.906  24.896  1.00  0.00     0.349 HD
ATOM     13  C   UNL A   1      33.663  27.404  22.772  1.00  0.00     0.078 C 
ATOM     14  C   UNL A   1      33.409  29.052  24.664  1.00  0.00     0.048 C 
ATOM     15  C   UNL A   1      31.406  28.887  26.100  1.00  0.00     0.065 C 
ATOM     16  C   UNL A   1      33.982  28.801  23.280  1.00  0.00     0.016 C 
ATOM     17  C   UNL A   1      34.379  28.740  25.827  1.00  0.00     0.010 C 
ATOM     18  C   UNL A   1      32.365  29.194  27.251  1.00  0.00     0.006 C 
ATOM     19  C   UNL A   1      33.653  28.402  27.132  1.00  0.00     0.001 C 
BRANCH  10  20
ATOM     20  C   UNL A   1      31.011  26.093  25.090  1.00  0.00     0.187 C 
ATOM     21  C   UNL A   1      29.003  26.994  23.506  1.00  0.00     0.014 C 
ATOM     22  C   UNL A   1      29.818  25.839  24.084  1.00  0.00     0.044 C 
ATOM     23  C   UNL A   1      30.216  24.885  22.956  1.00  0.00     0.009 C 
ATOM     24  C   UNL A   1      30.653  23.543  23.505  1.00  0.00     0.001 C 
ATOM     25  C   UNL A   1      31.312  24.757  25.730  1.00  0.00     0.065 C 
ATOM     26  C   UNL A   1      31.561  23.695  24.689  1.00  0.00     0.006 C 
ENDBRANCH  10  20
ENDBRANCH   7   9
ENDBRANCH   6   7
ENDBRANCH   5   6
ENDBRANCH   4   5
ENDBRANCH   3   4
ENDBRANCH   2   3
ENDBRANCH   1   2
BRANCH   1  27
ATOM     27  O   UNL A   1      36.823  19.645  24.996  1.00  0.00    -0.376 OA
BRANCH  27  28
ATOM     28  C   UNL A   1      38.142  20.178  24.918  1.00  0.00     0.202 C 
BRANCH  28  29
ATOM     29  C   UNL A   1      39.259  19.473  25.701  1.00  0.00     0.261 C 
BRANCH  29  30
ATOM     30  O   UNL A   1      40.514  20.183  25.627  1.00  0.00    -0.460 OA
BRANCH  30  31
ATOM     31  C   UNL A   1      41.247  20.154  26.763  1.00  0.00     0.338 C 
ATOM     32  O   UNL A   1      41.844  19.183  27.211  1.00  0.00    -0.246 OA
BRANCH  31  33
ATOM     33  C   UNL A   1      41.435  21.527  27.290  1.00  0.00     0.060 A 
ATOM     34  C   UNL A   1      40.728  22.536  26.638  1.00  0.00     0.016 A 
ATOM     35  C   UNL A   1      42.254  21.859  28.374  1.00  0.00     0.016 A 
ATOM     36  C   UNL A   1      40.795  23.861  27.075  1.00  0.00     0.010 A 
ATOM     37  C   UNL A   1      42.356  23.204  28.791  1.00  0.00     0.010 A 
ATOM     38  C   UNL A   1      41.617  24.215  28.148  1.00  0.00    -0.014 A 
BRANCH  38  39
ATOM     39  C   UNL A   1      41.924  25.664  28.299  1.00  0.00     0.031 A 
ATOM     40  C   UNL A   1      43.221  26.133  27.695  1.00  0.00     0.074 A 
ATOM     41  C   UNL A   1      41.055  26.582  28.764  1.00  0.00     0.049 A 
ATOM     42  N   UNL A   1      43.767  27.320  27.685  1.00  0.00    -0.248 NA
ATOM     43  C   UNL A   1      43.988  25.109  26.967  1.00  0.00     0.031 C 
ATOM     44  C   UNL A   1      39.684  26.328  29.196  1.00  0.00     0.029 A 
ATOM     45  N   UNL A   1      41.207  27.943  28.920  1.00  0.00    -0.354 N 
ATOM     46  C   UNL A   1      44.948  27.178  26.969  1.00  0.00     0.074 A 
ATOM     47  C   UNL A   1      45.037  25.796  26.557  1.00  0.00     0.031 C 
ATOM     48  C   UNL A   1      39.120  27.494  29.566  1.00  0.00     0.029 A 
ATOM     49  C   UNL A   1      40.105  28.571  29.452  1.00  0.00     0.049 A 
ATOM     50  H   UNL A   1      42.029  28.424  28.673  1.00  0.00     0.167 HD
ATOM     51  C   UNL A   1      45.890  28.108  26.688  1.00  0.00     0.037 A 
ATOM     52  C   UNL A   1      39.931  29.856  29.830  1.00  0.00     0.037 A 
ATOM     53  C   UNL A   1      45.823  29.479  27.108  1.00  0.00     0.049 A 
ATOM     54  C   UNL A   1      41.070  30.842  29.676  1.00  0.00     0.074 A 
ATOM     55  C   UNL A   1      46.767  30.476  26.945  1.00  0.00     0.029 A 
ATOM     56  N   UNL A   1      44.751  30.043  27.781  1.00  0.00    -0.354 N 
ATOM     57  N   UNL A   1      42.234  30.686  29.095  1.00  0.00    -0.248 NA
ATOM     58  C   UNL A   1      40.870  32.183  30.251  1.00  0.00     0.031 C 
ATOM     59  C   UNL A   1      46.291  31.631  27.575  1.00  0.00     0.029 A 
ATOM     60  C   UNL A   1      45.020  31.373  28.063  1.00  0.00     0.049 A 
ATOM     61  H   UNL A   1      43.923  29.571  28.024  1.00  0.00     0.167 HD
ATOM     62  C   UNL A   1      42.883  31.913  29.193  1.00  0.00     0.074 A 
ATOM     63  C   UNL A   1      41.983  32.807  29.890  1.00  0.00     0.031 C 
ATOM     64  C   UNL A   1      44.112  32.268  28.738  1.00  0.00     0.037 A 
BRANCH  51  65
ATOM     65  C   UNL A   1      47.120  27.612  25.988  1.00  0.00     0.064 A 
ATOM     66  C   UNL A   1      48.300  27.298  26.679  1.00  0.00     0.173 A 
ATOM     67  C   UNL A   1      47.137  27.535  24.587  1.00  0.00     0.173 A 
ATOM     68  F   UNL A   1      48.345  27.393  28.017  1.00  0.00    -0.203 F 
ATOM     69  C   UNL A   1      49.467  26.983  25.989  1.00  0.00     0.198 A 
ATOM     70  C   UNL A   1      48.295  27.180  23.903  1.00  0.00     0.198 A 
ATOM     71  F   UNL A   1      46.037  27.833  23.879  1.00  0.00    -0.203 F 
ATOM     72  F   UNL A   1      50.609  26.784  26.663  1.00  0.00    -0.200 F 
ATOM     73  C   UNL A   1      49.463  26.922  24.603  1.00  0.00     0.200 A 
ATOM     74  F   UNL A   1      48.285  27.116  22.565  1.00  0.00    -0.200 F 
ATOM     75  F   UNL A   1      50.592  26.638  23.940  1.00  0.00    -0.200 F 
ENDBRANCH  51  65
BRANCH  52  76
ATOM     76  C   UNL A   1      38.647  30.304  30.443  1.00  0.00     0.064 A 
ATOM     77  C   UNL A   1      37.567  30.719  29.648  1.00  0.00     0.173 A 
ATOM     78  C   UNL A   1      38.498  30.400  31.834  1.00  0.00     0.173 A 
ATOM     79  F   UNL A   1      37.670  30.696  28.312  1.00  0.00    -0.203 F 
ATOM     80  C   UNL A   1      36.397  31.220  30.221  1.00  0.00     0.198 A 
ATOM     81  C   UNL A   1      37.318  30.873  32.407  1.00  0.00     0.198 A 
ATOM     82  F   UNL A   1      39.508  30.046  32.644  1.00  0.00    -0.203 F 
ATOM     83  F   UNL A   1      35.404  31.662  29.437  1.00  0.00    -0.200 F 
ATOM     84  C   UNL A   1      36.271  31.290  31.600  1.00  0.00     0.200 A 
ATOM     85  F   UNL A   1      37.203  30.941  33.740  1.00  0.00    -0.200 F 
ATOM     86  F   UNL A   1      35.150  31.776  32.151  1.00  0.00    -0.200 F 
ENDBRANCH  52  76
BRANCH  64  87
ATOM     87  C   UNL A   1      44.542  33.700  28.903  1.00  0.00     0.064 A 
ATOM     88  C   UNL A   1      45.295  34.134  30.004  1.00  0.00     0.173 A 
ATOM     89  C   UNL A   1      44.243  34.642  27.905  1.00  0.00     0.173 A 
ATOM     90  F   UNL A   1      45.604  33.280  30.991  1.00  0.00    -0.203 F 
ATOM     91  C   UNL A   1      45.707  35.461  30.112  1.00  0.00     0.198 A 
ATOM     92  C   UNL A   1      44.686  35.959  27.999  1.00  0.00     0.198 A 
ATOM     93  F   UNL A   1      43.535  34.281  26.823  1.00  0.00    -0.203 F 
ATOM     94  F   UNL A   1      46.384  35.865  31.197  1.00  0.00    -0.200 F 
ATOM     95  C   UNL A   1      45.410  36.370  29.107  1.00  0.00     0.200 A 
ATOM     96  F   UNL A   1      44.415  36.829  27.016  1.00  0.00    -0.200 F 
ATOM     97  F   UNL A   1      45.818  37.643  29.208  1.00  0.00    -0.200 F 
ENDBRANCH  64  87
ENDBRANCH  38  39
ENDBRANCH  31  33
ENDBRANCH  30  31
ENDBRANCH  29  30
ENDBRANCH  28  29
ENDBRANCH  27  28
ENDBRANCH   1  27
TORSDOF 18
ENDMDL
