MODEL 1
REMARK VINA RESULT:     -10.7      0.000      0.000
REMARK SMILES Cc1ccc(C(N)=O)c(NCc2ccc(C(=O)OCCOCCOCCOC(=O)c3ccc(-c4c5nc(c(-c6c(F)c(F)c(F)c(F)c6F)c6ccc([nH]6)c(-c6c(F)c(F)c(F)c(F)c6F)c6nc(c(-c7c(F)c(F)c(F)c(F)c7F)c7ccc4[nH]7)C=C6)C=C5)cc3)o2)n1
REMARK SMILES IDX 22 1 21 2 20 3 19 4 18 5 16 6 17 7 15 8 12 9 13 10 93 11
REMARK SMILES IDX 14 12 11 13 10 14 9 16 1 17 2 18 3 19 94 20 4 21 5 22 6 23
REMARK SMILES IDX 7 24 8 25 23 28 24 29 25 30 26 31 27 32 28 33 29 34 30 35
REMARK SMILES IDX 31 36 92 37 32 38 91 39 33 40 34 41 35 42 85 43 36 44 90 45
REMARK SMILES IDX 84 46 86 47 37 48 89 49 83 50 82 51 38 53 70 54 50 55 69 56
REMARK SMILES IDX 51 57 54 58 68 59 87 60 52 61 53 62 67 64 88 65 55 66 39 67
REMARK SMILES IDX 40 68 48 69 41 70 42 71 46 72 49 73 43 74 44 75 47 76 45 77
REMARK SMILES IDX 71 78 72 79 80 80 73 81 74 82 78 83 81 84 75 85 76 86 79 87
REMARK SMILES IDX 77 88 56 89 57 90 65 91 58 92 59 93 63 94 66 95 60 96 61 97
REMARK SMILES IDX 64 98 62 99
REMARK H PARENT 10 15 7 26 7 27 86 52 54 63
REMARK Flexibility Score: inf
ROOT
ATOM      1  C   UNL A   1      32.925  29.033  25.932  1.00  0.00     0.188 C 
ENDROOT
BRANCH   1   2
ATOM      2  O   UNL A   1      33.034  29.151  24.517  1.00  0.00    -0.376 OA
BRANCH   2   3
ATOM      3  C   UNL A   1      33.739  28.165  23.775  1.00  0.00     0.202 C 
BRANCH   3   4
ATOM      4  C   UNL A   1      33.205  27.834  22.379  1.00  0.00     0.261 C 
BRANCH   4   5
ATOM      5  O   UNL A   1      32.197  26.812  22.398  1.00  0.00    -0.457 OA
BRANCH   5   6
ATOM      6  C   UNL A   1      32.659  25.525  22.395  1.00  0.00     0.374 C 
ATOM      7  O   UNL A   1      33.582  25.118  21.700  1.00  0.00    -0.242 OA
BRANCH   6   8
ATOM      8  C   UNL A   1      31.989  24.759  23.420  1.00  0.00     0.211 A 
ATOM      9  C   UNL A   1      31.817  23.938  25.466  1.00  0.00     0.124 A 
ATOM     10  C   UNL A   1      30.644  23.615  24.817  1.00  0.00     0.048 A 
ATOM     11  O   UNL A   1      32.640  24.611  24.614  1.00  0.00    -0.452 OA
ATOM     12  C   UNL A   1      30.746  24.157  23.508  1.00  0.00     0.058 A 
BRANCH   9  13
ATOM     13  C   UNL A   1      32.344  23.751  26.850  1.00  0.00     0.190 C 
BRANCH  13  14
ATOM     14  N   UNL A   1      32.935  22.448  27.127  1.00  0.00    -0.362 N 
ATOM     15  H   UNL A   1      32.571  21.880  27.844  1.00  0.00     0.162 HD
BRANCH  14  16
ATOM     16  C   UNL A   1      34.022  22.018  26.369  1.00  0.00     0.139 A 
ATOM     17  C   UNL A   1      37.408  23.329  25.732  1.00  0.00     0.067 C 
ATOM     18  C   UNL A   1      36.223  22.413  25.670  1.00  0.00     0.040 A 
ATOM     19  C   UNL A   1      36.289  21.200  25.006  1.00  0.00     0.024 A 
ATOM     20  N   UNL A   1      35.110  22.822  26.326  1.00  0.00    -0.236 NA
ATOM     21  C   UNL A   1      35.166  20.383  25.014  1.00  0.00     0.019 A 
ATOM     22  C   UNL A   1      34.009  20.788  25.694  1.00  0.00     0.081 A 
BRANCH  22  23
ATOM     23  C   UNL A   1      32.844  19.864  25.648  1.00  0.00     0.252 C 
ATOM     24  N   UNL A   1      32.912  18.706  26.370  1.00  0.00    -0.365 N 
ATOM     25  O   UNL A   1      31.833  20.136  25.010  1.00  0.00    -0.269 OA
ATOM     26  H   UNL A   1      33.726  18.493  26.882  1.00  0.00     0.159 HD
ATOM     27  H   UNL A   1      32.147  18.087  26.380  1.00  0.00     0.159 HD
ENDBRANCH  22  23
ENDBRANCH  14  16
ENDBRANCH  13  14
ENDBRANCH   9  13
ENDBRANCH   6   8
ENDBRANCH   5   6
ENDBRANCH   4   5
ENDBRANCH   3   4
ENDBRANCH   2   3
ENDBRANCH   1   2
BRANCH   1  28
ATOM     28  C   UNL A   1      33.929  29.761  26.847  1.00  0.00     0.188 C 
BRANCH  28  29
ATOM     29  O   UNL A   1      33.511  31.052  27.263  1.00  0.00    -0.376 OA
BRANCH  29  30
ATOM     30  C   UNL A   1      32.182  31.417  26.916  1.00  0.00     0.202 C 
BRANCH  30  31
ATOM     31  C   UNL A   1      31.868  32.880  27.239  1.00  0.00     0.261 C 
BRANCH  31  32
ATOM     32  O   UNL A   1      33.013  33.749  27.240  1.00  0.00    -0.460 OA
BRANCH  32  33
ATOM     33  C   UNL A   1      33.210  34.491  28.350  1.00  0.00     0.338 C 
ATOM     34  O   UNL A   1      32.531  35.417  28.755  1.00  0.00    -0.246 OA
BRANCH  33  35
ATOM     35  C   UNL A   1      34.327  33.890  29.104  1.00  0.00     0.060 A 
ATOM     36  C   UNL A   1      35.639  34.209  28.739  1.00  0.00     0.016 A 
ATOM     37  C   UNL A   1      34.077  33.010  30.160  1.00  0.00     0.016 A 
ATOM     38  C   UNL A   1      36.710  33.628  29.420  1.00  0.00     0.010 A 
ATOM     39  C   UNL A   1      35.148  32.417  30.831  1.00  0.00     0.010 A 
ATOM     40  C   UNL A   1      36.469  32.705  30.448  1.00  0.00    -0.014 A 
BRANCH  40  41
ATOM     41  C   UNL A   1      37.588  31.920  31.023  1.00  0.00     0.031 A 
ATOM     42  C   UNL A   1      38.027  32.213  32.430  1.00  0.00     0.074 A 
ATOM     43  C   UNL A   1      38.210  30.967  30.307  1.00  0.00     0.049 A 
ATOM     44  N   UNL A   1      39.000  31.683  33.126  1.00  0.00    -0.248 NA
ATOM     45  C   UNL A   1      37.264  33.245  33.149  1.00  0.00     0.031 C 
ATOM     46  C   UNL A   1      37.867  30.574  28.942  1.00  0.00     0.029 A 
ATOM     47  N   UNL A   1      39.275  30.164  30.633  1.00  0.00    -0.354 N 
ATOM     48  C   UNL A   1      38.964  32.313  34.362  1.00  0.00     0.074 A 
ATOM     49  C   UNL A   1      37.893  33.285  34.314  1.00  0.00     0.031 C 
ATOM     50  C   UNL A   1      38.717  29.613  28.540  1.00  0.00     0.029 A 
ATOM     51  C   UNL A   1      39.677  29.342  29.611  1.00  0.00     0.049 A 
ATOM     52  H   UNL A   1      39.710  30.178  31.517  1.00  0.00     0.167 HD
ATOM     53  C   UNL A   1      39.749  32.097  35.444  1.00  0.00     0.037 A 
ATOM     54  C   UNL A   1      40.714  28.484  29.544  1.00  0.00     0.037 A 
ATOM     55  C   UNL A   1      40.823  31.143  35.492  1.00  0.00     0.049 A 
ATOM     56  C   UNL A   1      41.618  28.313  30.738  1.00  0.00     0.074 A 
ATOM     57  C   UNL A   1      41.663  30.840  36.550  1.00  0.00     0.029 A 
ATOM     58  N   UNL A   1      41.216  30.345  34.428  1.00  0.00    -0.354 N 
ATOM     59  N   UNL A   1      41.552  28.881  31.916  1.00  0.00    -0.248 NA
ATOM     60  C   UNL A   1      42.741  27.375  30.591  1.00  0.00     0.031 C 
ATOM     61  C   UNL A   1      42.591  29.889  36.113  1.00  0.00     0.029 A 
ATOM     62  C   UNL A   1      42.301  29.567  34.798  1.00  0.00     0.049 A 
ATOM     63  H   UNL A   1      40.786  30.333  33.542  1.00  0.00     0.167 HD
ATOM     64  C   UNL A   1      42.603  28.355  32.656  1.00  0.00     0.074 A 
ATOM     65  C   UNL A   1      43.288  27.412  31.797  1.00  0.00     0.031 C 
ATOM     66  C   UNL A   1      42.967  28.626  33.934  1.00  0.00     0.037 A 
BRANCH  53  67
ATOM     67  C   UNL A   1      39.480  32.926  36.663  1.00  0.00     0.064 A 
ATOM     68  C   UNL A   1      38.514  32.548  37.607  1.00  0.00     0.173 A 
ATOM     69  C   UNL A   1      40.214  34.097  36.901  1.00  0.00     0.173 A 
ATOM     70  F   UNL A   1      37.776  31.445  37.412  1.00  0.00    -0.203 F 
ATOM     71  C   UNL A   1      38.277  33.326  38.736  1.00  0.00     0.198 A 
ATOM     72  C   UNL A   1      39.990  34.861  38.044  1.00  0.00     0.198 A 
ATOM     73  F   UNL A   1      41.149  34.500  36.027  1.00  0.00    -0.203 F 
ATOM     74  F   UNL A   1      37.321  32.970  39.605  1.00  0.00    -0.200 F 
ATOM     75  C   UNL A   1      39.019  34.477  38.957  1.00  0.00     0.200 A 
ATOM     76  F   UNL A   1      40.711  35.969  38.259  1.00  0.00    -0.200 F 
ATOM     77  F   UNL A   1      38.791  35.225  40.047  1.00  0.00    -0.200 F 
ENDBRANCH  53  67
BRANCH  54  78
ATOM     78  C   UNL A   1      40.967  27.721  28.295  1.00  0.00     0.064 A 
ATOM     79  C   UNL A   1      40.498  26.409  28.143  1.00  0.00     0.173 A 
ATOM     80  C   UNL A   1      41.706  28.277  27.241  1.00  0.00     0.173 A 
ATOM     81  F   UNL A   1      39.814  25.823  29.138  1.00  0.00    -0.203 F 
ATOM     82  C   UNL A   1      40.774  25.676  26.990  1.00  0.00     0.198 A 
ATOM     83  C   UNL A   1      41.960  27.552  26.079  1.00  0.00     0.198 A 
ATOM     84  F   UNL A   1      42.184  29.526  27.342  1.00  0.00    -0.203 F 
ATOM     85  F   UNL A   1      40.356  24.406  26.890  1.00  0.00    -0.200 F 
ATOM     86  C   UNL A   1      41.500  26.249  25.958  1.00  0.00     0.200 A 
ATOM     87  F   UNL A   1      42.660  28.111  25.082  1.00  0.00    -0.200 F 
ATOM     88  F   UNL A   1      41.768  25.542  24.851  1.00  0.00    -0.200 F 
ENDBRANCH  54  78
BRANCH  66  89
ATOM     89  C   UNL A   1      44.136  27.873  34.496  1.00  0.00     0.064 A 
ATOM     90  C   UNL A   1      43.980  26.618  35.102  1.00  0.00     0.173 A 
ATOM     91  C   UNL A   1      45.435  28.392  34.384  1.00  0.00     0.173 A 
ATOM     92  F   UNL A   1      42.757  26.085  35.246  1.00  0.00    -0.203 F 
ATOM     93  C   UNL A   1      45.080  25.918  35.590  1.00  0.00     0.198 A 
ATOM     94  C   UNL A   1      46.535  27.678  34.851  1.00  0.00     0.198 A 
ATOM     95  F   UNL A   1      45.638  29.586  33.806  1.00  0.00    -0.203 F 
ATOM     96  F   UNL A   1      44.905  24.736  36.198  1.00  0.00    -0.200 F 
ATOM     97  C   UNL A   1      46.357  26.445  35.458  1.00  0.00     0.200 A 
ATOM     98  F   UNL A   1      47.768  28.184  34.711  1.00  0.00    -0.200 F 
ATOM     99  F   UNL A   1      47.415  25.766  35.921  1.00  0.00    -0.200 F 
ENDBRANCH  66  89
ENDBRANCH  40  41
ENDBRANCH  33  35
ENDBRANCH  32  33
ENDBRANCH  31  32
ENDBRANCH  30  31
ENDBRANCH  29  30
ENDBRANCH  28  29
ENDBRANCH   1  28
TORSDOF 21
ENDMDL
MODEL 2
REMARK VINA RESULT:     -10.6      4.083      9.138
REMARK SMILES Cc1ccc(C(N)=O)c(NCc2ccc(C(=O)OCCOCCOCCOC(=O)c3ccc(-c4c5nc(c(-c6c(F)c(F)c(F)c(F)c6F)c6ccc([nH]6)c(-c6c(F)c(F)c(F)c(F)c6F)c6nc(c(-c7c(F)c(F)c(F)c(F)c7F)c7ccc4[nH]7)C=C6)C=C5)cc3)o2)n1
REMARK SMILES IDX 22 1 21 2 20 3 19 4 18 5 16 6 17 7 15 8 12 9 13 10 93 11
REMARK SMILES IDX 14 12 11 13 10 14 9 16 1 17 2 18 3 19 94 20 4 21 5 22 6 23
REMARK SMILES IDX 7 24 8 25 23 28 24 29 25 30 26 31 27 32 28 33 29 34 30 35
REMARK SMILES IDX 31 36 92 37 32 38 91 39 33 40 34 41 35 42 85 43 36 44 90 45
REMARK SMILES IDX 84 46 86 47 37 48 89 49 83 50 82 51 38 53 70 54 50 55 69 56
REMARK SMILES IDX 51 57 54 58 68 59 87 60 52 61 53 62 67 64 88 65 55 66 39 67
REMARK SMILES IDX 40 68 48 69 41 70 42 71 46 72 49 73 43 74 44 75 47 76 45 77
REMARK SMILES IDX 71 78 72 79 80 80 73 81 74 82 78 83 81 84 75 85 76 86 79 87
REMARK SMILES IDX 77 88 56 89 57 90 65 91 58 92 59 93 63 94 66 95 60 96 61 97
REMARK SMILES IDX 64 98 62 99
REMARK H PARENT 10 15 7 26 7 27 86 52 54 63
REMARK Flexibility Score: inf
ROOT
ATOM      1  C   UNL A   1      44.732  19.489  24.721  1.00  0.00     0.188 C 
ENDROOT
BRANCH   1   2
ATOM      2  O   UNL A   1      43.478  20.001  25.157  1.00  0.00    -0.376 OA
BRANCH   2   3
ATOM      3  C   UNL A   1      42.700  19.268  26.094  1.00  0.00     0.202 C 
BRANCH   3   4
ATOM      4  C   UNL A   1      41.197  19.556  26.124  1.00  0.00     0.261 C 
BRANCH   4   5
ATOM      5  O   UNL A   1      40.824  20.452  27.182  1.00  0.00    -0.457 OA
BRANCH   5   6
ATOM      6  C   UNL A   1      40.921  21.784  26.890  1.00  0.00     0.374 C 
ATOM      7  O   UNL A   1      41.964  22.426  26.902  1.00  0.00    -0.242 OA
BRANCH   6   8
ATOM      8  C   UNL A   1      39.641  22.285  26.444  1.00  0.00     0.211 A 
ATOM      9  C   UNL A   1      37.651  22.041  25.511  1.00  0.00     0.124 A 
ATOM     10  C   UNL A   1      37.703  23.335  25.985  1.00  0.00     0.048 A 
ATOM     11  O   UNL A   1      38.831  21.411  25.770  1.00  0.00    -0.452 OA
ATOM     12  C   UNL A   1      38.974  23.487  26.600  1.00  0.00     0.058 A 
BRANCH   9  13
ATOM     13  C   UNL A   1      36.613  21.204  24.840  1.00  0.00     0.190 C 
BRANCH  13  14
ATOM     14  N   UNL A   1      35.465  20.847  25.662  1.00  0.00    -0.362 N 
ATOM     15  H   UNL A   1      35.421  21.130  26.604  1.00  0.00     0.162 HD
BRANCH  14  16
ATOM     16  C   UNL A   1      34.431  20.099  25.102  1.00  0.00     0.139 A 
ATOM     17  C   UNL A   1      34.203  16.761  23.554  1.00  0.00     0.067 C 
ATOM     18  C   UNL A   1      33.772  18.100  24.072  1.00  0.00     0.040 A 
ATOM     19  C   UNL A   1      32.438  18.469  24.083  1.00  0.00     0.024 A 
ATOM     20  N   UNL A   1      34.751  18.902  24.557  1.00  0.00    -0.236 NA
ATOM     21  C   UNL A   1      32.102  19.711  24.608  1.00  0.00     0.019 A 
ATOM     22  C   UNL A   1      33.102  20.549  25.119  1.00  0.00     0.081 A 
BRANCH  22  23
ATOM     23  C   UNL A   1      32.665  21.867  25.654  1.00  0.00     0.252 C 
ATOM     24  N   UNL A   1      31.444  21.943  26.263  1.00  0.00    -0.365 N 
ATOM     25  O   UNL A   1      33.384  22.858  25.586  1.00  0.00    -0.269 OA
ATOM     26  H   UNL A   1      30.871  21.144  26.315  1.00  0.00     0.159 HD
ATOM     27  H   UNL A   1      31.139  22.795  26.648  1.00  0.00     0.159 HD
ENDBRANCH  22  23
ENDBRANCH  14  16
ENDBRANCH  13  14
ENDBRANCH   9  13
ENDBRANCH   6   8
ENDBRANCH   5   6
ENDBRANCH   4   5
ENDBRANCH   3   4
ENDBRANCH   2   3
ENDBRANCH   1   2
BRANCH   1  28
ATOM     28  C   UNL A   1      46.042  20.033  25.325  1.00  0.00     0.188 C 
BRANCH  28  29
ATOM     29  O   UNL A   1      46.091  21.447  25.436  1.00  0.00    -0.376 OA
BRANCH  29  30
ATOM     30  C   UNL A   1      46.065  22.169  24.212  1.00  0.00     0.202 C 
BRANCH  30  31
ATOM     31  C   UNL A   1      44.890  23.146  24.128  1.00  0.00     0.261 C 
BRANCH  31  32
ATOM     32  O   UNL A   1      44.680  23.930  25.314  1.00  0.00    -0.460 OA
BRANCH  32  33
ATOM     33  C   UNL A   1      45.154  25.193  25.298  1.00  0.00     0.338 C 
ATOM     34  O   UNL A   1      45.983  25.666  24.542  1.00  0.00    -0.246 OA
BRANCH  33  35
ATOM     35  C   UNL A   1      44.375  25.981  26.273  1.00  0.00     0.060 A 
ATOM     36  C   UNL A   1      44.637  27.350  26.400  1.00  0.00     0.016 A 
ATOM     37  C   UNL A   1      43.398  25.368  27.061  1.00  0.00     0.016 A 
ATOM     38  C   UNL A   1      43.932  28.106  27.337  1.00  0.00     0.010 A 
ATOM     39  C   UNL A   1      42.705  26.122  28.009  1.00  0.00     0.010 A 
ATOM     40  C   UNL A   1      42.985  27.490  28.168  1.00  0.00    -0.014 A 
BRANCH  40  41
ATOM     41  C   UNL A   1      42.397  28.232  29.308  1.00  0.00     0.031 A 
ATOM     42  C   UNL A   1      43.095  28.183  30.638  1.00  0.00     0.074 A 
ATOM     43  C   UNL A   1      41.258  28.932  29.170  1.00  0.00     0.049 A 
ATOM     44  N   UNL A   1      42.750  28.720  31.781  1.00  0.00    -0.248 NA
ATOM     45  C   UNL A   1      44.355  27.423  30.686  1.00  0.00     0.031 C 
ATOM     46  C   UNL A   1      40.497  29.075  27.931  1.00  0.00     0.029 A 
ATOM     47  N   UNL A   1      40.537  29.647  30.095  1.00  0.00    -0.354 N 
ATOM     48  C   UNL A   1      43.747  28.368  32.679  1.00  0.00     0.074 A 
ATOM     49  C   UNL A   1      44.698  27.548  31.959  1.00  0.00     0.031 C 
ATOM     50  C   UNL A   1      39.405  29.819  28.176  1.00  0.00     0.029 A 
ATOM     51  C   UNL A   1      39.379  30.184  29.593  1.00  0.00     0.049 A 
ATOM     52  H   UNL A   1      40.824  29.762  31.030  1.00  0.00     0.167 HD
ATOM     53  C   UNL A   1      43.866  28.704  33.985  1.00  0.00     0.037 A 
ATOM     54  C   UNL A   1      38.402  30.875  30.213  1.00  0.00     0.037 A 
ATOM     55  C   UNL A   1      42.917  29.506  34.708  1.00  0.00     0.049 A 
ATOM     56  C   UNL A   1      38.521  31.176  31.685  1.00  0.00     0.074 A 
ATOM     57  C   UNL A   1      42.960  29.914  36.030  1.00  0.00     0.029 A 
ATOM     58  N   UNL A   1      41.743  30.013  34.171  1.00  0.00    -0.354 N 
ATOM     59  N   UNL A   1      39.488  30.874  32.517  1.00  0.00    -0.248 NA
ATOM     60  C   UNL A   1      37.411  31.916  32.303  1.00  0.00     0.031 C 
ATOM     61  C   UNL A   1      41.792  30.633  36.304  1.00  0.00     0.029 A 
ATOM     62  C   UNL A   1      41.043  30.710  35.142  1.00  0.00     0.049 A 
ATOM     63  H   UNL A   1      41.452  29.896  33.237  1.00  0.00     0.167 HD
ATOM     64  C   UNL A   1      39.117  31.408  33.745  1.00  0.00     0.074 A 
ATOM     65  C   UNL A   1      37.840  32.061  33.549  1.00  0.00     0.031 C 
ATOM     66  C   UNL A   1      39.777  31.363  34.928  1.00  0.00     0.037 A 
BRANCH  53  67
ATOM     67  C   UNL A   1      45.062  28.183  34.721  1.00  0.00     0.064 A 
ATOM     68  C   UNL A   1      46.254  28.919  34.794  1.00  0.00     0.173 A 
ATOM     69  C   UNL A   1      45.008  26.947  35.381  1.00  0.00     0.173 A 
ATOM     70  F   UNL A   1      46.358  30.099  34.164  1.00  0.00    -0.203 F 
ATOM     71  C   UNL A   1      47.357  28.425  35.484  1.00  0.00     0.198 A 
ATOM     72  C   UNL A   1      46.106  26.467  36.090  1.00  0.00     0.198 A 
ATOM     73  F   UNL A   1      43.890  26.206  35.340  1.00  0.00    -0.203 F 
ATOM     74  F   UNL A   1      48.500  29.124  35.507  1.00  0.00    -0.200 F 
ATOM     75  C   UNL A   1      47.280  27.203  36.137  1.00  0.00     0.200 A 
ATOM     76  F   UNL A   1      46.029  25.289  36.725  1.00  0.00    -0.200 F 
ATOM     77  F   UNL A   1      48.343  26.730  36.803  1.00  0.00    -0.200 F 
ENDBRANCH  53  67
BRANCH  54  78
ATOM     78  C   UNL A   1      37.211  31.327  29.448  1.00  0.00     0.064 A 
ATOM     79  C   UNL A   1      37.042  32.676  29.106  1.00  0.00     0.173 A 
ATOM     80  C   UNL A   1      36.206  30.426  29.070  1.00  0.00     0.173 A 
ATOM     81  F   UNL A   1      37.962  33.580  29.475  1.00  0.00    -0.203 F 
ATOM     82  C   UNL A   1      35.904  33.108  28.429  1.00  0.00     0.198 A 
ATOM     83  C   UNL A   1      35.080  30.856  28.371  1.00  0.00     0.198 A 
ATOM     84  F   UNL A   1      36.318  29.126  29.382  1.00  0.00    -0.203 F 
ATOM     85  F   UNL A   1      35.743  34.410  28.156  1.00  0.00    -0.200 F 
ATOM     86  C   UNL A   1      34.926  32.197  28.058  1.00  0.00     0.200 A 
ATOM     87  F   UNL A   1      34.139  29.971  28.012  1.00  0.00    -0.200 F 
ATOM     88  F   UNL A   1      33.830  32.615  27.410  1.00  0.00    -0.200 F 
ENDBRANCH  54  78
BRANCH  66  89
ATOM     89  C   UNL A   1      39.151  32.065  36.098  1.00  0.00     0.064 A 
ATOM     90  C   UNL A   1      39.436  33.407  36.388  1.00  0.00     0.173 A 
ATOM     91  C   UNL A   1      38.218  31.401  36.908  1.00  0.00     0.173 A 
ATOM     92  F   UNL A   1      40.331  34.081  35.651  1.00  0.00    -0.203 F 
ATOM     93  C   UNL A   1      38.822  34.053  37.458  1.00  0.00     0.198 A 
ATOM     94  C   UNL A   1      37.588  32.057  37.962  1.00  0.00     0.198 A 
ATOM     95  F   UNL A   1      37.906  30.118  36.668  1.00  0.00    -0.203 F 
ATOM     96  F   UNL A   1      39.136  35.325  37.740  1.00  0.00    -0.200 F 
ATOM     97  C   UNL A   1      37.895  33.380  38.239  1.00  0.00     0.200 A 
ATOM     98  F   UNL A   1      36.683  31.409  38.708  1.00  0.00    -0.200 F 
ATOM     99  F   UNL A   1      37.298  34.006  39.264  1.00  0.00    -0.200 F 
ENDBRANCH  66  89
ENDBRANCH  40  41
ENDBRANCH  33  35
ENDBRANCH  32  33
ENDBRANCH  31  32
ENDBRANCH  30  31
ENDBRANCH  29  30
ENDBRANCH  28  29
ENDBRANCH   1  28
TORSDOF 21
ENDMDL
MODEL 3
REMARK VINA RESULT:     -10.3      3.969      9.514
REMARK SMILES Cc1ccc(C(N)=O)c(NCc2ccc(C(=O)OCCOCCOCCOC(=O)c3ccc(-c4c5nc(c(-c6c(F)c(F)c(F)c(F)c6F)c6ccc([nH]6)c(-c6c(F)c(F)c(F)c(F)c6F)c6nc(c(-c7c(F)c(F)c(F)c(F)c7F)c7ccc4[nH]7)C=C6)C=C5)cc3)o2)n1
REMARK SMILES IDX 22 1 21 2 20 3 19 4 18 5 16 6 17 7 15 8 12 9 13 10 93 11
REMARK SMILES IDX 14 12 11 13 10 14 9 16 1 17 2 18 3 19 94 20 4 21 5 22 6 23
REMARK SMILES IDX 7 24 8 25 23 28 24 29 25 30 26 31 27 32 28 33 29 34 30 35
REMARK SMILES IDX 31 36 92 37 32 38 91 39 33 40 34 41 35 42 85 43 36 44 90 45
REMARK SMILES IDX 84 46 86 47 37 48 89 49 83 50 82 51 38 53 70 54 50 55 69 56
REMARK SMILES IDX 51 57 54 58 68 59 87 60 52 61 53 62 67 64 88 65 55 66 39 67
REMARK SMILES IDX 40 68 48 69 41 70 42 71 46 72 49 73 43 74 44 75 47 76 45 77
REMARK SMILES IDX 71 78 72 79 80 80 73 81 74 82 78 83 81 84 75 85 76 86 79 87
REMARK SMILES IDX 77 88 56 89 57 90 65 91 58 92 59 93 63 94 66 95 60 96 61 97
REMARK SMILES IDX 64 98 62 99
REMARK H PARENT 10 15 7 26 7 27 86 52 54 63
REMARK Flexibility Score: inf
ROOT
ATOM      1  C   UNL A   1      43.975  21.433  25.425  1.00  0.00     0.188 C 
ENDROOT
BRANCH   1   2
ATOM      2  O   UNL A   1      42.828  22.168  25.013  1.00  0.00    -0.376 OA
BRANCH   2   3
ATOM      3  C   UNL A   1      42.484  23.376  25.678  1.00  0.00     0.202 C 
BRANCH   3   4
ATOM      4  C   UNL A   1      42.533  23.365  27.208  1.00  0.00     0.261 C 
BRANCH   4   5
ATOM      5  O   UNL A   1      41.230  23.277  27.805  1.00  0.00    -0.457 OA
BRANCH   5   6
ATOM      6  C   UNL A   1      40.501  22.169  27.474  1.00  0.00     0.374 C 
ATOM      7  O   UNL A   1      40.746  21.033  27.863  1.00  0.00    -0.242 OA
BRANCH   6   8
ATOM      8  C   UNL A   1      39.336  22.554  26.713  1.00  0.00     0.211 A 
ATOM      9  C   UNL A   1      37.578  22.108  25.448  1.00  0.00     0.124 A 
ATOM     10  C   UNL A   1      37.525  23.459  25.726  1.00  0.00     0.048 A 
ATOM     11  O   UNL A   1      38.685  21.565  26.027  1.00  0.00    -0.452 OA
ATOM     12  C   UNL A   1      38.645  23.743  26.553  1.00  0.00     0.058 A 
BRANCH   9  13
ATOM     13  C   UNL A   1      36.702  21.147  24.715  1.00  0.00     0.190 C 
BRANCH  13  14
ATOM     14  N   UNL A   1      35.546  20.660  25.455  1.00  0.00    -0.362 N 
ATOM     15  H   UNL A   1      35.487  20.792  26.428  1.00  0.00     0.162 HD
BRANCH  14  16
ATOM     16  C   UNL A   1      34.525  20.002  24.770  1.00  0.00     0.139 A 
ATOM     17  C   UNL A   1      33.927  16.507  23.763  1.00  0.00     0.067 C 
ATOM     18  C   UNL A   1      33.694  17.978  23.933  1.00  0.00     0.040 A 
ATOM     19  C   UNL A   1      32.505  18.565  23.538  1.00  0.00     0.024 A 
ATOM     20  N   UNL A   1      34.691  18.681  24.523  1.00  0.00    -0.236 NA
ATOM     21  C   UNL A   1      32.340  19.927  23.754  1.00  0.00     0.019 A 
ATOM     22  C   UNL A   1      33.358  20.668  24.369  1.00  0.00     0.081 A 
BRANCH  22  23
ATOM     23  C   UNL A   1      33.111  22.123  24.556  1.00  0.00     0.252 C 
ATOM     24  N   UNL A   1      32.307  22.762  23.655  1.00  0.00    -0.365 N 
ATOM     25  O   UNL A   1      33.584  22.737  25.506  1.00  0.00    -0.269 OA
ATOM     26  H   UNL A   1      31.929  22.264  22.894  1.00  0.00     0.159 HD
ATOM     27  H   UNL A   1      32.105  23.718  23.767  1.00  0.00     0.159 HD
ENDBRANCH  22  23
ENDBRANCH  14  16
ENDBRANCH  13  14
ENDBRANCH   9  13
ENDBRANCH   6   8
ENDBRANCH   5   6
ENDBRANCH   4   5
ENDBRANCH   3   4
ENDBRANCH   2   3
ENDBRANCH   1   2
BRANCH   1  28
ATOM     28  C   UNL A   1      45.320  21.626  24.697  1.00  0.00     0.188 C 
BRANCH  28  29
ATOM     29  O   UNL A   1      46.347  22.180  25.504  1.00  0.00    -0.376 OA
BRANCH  29  30
ATOM     30  C   UNL A   1      46.113  23.493  25.994  1.00  0.00     0.202 C 
BRANCH  30  31
ATOM     31  C   UNL A   1      46.006  24.532  24.874  1.00  0.00     0.261 C 
BRANCH  31  32
ATOM     32  O   UNL A   1      45.000  25.536  25.087  1.00  0.00    -0.460 OA
BRANCH  32  33
ATOM     33  C   UNL A   1      45.431  26.809  25.213  1.00  0.00     0.338 C 
ATOM     34  O   UNL A   1      46.006  27.484  24.378  1.00  0.00    -0.246 OA
BRANCH  33  35
ATOM     35  C   UNL A   1      44.946  27.325  26.507  1.00  0.00     0.060 A 
ATOM     36  C   UNL A   1      44.400  26.427  27.432  1.00  0.00     0.016 A 
ATOM     37  C   UNL A   1      45.025  28.688  26.801  1.00  0.00     0.016 A 
ATOM     38  C   UNL A   1      43.908  26.900  28.649  1.00  0.00     0.010 A 
ATOM     39  C   UNL A   1      44.519  29.161  28.013  1.00  0.00     0.010 A 
ATOM     40  C   UNL A   1      43.937  28.273  28.933  1.00  0.00    -0.014 A 
BRANCH  40  41
ATOM     41  C   UNL A   1      43.221  28.806  30.116  1.00  0.00     0.031 A 
ATOM     42  C   UNL A   1      41.817  29.313  29.943  1.00  0.00     0.074 A 
ATOM     43  C   UNL A   1      43.810  28.847  31.325  1.00  0.00     0.049 A 
ATOM     44  N   UNL A   1      41.013  29.854  30.823  1.00  0.00    -0.248 NA
ATOM     45  C   UNL A   1      41.243  29.193  28.594  1.00  0.00     0.031 C 
ATOM     46  C   UNL A   1      45.156  28.369  31.628  1.00  0.00     0.029 A 
ATOM     47  N   UNL A   1      43.343  29.330  32.523  1.00  0.00    -0.354 N 
ATOM     48  C   UNL A   1      39.840  30.136  30.136  1.00  0.00     0.074 A 
ATOM     49  C   UNL A   1      40.045  29.732  28.761  1.00  0.00     0.031 C 
ATOM     50  C   UNL A   1      45.415  28.596  32.928  1.00  0.00     0.029 A 
ATOM     51  C   UNL A   1      44.261  29.257  33.540  1.00  0.00     0.049 A 
ATOM     52  H   UNL A   1      42.435  29.694  32.641  1.00  0.00     0.167 HD
ATOM     53  C   UNL A   1      38.692  30.674  30.610  1.00  0.00     0.037 A 
ATOM     54  C   UNL A   1      44.184  29.691  34.813  1.00  0.00     0.037 A 
ATOM     55  C   UNL A   1      38.489  31.090  31.971  1.00  0.00     0.049 A 
ATOM     56  C   UNL A   1      42.920  30.354  35.298  1.00  0.00     0.074 A 
ATOM     57  C   UNL A   1      37.354  31.631  32.549  1.00  0.00     0.029 A 
ATOM     58  N   UNL A   1      39.452  31.022  32.966  1.00  0.00    -0.354 N 
ATOM     59  N   UNL A   1      41.801  30.578  34.654  1.00  0.00    -0.248 NA
ATOM     60  C   UNL A   1      42.909  30.822  36.693  1.00  0.00     0.031 C 
ATOM     61  C   UNL A   1      37.643  31.929  33.884  1.00  0.00     0.029 A 
ATOM     62  C   UNL A   1      38.944  31.534  34.149  1.00  0.00     0.049 A 
ATOM     63  H   UNL A   1      40.361  30.662  32.850  1.00  0.00     0.167 HD
ATOM     64  C   UNL A   1      40.949  31.187  35.566  1.00  0.00     0.074 A 
ATOM     65  C   UNL A   1      41.675  31.289  36.814  1.00  0.00     0.031 C 
ATOM     66  C   UNL A   1      39.677  31.620  35.387  1.00  0.00     0.037 A 
BRANCH  53  67
ATOM     67  C   UNL A   1      37.570  30.862  29.635  1.00  0.00     0.064 A 
ATOM     68  C   UNL A   1      36.696  29.813  29.314  1.00  0.00     0.173 A 
ATOM     69  C   UNL A   1      37.351  32.111  29.035  1.00  0.00     0.173 A 
ATOM     70  F   UNL A   1      36.877  28.597  29.850  1.00  0.00    -0.203 F 
ATOM     71  C   UNL A   1      35.656  30.002  28.409  1.00  0.00     0.198 A 
ATOM     72  C   UNL A   1      36.295  32.303  28.148  1.00  0.00     0.198 A 
ATOM     73  F   UNL A   1      38.160  33.145  29.310  1.00  0.00    -0.203 F 
ATOM     74  F   UNL A   1      34.857  28.976  28.084  1.00  0.00    -0.200 F 
ATOM     75  C   UNL A   1      35.451  31.247  27.833  1.00  0.00     0.200 A 
ATOM     76  F   UNL A   1      36.095  33.507  27.596  1.00  0.00    -0.200 F 
ATOM     77  F   UNL A   1      34.447  31.429  26.963  1.00  0.00    -0.200 F 
ENDBRANCH  53  67
BRANCH  54  78
ATOM     78  C   UNL A   1      45.343  29.525  35.727  1.00  0.00     0.064 A 
ATOM     79  C   UNL A   1      46.332  30.513  35.826  1.00  0.00     0.173 A 
ATOM     80  C   UNL A   1      45.501  28.363  36.496  1.00  0.00     0.173 A 
ATOM     81  F   UNL A   1      46.240  31.628  35.084  1.00  0.00    -0.203 F 
ATOM     82  C   UNL A   1      47.443  30.339  36.647  1.00  0.00     0.198 A 
ATOM     83  C   UNL A   1      46.601  28.201  37.336  1.00  0.00     0.198 A 
ATOM     84  F   UNL A   1      44.586  27.385  36.430  1.00  0.00    -0.203 F 
ATOM     85  F   UNL A   1      48.399  31.278  36.687  1.00  0.00    -0.200 F 
ATOM     86  C   UNL A   1      47.574  29.186  37.405  1.00  0.00     0.200 A 
ATOM     87  F   UNL A   1      46.722  27.086  38.070  1.00  0.00    -0.200 F 
ATOM     88  F   UNL A   1      48.646  29.017  38.193  1.00  0.00    -0.200 F 
ENDBRANCH  54  78
BRANCH  66  89
ATOM     89  C   UNL A   1      38.973  32.214  36.571  1.00  0.00     0.064 A 
ATOM     90  C   UNL A   1      38.074  31.465  37.344  1.00  0.00     0.173 A 
ATOM     91  C   UNL A   1      39.239  33.534  36.967  1.00  0.00     0.173 A 
ATOM     92  F   UNL A   1      37.776  30.203  36.999  1.00  0.00    -0.203 F 
ATOM     93  C   UNL A   1      37.454  32.021  38.459  1.00  0.00     0.198 A 
ATOM     94  C   UNL A   1      38.636  34.079  38.096  1.00  0.00     0.198 A 
ATOM     95  F   UNL A   1      40.096  34.290  36.264  1.00  0.00    -0.203 F 
ATOM     96  F   UNL A   1      36.570  31.299  39.163  1.00  0.00    -0.200 F 
ATOM     97  C   UNL A   1      37.740  33.325  38.838  1.00  0.00     0.200 A 
ATOM     98  F   UNL A   1      38.923  35.334  38.468  1.00  0.00    -0.200 F 
ATOM     99  F   UNL A   1      37.148  33.856  39.917  1.00  0.00    -0.200 F 
ENDBRANCH  66  89
ENDBRANCH  40  41
ENDBRANCH  33  35
ENDBRANCH  32  33
ENDBRANCH  31  32
ENDBRANCH  30  31
ENDBRANCH  29  30
ENDBRANCH  28  29
ENDBRANCH   1  28
TORSDOF 21
ENDMDL
