MODEL 1
REMARK VINA RESULT:     -10.3      0.000      0.000
REMARK SMILES C[C@H](c1ccoc1)[NH+]1CC[NH+]([C@@H](C)C(=O)OCCOCCOCCOC(=O)c2ccc(-c3c4nc(c(-c5c(F)c(F)c(F)c(F)c5F)c5ccc([nH]5)c(-c5c(F)c(F)c(F)c(F)c5F)c5nc(c(-c6c(F)c(F)c(F)c(F)c6F)c6ccc3[nH]6)C=C5)C=C4)cc2)CC1
REMARK SMILES IDX 20 1 19 2 18 3 17 4 16 5 14 6 15 7 12 8 13 9 11 10 8 11 9 12
REMARK SMILES IDX 92 13 10 15 91 16 2 18 1 19 3 20 4 21 7 22 5 23 6 24 21 25
REMARK SMILES IDX 22 26 23 27 24 28 25 29 26 30 27 31 28 32 29 33 90 34 30 35
REMARK SMILES IDX 89 36 31 37 32 38 33 39 83 40 34 41 88 42 82 43 84 44 35 45
REMARK SMILES IDX 87 46 81 47 80 48 36 50 68 51 48 52 67 53 49 54 52 55 66 56
REMARK SMILES IDX 85 57 50 58 51 59 65 61 86 62 53 63 37 64 38 65 46 66 39 67
REMARK SMILES IDX 40 68 44 69 47 70 41 71 42 72 45 73 43 74 69 75 70 76 78 77
REMARK SMILES IDX 71 78 72 79 76 80 79 81 73 82 74 83 77 84 75 85 54 86 55 87
REMARK SMILES IDX 63 88 56 89 57 90 61 91 64 92 58 93 59 94 62 95 60 96
REMARK H PARENT 8 14 11 17 84 49 52 60
REMARK Flexibility Score: inf
ROOT
ATOM      1  C   UNL A   1      36.395  23.312  24.588  1.00  0.00     0.188 C 
ENDROOT
BRANCH   1   2
ATOM      2  O   UNL A   1      35.645  22.294  23.932  1.00  0.00    -0.376 OA
BRANCH   2   3
ATOM      3  C   UNL A   1      34.337  21.983  24.397  1.00  0.00     0.202 C 
BRANCH   3   4
ATOM      4  C   UNL A   1      34.144  21.580  25.864  1.00  0.00     0.261 C 
BRANCH   4   5
ATOM      5  O   UNL A   1      32.779  21.626  26.303  1.00  0.00    -0.459 OA
BRANCH   5   6
ATOM      6  C   UNL A   1      32.457  22.522  27.272  1.00  0.00     0.364 C 
ATOM      7  O   UNL A   1      32.954  22.512  28.396  1.00  0.00    -0.245 OA
BRANCH   6   8
ATOM      8  C   UNL A   1      31.431  23.605  26.841  1.00  0.00     0.292 C 
ATOM      9  C   UNL A   1      30.032  23.006  26.903  1.00  0.00     0.088 C 
BRANCH   8  10
ATOM     10  N   UNL A   1      31.747  24.357  25.608  1.00  0.00    -0.314 N 
ATOM     11  N   UNL A   1      31.054  27.247  25.046  1.00  0.00    -0.320 N 
ATOM     12  C   UNL A   1      30.070  26.170  24.950  1.00  0.00     0.325 C 
ATOM     13  C   UNL A   1      32.188  26.871  25.897  1.00  0.00     0.325 C 
ATOM     14  H   UNL A   1      30.566  27.997  25.537  1.00  0.00     0.348 HD
ATOM     15  C   UNL A   1      30.650  24.764  24.726  1.00  0.00     0.325 C 
ATOM     16  C   UNL A   1      32.742  25.432  25.738  1.00  0.00     0.325 C 
ATOM     17  H   UNL A   1      32.187  23.583  25.112  1.00  0.00     0.349 HD
BRANCH  11  18
ATOM     18  C   UNL A   1      31.376  27.989  23.816  1.00  0.00     0.215 C 
ATOM     19  C   UNL A   1      30.118  28.684  23.274  1.00  0.00     0.081 C 
BRANCH  18  20
ATOM     20  C   UNL A   1      32.083  27.175  22.770  1.00  0.00     0.047 A 
ATOM     21  C   UNL A   1      31.525  26.347  21.746  1.00  0.00     0.052 A 
ATOM     22  C   UNL A   1      33.449  27.122  22.556  1.00  0.00     0.204 A 
ATOM     23  C   UNL A   1      32.581  25.811  21.048  1.00  0.00     0.195 A 
ATOM     24  O   UNL A   1      33.754  26.289  21.531  1.00  0.00    -0.472 OA
ENDBRANCH  18  20
ENDBRANCH  11  18
ENDBRANCH   8  10
ENDBRANCH   6   8
ENDBRANCH   5   6
ENDBRANCH   4   5
ENDBRANCH   3   4
ENDBRANCH   2   3
ENDBRANCH   1   2
BRANCH   1  25
ATOM     25  C   UNL A   1      37.471  22.935  25.627  1.00  0.00     0.188 C 
BRANCH  25  26
ATOM     26  O   UNL A   1      38.445  22.031  25.167  1.00  0.00    -0.376 OA
BRANCH  26  27
ATOM     27  C   UNL A   1      39.043  21.146  26.095  1.00  0.00     0.202 C 
BRANCH  27  28
ATOM     28  C   UNL A   1      39.649  19.777  25.715  1.00  0.00     0.261 C 
BRANCH  28  29
ATOM     29  O   UNL A   1      40.739  19.270  26.500  1.00  0.00    -0.460 OA
BRANCH  29  30
ATOM     30  C   UNL A   1      41.993  19.481  26.034  1.00  0.00     0.338 C 
ATOM     31  O   UNL A   1      42.651  18.745  25.315  1.00  0.00    -0.246 OA
BRANCH  30  32
ATOM     32  C   UNL A   1      42.400  20.852  26.410  1.00  0.00     0.060 A 
ATOM     33  C   UNL A   1      42.667  21.795  25.405  1.00  0.00     0.016 A 
ATOM     34  C   UNL A   1      42.496  21.211  27.754  1.00  0.00     0.016 A 
ATOM     35  C   UNL A   1      43.011  23.108  25.747  1.00  0.00     0.010 A 
ATOM     36  C   UNL A   1      42.868  22.515  28.093  1.00  0.00     0.010 A 
ATOM     37  C   UNL A   1      43.131  23.472  27.095  1.00  0.00    -0.014 A 
BRANCH  37  38
ATOM     38  C   UNL A   1      43.623  24.817  27.489  1.00  0.00     0.031 A 
ATOM     39  C   UNL A   1      42.648  25.818  28.040  1.00  0.00     0.074 A 
ATOM     40  C   UNL A   1      44.909  25.165  27.308  1.00  0.00     0.049 A 
ATOM     41  N   UNL A   1      42.815  27.091  28.297  1.00  0.00    -0.248 NA
ATOM     42  C   UNL A   1      41.299  25.313  28.336  1.00  0.00     0.031 C 
ATOM     43  C   UNL A   1      45.964  24.278  26.825  1.00  0.00     0.029 A 
ATOM     44  N   UNL A   1      45.539  26.374  27.485  1.00  0.00    -0.354 N 
ATOM     45  C   UNL A   1      41.590  27.543  28.770  1.00  0.00     0.074 A 
ATOM     46  C   UNL A   1      40.684  26.414  28.747  1.00  0.00     0.031 C 
ATOM     47  C   UNL A   1      47.106  24.979  26.715  1.00  0.00     0.029 A 
ATOM     48  C   UNL A   1      46.850  26.374  27.073  1.00  0.00     0.049 A 
ATOM     49  H   UNL A   1      45.094  27.164  27.867  1.00  0.00     0.167 HD
ATOM     50  C   UNL A   1      41.254  28.788  29.185  1.00  0.00     0.037 A 
ATOM     51  C   UNL A   1      47.729  27.391  26.959  1.00  0.00     0.037 A 
ATOM     52  C   UNL A   1      42.155  29.911  29.199  1.00  0.00     0.049 A 
ATOM     53  C   UNL A   1      47.300  28.789  27.332  1.00  0.00     0.074 A 
ATOM     54  C   UNL A   1      41.914  31.205  29.628  1.00  0.00     0.029 A 
ATOM     55  N   UNL A   1      43.465  29.880  28.744  1.00  0.00    -0.354 N 
ATOM     56  N   UNL A   1      46.152  29.207  27.807  1.00  0.00    -0.248 NA
ATOM     57  C   UNL A   1      48.292  29.859  27.144  1.00  0.00     0.031 C 
ATOM     58  C   UNL A   1      43.056  31.972  29.372  1.00  0.00     0.029 A 
ATOM     59  C   UNL A   1      44.032  31.142  28.844  1.00  0.00     0.049 A 
ATOM     60  H   UNL A   1      43.926  29.080  28.401  1.00  0.00     0.167 HD
ATOM     61  C   UNL A   1      46.290  30.578  27.996  1.00  0.00     0.074 A 
ATOM     62  C   UNL A   1      47.641  30.918  27.604  1.00  0.00     0.031 C 
ATOM     63  C   UNL A   1      45.378  31.473  28.450  1.00  0.00     0.037 A 
BRANCH  50  64
ATOM     64  C   UNL A   1      39.837  29.013  29.630  1.00  0.00     0.064 A 
ATOM     65  C   UNL A   1      38.834  29.412  28.736  1.00  0.00     0.173 A 
ATOM     66  C   UNL A   1      39.471  28.785  30.966  1.00  0.00     0.173 A 
ATOM     67  F   UNL A   1      39.133  29.653  27.449  1.00  0.00    -0.203 F 
ATOM     68  C   UNL A   1      37.523  29.601  29.166  1.00  0.00     0.198 A 
ATOM     69  C   UNL A   1      38.153  28.943  31.386  1.00  0.00     0.198 A 
ATOM     70  F   UNL A   1      40.389  28.396  31.864  1.00  0.00    -0.203 F 
ATOM     71  F   UNL A   1      36.591  30.028  28.303  1.00  0.00    -0.200 F 
ATOM     72  C   UNL A   1      37.182  29.359  30.488  1.00  0.00     0.200 A 
ATOM     73  F   UNL A   1      37.823  28.693  32.661  1.00  0.00    -0.200 F 
ATOM     74  F   UNL A   1      35.918  29.531  30.898  1.00  0.00    -0.200 F 
ENDBRANCH  50  64
BRANCH  51  75
ATOM     75  C   UNL A   1      49.097  27.138  26.434  1.00  0.00     0.064 A 
ATOM     76  C   UNL A   1      50.168  26.880  27.301  1.00  0.00     0.173 A 
ATOM     77  C   UNL A   1      49.372  27.181  25.058  1.00  0.00     0.173 A 
ATOM     78  F   UNL A   1      49.965  26.861  28.627  1.00  0.00    -0.203 F 
ATOM     79  C   UNL A   1      51.461  26.693  26.816  1.00  0.00     0.198 A 
ATOM     80  C   UNL A   1      50.659  26.962  24.571  1.00  0.00     0.198 A 
ATOM     81  F   UNL A   1      48.387  27.437  24.185  1.00  0.00    -0.203 F 
ATOM     82  F   UNL A   1      52.474  26.503  27.672  1.00  0.00    -0.200 F 
ATOM     83  C   UNL A   1      51.704  26.726  25.450  1.00  0.00     0.200 A 
ATOM     84  F   UNL A   1      50.888  26.988  23.251  1.00  0.00    -0.200 F 
ATOM     85  F   UNL A   1      52.947  26.546  24.985  1.00  0.00    -0.200 F 
ENDBRANCH  51  75
BRANCH  63  86
ATOM     86  C   UNL A   1      45.813  32.907  28.573  1.00  0.00     0.064 A 
ATOM     87  C   UNL A   1      46.465  33.384  29.719  1.00  0.00     0.173 A 
ATOM     88  C   UNL A   1      45.618  33.805  27.511  1.00  0.00     0.173 A 
ATOM     89  F   UNL A   1      46.665  32.573  30.769  1.00  0.00    -0.203 F 
ATOM     90  C   UNL A   1      46.883  34.710  29.808  1.00  0.00     0.198 A 
ATOM     91  C   UNL A   1      46.068  35.121  27.589  1.00  0.00     0.198 A 
ATOM     92  F   UNL A   1      45.008  33.401  26.387  1.00  0.00    -0.203 F 
ATOM     93  F   UNL A   1      47.459  35.155  30.934  1.00  0.00    -0.200 F 
ATOM     94  C   UNL A   1      46.692  35.575  28.740  1.00  0.00     0.200 A 
ATOM     95  F   UNL A   1      45.897  35.949  26.549  1.00  0.00    -0.200 F 
ATOM     96  F   UNL A   1      47.105  36.847  28.824  1.00  0.00    -0.200 F 
ENDBRANCH  63  86
ENDBRANCH  37  38
ENDBRANCH  30  32
ENDBRANCH  29  30
ENDBRANCH  28  29
ENDBRANCH  27  28
ENDBRANCH  26  27
ENDBRANCH  25  26
ENDBRANCH   1  25
TORSDOF 20
ENDMDL
MODEL 2
REMARK VINA RESULT:     -10.3      1.105      2.261
REMARK SMILES C[C@H](c1ccoc1)[NH+]1CC[NH+]([C@@H](C)C(=O)OCCOCCOCCOC(=O)c2ccc(-c3c4nc(c(-c5c(F)c(F)c(F)c(F)c5F)c5ccc([nH]5)c(-c5c(F)c(F)c(F)c(F)c5F)c5nc(c(-c6c(F)c(F)c(F)c(F)c6F)c6ccc3[nH]6)C=C5)C=C4)cc2)CC1
REMARK SMILES IDX 20 1 19 2 18 3 17 4 16 5 14 6 15 7 12 8 13 9 11 10 8 11 9 12
REMARK SMILES IDX 92 13 10 15 91 16 2 18 1 19 3 20 4 21 7 22 5 23 6 24 21 25
REMARK SMILES IDX 22 26 23 27 24 28 25 29 26 30 27 31 28 32 29 33 90 34 30 35
REMARK SMILES IDX 89 36 31 37 32 38 33 39 83 40 34 41 88 42 82 43 84 44 35 45
REMARK SMILES IDX 87 46 81 47 80 48 36 50 68 51 48 52 67 53 49 54 52 55 66 56
REMARK SMILES IDX 85 57 50 58 51 59 65 61 86 62 53 63 37 64 38 65 46 66 39 67
REMARK SMILES IDX 40 68 44 69 47 70 41 71 42 72 45 73 43 74 69 75 70 76 78 77
REMARK SMILES IDX 71 78 72 79 76 80 79 81 73 82 74 83 77 84 75 85 54 86 55 87
REMARK SMILES IDX 63 88 56 89 57 90 61 91 64 92 58 93 59 94 62 95 60 96
REMARK H PARENT 8 14 11 17 84 49 52 60
REMARK Flexibility Score: inf
ROOT
ATOM      1  C   UNL A   1      37.291  23.619  25.778  1.00  0.00     0.188 C 
ENDROOT
BRANCH   1   2
ATOM      2  O   UNL A   1      37.194  23.701  24.358  1.00  0.00    -0.376 OA
BRANCH   2   3
ATOM      3  C   UNL A   1      36.420  22.736  23.656  1.00  0.00     0.202 C 
BRANCH   3   4
ATOM      4  C   UNL A   1      35.553  21.753  24.453  1.00  0.00     0.261 C 
BRANCH   4   5
ATOM      5  O   UNL A   1      34.159  21.808  24.122  1.00  0.00    -0.459 OA
BRANCH   5   6
ATOM      6  C   UNL A   1      33.269  21.883  25.145  1.00  0.00     0.364 C 
ATOM      7  O   UNL A   1      32.173  21.326  25.132  1.00  0.00    -0.245 OA
BRANCH   6   8
ATOM      8  C   UNL A   1      33.757  22.700  26.373  1.00  0.00     0.292 C 
ATOM      9  C   UNL A   1      33.635  21.832  27.619  1.00  0.00     0.088 C 
BRANCH   8  10
ATOM     10  N   UNL A   1      33.228  24.074  26.501  1.00  0.00    -0.314 N 
ATOM     11  N   UNL A   1      31.208  25.393  24.676  1.00  0.00    -0.320 N 
ATOM     12  C   UNL A   1      32.615  25.239  24.310  1.00  0.00     0.325 C 
ATOM     13  C   UNL A   1      30.810  24.435  25.713  1.00  0.00     0.325 C 
ATOM     14  H   UNL A   1      30.694  25.132  23.834  1.00  0.00     0.348 HD
ATOM     15  C   UNL A   1      33.589  25.070  25.487  1.00  0.00     0.325 C 
ATOM     16  C   UNL A   1      31.810  24.195  26.873  1.00  0.00     0.325 C 
ATOM     17  H   UNL A   1      33.786  24.337  27.313  1.00  0.00     0.349 HD
BRANCH  11  18
ATOM     18  C   UNL A   1      30.684  26.762  24.814  1.00  0.00     0.215 C 
ATOM     19  C   UNL A   1      30.238  27.297  23.444  1.00  0.00     0.081 C 
BRANCH  18  20
ATOM     20  C   UNL A   1      31.604  27.707  25.533  1.00  0.00     0.047 A 
ATOM     21  C   UNL A   1      32.491  28.687  24.988  1.00  0.00     0.052 A 
ATOM     22  C   UNL A   1      31.722  27.854  26.903  1.00  0.00     0.204 A 
ATOM     23  C   UNL A   1      33.119  29.292  26.051  1.00  0.00     0.195 A 
ATOM     24  O   UNL A   1      32.644  28.795  27.220  1.00  0.00    -0.472 OA
ENDBRANCH  18  20
ENDBRANCH  11  18
ENDBRANCH   8  10
ENDBRANCH   6   8
ENDBRANCH   5   6
ENDBRANCH   4   5
ENDBRANCH   3   4
ENDBRANCH   2   3
ENDBRANCH   1   2
BRANCH   1  25
ATOM     25  C   UNL A   1      38.612  23.176  26.439  1.00  0.00     0.188 C 
BRANCH  25  26
ATOM     26  O   UNL A   1      39.304  22.162  25.754  1.00  0.00    -0.376 OA
BRANCH  26  27
ATOM     27  C   UNL A   1      38.885  20.821  25.922  1.00  0.00     0.202 C 
BRANCH  27  28
ATOM     28  C   UNL A   1      39.700  19.597  25.448  1.00  0.00     0.261 C 
BRANCH  28  29
ATOM     29  O   UNL A   1      40.632  19.001  26.362  1.00  0.00    -0.460 OA
BRANCH  29  30
ATOM     30  C   UNL A   1      41.950  19.122  26.075  1.00  0.00     0.338 C 
ATOM     31  O   UNL A   1      42.668  18.302  25.524  1.00  0.00    -0.246 OA
BRANCH  30  32
ATOM     32  C   UNL A   1      42.367  20.504  26.397  1.00  0.00     0.060 A 
ATOM     33  C   UNL A   1      42.836  21.342  25.374  1.00  0.00     0.016 A 
ATOM     34  C   UNL A   1      42.274  20.977  27.706  1.00  0.00     0.016 A 
ATOM     35  C   UNL A   1      43.192  22.666  25.657  1.00  0.00     0.010 A 
ATOM     36  C   UNL A   1      42.658  22.291  27.991  1.00  0.00     0.010 A 
ATOM     37  C   UNL A   1      43.123  23.143  26.972  1.00  0.00    -0.014 A 
BRANCH  37  38
ATOM     38  C   UNL A   1      43.619  24.497  27.327  1.00  0.00     0.031 A 
ATOM     39  C   UNL A   1      42.644  25.523  27.831  1.00  0.00     0.074 A 
ATOM     40  C   UNL A   1      44.910  24.830  27.152  1.00  0.00     0.049 A 
ATOM     41  N   UNL A   1      42.817  26.803  28.047  1.00  0.00    -0.248 NA
ATOM     42  C   UNL A   1      41.288  25.038  28.126  1.00  0.00     0.031 C 
ATOM     43  C   UNL A   1      45.965  23.920  26.714  1.00  0.00     0.029 A 
ATOM     44  N   UNL A   1      45.546  26.040  27.297  1.00  0.00    -0.354 N 
ATOM     45  C   UNL A   1      41.589  27.279  28.488  1.00  0.00     0.074 A 
ATOM     46  C   UNL A   1      40.676  26.156  28.491  1.00  0.00     0.031 C 
ATOM     47  C   UNL A   1      47.113  24.609  26.596  1.00  0.00     0.029 A 
ATOM     48  C   UNL A   1      46.863  26.017  26.904  1.00  0.00     0.049 A 
ATOM     49  H   UNL A   1      45.102  26.845  27.647  1.00  0.00     0.167 HD
ATOM     50  C   UNL A   1      41.257  28.539  28.857  1.00  0.00     0.037 A 
ATOM     51  C   UNL A   1      47.750  27.023  26.767  1.00  0.00     0.037 A 
ATOM     52  C   UNL A   1      42.166  29.656  28.845  1.00  0.00     0.049 A 
ATOM     53  C   UNL A   1      47.327  28.436  27.088  1.00  0.00     0.074 A 
ATOM     54  C   UNL A   1      41.929  30.966  29.228  1.00  0.00     0.029 A 
ATOM     55  N   UNL A   1      43.482  29.601  28.410  1.00  0.00    -0.354 N 
ATOM     56  N   UNL A   1      46.176  28.878  27.533  1.00  0.00    -0.248 NA
ATOM     57  C   UNL A   1      48.329  29.492  26.877  1.00  0.00     0.031 C 
ATOM     58  C   UNL A   1      43.080  31.715  28.962  1.00  0.00     0.029 A 
ATOM     59  C   UNL A   1      44.057  30.861  28.475  1.00  0.00     0.049 A 
ATOM     60  H   UNL A   1      43.941  28.786  28.101  1.00  0.00     0.167 HD
ATOM     61  C   UNL A   1      46.321  30.253  27.678  1.00  0.00     0.074 A 
ATOM     62  C   UNL A   1      47.680  30.571  27.293  1.00  0.00     0.031 C 
ATOM     63  C   UNL A   1      45.410  31.169  28.089  1.00  0.00     0.037 A 
BRANCH  50  64
ATOM     64  C   UNL A   1      39.836  28.789  29.275  1.00  0.00     0.064 A 
ATOM     65  C   UNL A   1      39.421  28.658  30.608  1.00  0.00     0.173 A 
ATOM     66  C   UNL A   1      38.884  29.207  28.331  1.00  0.00     0.173 A 
ATOM     67  F   UNL A   1      40.289  28.251  31.549  1.00  0.00    -0.203 F 
ATOM     68  C   UNL A   1      38.102  28.908  30.976  1.00  0.00     0.198 A 
ATOM     69  C   UNL A   1      37.575  29.489  28.709  1.00  0.00     0.198 A 
ATOM     70  F   UNL A   1      39.228  29.355  27.043  1.00  0.00    -0.203 F 
ATOM     71  F   UNL A   1      37.718  28.731  32.249  1.00  0.00    -0.200 F 
ATOM     72  C   UNL A   1      37.182  29.331  30.029  1.00  0.00     0.200 A 
ATOM     73  F   UNL A   1      36.692  29.912  27.794  1.00  0.00    -0.200 F 
ATOM     74  F   UNL A   1      35.916  29.582  30.387  1.00  0.00    -0.200 F 
ENDBRANCH  50  64
BRANCH  51  75
ATOM     75  C   UNL A   1      49.124  26.744  26.269  1.00  0.00     0.064 A 
ATOM     76  C   UNL A   1      49.449  26.906  24.915  1.00  0.00     0.173 A 
ATOM     77  C   UNL A   1      50.133  26.280  27.128  1.00  0.00     0.173 A 
ATOM     78  F   UNL A   1      48.511  27.315  24.047  1.00  0.00    -0.203 F 
ATOM     79  C   UNL A   1      50.720  26.597  24.436  1.00  0.00     0.198 A 
ATOM     80  C   UNL A   1      51.413  26.002  26.654  1.00  0.00     0.198 A 
ATOM     81  F   UNL A   1      49.873  26.095  28.431  1.00  0.00    -0.203 F 
ATOM     82  F   UNL A   1      50.985  26.708  23.127  1.00  0.00    -0.200 F 
ATOM     83  C   UNL A   1      51.704  26.154  25.307  1.00  0.00     0.200 A 
ATOM     84  F   UNL A   1      52.363  25.581  27.500  1.00  0.00    -0.200 F 
ATOM     85  F   UNL A   1      52.926  25.857  24.845  1.00  0.00    -0.200 F 
ENDBRANCH  51  75
BRANCH  63  86
ATOM     86  C   UNL A   1      45.854  32.604  28.169  1.00  0.00     0.064 A 
ATOM     87  C   UNL A   1      46.468  33.123  29.319  1.00  0.00     0.173 A 
ATOM     88  C   UNL A   1      45.707  33.459  27.065  1.00  0.00     0.173 A 
ATOM     89  F   UNL A   1      46.620  32.354  30.407  1.00  0.00    -0.203 F 
ATOM     90  C   UNL A   1      46.895  34.447  29.369  1.00  0.00     0.198 A 
ATOM     91  C   UNL A   1      46.166  34.774  27.106  1.00  0.00     0.198 A 
ATOM     92  F   UNL A   1      45.135  33.014  25.936  1.00  0.00    -0.203 F 
ATOM     93  F   UNL A   1      47.433  34.934  30.497  1.00  0.00    -0.200 F 
ATOM     94  C   UNL A   1      46.752  35.269  28.261  1.00  0.00     0.200 A 
ATOM     95  F   UNL A   1      46.042  35.559  26.028  1.00  0.00    -0.200 F 
ATOM     96  F   UNL A   1      47.173  36.540  28.308  1.00  0.00    -0.200 F 
ENDBRANCH  63  86
ENDBRANCH  37  38
ENDBRANCH  30  32
ENDBRANCH  29  30
ENDBRANCH  28  29
ENDBRANCH  27  28
ENDBRANCH  26  27
ENDBRANCH  25  26
ENDBRANCH   1  25
TORSDOF 20
ENDMDL
MODEL 3
REMARK VINA RESULT:     -10.2      4.725      9.828
REMARK SMILES C[C@H](c1ccoc1)[NH+]1CC[NH+]([C@@H](C)C(=O)OCCOCCOCCOC(=O)c2ccc(-c3c4nc(c(-c5c(F)c(F)c(F)c(F)c5F)c5ccc([nH]5)c(-c5c(F)c(F)c(F)c(F)c5F)c5nc(c(-c6c(F)c(F)c(F)c(F)c6F)c6ccc3[nH]6)C=C5)C=C4)cc2)CC1
REMARK SMILES IDX 20 1 19 2 18 3 17 4 16 5 14 6 15 7 12 8 13 9 11 10 8 11 9 12
REMARK SMILES IDX 92 13 10 15 91 16 2 18 1 19 3 20 4 21 7 22 5 23 6 24 21 25
REMARK SMILES IDX 22 26 23 27 24 28 25 29 26 30 27 31 28 32 29 33 90 34 30 35
REMARK SMILES IDX 89 36 31 37 32 38 33 39 83 40 34 41 88 42 82 43 84 44 35 45
REMARK SMILES IDX 87 46 81 47 80 48 36 50 68 51 48 52 67 53 49 54 52 55 66 56
REMARK SMILES IDX 85 57 50 58 51 59 65 61 86 62 53 63 37 64 38 65 46 66 39 67
REMARK SMILES IDX 40 68 44 69 47 70 41 71 42 72 45 73 43 74 69 75 70 76 78 77
REMARK SMILES IDX 71 78 72 79 76 80 79 81 73 82 74 83 77 84 75 85 54 86 55 87
REMARK SMILES IDX 63 88 56 89 57 90 61 91 64 92 58 93 59 94 62 95 60 96
REMARK H PARENT 8 14 11 17 84 49 52 60
REMARK Flexibility Score: inf
ROOT
ATOM      1  C   UNL A   1      30.305  25.779  26.027  1.00  0.00     0.188 C 
ENDROOT
BRANCH   1   2
ATOM      2  O   UNL A   1      29.757  24.618  26.646  1.00  0.00    -0.376 OA
BRANCH   2   3
ATOM      3  C   UNL A   1      30.602  23.506  26.913  1.00  0.00     0.202 C 
BRANCH   3   4
ATOM      4  C   UNL A   1      30.980  22.564  25.763  1.00  0.00     0.261 C 
BRANCH   4   5
ATOM      5  O   UNL A   1      32.392  22.468  25.531  1.00  0.00    -0.459 OA
BRANCH   5   6
ATOM      6  C   UNL A   1      32.817  21.611  24.567  1.00  0.00     0.364 C 
ATOM      7  O   UNL A   1      32.174  20.630  24.200  1.00  0.00    -0.245 OA
BRANCH   6   8
ATOM      8  C   UNL A   1      34.179  21.986  23.920  1.00  0.00     0.292 C 
ATOM      9  C   UNL A   1      35.242  22.038  25.010  1.00  0.00     0.088 C 
BRANCH   8  10
ATOM     10  N   UNL A   1      34.170  23.130  22.985  1.00  0.00    -0.314 N 
ATOM     11  N   UNL A   1      32.498  25.638  23.239  1.00  0.00    -0.320 N 
ATOM     12  C   UNL A   1      31.946  24.369  22.764  1.00  0.00     0.325 C 
ATOM     13  C   UNL A   1      33.721  25.437  24.023  1.00  0.00     0.325 C 
ATOM     14  H   UNL A   1      31.798  25.994  23.890  1.00  0.00     0.348 HD
ATOM     15  C   UNL A   1      32.970  23.381  22.183  1.00  0.00     0.325 C 
ATOM     16  C   UNL A   1      34.734  24.390  23.492  1.00  0.00     0.325 C 
ATOM     17  H   UNL A   1      34.834  22.738  22.318  1.00  0.00     0.349 HD
BRANCH  11  18
ATOM     18  C   UNL A   1      32.499  26.775  22.304  1.00  0.00     0.215 C 
ATOM     19  C   UNL A   1      33.849  27.507  22.366  1.00  0.00     0.081 C 
BRANCH  18  20
ATOM     20  C   UNL A   1      31.330  27.705  22.459  1.00  0.00     0.047 A 
ATOM     21  C   UNL A   1      31.278  29.122  22.278  1.00  0.00     0.052 A 
ATOM     22  C   UNL A   1      30.027  27.343  22.751  1.00  0.00     0.204 A 
ATOM     23  C   UNL A   1      29.986  29.511  22.542  1.00  0.00     0.195 A 
ATOM     24  O   UNL A   1      29.218  28.428  22.819  1.00  0.00    -0.472 OA
ENDBRANCH  18  20
ENDBRANCH  11  18
ENDBRANCH   8  10
ENDBRANCH   6   8
ENDBRANCH   5   6
ENDBRANCH   4   5
ENDBRANCH   3   4
ENDBRANCH   2   3
ENDBRANCH   1   2
BRANCH   1  25
ATOM     25  C   UNL A   1      31.526  26.485  26.650  1.00  0.00     0.188 C 
BRANCH  25  26
ATOM     26  O   UNL A   1      32.054  27.538  25.883  1.00  0.00    -0.376 OA
BRANCH  26  27
ATOM     27  C   UNL A   1      31.403  28.794  25.914  1.00  0.00     0.202 C 
BRANCH  27  28
ATOM     28  C   UNL A   1      31.887  29.997  26.754  1.00  0.00     0.261 C 
BRANCH  28  29
ATOM     29  O   UNL A   1      33.195  30.528  26.497  1.00  0.00    -0.460 OA
BRANCH  29  30
ATOM     30  C   UNL A   1      33.582  31.607  27.218  1.00  0.00     0.338 C 
ATOM     31  O   UNL A   1      32.959  32.643  27.394  1.00  0.00    -0.246 OA
BRANCH  30  32
ATOM     32  C   UNL A   1      34.844  31.272  27.912  1.00  0.00     0.060 A 
ATOM     33  C   UNL A   1      35.042  29.971  28.398  1.00  0.00     0.016 A 
ATOM     34  C   UNL A   1      35.839  32.238  28.060  1.00  0.00     0.016 A 
ATOM     35  C   UNL A   1      36.250  29.629  29.018  1.00  0.00     0.010 A 
ATOM     36  C   UNL A   1      37.033  31.901  28.705  1.00  0.00     0.010 A 
ATOM     37  C   UNL A   1      37.247  30.598  29.191  1.00  0.00    -0.014 A 
BRANCH  37  38
ATOM     38  C   UNL A   1      38.482  30.303  29.961  1.00  0.00     0.031 A 
ATOM     39  C   UNL A   1      39.485  29.342  29.390  1.00  0.00     0.074 A 
ATOM     40  C   UNL A   1      38.686  30.840  31.177  1.00  0.00     0.049 A 
ATOM     41  N   UNL A   1      40.546  28.814  29.948  1.00  0.00    -0.248 NA
ATOM     42  C   UNL A   1      39.256  28.914  28.003  1.00  0.00     0.031 C 
ATOM     43  C   UNL A   1      37.816  31.817  31.826  1.00  0.00     0.029 A 
ATOM     44  N   UNL A   1      39.681  30.611  32.097  1.00  0.00    -0.354 N 
ATOM     45  C   UNL A   1      41.102  27.981  28.986  1.00  0.00     0.074 A 
ATOM     46  C   UNL A   1      40.252  28.058  27.817  1.00  0.00     0.031 C 
ATOM     47  C   UNL A   1      38.298  32.084  33.052  1.00  0.00     0.029 A 
ATOM     48  C   UNL A   1      39.482  31.260  33.292  1.00  0.00     0.049 A 
ATOM     49  H   UNL A   1      40.460  30.036  31.919  1.00  0.00     0.167 HD
ATOM     50  C   UNL A   1      42.221  27.222  29.073  1.00  0.00     0.037 A 
ATOM     51  C   UNL A   1      40.154  31.167  34.458  1.00  0.00     0.037 A 
ATOM     52  C   UNL A   1      43.060  27.141  30.241  1.00  0.00     0.049 A 
ATOM     53  C   UNL A   1      41.338  30.237  34.562  1.00  0.00     0.074 A 
ATOM     54  C   UNL A   1      44.229  26.421  30.415  1.00  0.00     0.029 A 
ATOM     55  N   UNL A   1      42.808  27.788  31.442  1.00  0.00    -0.354 N 
ATOM     56  N   UNL A   1      41.878  29.474  33.642  1.00  0.00    -0.248 NA
ATOM     57  C   UNL A   1      42.000  30.149  35.872  1.00  0.00     0.031 C 
ATOM     58  C   UNL A   1      44.649  26.579  31.739  1.00  0.00     0.029 A 
ATOM     59  C   UNL A   1      43.778  27.450  32.374  1.00  0.00     0.049 A 
ATOM     60  H   UNL A   1      42.053  28.397  31.608  1.00  0.00     0.167 HD
ATOM     61  C   UNL A   1      42.953  28.837  34.253  1.00  0.00     0.074 A 
ATOM     62  C   UNL A   1      43.002  29.319  35.618  1.00  0.00     0.031 C 
ATOM     63  C   UNL A   1      43.818  27.933  33.731  1.00  0.00     0.037 A 
BRANCH  50  64
ATOM     64  C   UNL A   1      42.588  26.387  27.880  1.00  0.00     0.064 A 
ATOM     65  C   UNL A   1      43.502  26.833  26.915  1.00  0.00     0.173 A 
ATOM     66  C   UNL A   1      42.046  25.101  27.723  1.00  0.00     0.173 A 
ATOM     67  F   UNL A   1      44.041  28.059  27.012  1.00  0.00    -0.203 F 
ATOM     68  C   UNL A   1      43.839  26.036  25.824  1.00  0.00     0.198 A 
ATOM     69  C   UNL A   1      42.410  24.294  26.649  1.00  0.00     0.198 A 
ATOM     70  F   UNL A   1      41.171  24.621  28.620  1.00  0.00    -0.203 F 
ATOM     71  F   UNL A   1      44.680  26.503  24.890  1.00  0.00    -0.200 F 
ATOM     72  C   UNL A   1      43.300  24.765  25.696  1.00  0.00     0.200 A 
ATOM     73  F   UNL A   1      41.900  23.060  26.537  1.00  0.00    -0.200 F 
ATOM     74  F   UNL A   1      43.634  23.996  24.651  1.00  0.00    -0.200 F 
ENDBRANCH  50  64
BRANCH  51  75
ATOM     75  C   UNL A   1      39.706  31.949  35.641  1.00  0.00     0.064 A 
ATOM     76  C   UNL A   1      38.684  31.474  36.477  1.00  0.00     0.173 A 
ATOM     77  C   UNL A   1      40.265  33.200  35.946  1.00  0.00     0.173 A 
ATOM     78  F   UNL A   1      38.093  30.300  36.210  1.00  0.00    -0.203 F 
ATOM     79  C   UNL A   1      38.228  32.227  37.557  1.00  0.00     0.198 A 
ATOM     80  C   UNL A   1      39.830  33.937  37.045  1.00  0.00     0.198 A 
ATOM     81  F   UNL A   1      41.238  33.706  35.173  1.00  0.00    -0.203 F 
ATOM     82  F   UNL A   1      37.212  31.775  38.304  1.00  0.00    -0.200 F 
ATOM     83  C   UNL A   1      38.807  33.454  37.845  1.00  0.00     0.200 A 
ATOM     84  F   UNL A   1      40.398  35.119  37.324  1.00  0.00    -0.200 F 
ATOM     85  F   UNL A   1      38.366  34.177  38.884  1.00  0.00    -0.200 F 
ENDBRANCH  51  75
BRANCH  63  86
ATOM     86  C   UNL A   1      44.910  27.418  34.628  1.00  0.00     0.064 A 
ATOM     87  C   UNL A   1      46.133  28.092  34.761  1.00  0.00     0.173 A 
ATOM     88  C   UNL A   1      44.714  26.262  35.400  1.00  0.00     0.173 A 
ATOM     89  F   UNL A   1      46.379  29.194  34.037  1.00  0.00    -0.203 F 
ATOM     90  C   UNL A   1      47.127  27.616  35.614  1.00  0.00     0.198 A 
ATOM     91  C   UNL A   1      45.696  25.807  36.277  1.00  0.00     0.198 A 
ATOM     92  F   UNL A   1      43.561  25.582  35.319  1.00  0.00    -0.203 F 
ATOM     93  F   UNL A   1      48.306  28.250  35.686  1.00  0.00    -0.200 F 
ATOM     94  C   UNL A   1      46.904  26.479  36.377  1.00  0.00     0.200 A 
ATOM     95  F   UNL A   1      45.471  24.719  37.026  1.00  0.00    -0.200 F 
ATOM     96  F   UNL A   1      47.857  26.028  37.205  1.00  0.00    -0.200 F 
ENDBRANCH  63  86
ENDBRANCH  37  38
ENDBRANCH  30  32
ENDBRANCH  29  30
ENDBRANCH  28  29
ENDBRANCH  27  28
ENDBRANCH  26  27
ENDBRANCH  25  26
ENDBRANCH   1  25
TORSDOF 20
ENDMDL
