MODEL 1
REMARK VINA RESULT:     -10.0      0.000      0.000
REMARK SMILES CCCCN(C)c1ccc([N+](=O)[O-])c(C(=O)OCCOCCOCCOC(=O)c2ccc(-c3c4nc(c(-c5c(F)c(F)c(F)c(F)c5F)c5ccc([nH]5)c(-c5c(F)c(F)c(F)c(F)c5F)c5nc(c(-c6c(F)c(F)c(F)c(F)c6F)c6ccc3[nH]6)C=C5)C=C4)cc2)c1
REMARK SMILES IDX 21 1 20 2 19 3 18 4 17 5 15 6 16 7 14 8 7 9 8 10 92 11 9 12
REMARK SMILES IDX 10 13 5 14 6 15 4 16 3 17 2 18 1 19 11 20 12 21 13 22 22 23
REMARK SMILES IDX 23 24 24 25 25 26 26 27 27 28 28 29 29 30 30 31 91 32 31 33
REMARK SMILES IDX 90 34 32 35 33 36 34 37 84 38 35 39 89 40 83 41 85 42 36 43
REMARK SMILES IDX 88 44 82 45 81 46 37 48 69 49 49 50 68 51 50 52 53 53 67 54
REMARK SMILES IDX 86 55 51 56 52 57 66 59 87 60 54 61 38 62 39 63 47 64 40 65
REMARK SMILES IDX 41 66 45 67 48 68 42 69 43 70 46 71 44 72 70 73 71 74 79 75
REMARK SMILES IDX 72 76 73 77 77 78 80 79 74 80 75 81 78 82 76 83 55 84 56 85
REMARK SMILES IDX 64 86 57 87 58 88 62 89 65 90 59 91 60 92 63 93 61 94
REMARK H PARENT 85 47 53 58
REMARK Flexibility Score: inf
ROOT
ATOM      1  C   UNL A   1      39.941  21.506  26.130  1.00  0.00     0.188 C 
ENDROOT
BRANCH   1   2
ATOM      2  O   UNL A   1      38.562  21.797  26.313  1.00  0.00    -0.376 OA
BRANCH   2   3
ATOM      3  C   UNL A   1      37.710  21.376  25.253  1.00  0.00     0.202 C 
BRANCH   3   4
ATOM      4  C   UNL A   1      37.177  22.552  24.439  1.00  0.00     0.261 C 
BRANCH   4   5
ATOM      5  O   UNL A   1      35.887  23.000  24.882  1.00  0.00    -0.459 OA
BRANCH   5   6
ATOM      6  C   UNL A   1      34.955  23.369  23.971  1.00  0.00     0.345 C 
ATOM      7  O   UNL A   1      35.054  23.323  22.769  1.00  0.00    -0.246 OA
BRANCH   6   8
ATOM      8  C   UNL A   1      33.750  23.824  24.723  1.00  0.00     0.139 A 
ATOM      9  C   UNL A   1      32.483  25.768  25.591  1.00  0.00     0.038 A 
ATOM     10  C   UNL A   1      31.534  24.872  26.093  1.00  0.00     0.033 A 
ATOM     11  C   UNL A   1      33.570  25.201  24.921  1.00  0.00     0.048 A 
ATOM     12  C   UNL A   1      31.680  23.484  25.933  1.00  0.00     0.089 A 
ATOM     13  C   UNL A   1      32.797  22.969  25.255  1.00  0.00     0.284 A 
BRANCH   9  14
ATOM     14  N   UNL A   1      32.414  27.146  25.751  1.00  0.00    -0.375 N 
ATOM     15  C   UNL A   1      31.800  27.696  26.956  1.00  0.00     0.143 C 
BRANCH  14  16
ATOM     16  C   UNL A   1      32.424  28.016  24.556  1.00  0.00     0.116 C 
BRANCH  16  17
ATOM     17  C   UNL A   1      31.175  28.897  24.383  1.00  0.00     0.021 C 
BRANCH  17  18
ATOM     18  C   UNL A   1      30.039  28.421  23.462  1.00  0.00    -0.002 C 
ATOM     19  C   UNL A   1      29.613  26.964  23.614  1.00  0.00     0.004 C 
ENDBRANCH  17  18
ENDBRANCH  16  17
ENDBRANCH  14  16
ENDBRANCH   9  14
BRANCH  13  20
ATOM     20  N   UNL A   1      32.996  21.533  25.267  1.00  0.00     0.063 N 
ATOM     21  O   UNL A   1      32.492  20.884  24.342  1.00  0.00    -0.258 OA
ATOM     22  O   UNL A   1      33.558  21.050  26.260  1.00  0.00    -0.258 OA
ENDBRANCH  13  20
ENDBRANCH   6   8
ENDBRANCH   5   6
ENDBRANCH   4   5
ENDBRANCH   3   4
ENDBRANCH   2   3
ENDBRANCH   1   2
BRANCH   1  23
ATOM     23  C   UNL A   1      40.236  20.016  25.864  1.00  0.00     0.188 C 
BRANCH  23  24
ATOM     24  O   UNL A   1      41.517  19.574  25.435  1.00  0.00    -0.376 OA
BRANCH  24  25
ATOM     25  C   UNL A   1      42.673  20.034  26.109  1.00  0.00     0.202 C 
BRANCH  25  26
ATOM     26  C   UNL A   1      43.517  21.118  25.423  1.00  0.00     0.261 C 
BRANCH  26  27
ATOM     27  O   UNL A   1      43.667  22.336  26.169  1.00  0.00    -0.460 OA
BRANCH  27  28
ATOM     28  C   UNL A   1      43.548  23.483  25.455  1.00  0.00     0.338 C 
ATOM     29  O   UNL A   1      43.797  23.651  24.275  1.00  0.00    -0.246 OA
BRANCH  28  30
ATOM     30  C   UNL A   1      42.902  24.520  26.291  1.00  0.00     0.060 A 
ATOM     31  C   UNL A   1      43.515  25.778  26.387  1.00  0.00     0.016 A 
ATOM     32  C   UNL A   1      41.740  24.249  27.015  1.00  0.00     0.016 A 
ATOM     33  C   UNL A   1      42.978  26.763  27.217  1.00  0.00     0.010 A 
ATOM     34  C   UNL A   1      41.220  25.228  27.873  1.00  0.00     0.010 A 
ATOM     35  C   UNL A   1      41.852  26.478  27.997  1.00  0.00    -0.014 A 
BRANCH  35  36
ATOM     36  C   UNL A   1      41.451  27.412  29.080  1.00  0.00     0.031 A 
ATOM     37  C   UNL A   1      42.211  27.376  30.377  1.00  0.00     0.074 A 
ATOM     38  C   UNL A   1      40.444  28.289  28.917  1.00  0.00     0.049 A 
ATOM     39  N   UNL A   1      42.012  28.052  31.481  1.00  0.00    -0.248 NA
ATOM     40  C   UNL A   1      43.355  26.452  30.437  1.00  0.00     0.031 C 
ATOM     41  C   UNL A   1      39.660  28.463  27.697  1.00  0.00     0.029 A 
ATOM     42  N   UNL A   1      39.904  29.195  29.798  1.00  0.00    -0.354 N 
ATOM     43  C   UNL A   1      42.999  27.631  32.364  1.00  0.00     0.074 A 
ATOM     44  C   UNL A   1      43.780  26.625  31.680  1.00  0.00     0.031 C 
ATOM     45  C   UNL A   1      38.721  29.401  27.914  1.00  0.00     0.029 A 
ATOM     46  C   UNL A   1      38.821  29.872  29.296  1.00  0.00     0.049 A 
ATOM     47  H   UNL A   1      40.259  29.342  30.704  1.00  0.00     0.167 HD
ATOM     48  C   UNL A   1      43.235  28.050  33.629  1.00  0.00     0.037 A 
ATOM     49  C   UNL A   1      37.991  30.751  29.894  1.00  0.00     0.037 A 
ATOM     50  C   UNL A   1      42.460  29.050  34.315  1.00  0.00     0.049 A 
ATOM     51  C   UNL A   1      38.229  31.141  31.333  1.00  0.00     0.074 A 
ATOM     52  C   UNL A   1      42.639  29.553  35.592  1.00  0.00     0.029 A 
ATOM     53  N   UNL A   1      41.353  29.692  33.782  1.00  0.00    -0.354 N 
ATOM     54  N   UNL A   1      39.181  30.763  32.150  1.00  0.00    -0.248 NA
ATOM     55  C   UNL A   1      37.273  32.089  31.929  1.00  0.00     0.031 C 
ATOM     56  C   UNL A   1      41.609  30.463  35.851  1.00  0.00     0.029 A 
ATOM     57  C   UNL A   1      40.822  30.568  34.715  1.00  0.00     0.049 A 
ATOM     58  H   UNL A   1      40.997  29.548  32.875  1.00  0.00     0.167 HD
ATOM     59  C   UNL A   1      38.960  31.449  33.339  1.00  0.00     0.074 A 
ATOM     60  C   UNL A   1      37.790  32.275  33.136  1.00  0.00     0.031 C 
ATOM     61  C   UNL A   1      39.666  31.399  34.496  1.00  0.00     0.037 A 
BRANCH  48  62
ATOM     62  C   UNL A   1      44.370  27.408  34.370  1.00  0.00     0.064 A 
ATOM     63  C   UNL A   1      45.657  27.964  34.368  1.00  0.00     0.173 A 
ATOM     64  C   UNL A   1      44.154  26.249  35.130  1.00  0.00     0.173 A 
ATOM     65  F   UNL A   1      45.919  29.064  33.646  1.00  0.00    -0.203 F 
ATOM     66  C   UNL A   1      46.693  27.370  35.087  1.00  0.00     0.198 A 
ATOM     67  C   UNL A   1      45.184  25.674  35.868  1.00  0.00     0.198 A 
ATOM     68  F   UNL A   1      42.939  25.681  35.167  1.00  0.00    -0.203 F 
ATOM     69  F   UNL A   1      47.925  27.895  35.041  1.00  0.00    -0.200 F 
ATOM     70  C   UNL A   1      46.454  26.232  35.842  1.00  0.00     0.200 A 
ATOM     71  F   UNL A   1      44.948  24.581  36.608  1.00  0.00    -0.200 F 
ATOM     72  F   UNL A   1      47.448  25.669  36.542  1.00  0.00    -0.200 F 
ENDBRANCH  48  62
BRANCH  49  73
ATOM     73  C   UNL A   1      36.836  31.314  29.146  1.00  0.00     0.064 A 
ATOM     74  C   UNL A   1      36.813  32.660  28.753  1.00  0.00     0.173 A 
ATOM     75  C   UNL A   1      35.710  30.530  28.855  1.00  0.00     0.173 A 
ATOM     76  F   UNL A   1      37.850  33.459  29.041  1.00  0.00    -0.203 F 
ATOM     77  C   UNL A   1      35.698  33.205  28.119  1.00  0.00     0.198 A 
ATOM     78  C   UNL A   1      34.607  31.069  28.195  1.00  0.00     0.198 A 
ATOM     79  F   UNL A   1      35.675  29.241  29.222  1.00  0.00    -0.203 F 
ATOM     80  F   UNL A   1      35.677  34.510  27.811  1.00  0.00    -0.200 F 
ATOM     81  C   UNL A   1      34.598  32.409  27.836  1.00  0.00     0.200 A 
ATOM     82  F   UNL A   1      33.546  30.297  27.923  1.00  0.00    -0.200 F 
ATOM     83  F   UNL A   1      33.523  32.937  27.237  1.00  0.00    -0.200 F 
ENDBRANCH  49  73
BRANCH  61  84
ATOM     84  C   UNL A   1      39.227  32.294  35.620  1.00  0.00     0.064 A 
ATOM     85  C   UNL A   1      38.326  31.860  36.603  1.00  0.00     0.173 A 
ATOM     86  C   UNL A   1      39.757  33.588  35.742  1.00  0.00     0.173 A 
ATOM     87  F   UNL A   1      37.782  30.636  36.526  1.00  0.00    -0.203 F 
ATOM     88  C   UNL A   1      37.954  32.695  37.652  1.00  0.00     0.198 A 
ATOM     89  C   UNL A   1      39.406  34.410  36.810  1.00  0.00     0.198 A 
ATOM     90  F   UNL A   1      40.632  34.049  34.836  1.00  0.00    -0.203 F 
ATOM     91  F   UNL A   1      37.057  32.276  38.555  1.00  0.00    -0.200 F 
ATOM     92  C   UNL A   1      38.499  33.966  37.759  1.00  0.00     0.200 A 
ATOM     93  F   UNL A   1      39.947  35.632  36.920  1.00  0.00    -0.200 F 
ATOM     94  F   UNL A   1      38.147  34.765  38.775  1.00  0.00    -0.200 F 
ENDBRANCH  61  84
ENDBRANCH  35  36
ENDBRANCH  28  30
ENDBRANCH  27  28
ENDBRANCH  26  27
ENDBRANCH  25  26
ENDBRANCH  24  25
ENDBRANCH  23  24
ENDBRANCH   1  23
TORSDOF 22
ENDMDL
MODEL 2
REMARK VINA RESULT:      -9.9      3.274      8.880
REMARK SMILES CCCCN(C)c1ccc([N+](=O)[O-])c(C(=O)OCCOCCOCCOC(=O)c2ccc(-c3c4nc(c(-c5c(F)c(F)c(F)c(F)c5F)c5ccc([nH]5)c(-c5c(F)c(F)c(F)c(F)c5F)c5nc(c(-c6c(F)c(F)c(F)c(F)c6F)c6ccc3[nH]6)C=C5)C=C4)cc2)c1
REMARK SMILES IDX 21 1 20 2 19 3 18 4 17 5 15 6 16 7 14 8 7 9 8 10 92 11 9 12
REMARK SMILES IDX 10 13 5 14 6 15 4 16 3 17 2 18 1 19 11 20 12 21 13 22 22 23
REMARK SMILES IDX 23 24 24 25 25 26 26 27 27 28 28 29 29 30 30 31 91 32 31 33
REMARK SMILES IDX 90 34 32 35 33 36 34 37 84 38 35 39 89 40 83 41 85 42 36 43
REMARK SMILES IDX 88 44 82 45 81 46 37 48 69 49 49 50 68 51 50 52 53 53 67 54
REMARK SMILES IDX 86 55 51 56 52 57 66 59 87 60 54 61 38 62 39 63 47 64 40 65
REMARK SMILES IDX 41 66 45 67 48 68 42 69 43 70 46 71 44 72 70 73 71 74 79 75
REMARK SMILES IDX 72 76 73 77 77 78 80 79 74 80 75 81 78 82 76 83 55 84 56 85
REMARK SMILES IDX 64 86 57 87 58 88 62 89 65 90 59 91 60 92 63 93 61 94
REMARK H PARENT 85 47 53 58
REMARK Flexibility Score: inf
ROOT
ATOM      1  C   UNL A   1      29.608  28.329  23.069  1.00  0.00     0.188 C 
ENDROOT
BRANCH   1   2
ATOM      2  O   UNL A   1      30.106  27.022  22.813  1.00  0.00    -0.376 OA
BRANCH   2   3
ATOM      3  C   UNL A   1      31.265  26.969  21.988  1.00  0.00     0.202 C 
BRANCH   3   4
ATOM      4  C   UNL A   1      32.042  25.667  22.166  1.00  0.00     0.261 C 
BRANCH   4   5
ATOM      5  O   UNL A   1      33.377  25.874  22.652  1.00  0.00    -0.459 OA
BRANCH   5   6
ATOM      6  C   UNL A   1      33.575  26.182  23.957  1.00  0.00     0.345 C 
ATOM      7  O   UNL A   1      33.731  27.282  24.430  1.00  0.00    -0.246 OA
BRANCH   6   8
ATOM      8  C   UNL A   1      33.540  24.906  24.727  1.00  0.00     0.139 A 
ATOM      9  C   UNL A   1      34.557  22.669  25.044  1.00  0.00     0.038 A 
ATOM     10  C   UNL A   1      33.643  22.447  26.079  1.00  0.00     0.033 A 
ATOM     11  C   UNL A   1      34.464  23.903  24.398  1.00  0.00     0.048 A 
ATOM     12  C   UNL A   1      32.688  23.414  26.435  1.00  0.00     0.089 A 
ATOM     13  C   UNL A   1      32.638  24.637  25.745  1.00  0.00     0.284 A 
BRANCH   9  14
ATOM     14  N   UNL A   1      35.496  21.738  24.622  1.00  0.00    -0.375 N 
ATOM     15  C   UNL A   1      35.344  20.339  25.014  1.00  0.00     0.143 C 
BRANCH  14  16
ATOM     16  C   UNL A   1      36.865  22.187  24.290  1.00  0.00     0.116 C 
BRANCH  16  17
ATOM     17  C   UNL A   1      37.790  22.401  25.501  1.00  0.00     0.021 C 
BRANCH  17  18
ATOM     18  C   UNL A   1      37.903  23.802  26.126  1.00  0.00    -0.002 C 
ATOM     19  C   UNL A   1      39.133  24.058  26.991  1.00  0.00     0.004 C 
ENDBRANCH  17  18
ENDBRANCH  16  17
ENDBRANCH  14  16
ENDBRANCH   9  14
BRANCH  13  20
ATOM     20  N   UNL A   1      31.531  25.529  26.025  1.00  0.00     0.063 N 
ATOM     21  O   UNL A   1      31.695  26.373  26.915  1.00  0.00    -0.258 OA
ATOM     22  O   UNL A   1      30.465  25.308  25.433  1.00  0.00    -0.258 OA
ENDBRANCH  13  20
ENDBRANCH   6   8
ENDBRANCH   5   6
ENDBRANCH   4   5
ENDBRANCH   3   4
ENDBRANCH   2   3
ENDBRANCH   1   2
BRANCH   1  23
ATOM     23  C   UNL A   1      30.697  29.351  23.453  1.00  0.00     0.188 C 
BRANCH  23  24
ATOM     24  O   UNL A   1      30.601  30.134  24.635  1.00  0.00    -0.376 OA
BRANCH  24  25
ATOM     25  C   UNL A   1      31.419  29.820  25.746  1.00  0.00     0.202 C 
BRANCH  25  26
ATOM     26  C   UNL A   1      31.872  30.975  26.650  1.00  0.00     0.261 C 
BRANCH  26  27
ATOM     27  O   UNL A   1      33.253  31.348  26.517  1.00  0.00    -0.460 OA
BRANCH  27  28
ATOM     28  C   UNL A   1      33.754  32.118  27.515  1.00  0.00     0.338 C 
ATOM     29  O   UNL A   1      33.212  33.057  28.071  1.00  0.00    -0.246 OA
BRANCH  28  30
ATOM     30  C   UNL A   1      35.045  31.555  27.972  1.00  0.00     0.060 A 
ATOM     31  C   UNL A   1      35.122  30.177  28.221  1.00  0.00     0.016 A 
ATOM     32  C   UNL A   1      36.152  32.372  28.205  1.00  0.00     0.016 A 
ATOM     33  C   UNL A   1      36.298  29.614  28.718  1.00  0.00     0.010 A 
ATOM     34  C   UNL A   1      37.322  31.812  28.733  1.00  0.00     0.010 A 
ATOM     35  C   UNL A   1      37.391  30.435  29.017  1.00  0.00    -0.014 A 
BRANCH  35  36
ATOM     36  C   UNL A   1      38.528  29.892  29.802  1.00  0.00     0.031 A 
ATOM     37  C   UNL A   1      38.729  30.383  31.209  1.00  0.00     0.074 A 
ATOM     38  C   UNL A   1      39.360  28.967  29.289  1.00  0.00     0.049 A 
ATOM     39  N   UNL A   1      39.678  30.098  32.066  1.00  0.00    -0.248 NA
ATOM     40  C   UNL A   1      37.720  31.324  31.722  1.00  0.00     0.031 C 
ATOM     41  C   UNL A   1      39.248  28.370  27.961  1.00  0.00     0.029 A 
ATOM     42  N   UNL A   1      40.476  28.378  29.833  1.00  0.00    -0.354 N 
ATOM     43  C   UNL A   1      39.383  30.827  33.211  1.00  0.00     0.074 A 
ATOM     44  C   UNL A   1      38.184  31.586  32.934  1.00  0.00     0.031 C 
ATOM     45  C   UNL A   1      40.271  27.515  27.782  1.00  0.00     0.029 A 
ATOM     46  C   UNL A   1      41.123  27.527  28.971  1.00  0.00     0.049 A 
ATOM     47  H   UNL A   1      40.782  28.550  30.752  1.00  0.00     0.167 HD
ATOM     48  C   UNL A   1      40.050  30.856  34.389  1.00  0.00     0.037 A 
ATOM     49  C   UNL A   1      42.284  26.858  29.119  1.00  0.00     0.037 A 
ATOM     50  C   UNL A   1      41.244  30.103  34.669  1.00  0.00     0.049 A 
ATOM     51  C   UNL A   1      43.051  26.970  30.415  1.00  0.00     0.074 A 
ATOM     52  C   UNL A   1      41.976  30.054  35.842  1.00  0.00     0.029 A 
ATOM     53  N   UNL A   1      41.884  29.275  33.760  1.00  0.00    -0.354 N 
ATOM     54  N   UNL A   1      42.750  27.636  31.503  1.00  0.00    -0.248 NA
ATOM     55  C   UNL A   1      44.320  26.230  30.501  1.00  0.00     0.031 C 
ATOM     56  C   UNL A   1      43.090  29.236  35.627  1.00  0.00     0.029 A 
ATOM     57  C   UNL A   1      43.020  28.731  34.339  1.00  0.00     0.049 A 
ATOM     58  H   UNL A   1      41.578  29.099  32.841  1.00  0.00     0.167 HD
ATOM     59  C   UNL A   1      43.770  27.369  32.410  1.00  0.00     0.074 A 
ATOM     60  C   UNL A   1      44.693  26.473  31.750  1.00  0.00     0.031 C 
ATOM     61  C   UNL A   1      43.924  27.826  33.678  1.00  0.00     0.037 A 
BRANCH  48  62
ATOM     62  C   UNL A   1      39.515  31.753  35.465  1.00  0.00     0.064 A 
ATOM     63  C   UNL A   1      38.553  31.308  36.383  1.00  0.00     0.173 A 
ATOM     64  C   UNL A   1      40.006  33.059  35.607  1.00  0.00     0.173 A 
ATOM     65  F   UNL A   1      38.041  30.072  36.281  1.00  0.00    -0.203 F 
ATOM     66  C   UNL A   1      38.089  32.146  37.395  1.00  0.00     0.198 A 
ATOM     67  C   UNL A   1      39.560  33.885  36.635  1.00  0.00     0.198 A 
ATOM     68  F   UNL A   1      40.929  33.531  34.755  1.00  0.00    -0.203 F 
ATOM     69  F   UNL A   1      37.142  31.715  38.239  1.00  0.00    -0.200 F 
ATOM     70  C   UNL A   1      38.598  33.429  37.524  1.00  0.00     0.200 A 
ATOM     71  F   UNL A   1      40.063  35.120  36.766  1.00  0.00    -0.200 F 
ATOM     72  F   UNL A   1      38.160  34.230  38.505  1.00  0.00    -0.200 F 
ENDBRANCH  48  62
BRANCH  49  73
ATOM     73  C   UNL A   1      42.817  26.032  28.003  1.00  0.00     0.064 A 
ATOM     74  C   UNL A   1      42.595  24.648  27.956  1.00  0.00     0.173 A 
ATOM     75  C   UNL A   1      43.601  26.602  26.990  1.00  0.00     0.173 A 
ATOM     76  F   UNL A   1      41.883  24.051  28.922  1.00  0.00    -0.203 F 
ATOM     77  C   UNL A   1      43.158  23.863  26.951  1.00  0.00     0.198 A 
ATOM     78  C   UNL A   1      44.139  25.821  25.970  1.00  0.00     0.198 A 
ATOM     79  F   UNL A   1      43.856  27.918  26.998  1.00  0.00    -0.203 F 
ATOM     80  F   UNL A   1      42.983  22.534  26.965  1.00  0.00    -0.200 F 
ATOM     81  C   UNL A   1      43.926  24.450  25.955  1.00  0.00     0.200 A 
ATOM     82  F   UNL A   1      44.880  26.391  25.010  1.00  0.00    -0.200 F 
ATOM     83  F   UNL A   1      44.475  23.694  24.997  1.00  0.00    -0.200 F 
ENDBRANCH  49  73
BRANCH  61  84
ATOM     84  C   UNL A   1      45.109  27.330  34.457  1.00  0.00     0.064 A 
ATOM     85  C   UNL A   1      46.264  28.107  34.622  1.00  0.00     0.173 A 
ATOM     86  C   UNL A   1      45.065  26.078  35.092  1.00  0.00     0.173 A 
ATOM     87  F   UNL A   1      46.361  29.305  34.026  1.00  0.00    -0.203 F 
ATOM     88  C   UNL A   1      47.341  27.641  35.372  1.00  0.00     0.198 A 
ATOM     89  C   UNL A   1      46.131  25.628  35.867  1.00  0.00     0.198 A 
ATOM     90  F   UNL A   1      43.980  25.299  34.976  1.00  0.00    -0.203 F 
ATOM     91  F   UNL A   1      48.452  28.382  35.479  1.00  0.00    -0.200 F 
ATOM     92  C   UNL A   1      47.271  26.406  35.999  1.00  0.00     0.200 A 
ATOM     93  F   UNL A   1      46.054  24.442  36.485  1.00  0.00    -0.200 F 
ATOM     94  F   UNL A   1      48.303  25.963  36.729  1.00  0.00    -0.200 F 
ENDBRANCH  61  84
ENDBRANCH  35  36
ENDBRANCH  28  30
ENDBRANCH  27  28
ENDBRANCH  26  27
ENDBRANCH  25  26
ENDBRANCH  24  25
ENDBRANCH  23  24
ENDBRANCH   1  23
TORSDOF 22
ENDMDL
MODEL 3
REMARK VINA RESULT:      -9.8      3.876      9.315
REMARK SMILES CCCCN(C)c1ccc([N+](=O)[O-])c(C(=O)OCCOCCOCCOC(=O)c2ccc(-c3c4nc(c(-c5c(F)c(F)c(F)c(F)c5F)c5ccc([nH]5)c(-c5c(F)c(F)c(F)c(F)c5F)c5nc(c(-c6c(F)c(F)c(F)c(F)c6F)c6ccc3[nH]6)C=C5)C=C4)cc2)c1
REMARK SMILES IDX 21 1 20 2 19 3 18 4 17 5 15 6 16 7 14 8 7 9 8 10 92 11 9 12
REMARK SMILES IDX 10 13 5 14 6 15 4 16 3 17 2 18 1 19 11 20 12 21 13 22 22 23
REMARK SMILES IDX 23 24 24 25 25 26 26 27 27 28 28 29 29 30 30 31 91 32 31 33
REMARK SMILES IDX 90 34 32 35 33 36 34 37 84 38 35 39 89 40 83 41 85 42 36 43
REMARK SMILES IDX 88 44 82 45 81 46 37 48 69 49 49 50 68 51 50 52 53 53 67 54
REMARK SMILES IDX 86 55 51 56 52 57 66 59 87 60 54 61 38 62 39 63 47 64 40 65
REMARK SMILES IDX 41 66 45 67 48 68 42 69 43 70 46 71 44 72 70 73 71 74 79 75
REMARK SMILES IDX 72 76 73 77 77 78 80 79 74 80 75 81 78 82 76 83 55 84 56 85
REMARK SMILES IDX 64 86 57 87 58 88 62 89 65 90 59 91 60 92 63 93 61 94
REMARK H PARENT 85 47 53 58
REMARK Flexibility Score: inf
ROOT
ATOM      1  C   UNL A   1      34.461  31.841  28.116  1.00  0.00     0.188 C 
ENDROOT
BRANCH   1   2
ATOM      2  O   UNL A   1      33.234  31.552  27.458  1.00  0.00    -0.376 OA
BRANCH   2   3
ATOM      3  C   UNL A   1      33.242  30.378  26.652  1.00  0.00     0.202 C 
BRANCH   3   4
ATOM      4  C   UNL A   1      34.056  29.251  27.281  1.00  0.00     0.261 C 
BRANCH   4   5
ATOM      5  O   UNL A   1      34.191  28.111  26.420  1.00  0.00    -0.459 OA
BRANCH   5   6
ATOM      6  C   UNL A   1      33.155  27.248  26.281  1.00  0.00     0.345 C 
ATOM      7  O   UNL A   1      32.183  27.159  26.990  1.00  0.00    -0.246 OA
BRANCH   6   8
ATOM      8  C   UNL A   1      33.415  26.430  25.061  1.00  0.00     0.139 A 
ATOM      9  C   UNL A   1      34.485  24.392  24.144  1.00  0.00     0.038 A 
ATOM     10  C   UNL A   1      33.990  24.750  22.886  1.00  0.00     0.033 A 
ATOM     11  C   UNL A   1      34.178  25.260  25.194  1.00  0.00     0.048 A 
ATOM     12  C   UNL A   1      33.234  25.920  22.701  1.00  0.00     0.089 A 
ATOM     13  C   UNL A   1      32.961  26.759  23.794  1.00  0.00     0.284 A 
BRANCH   9  14
ATOM     14  N   UNL A   1      35.269  23.271  24.382  1.00  0.00    -0.375 N 
ATOM     15  C   UNL A   1      36.330  22.926  23.440  1.00  0.00     0.143 C 
BRANCH  14  16
ATOM     16  C   UNL A   1      34.726  22.166  25.201  1.00  0.00     0.116 C 
BRANCH  16  17
ATOM     17  C   UNL A   1      33.225  21.890  25.005  1.00  0.00     0.021 C 
BRANCH  17  18
ATOM     18  C   UNL A   1      32.771  20.966  23.863  1.00  0.00    -0.002 C 
ATOM     19  C   UNL A   1      32.184  21.652  22.634  1.00  0.00     0.004 C 
ENDBRANCH  17  18
ENDBRANCH  16  17
ENDBRANCH  14  16
ENDBRANCH   9  14
BRANCH  13  20
ATOM     20  N   UNL A   1      32.333  28.038  23.527  1.00  0.00     0.063 N 
ATOM     21  O   UNL A   1      31.096  28.076  23.546  1.00  0.00    -0.258 OA
ATOM     22  O   UNL A   1      33.075  28.971  23.189  1.00  0.00    -0.258 OA
ENDBRANCH  13  20
ENDBRANCH   6   8
ENDBRANCH   5   6
ENDBRANCH   4   5
ENDBRANCH   3   4
ENDBRANCH   2   3
ENDBRANCH   1   2
BRANCH   1  23
ATOM     23  C   UNL A   1      34.506  33.236  28.771  1.00  0.00     0.188 C 
BRANCH  23  24
ATOM     24  O   UNL A   1      34.460  34.426  27.997  1.00  0.00    -0.376 OA
BRANCH  24  25
ATOM     25  C   UNL A   1      34.147  35.654  28.626  1.00  0.00     0.202 C 
BRANCH  25  26
ATOM     26  C   UNL A   1      32.918  35.694  29.545  1.00  0.00     0.261 C 
BRANCH  26  27
ATOM     27  O   UNL A   1      33.124  36.342  30.811  1.00  0.00    -0.460 OA
BRANCH  27  28
ATOM     28  C   UNL A   1      32.739  35.637  31.904  1.00  0.00     0.338 C 
ATOM     29  O   UNL A   1      31.604  35.450  32.303  1.00  0.00    -0.246 OA
BRANCH  28  30
ATOM     30  C   UNL A   1      33.916  34.964  32.496  1.00  0.00     0.060 A 
ATOM     31  C   UNL A   1      35.181  35.541  32.310  1.00  0.00     0.016 A 
ATOM     32  C   UNL A   1      33.792  33.754  33.181  1.00  0.00     0.016 A 
ATOM     33  C   UNL A   1      36.325  34.906  32.793  1.00  0.00     0.010 A 
ATOM     34  C   UNL A   1      34.944  33.100  33.638  1.00  0.00     0.010 A 
ATOM     35  C   UNL A   1      36.217  33.660  33.422  1.00  0.00    -0.014 A 
BRANCH  35  36
ATOM     36  C   UNL A   1      37.439  32.856  33.679  1.00  0.00     0.031 A 
ATOM     37  C   UNL A   1      38.214  33.113  34.942  1.00  0.00     0.074 A 
ATOM     38  C   UNL A   1      37.849  31.903  32.823  1.00  0.00     0.049 A 
ATOM     39  N   UNL A   1      39.337  32.580  35.356  1.00  0.00    -0.248 NA
ATOM     40  C   UNL A   1      37.645  34.108  35.866  1.00  0.00     0.031 C 
ATOM     41  C   UNL A   1      37.164  31.518  31.591  1.00  0.00     0.029 A 
ATOM     42  N   UNL A   1      38.957  31.091  32.862  1.00  0.00    -0.354 N 
ATOM     43  C   UNL A   1      39.608  33.177  36.581  1.00  0.00     0.074 A 
ATOM     44  C   UNL A   1      38.550  34.131  36.832  1.00  0.00     0.031 C 
ATOM     45  C   UNL A   1      37.881  30.560  30.977  1.00  0.00     0.029 A 
ATOM     46  C   UNL A   1      39.087  30.286  31.758  1.00  0.00     0.049 A 
ATOM     47  H   UNL A   1      39.597  31.089  33.610  1.00  0.00     0.167 HD
ATOM     48  C   UNL A   1      40.644  32.947  37.422  1.00  0.00     0.037 A 
ATOM     49  C   UNL A   1      40.081  29.444  31.409  1.00  0.00     0.037 A 
ATOM     50  C   UNL A   1      41.699  32.001  37.175  1.00  0.00     0.049 A 
ATOM     51  C   UNL A   1      41.266  29.266  32.327  1.00  0.00     0.074 A 
ATOM     52  C   UNL A   1      42.780  31.686  37.981  1.00  0.00     0.029 A 
ATOM     53  N   UNL A   1      41.811  31.225  36.032  1.00  0.00    -0.354 N 
ATOM     54  N   UNL A   1      41.500  29.810  33.497  1.00  0.00    -0.248 NA
ATOM     55  C   UNL A   1      42.324  28.348  31.875  1.00  0.00     0.031 C 
ATOM     56  C   UNL A   1      43.574  30.756  37.303  1.00  0.00     0.029 A 
ATOM     57  C   UNL A   1      42.958  30.450  36.100  1.00  0.00     0.049 A 
ATOM     58  H   UNL A   1      41.171  31.223  35.284  1.00  0.00     0.167 HD
ATOM     59  C   UNL A   1      42.708  29.277  33.932  1.00  0.00     0.074 A 
ATOM     60  C   UNL A   1      43.155  28.359  32.908  1.00  0.00     0.031 C 
ATOM     61  C   UNL A   1      43.385  29.526  35.081  1.00  0.00     0.037 A 
BRANCH  48  62
ATOM     62  C   UNL A   1      40.701  33.754  38.685  1.00  0.00     0.064 A 
ATOM     63  C   UNL A   1      40.005  33.365  39.838  1.00  0.00     0.173 A 
ATOM     64  C   UNL A   1      41.501  34.903  38.756  1.00  0.00     0.173 A 
ATOM     65  F   UNL A   1      39.214  32.280  39.818  1.00  0.00    -0.203 F 
ATOM     66  C   UNL A   1      40.093  34.109  41.012  1.00  0.00     0.198 A 
ATOM     67  C   UNL A   1      41.609  35.630  39.938  1.00  0.00     0.198 A 
ATOM     68  F   UNL A   1      42.190  35.315  37.681  1.00  0.00    -0.203 F 
ATOM     69  F   UNL A   1      39.389  33.742  42.092  1.00  0.00    -0.200 F 
ATOM     70  C   UNL A   1      40.901  35.235  41.063  1.00  0.00     0.200 A 
ATOM     71  F   UNL A   1      42.401  36.711  39.989  1.00  0.00    -0.200 F 
ATOM     72  F   UNL A   1      40.995  35.944  42.197  1.00  0.00    -0.200 F 
ENDBRANCH  48  62
BRANCH  49  73
ATOM     73  C   UNL A   1      40.020  28.714  30.115  1.00  0.00     0.064 A 
ATOM     74  C   UNL A   1      39.430  27.445  30.025  1.00  0.00     0.173 A 
ATOM     75  C   UNL A   1      40.597  29.249  28.953  1.00  0.00     0.173 A 
ATOM     76  F   UNL A   1      38.898  26.876  31.117  1.00  0.00    -0.203 F 
ATOM     77  C   UNL A   1      39.441  26.729  28.829  1.00  0.00     0.198 A 
ATOM     78  C   UNL A   1      40.581  28.544  27.751  1.00  0.00     0.198 A 
ATOM     79  F   UNL A   1      41.188  30.451  28.989  1.00  0.00    -0.203 F 
ATOM     80  F   UNL A   1      38.926  25.492  28.787  1.00  0.00    -0.200 F 
ATOM     81  C   UNL A   1      40.012  27.281  27.692  1.00  0.00     0.200 A 
ATOM     82  F   UNL A   1      41.134  29.080  26.654  1.00  0.00    -0.200 F 
ATOM     83  F   UNL A   1      40.031  26.588  26.547  1.00  0.00    -0.200 F 
ENDBRANCH  49  73
BRANCH  61  84
ATOM     84  C   UNL A   1      44.657  28.764  35.320  1.00  0.00     0.064 A 
ATOM     85  C   UNL A   1      45.907  29.270  34.933  1.00  0.00     0.173 A 
ATOM     86  C   UNL A   1      44.628  27.531  35.991  1.00  0.00     0.173 A 
ATOM     87  F   UNL A   1      45.988  30.438  34.279  1.00  0.00    -0.203 F 
ATOM     88  C   UNL A   1      47.077  28.561  35.189  1.00  0.00     0.198 A 
ATOM     89  C   UNL A   1      45.803  26.839  36.272  1.00  0.00     0.198 A 
ATOM     90  F   UNL A   1      43.461  27.006  36.392  1.00  0.00    -0.203 F 
ATOM     91  F   UNL A   1      48.256  29.042  34.772  1.00  0.00    -0.200 F 
ATOM     92  C   UNL A   1      47.026  27.350  35.864  1.00  0.00     0.200 A 
ATOM     93  F   UNL A   1      45.752  25.677  36.939  1.00  0.00    -0.200 F 
ATOM     94  F   UNL A   1      48.154  26.673  36.118  1.00  0.00    -0.200 F 
ENDBRANCH  61  84
ENDBRANCH  35  36
ENDBRANCH  28  30
ENDBRANCH  27  28
ENDBRANCH  26  27
ENDBRANCH  25  26
ENDBRANCH  24  25
ENDBRANCH  23  24
ENDBRANCH   1  23
TORSDOF 22
ENDMDL
