MODEL 1
REMARK VINA RESULT:     -14.0      0.000      0.000
REMARK SMILES O=C(OCCOCCOCCOC(=O)c1ccc(-c2c3nc(c(-c4c(F)c(F)c(F)c(F)c4F)c4ccc([nH]4)c(-c4c(F)c(F)c(F)c(F)c4F)c4nc(c(-c5c(F)c(F)c(F)c(F)c5F)c5ccc2[nH]5)C=C4)C=C3)cc1)C1=Cc2c(ccc(Cl)c2Oc2ccccc2)O[C@H]1C(F)(F)F
REMARK SMILES IDX 7 1 6 2 5 3 4 4 3 5 2 6 1 7 78 8 79 9 95 10 80 11 94 12
REMARK SMILES IDX 81 13 86 14 82 15 84 16 83 17 85 18 96 19 97 20 98 21 99 22
REMARK SMILES IDX 87 23 88 24 89 25 93 26 90 27 92 28 91 29 8 30 9 31 10 32
REMARK SMILES IDX 11 33 12 34 13 35 14 36 15 37 16 38 77 39 17 40 76 41 18 42
REMARK SMILES IDX 19 43 20 44 70 45 21 46 75 47 69 48 71 49 22 50 74 51 68 52
REMARK SMILES IDX 67 53 23 55 55 56 35 57 54 58 36 59 39 60 53 61 72 62 37 63
REMARK SMILES IDX 38 64 52 66 73 67 40 68 24 69 25 70 33 71 26 72 27 73 31 74
REMARK SMILES IDX 34 75 28 76 29 77 32 78 30 79 56 80 57 81 65 82 58 83 59 84
REMARK SMILES IDX 63 85 66 86 60 87 61 88 64 89 62 90 41 91 42 92 50 93 43 94
REMARK SMILES IDX 44 95 48 96 51 97 45 98 46 99 49 100 47 101
REMARK H PARENT 71 54 39 65
REMARK Flexibility Score: inf
ROOT
ATOM      1  C   UNL A   1      32.044  28.574  27.442  1.00  0.00     0.188 C 
ENDROOT
BRANCH   1   2
ATOM      2  O   UNL A   1      31.112  27.659  27.783  1.00  0.00    -0.376 OA
BRANCH   2   3
ATOM      3  C   UNL A   1      31.351  26.640  26.825  1.00  0.00     0.202 C 
BRANCH   3   4
ATOM      4  C   UNL A   1      30.271  25.458  25.531  1.00  0.00     0.261 C 
BRANCH   4   5
ATOM      5  O   UNL A   1      30.381  25.278  24.136  1.00  0.00    -0.460 OA
BRANCH   5   6
ATOM      6  C   UNL A   1      31.091  24.214  23.737  1.00  0.00     0.338 C 
ATOM      7  O   UNL A   1      30.747  23.094  23.770  1.00  0.00    -0.246 OA
BRANCH   6   8
ATOM      8  C   UNL A   1      32.412  24.777  23.513  1.00  0.00     0.088 C 
ATOM      9  C   UNL A   1      33.478  24.071  23.204  1.00  0.00     0.031 C 
ATOM     10  C   UNL A   1      32.895  26.094  23.547  1.00  0.00     0.316 C 
ATOM     11  C   UNL A   1      34.042  23.339  24.521  1.00  0.00     0.062 A 
ATOM     12  O   UNL A   1      34.402  25.816  24.354  1.00  0.00    -0.475 OA
ATOM     13  C   UNL A   1      34.777  24.452  24.892  1.00  0.00     0.131 A 
ATOM     14  C   UNL A   1      34.098  21.558  24.717  1.00  0.00     0.156 A 
ATOM     15  C   UNL A   1      35.984  23.911  25.325  1.00  0.00     0.049 A 
ATOM     16  C   UNL A   1      35.375  21.199  25.137  1.00  0.00     0.084 A 
ATOM     17  C   UNL A   1      36.264  22.362  25.418  1.00  0.00     0.028 A 
ATOM     18  Cl  UNL A   1      36.061  19.625  25.001  1.00  0.00    -0.080 Cl
BRANCH  10  19
ATOM     19  C   UNL A   1      32.636  26.412  21.937  1.00  0.00     0.430 C 
ATOM     20  F   UNL A   1      31.420  26.972  21.626  1.00  0.00    -0.167 F 
ATOM     21  F   UNL A   1      33.526  27.354  21.484  1.00  0.00    -0.167 F 
ATOM     22  F   UNL A   1      32.761  25.340  21.139  1.00  0.00    -0.167 F 
ENDBRANCH  10  19
BRANCH  14  23
ATOM     23  O   UNL A   1      33.163  20.331  23.669  1.00  0.00    -0.455 OA
BRANCH  23  24
ATOM     24  C   UNL A   1      32.847  18.536  23.738  1.00  0.00     0.127 A 
ATOM     25  C   UNL A   1      33.624  17.564  23.087  1.00  0.00     0.047 A 
ATOM     26  C   UNL A   1      32.417  17.773  24.941  1.00  0.00     0.047 A 
ATOM     27  C   UNL A   1      33.967  16.203  23.749  1.00  0.00     0.004 A 
ATOM     28  C   UNL A   1      32.924  16.674  25.751  1.00  0.00     0.004 A 
ATOM     29  C   UNL A   1      33.727  15.824  25.099  1.00  0.00     0.000 A 
ENDBRANCH  23  24
ENDBRANCH  14  23
ENDBRANCH   6   8
ENDBRANCH   5   6
ENDBRANCH   4   5
ENDBRANCH   3   4
ENDBRANCH   2   3
ENDBRANCH   1   2
BRANCH   1  30
ATOM     30  C   UNL A   1      31.783  29.619  26.186  1.00  0.00     0.188 C 
BRANCH  30  31
ATOM     31  O   UNL A   1      32.339  30.899  26.181  1.00  0.00    -0.376 OA
BRANCH  31  32
ATOM     32  C   UNL A   1      31.403  31.844  26.597  1.00  0.00     0.202 C 
BRANCH  32  33
ATOM     33  C   UNL A   1      31.895  33.314  26.875  1.00  0.00     0.261 C 
BRANCH  33  34
ATOM     34  O   UNL A   1      32.765  33.745  28.019  1.00  0.00    -0.460 OA
BRANCH  34  35
ATOM     35  C   UNL A   1      34.075  34.198  28.005  1.00  0.00     0.338 C 
ATOM     36  O   UNL A   1      34.439  35.355  27.889  1.00  0.00    -0.246 OA
BRANCH  35  37
ATOM     37  C   UNL A   1      35.057  33.085  28.372  1.00  0.00     0.060 A 
ATOM     38  C   UNL A   1      34.719  31.712  28.552  1.00  0.00     0.016 A 
ATOM     39  C   UNL A   1      36.390  33.454  28.480  1.00  0.00     0.016 A 
ATOM     40  C   UNL A   1      35.708  30.752  28.881  1.00  0.00     0.010 A 
ATOM     41  C   UNL A   1      37.350  32.524  28.882  1.00  0.00     0.010 A 
ATOM     42  C   UNL A   1      37.019  31.177  29.108  1.00  0.00    -0.014 A 
BRANCH  42  43
ATOM     43  C   UNL A   1      37.994  30.366  29.884  1.00  0.00     0.031 A 
ATOM     44  C   UNL A   1      38.177  30.736  31.323  1.00  0.00     0.074 A 
ATOM     45  C   UNL A   1      38.790  29.440  29.323  1.00  0.00     0.049 A 
ATOM     46  N   UNL A   1      39.097  30.358  32.167  1.00  0.00    -0.248 NA
ATOM     47  C   UNL A   1      37.207  31.699  31.867  1.00  0.00     0.031 C 
ATOM     48  C   UNL A   1      38.688  28.982  27.945  1.00  0.00     0.029 A 
ATOM     49  N   UNL A   1      39.858  28.740  29.839  1.00  0.00    -0.354 N 
ATOM     50  C   UNL A   1      38.829  31.053  33.336  1.00  0.00     0.074 A 
ATOM     51  C   UNL A   1      37.693  31.909  33.077  1.00  0.00     0.031 C 
ATOM     52  C   UNL A   1      39.655  28.078  27.715  1.00  0.00     0.029 A 
ATOM     53  C   UNL A   1      40.488  27.944  28.912  1.00  0.00     0.049 A 
ATOM     54  H   UNL A   1      40.143  28.803  30.779  1.00  0.00     0.167 HD
ATOM     55  C   UNL A   1      39.483  30.981  34.515  1.00  0.00     0.037 A 
ATOM     56  C   UNL A   1      41.628  27.227  29.000  1.00  0.00     0.037 A 
ATOM     57  C   UNL A   1      40.643  30.164  34.732  1.00  0.00     0.049 A 
ATOM     58  C   UNL A   1      42.406  27.233  30.288  1.00  0.00     0.074 A 
ATOM     59  C   UNL A   1      41.370  30.008  35.896  1.00  0.00     0.029 A 
ATOM     60  N   UNL A   1      41.270  29.400  33.757  1.00  0.00    -0.354 N 
ATOM     61  N   UNL A   1      42.141  27.878  31.398  1.00  0.00    -0.248 NA
ATOM     62  C   UNL A   1      43.638  26.431  30.342  1.00  0.00     0.031 C 
ATOM     63  C   UNL A   1      42.500  29.249  35.599  1.00  0.00     0.029 A 
ATOM     64  C   UNL A   1      42.406  28.814  34.286  1.00  0.00     0.049 A 
ATOM     65  H   UNL A   1      40.954  29.293  32.831  1.00  0.00     0.167 HD
ATOM     66  C   UNL A   1      43.139  27.527  32.294  1.00  0.00     0.074 A 
ATOM     67  C   UNL A   1      44.027  26.621  31.596  1.00  0.00     0.031 C 
ATOM     68  C   UNL A   1      43.286  27.912  33.585  1.00  0.00     0.037 A 
BRANCH  55  69
ATOM     69  C   UNL A   1      39.002  31.878  35.617  1.00  0.00     0.064 A 
ATOM     70  C   UNL A   1      39.379  33.227  35.700  1.00  0.00     0.173 A 
ATOM     71  C   UNL A   1      38.183  31.363  36.634  1.00  0.00     0.173 A 
ATOM     72  F   UNL A   1      40.154  33.774  34.749  1.00  0.00    -0.203 F 
ATOM     73  C   UNL A   1      39.038  33.996  36.807  1.00  0.00     0.198 A 
ATOM     74  C   UNL A   1      37.781  32.157  37.700  1.00  0.00     0.198 A 
ATOM     75  F   UNL A   1      37.778  30.084  36.599  1.00  0.00    -0.203 F 
ATOM     76  F   UNL A   1      39.526  35.237  36.931  1.00  0.00    -0.200 F 
ATOM     77  C   UNL A   1      38.234  33.462  37.802  1.00  0.00     0.200 A 
ATOM     78  F   UNL A   1      36.974  31.649  38.642  1.00  0.00    -0.200 F 
ATOM     79  F   UNL A   1      37.908  34.203  38.869  1.00  0.00    -0.200 F 
ENDBRANCH  55  69
BRANCH  56  80
ATOM     80  C   UNL A   1      42.116  26.472  27.815  1.00  0.00     0.064 A 
ATOM     81  C   UNL A   1      43.077  27.010  26.947  1.00  0.00     0.173 A 
ATOM     82  C   UNL A   1      41.639  25.182  27.540  1.00  0.00     0.173 A 
ATOM     83  F   UNL A   1      43.549  28.248  27.151  1.00  0.00    -0.203 F 
ATOM     84  C   UNL A   1      43.535  26.286  25.847  1.00  0.00     0.198 A 
ATOM     85  C   UNL A   1      42.135  24.442  26.471  1.00  0.00     0.198 A 
ATOM     86  F   UNL A   1      40.710  24.626  28.332  1.00  0.00    -0.203 F 
ATOM     87  F   UNL A   1      44.414  26.842  25.001  1.00  0.00    -0.200 F 
ATOM     88  C   UNL A   1      43.077  24.997  25.619  1.00  0.00     0.200 A 
ATOM     89  F   UNL A   1      41.705  23.188  26.272  1.00  0.00    -0.200 F 
ATOM     90  F   UNL A   1      43.540  24.291  24.580  1.00  0.00    -0.200 F 
ENDBRANCH  56  80
BRANCH  68  91
ATOM     91  C   UNL A   1      44.396  27.293  34.382  1.00  0.00     0.064 A 
ATOM     92  C   UNL A   1      45.650  27.902  34.531  1.00  0.00     0.173 A 
ATOM     93  C   UNL A   1      44.158  26.097  35.081  1.00  0.00     0.173 A 
ATOM     94  F   UNL A   1      45.926  29.050  33.895  1.00  0.00    -0.203 F 
ATOM     95  C   UNL A   1      46.637  27.311  35.316  1.00  0.00     0.198 A 
ATOM     96  C   UNL A   1      45.123  25.546  35.912  1.00  0.00     0.198 A 
ATOM     97  F   UNL A   1      42.968  25.484  34.987  1.00  0.00    -0.203 F 
ATOM     98  F   UNL A   1      47.854  27.869  35.386  1.00  0.00    -0.200 F 
ATOM     99  C   UNL A   1      46.368  26.145  36.018  1.00  0.00     0.200 A 
ATOM    100  F   UNL A   1      44.844  24.443  36.620  1.00  0.00    -0.200 F 
ATOM    101  F   UNL A   1      47.311  25.595  36.793  1.00  0.00    -0.200 F 
ENDBRANCH  68  91
ENDBRANCH  42  43
ENDBRANCH  35  37
ENDBRANCH  34  35
ENDBRANCH  33  34
ENDBRANCH  32  33
ENDBRANCH  31  32
ENDBRANCH  30  31
ENDBRANCH   1  30
TORSDOF 20
ENDMDL
MODEL 2
REMARK VINA RESULT:     -13.5      1.222      7.041
REMARK SMILES O=C(OCCOCCOCCOC(=O)c1ccc(-c2c3nc(c(-c4c(F)c(F)c(F)c(F)c4F)c4ccc([nH]4)c(-c4c(F)c(F)c(F)c(F)c4F)c4nc(c(-c5c(F)c(F)c(F)c(F)c5F)c5ccc2[nH]5)C=C4)C=C3)cc1)C1=Cc2c(ccc(Cl)c2Oc2ccccc2)O[C@H]1C(F)(F)F
REMARK SMILES IDX 7 1 6 2 5 3 4 4 3 5 2 6 1 7 78 8 79 9 95 10 80 11 94 12
REMARK SMILES IDX 81 13 86 14 82 15 84 16 83 17 85 18 96 19 97 20 98 21 99 22
REMARK SMILES IDX 87 23 88 24 89 25 93 26 90 27 92 28 91 29 8 30 9 31 10 32
REMARK SMILES IDX 11 33 12 34 13 35 14 36 15 37 16 38 77 39 17 40 76 41 18 42
REMARK SMILES IDX 19 43 20 44 70 45 21 46 75 47 69 48 71 49 22 50 74 51 68 52
REMARK SMILES IDX 67 53 23 55 55 56 35 57 54 58 36 59 39 60 53 61 72 62 37 63
REMARK SMILES IDX 38 64 52 66 73 67 40 68 24 69 25 70 33 71 26 72 27 73 31 74
REMARK SMILES IDX 34 75 28 76 29 77 32 78 30 79 56 80 57 81 65 82 58 83 59 84
REMARK SMILES IDX 63 85 66 86 60 87 61 88 64 89 62 90 41 91 42 92 50 93 43 94
REMARK SMILES IDX 44 95 48 96 51 97 45 98 46 99 49 100 47 101
REMARK H PARENT 71 54 39 65
REMARK Flexibility Score: inf
ROOT
ATOM      1  C   UNL A   1      32.412  28.329  26.824  1.00  0.00     0.188 C 
ENDROOT
BRANCH   1   2
ATOM      2  O   UNL A   1      31.492  27.627  27.518  1.00  0.00    -0.376 OA
BRANCH   2   3
ATOM      3  C   UNL A   1      31.504  26.386  26.830  1.00  0.00     0.202 C 
BRANCH   3   4
ATOM      4  C   UNL A   1      30.299  25.326  25.540  1.00  0.00     0.261 C 
BRANCH   4   5
ATOM      5  O   UNL A   1      30.322  25.220  24.134  1.00  0.00    -0.460 OA
BRANCH   5   6
ATOM      6  C   UNL A   1      31.008  24.181  23.638  1.00  0.00     0.338 C 
ATOM      7  O   UNL A   1      30.654  23.063  23.603  1.00  0.00    -0.246 OA
BRANCH   6   8
ATOM      8  C   UNL A   1      32.326  24.748  23.408  1.00  0.00     0.088 C 
ATOM      9  C   UNL A   1      33.397  24.043  23.115  1.00  0.00     0.031 C 
ATOM     10  C   UNL A   1      32.802  26.067  23.421  1.00  0.00     0.316 C 
ATOM     11  C   UNL A   1      33.961  23.337  24.447  1.00  0.00     0.062 A 
ATOM     12  O   UNL A   1      34.307  25.813  24.238  1.00  0.00    -0.475 OA
ATOM     13  C   UNL A   1      34.688  24.460  24.801  1.00  0.00     0.131 A 
ATOM     14  C   UNL A   1      34.026  21.560  24.674  1.00  0.00     0.156 A 
ATOM     15  C   UNL A   1      35.897  23.934  25.248  1.00  0.00     0.049 A 
ATOM     16  C   UNL A   1      35.304  21.215  25.105  1.00  0.00     0.084 A 
ATOM     17  C   UNL A   1      36.186  22.388  25.369  1.00  0.00     0.028 A 
ATOM     18  Cl  UNL A   1      36.000  19.643  24.999  1.00  0.00    -0.080 Cl
BRANCH  10  19
ATOM     19  C   UNL A   1      32.547  26.356  21.805  1.00  0.00     0.430 C 
ATOM     20  F   UNL A   1      32.637  25.261  20.980  1.00  0.00    -0.167 F 
ATOM     21  F   UNL A   1      31.261  26.787  21.591  1.00  0.00    -0.167 F 
ATOM     22  F   UNL A   1      33.362  27.281  21.278  1.00  0.00    -0.167 F 
ENDBRANCH  10  19
BRANCH  14  23
ATOM     23  O   UNL A   1      33.103  20.309  23.644  1.00  0.00    -0.455 OA
BRANCH  23  24
ATOM     24  C   UNL A   1      32.830  18.508  23.721  1.00  0.00     0.127 A 
ATOM     25  C   UNL A   1      33.647  17.550  23.098  1.00  0.00     0.047 A 
ATOM     26  C   UNL A   1      32.389  17.744  24.920  1.00  0.00     0.047 A 
ATOM     27  C   UNL A   1      34.007  16.204  23.780  1.00  0.00     0.004 A 
ATOM     28  C   UNL A   1      32.903  16.664  25.752  1.00  0.00     0.004 A 
ATOM     29  C   UNL A   1      33.743  15.830  25.127  1.00  0.00     0.000 A 
ENDBRANCH  23  24
ENDBRANCH  14  23
ENDBRANCH   6   8
ENDBRANCH   5   6
ENDBRANCH   4   5
ENDBRANCH   3   4
ENDBRANCH   2   3
ENDBRANCH   1   2
BRANCH   1  30
ATOM     30  C   UNL A   1      32.115  29.893  26.369  1.00  0.00     0.188 C 
BRANCH  30  31
ATOM     31  O   UNL A   1      32.436  30.963  27.205  1.00  0.00    -0.376 OA
BRANCH  31  32
ATOM     32  C   UNL A   1      31.682  32.088  26.876  1.00  0.00     0.202 C 
BRANCH  32  33
ATOM     33  C   UNL A   1      32.366  33.503  26.975  1.00  0.00     0.261 C 
BRANCH  33  34
ATOM     34  O   UNL A   1      32.153  34.505  28.071  1.00  0.00    -0.460 OA
BRANCH  34  35
ATOM     35  C   UNL A   1      33.090  35.209  28.811  1.00  0.00     0.338 C 
ATOM     36  O   UNL A   1      32.988  36.360  29.200  1.00  0.00    -0.246 OA
BRANCH  35  37
ATOM     37  C   UNL A   1      34.221  34.301  29.294  1.00  0.00     0.060 A 
ATOM     38  C   UNL A   1      34.073  33.204  30.192  1.00  0.00     0.016 A 
ATOM     39  C   UNL A   1      35.478  34.548  28.760  1.00  0.00     0.016 A 
ATOM     40  C   UNL A   1      35.186  32.412  30.571  1.00  0.00     0.010 A 
ATOM     41  C   UNL A   1      36.586  33.819  29.193  1.00  0.00     0.010 A 
ATOM     42  C   UNL A   1      36.458  32.766  30.116  1.00  0.00    -0.014 A 
BRANCH  42  43
ATOM     43  C   UNL A   1      37.700  32.313  30.796  1.00  0.00     0.031 A 
ATOM     44  C   UNL A   1      38.472  31.223  30.119  1.00  0.00     0.074 A 
ATOM     45  C   UNL A   1      38.062  32.732  32.019  1.00  0.00     0.049 A 
ATOM     46  N   UNL A   1      39.451  30.492  30.577  1.00  0.00    -0.248 NA
ATOM     47  C   UNL A   1      38.050  30.890  28.750  1.00  0.00     0.031 C 
ATOM     48  C   UNL A   1      37.404  33.798  32.760  1.00  0.00     0.029 A 
ATOM     49  N   UNL A   1      39.055  32.290  32.864  1.00  0.00    -0.354 N 
ATOM     50  C   UNL A   1      39.747  29.598  29.561  1.00  0.00     0.074 A 
ATOM     51  C   UNL A   1      38.814  29.846  28.485  1.00  0.00     0.031 C 
ATOM     52  C   UNL A   1      38.005  33.932  33.955  1.00  0.00     0.029 A 
ATOM     53  C   UNL A   1      39.048  32.913  34.090  1.00  0.00     0.049 A 
ATOM     54  H   UNL A   1      39.708  31.596  32.616  1.00  0.00     0.167 HD
ATOM     55  C   UNL A   1      40.711  28.652  29.539  1.00  0.00     0.037 A 
ATOM     56  C   UNL A   1      39.764  32.665  35.206  1.00  0.00     0.037 A 
ATOM     57  C   UNL A   1      41.590  28.387  30.643  1.00  0.00     0.049 A 
ATOM     58  C   UNL A   1      40.765  31.541  35.206  1.00  0.00     0.074 A 
ATOM     59  C   UNL A   1      42.610  27.460  30.715  1.00  0.00     0.029 A 
ATOM     60  N   UNL A   1      41.525  29.017  31.878  1.00  0.00    -0.354 N 
ATOM     61  N   UNL A   1      41.055  30.708  34.237  1.00  0.00    -0.248 NA
ATOM     62  C   UNL A   1      41.529  31.311  36.441  1.00  0.00     0.031 C 
ATOM     63  C   UNL A   1      43.084  27.444  32.026  1.00  0.00     0.029 A 
ATOM     64  C   UNL A   1      42.457  28.457  32.734  1.00  0.00     0.049 A 
ATOM     65  H   UNL A   1      40.910  29.749  32.110  1.00  0.00     0.167 HD
ATOM     66  C   UNL A   1      42.062  29.887  34.724  1.00  0.00     0.074 A 
ATOM     67  C   UNL A   1      42.326  30.313  36.082  1.00  0.00     0.031 C 
ATOM     68  C   UNL A   1      42.716  28.887  34.086  1.00  0.00     0.037 A 
BRANCH  55  69
ATOM     69  C   UNL A   1      40.790  27.788  28.316  1.00  0.00     0.064 A 
ATOM     70  C   UNL A   1      40.122  26.556  28.228  1.00  0.00     0.173 A 
ATOM     71  C   UNL A   1      41.585  28.182  27.229  1.00  0.00     0.173 A 
ATOM     72  F   UNL A   1      39.340  26.134  29.234  1.00  0.00    -0.203 F 
ATOM     73  C   UNL A   1      40.329  25.710  27.143  1.00  0.00     0.198 A 
ATOM     74  C   UNL A   1      41.727  27.366  26.114  1.00  0.00     0.198 A 
ATOM     75  F   UNL A   1      42.234  29.355  27.251  1.00  0.00    -0.203 F 
ATOM     76  F   UNL A   1      39.793  24.482  27.146  1.00  0.00    -0.200 F 
ATOM     77  C   UNL A   1      41.125  26.118  26.085  1.00  0.00     0.200 A 
ATOM     78  F   UNL A   1      42.469  27.779  25.077  1.00  0.00    -0.200 F 
ATOM     79  F   UNL A   1      41.326  25.302  25.043  1.00  0.00    -0.200 F 
ENDBRANCH  55  69
BRANCH  56  80
ATOM     80  C   UNL A   1      39.528  33.478  36.429  1.00  0.00     0.064 A 
ATOM     81  C   UNL A   1      40.188  34.696  36.639  1.00  0.00     0.173 A 
ATOM     82  C   UNL A   1      38.615  33.055  37.407  1.00  0.00     0.173 A 
ATOM     83  F   UNL A   1      41.088  35.136  35.747  1.00  0.00    -0.203 F 
ATOM     84  C   UNL A   1      39.948  35.455  37.783  1.00  0.00     0.198 A 
ATOM     85  C   UNL A   1      38.339  33.838  38.523  1.00  0.00     0.198 A 
ATOM     86  F   UNL A   1      37.966  31.890  37.260  1.00  0.00    -0.203 F 
ATOM     87  F   UNL A   1      40.632  36.590  37.989  1.00  0.00    -0.200 F 
ATOM     88  C   UNL A   1      39.011  35.034  38.716  1.00  0.00     0.200 A 
ATOM     89  F   UNL A   1      37.415  33.436  39.407  1.00  0.00    -0.200 F 
ATOM     90  F   UNL A   1      38.758  35.778  39.801  1.00  0.00    -0.200 F 
ENDBRANCH  56  80
BRANCH  68  91
ATOM     91  C   UNL A   1      43.855  28.222  34.801  1.00  0.00     0.064 A 
ATOM     92  C   UNL A   1      45.149  28.761  34.827  1.00  0.00     0.173 A 
ATOM     93  C   UNL A   1      43.613  27.056  35.548  1.00  0.00     0.173 A 
ATOM     94  F   UNL A   1      45.431  29.878  34.141  1.00  0.00    -0.203 F 
ATOM     95  C   UNL A   1      46.166  28.132  35.540  1.00  0.00     0.198 A 
ATOM     96  C   UNL A   1      44.614  26.468  36.308  1.00  0.00     0.198 A 
ATOM     97  F   UNL A   1      42.387  26.510  35.571  1.00  0.00    -0.203 F 
ATOM     98  F   UNL A   1      47.413  28.620  35.492  1.00  0.00    -0.200 F 
ATOM     99  C   UNL A   1      45.894  26.997  36.292  1.00  0.00     0.200 A 
ATOM    100  F   UNL A   1      44.336  25.397  37.064  1.00  0.00    -0.200 F 
ATOM    101  F   UNL A   1      46.869  26.410  36.999  1.00  0.00    -0.200 F 
ENDBRANCH  68  91
ENDBRANCH  42  43
ENDBRANCH  35  37
ENDBRANCH  34  35
ENDBRANCH  33  34
ENDBRANCH  32  33
ENDBRANCH  31  32
ENDBRANCH  30  31
ENDBRANCH   1  30
TORSDOF 20
ENDMDL
MODEL 3
REMARK VINA RESULT:     -13.4      4.657      8.424
REMARK SMILES O=C(OCCOCCOCCOC(=O)c1ccc(-c2c3nc(c(-c4c(F)c(F)c(F)c(F)c4F)c4ccc([nH]4)c(-c4c(F)c(F)c(F)c(F)c4F)c4nc(c(-c5c(F)c(F)c(F)c(F)c5F)c5ccc2[nH]5)C=C4)C=C3)cc1)C1=Cc2c(ccc(Cl)c2Oc2ccccc2)O[C@H]1C(F)(F)F
REMARK SMILES IDX 7 1 6 2 5 3 4 4 3 5 2 6 1 7 78 8 79 9 95 10 80 11 94 12
REMARK SMILES IDX 81 13 86 14 82 15 84 16 83 17 85 18 96 19 97 20 98 21 99 22
REMARK SMILES IDX 87 23 88 24 89 25 93 26 90 27 92 28 91 29 8 30 9 31 10 32
REMARK SMILES IDX 11 33 12 34 13 35 14 36 15 37 16 38 77 39 17 40 76 41 18 42
REMARK SMILES IDX 19 43 20 44 70 45 21 46 75 47 69 48 71 49 22 50 74 51 68 52
REMARK SMILES IDX 67 53 23 55 55 56 35 57 54 58 36 59 39 60 53 61 72 62 37 63
REMARK SMILES IDX 38 64 52 66 73 67 40 68 24 69 25 70 33 71 26 72 27 73 31 74
REMARK SMILES IDX 34 75 28 76 29 77 32 78 30 79 56 80 57 81 65 82 58 83 59 84
REMARK SMILES IDX 63 85 66 86 60 87 61 88 64 89 62 90 41 91 42 92 50 93 43 94
REMARK SMILES IDX 44 95 48 96 51 97 45 98 46 99 49 100 47 101
REMARK H PARENT 71 54 39 65
REMARK Flexibility Score: inf
ROOT
ATOM      1  C   UNL A   1      33.980  19.658  24.593  1.00  0.00     0.188 C 
ENDROOT
BRANCH   1   2
ATOM      2  O   UNL A   1      32.643  19.784  24.725  1.00  0.00    -0.376 OA
BRANCH   2   3
ATOM      3  C   UNL A   1      32.284  20.335  23.468  1.00  0.00     0.202 C 
BRANCH   3   4
ATOM      4  C   UNL A   1      32.278  22.170  22.535  1.00  0.00     0.261 C 
BRANCH   4   5
ATOM      5  O   UNL A   1      32.423  23.472  23.058  1.00  0.00    -0.460 OA
BRANCH   5   6
ATOM      6  C   UNL A   1      31.339  23.987  23.654  1.00  0.00     0.338 C 
ATOM      7  O   UNL A   1      30.327  24.271  23.136  1.00  0.00    -0.246 OA
BRANCH   6   8
ATOM      8  C   UNL A   1      31.830  24.313  24.982  1.00  0.00     0.088 C 
ATOM      9  C   UNL A   1      31.463  25.373  25.670  1.00  0.00     0.031 C 
ATOM     10  C   UNL A   1      32.735  23.670  25.839  1.00  0.00     0.316 C 
ATOM     11  C   UNL A   1      32.216  26.676  25.100  1.00  0.00     0.062 A 
ATOM     12  O   UNL A   1      33.596  25.054  26.426  1.00  0.00    -0.475 OA
ATOM     13  C   UNL A   1      33.332  26.442  25.885  1.00  0.00     0.131 A 
ATOM     14  C   UNL A   1      31.364  28.059  24.342  1.00  0.00     0.156 A 
ATOM     15  C   UNL A   1      33.673  27.711  26.345  1.00  0.00     0.049 A 
ATOM     16  C   UNL A   1      31.818  29.235  24.932  1.00  0.00     0.084 A 
ATOM     17  C   UNL A   1      32.932  29.030  25.900  1.00  0.00     0.028 A 
ATOM     18  Cl  UNL A   1      30.990  30.746  24.905  1.00  0.00    -0.080 Cl
BRANCH  10  19
ATOM     19  C   UNL A   1      31.597  22.756  26.633  1.00  0.00     0.430 C 
ATOM     20  F   UNL A   1      30.953  21.810  25.873  1.00  0.00    -0.167 F 
ATOM     21  F   UNL A   1      32.188  22.001  27.616  1.00  0.00    -0.167 F 
ATOM     22  F   UNL A   1      30.630  23.476  27.222  1.00  0.00    -0.167 F 
ENDBRANCH  10  19
BRANCH  14  23
ATOM     23  O   UNL A   1      29.603  28.032  23.727  1.00  0.00    -0.455 OA
BRANCH  23  24
ATOM     24  C   UNL A   1      28.490  29.228  22.918  1.00  0.00     0.127 A 
ATOM     25  C   UNL A   1      27.665  30.137  23.601  1.00  0.00     0.047 A 
ATOM     26  C   UNL A   1      28.798  30.015  21.693  1.00  0.00     0.047 A 
ATOM     27  C   UNL A   1      27.452  31.592  23.104  1.00  0.00     0.004 A 
ATOM     28  C   UNL A   1      28.900  31.419  21.317  1.00  0.00     0.004 A 
ATOM     29  C   UNL A   1      28.156  32.250  22.058  1.00  0.00     0.000 A 
ENDBRANCH  23  24
ENDBRANCH  14  23
ENDBRANCH   6   8
ENDBRANCH   5   6
ENDBRANCH   4   5
ENDBRANCH   3   4
ENDBRANCH   2   3
ENDBRANCH   1   2
BRANCH   1  30
ATOM     30  C   UNL A   1      34.995  20.874  25.072  1.00  0.00     0.188 C 
BRANCH  30  31
ATOM     31  O   UNL A   1      35.337  21.914  24.207  1.00  0.00    -0.376 OA
BRANCH  31  32
ATOM     32  C   UNL A   1      36.714  22.127  24.212  1.00  0.00     0.202 C 
BRANCH  32  33
ATOM     33  C   UNL A   1      37.644  21.005  24.809  1.00  0.00     0.261 C 
BRANCH  33  34
ATOM     34  O   UNL A   1      38.388  21.084  26.110  1.00  0.00    -0.460 OA
BRANCH  34  35
ATOM     35  C   UNL A   1      39.752  21.190  26.335  1.00  0.00     0.338 C 
ATOM     36  O   UNL A   1      40.605  20.386  26.003  1.00  0.00    -0.246 OA
BRANCH  35  37
ATOM     37  C   UNL A   1      40.124  22.569  26.880  1.00  0.00     0.060 A 
ATOM     38  C   UNL A   1      39.543  23.804  26.469  1.00  0.00     0.016 A 
ATOM     39  C   UNL A   1      41.068  22.594  27.897  1.00  0.00     0.016 A 
ATOM     40  C   UNL A   1      39.950  25.033  27.045  1.00  0.00     0.010 A 
ATOM     41  C   UNL A   1      41.525  23.809  28.408  1.00  0.00     0.010 A 
ATOM     42  C   UNL A   1      40.993  25.036  27.974  1.00  0.00    -0.014 A 
BRANCH  42  43
ATOM     43  C   UNL A   1      41.783  26.258  28.278  1.00  0.00     0.031 A 
ATOM     44  C   UNL A   1      41.061  27.362  28.986  1.00  0.00     0.074 A 
ATOM     45  C   UNL A   1      43.035  26.453  27.830  1.00  0.00     0.049 A 
ATOM     46  N   UNL A   1      41.424  28.600  29.180  1.00  0.00    -0.248 NA
ATOM     47  C   UNL A   1      39.729  27.026  29.510  1.00  0.00     0.031 C 
ATOM     48  C   UNL A   1      43.841  25.448  27.153  1.00  0.00     0.029 A 
ATOM     49  N   UNL A   1      43.833  27.574  27.853  1.00  0.00    -0.354 N 
ATOM     50  C   UNL A   1      40.355  29.197  29.830  1.00  0.00     0.074 A 
ATOM     51  C   UNL A   1      39.316  28.200  29.953  1.00  0.00     0.031 C 
ATOM     52  C   UNL A   1      45.023  25.992  26.818  1.00  0.00     0.029 A 
ATOM     53  C   UNL A   1      45.030  27.406  27.197  1.00  0.00     0.049 A 
ATOM     54  H   UNL A   1      43.574  28.414  28.295  1.00  0.00     0.167 HD
ATOM     55  C   UNL A   1      40.257  30.468  30.275  1.00  0.00     0.037 A 
ATOM     56  C   UNL A   1      45.999  28.296  26.895  1.00  0.00     0.037 A 
ATOM     57  C   UNL A   1      41.282  31.456  30.093  1.00  0.00     0.049 A 
ATOM     58  C   UNL A   1      45.835  29.734  27.307  1.00  0.00     0.074 A 
ATOM     59  C   UNL A   1      41.286  32.768  30.521  1.00  0.00     0.029 A 
ATOM     60  N   UNL A   1      42.463  31.253  29.391  1.00  0.00    -0.354 N 
ATOM     61  N   UNL A   1      44.830  30.292  27.937  1.00  0.00    -0.248 NA
ATOM     62  C   UNL A   1      46.919  30.667  26.965  1.00  0.00     0.031 C 
ATOM     63  C   UNL A   1      42.409  33.394  29.981  1.00  0.00     0.029 A 
ATOM     64  C   UNL A   1      43.177  32.438  29.334  1.00  0.00     0.049 A 
ATOM     65  H   UNL A   1      42.749  30.399  28.996  1.00  0.00     0.167 HD
ATOM     66  C   UNL A   1      45.176  31.625  28.108  1.00  0.00     0.074 A 
ATOM     67  C   UNL A   1      46.480  31.798  27.504  1.00  0.00     0.031 C 
ATOM     68  C   UNL A   1      44.476  32.603  28.731  1.00  0.00     0.037 A 
BRANCH  55  69
ATOM     69  C   UNL A   1      38.962  30.866  30.918  1.00  0.00     0.064 A 
ATOM     70  C   UNL A   1      37.892  31.393  30.177  1.00  0.00     0.173 A 
ATOM     71  C   UNL A   1      38.806  30.759  32.308  1.00  0.00     0.173 A 
ATOM     72  F   UNL A   1      37.983  31.508  28.842  1.00  0.00    -0.203 F 
ATOM     73  C   UNL A   1      36.759  31.888  30.814  1.00  0.00     0.198 A 
ATOM     74  C   UNL A   1      37.641  31.186  32.933  1.00  0.00     0.198 A 
ATOM     75  F   UNL A   1      39.789  30.250  33.066  1.00  0.00    -0.203 F 
ATOM     76  F   UNL A   1      35.813  32.513  30.100  1.00  0.00    -0.200 F 
ATOM     77  C   UNL A   1      36.632  31.778  32.190  1.00  0.00     0.200 A 
ATOM     78  F   UNL A   1      37.506  31.045  34.259  1.00  0.00    -0.200 F 
ATOM     79  F   UNL A   1      35.543  32.257  32.803  1.00  0.00    -0.200 F 
ENDBRANCH  55  69
BRANCH  56  80
ATOM     80  C   UNL A   1      47.194  27.851  26.130  1.00  0.00     0.064 A 
ATOM     81  C   UNL A   1      48.375  27.460  26.775  1.00  0.00     0.173 A 
ATOM     82  C   UNL A   1      47.168  27.792  24.728  1.00  0.00     0.173 A 
ATOM     83  F   UNL A   1      48.463  27.520  28.112  1.00  0.00    -0.203 F 
ATOM     84  C   UNL A   1      49.484  27.033  26.046  1.00  0.00     0.198 A 
ATOM     85  C   UNL A   1      48.257  27.317  24.005  1.00  0.00     0.198 A 
ATOM     86  F   UNL A   1      46.066  28.168  24.061  1.00  0.00    -0.203 F 
ATOM     87  F   UNL A   1      50.621  26.716  26.682  1.00  0.00    -0.200 F 
ATOM     88  C   UNL A   1      49.419  26.946  24.663  1.00  0.00     0.200 A 
ATOM     89  F   UNL A   1      48.178  27.214  22.672  1.00  0.00    -0.200 F 
ATOM     90  F   UNL A   1      50.474  26.507  23.965  1.00  0.00    -0.200 F 
ENDBRANCH  56  80
BRANCH  68  91
ATOM     91  C   UNL A   1      45.128  33.946  28.884  1.00  0.00     0.064 A 
ATOM     92  C   UNL A   1      45.924  34.278  29.989  1.00  0.00     0.173 A 
ATOM     93  C   UNL A   1      45.014  34.889  27.848  1.00  0.00     0.173 A 
ATOM     94  F   UNL A   1      46.075  33.410  31.001  1.00  0.00    -0.203 F 
ATOM     95  C   UNL A   1      46.544  35.522  30.069  1.00  0.00     0.198 A 
ATOM     96  C   UNL A   1      45.686  36.102  27.903  1.00  0.00     0.198 A 
ATOM     97  F   UNL A   1      44.278  34.613  26.759  1.00  0.00    -0.203 F 
ATOM     98  F   UNL A   1      47.239  35.850  31.167  1.00  0.00    -0.200 F 
ATOM     99  C   UNL A   1      46.439  36.425  29.020  1.00  0.00     0.200 A 
ATOM    100  F   UNL A   1      45.613  36.953  26.870  1.00  0.00    -0.200 F 
ATOM    101  F   UNL A   1      47.060  37.609  29.089  1.00  0.00    -0.200 F 
ENDBRANCH  68  91
ENDBRANCH  42  43
ENDBRANCH  35  37
ENDBRANCH  34  35
ENDBRANCH  33  34
ENDBRANCH  32  33
ENDBRANCH  31  32
ENDBRANCH  30  31
ENDBRANCH   1  30
TORSDOF 20
ENDMDL
