MODEL 1
REMARK VINA RESULT:     -11.1      0.000      0.000
REMARK SMILES COc1ccc(C(=O)Nc2cc(C(=O)OCCOCCOCCOC(=O)c3ccc(-c4c5nc(c(-c6c(F)c(F)c(F)c(F)c6F)c6ccc([nH]6)c(-c6c(F)c(F)c(F)c(F)c6F)c6nc(c(-c7c(F)c(F)c(F)c(F)c7F)c7ccc4[nH]7)C=C6)C=C5)cc3)c(Cl)cc2Cl)cc1Cl
REMARK SMILES IDX 19 1 18 2 17 3 16 4 15 5 13 6 14 7 12 8 10 9 11 10 93 11
REMARK SMILES IDX 92 12 94 13 90 14 91 15 9 16 7 17 8 18 6 20 3 21 4 22 96 23
REMARK SMILES IDX 5 24 95 25 97 26 2 27 1 28 20 29 21 30 22 31 23 32 24 33
REMARK SMILES IDX 25 34 26 35 27 36 28 37 89 38 29 39 88 40 30 41 31 42 32 43
REMARK SMILES IDX 82 44 33 45 87 46 81 47 83 48 34 49 86 50 80 51 79 52 35 54
REMARK SMILES IDX 67 55 47 56 66 57 48 58 51 59 65 60 84 61 49 62 50 63 64 65
REMARK SMILES IDX 85 66 52 67 36 68 37 69 45 70 38 71 39 72 43 73 46 74 40 75
REMARK SMILES IDX 41 76 44 77 42 78 68 79 69 80 77 81 70 82 71 83 75 84 78 85
REMARK SMILES IDX 72 86 73 87 76 88 74 89 53 90 54 91 62 92 55 93 56 94 60 95
REMARK SMILES IDX 63 96 57 97 58 98 61 99 59 100
REMARK H PARENT 9 19 83 53 51 64
REMARK Flexibility Score: inf
ROOT
ATOM      1  C   UNL A   1      38.978  19.548  25.357  1.00  0.00     0.188 C 
ENDROOT
BRANCH   1   2
ATOM      2  O   UNL A   1      37.991  20.563  25.241  1.00  0.00    -0.376 OA
BRANCH   2   3
ATOM      3  C   UNL A   1      38.304  21.864  25.715  1.00  0.00     0.202 C 
BRANCH   3   4
ATOM      4  C   UNL A   1      37.188  22.890  25.558  1.00  0.00     0.261 C 
BRANCH   4   5
ATOM      5  O   UNL A   1      35.905  22.250  25.478  1.00  0.00    -0.460 OA
BRANCH   5   6
ATOM      6  C   UNL A   1      35.116  22.629  24.449  1.00  0.00     0.339 C 
ATOM      7  O   UNL A   1      35.406  22.635  23.263  1.00  0.00    -0.246 OA
BRANCH   6   8
ATOM      8  C   UNL A   1      33.743  22.914  24.915  1.00  0.00     0.080 A 
ATOM      9  C   UNL A   1      32.329  24.403  26.218  1.00  0.00     0.061 A 
ATOM     10  C   UNL A   1      33.553  24.130  25.603  1.00  0.00     0.045 A 
ATOM     11  C   UNL A   1      31.300  23.453  26.163  1.00  0.00     0.066 A 
ATOM     12  C   UNL A   1      31.461  22.284  25.418  1.00  0.00     0.044 A 
ATOM     13  Cl  UNL A   1      29.793  23.721  26.959  1.00  0.00    -0.082 Cl
ATOM     14  C   UNL A   1      32.684  22.003  24.801  1.00  0.00     0.057 A 
ATOM     15  Cl  UNL A   1      32.813  20.482  23.994  1.00  0.00    -0.083 Cl
BRANCH   9  16
ATOM     16  N   UNL A   1      32.213  25.527  27.038  1.00  0.00    -0.321 N 
ATOM     17  C   UNL A   1      31.773  26.805  26.781  1.00  0.00     0.255 C 
ATOM     18  O   UNL A   1      31.935  27.638  27.675  1.00  0.00    -0.269 OA
ATOM     19  H   UNL A   1      32.497  25.379  27.969  1.00  0.00     0.170 HD
BRANCH  17  20
ATOM     20  C   UNL A   1      31.042  27.225  25.545  1.00  0.00     0.041 A 
ATOM     21  C   UNL A   1      29.686  28.301  23.275  1.00  0.00     0.137 A 
ATOM     22  C   UNL A   1      30.833  28.909  23.799  1.00  0.00     0.049 A 
ATOM     23  C   UNL A   1      29.188  27.175  23.939  1.00  0.00     0.083 A 
ATOM     24  C   UNL A   1      31.501  28.384  24.909  1.00  0.00     0.018 A 
ATOM     25  C   UNL A   1      29.870  26.643  25.056  1.00  0.00     0.038 A 
ATOM     26  Cl  UNL A   1      27.688  26.399  23.565  1.00  0.00    -0.080 Cl
BRANCH  21  27
ATOM     27  O   UNL A   1      29.204  28.986  22.200  1.00  0.00    -0.495 OA
ATOM     28  C   UNL A   1      29.875  30.127  21.686  1.00  0.00     0.278 C 
ENDBRANCH  21  27
ENDBRANCH  17  20
ENDBRANCH   9  16
ENDBRANCH   6   8
ENDBRANCH   5   6
ENDBRANCH   4   5
ENDBRANCH   3   4
ENDBRANCH   2   3
ENDBRANCH   1   2
BRANCH   1  29
ATOM     29  C   UNL A   1      40.265  19.814  26.162  1.00  0.00     0.188 C 
BRANCH  29  30
ATOM     30  O   UNL A   1      41.519  19.730  25.500  1.00  0.00    -0.376 OA
BRANCH  30  31
ATOM     31  C   UNL A   1      42.695  20.074  26.228  1.00  0.00     0.202 C 
BRANCH  31  32
ATOM     32  C   UNL A   1      43.606  21.076  25.530  1.00  0.00     0.261 C 
BRANCH  32  33
ATOM     33  O   UNL A   1      43.572  22.345  26.214  1.00  0.00    -0.460 OA
BRANCH  33  34
ATOM     34  C   UNL A   1      43.390  23.408  25.405  1.00  0.00     0.338 C 
ATOM     35  O   UNL A   1      43.757  23.514  24.248  1.00  0.00    -0.246 OA
BRANCH  34  36
ATOM     36  C   UNL A   1      42.689  24.503  26.098  1.00  0.00     0.060 A 
ATOM     37  C   UNL A   1      43.120  25.823  25.964  1.00  0.00     0.016 A 
ATOM     38  C   UNL A   1      41.742  24.168  27.067  1.00  0.00     0.016 A 
ATOM     39  C   UNL A   1      42.653  26.793  26.858  1.00  0.00     0.010 A 
ATOM     40  C   UNL A   1      41.276  25.145  27.953  1.00  0.00     0.010 A 
ATOM     41  C   UNL A   1      41.774  26.456  27.900  1.00  0.00    -0.014 A 
BRANCH  41  42
ATOM     42  C   UNL A   1      41.476  27.429  28.993  1.00  0.00     0.031 A 
ATOM     43  C   UNL A   1      42.352  27.482  30.224  1.00  0.00     0.074 A 
ATOM     44  C   UNL A   1      40.468  28.315  28.879  1.00  0.00     0.049 A 
ATOM     45  N   UNL A   1      42.182  28.152  31.338  1.00  0.00    -0.248 NA
ATOM     46  C   UNL A   1      43.592  26.691  30.190  1.00  0.00     0.031 C 
ATOM     47  C   UNL A   1      39.601  28.461  27.712  1.00  0.00     0.029 A 
ATOM     48  N   UNL A   1      40.007  29.265  29.760  1.00  0.00    -0.354 N 
ATOM     49  C   UNL A   1      43.274  27.844  32.142  1.00  0.00     0.074 A 
ATOM     50  C   UNL A   1      44.105  26.929  31.389  1.00  0.00     0.031 C 
ATOM     51  C   UNL A   1      38.726  29.453  27.939  1.00  0.00     0.029 A 
ATOM     52  C   UNL A   1      38.906  29.946  29.302  1.00  0.00     0.049 A 
ATOM     53  H   UNL A   1      40.424  29.440  30.633  1.00  0.00     0.167 HD
ATOM     54  C   UNL A   1      43.555  28.279  33.395  1.00  0.00     0.037 A 
ATOM     55  C   UNL A   1      38.090  30.822  29.922  1.00  0.00     0.037 A 
ATOM     56  C   UNL A   1      42.740  29.201  34.146  1.00  0.00     0.049 A 
ATOM     57  C   UNL A   1      38.344  31.189  31.358  1.00  0.00     0.074 A 
ATOM     58  C   UNL A   1      42.934  29.675  35.433  1.00  0.00     0.029 A 
ATOM     59  N   UNL A   1      41.575  29.788  33.678  1.00  0.00    -0.354 N 
ATOM     60  N   UNL A   1      39.329  30.826  32.141  1.00  0.00    -0.248 NA
ATOM     61  C   UNL A   1      37.356  32.064  32.005  1.00  0.00     0.031 C 
ATOM     62  C   UNL A   1      41.860  30.511  35.760  1.00  0.00     0.029 A 
ATOM     63  C   UNL A   1      41.024  30.595  34.661  1.00  0.00     0.049 A 
ATOM     64  H   UNL A   1      41.197  29.652  32.780  1.00  0.00     0.167 HD
ATOM     65  C   UNL A   1      39.086  31.431  33.367  1.00  0.00     0.074 A 
ATOM     66  C   UNL A   1      37.869  32.201  33.219  1.00  0.00     0.031 C 
ATOM     67  C   UNL A   1      39.807  31.350  34.511  1.00  0.00     0.037 A 
BRANCH  54  68
ATOM     68  C   UNL A   1      44.775  27.725  34.071  1.00  0.00     0.064 A 
ATOM     69  C   UNL A   1      46.009  28.388  34.037  1.00  0.00     0.173 A 
ATOM     70  C   UNL A   1      44.685  26.541  34.821  1.00  0.00     0.173 A 
ATOM     71  F   UNL A   1      46.150  29.516  33.325  1.00  0.00    -0.203 F 
ATOM     72  C   UNL A   1      47.114  27.880  34.721  1.00  0.00     0.198 A 
ATOM     73  C   UNL A   1      45.784  26.049  35.521  1.00  0.00     0.198 A 
ATOM     74  F   UNL A   1      43.524  25.873  34.891  1.00  0.00    -0.203 F 
ATOM     75  F   UNL A   1      48.292  28.513  34.655  1.00  0.00    -0.200 F 
ATOM     76  C   UNL A   1      46.997  26.716  35.468  1.00  0.00     0.200 A 
ATOM     77  F   UNL A   1      45.664  24.932  36.252  1.00  0.00    -0.200 F 
ATOM     78  F   UNL A   1      48.056  26.237  36.135  1.00  0.00    -0.200 F 
ENDBRANCH  54  68
BRANCH  55  79
ATOM     79  C   UNL A   1      36.899  31.346  29.202  1.00  0.00     0.064 A 
ATOM     80  C   UNL A   1      35.802  30.525  28.910  1.00  0.00     0.173 A 
ATOM     81  C   UNL A   1      36.833  32.691  28.802  1.00  0.00     0.173 A 
ATOM     82  F   UNL A   1      35.833  29.225  29.235  1.00  0.00    -0.203 F 
ATOM     83  C   UNL A   1      34.682  31.031  28.251  1.00  0.00     0.198 A 
ATOM     84  C   UNL A   1      35.700  33.203  28.176  1.00  0.00     0.198 A 
ATOM     85  F   UNL A   1      37.863  33.514  29.046  1.00  0.00    -0.203 F 
ATOM     86  F   UNL A   1      33.660  30.218  27.951  1.00  0.00    -0.200 F 
ATOM     87  C   UNL A   1      34.628  32.372  27.896  1.00  0.00     0.200 A 
ATOM     88  F   UNL A   1      35.649  34.501  27.847  1.00  0.00    -0.200 F 
ATOM     89  F   UNL A   1      33.543  32.861  27.280  1.00  0.00    -0.200 F 
ENDBRANCH  55  79
BRANCH  67  90
ATOM     90  C   UNL A   1      39.307  32.127  35.694  1.00  0.00     0.064 A 
ATOM     91  C   UNL A   1      38.481  31.537  36.662  1.00  0.00     0.173 A 
ATOM     92  C   UNL A   1      39.682  33.467  35.877  1.00  0.00     0.173 A 
ATOM     93  F   UNL A   1      38.083  30.263  36.524  1.00  0.00    -0.203 F 
ATOM     94  C   UNL A   1      38.028  32.269  37.757  1.00  0.00     0.198 A 
ATOM     95  C   UNL A   1      39.248  34.187  36.986  1.00  0.00     0.198 A 
ATOM     96  F   UNL A   1      40.476  34.075  34.983  1.00  0.00    -0.203 F 
ATOM     97  F   UNL A   1      37.203  31.698  38.646  1.00  0.00    -0.200 F 
ATOM     98  C   UNL A   1      38.415  33.590  37.922  1.00  0.00     0.200 A 
ATOM     99  F   UNL A   1      39.631  35.461  37.149  1.00  0.00    -0.200 F 
ATOM    100  F   UNL A   1      37.979  34.291  38.977  1.00  0.00    -0.200 F 
ENDBRANCH  67  90
ENDBRANCH  41  42
ENDBRANCH  34  36
ENDBRANCH  33  34
ENDBRANCH  32  33
ENDBRANCH  31  32
ENDBRANCH  30  31
ENDBRANCH  29  30
ENDBRANCH   1  29
TORSDOF 20
ENDMDL
MODEL 2
REMARK VINA RESULT:     -10.3      1.882      7.388
REMARK SMILES COc1ccc(C(=O)Nc2cc(C(=O)OCCOCCOCCOC(=O)c3ccc(-c4c5nc(c(-c6c(F)c(F)c(F)c(F)c6F)c6ccc([nH]6)c(-c6c(F)c(F)c(F)c(F)c6F)c6nc(c(-c7c(F)c(F)c(F)c(F)c7F)c7ccc4[nH]7)C=C6)C=C5)cc3)c(Cl)cc2Cl)cc1Cl
REMARK SMILES IDX 19 1 18 2 17 3 16 4 15 5 13 6 14 7 12 8 10 9 11 10 93 11
REMARK SMILES IDX 92 12 94 13 90 14 91 15 9 16 7 17 8 18 6 20 3 21 4 22 96 23
REMARK SMILES IDX 5 24 95 25 97 26 2 27 1 28 20 29 21 30 22 31 23 32 24 33
REMARK SMILES IDX 25 34 26 35 27 36 28 37 89 38 29 39 88 40 30 41 31 42 32 43
REMARK SMILES IDX 82 44 33 45 87 46 81 47 83 48 34 49 86 50 80 51 79 52 35 54
REMARK SMILES IDX 67 55 47 56 66 57 48 58 51 59 65 60 84 61 49 62 50 63 64 65
REMARK SMILES IDX 85 66 52 67 36 68 37 69 45 70 38 71 39 72 43 73 46 74 40 75
REMARK SMILES IDX 41 76 44 77 42 78 68 79 69 80 77 81 70 82 71 83 75 84 78 85
REMARK SMILES IDX 72 86 73 87 76 88 74 89 53 90 54 91 62 92 55 93 56 94 60 95
REMARK SMILES IDX 63 96 57 97 58 98 61 99 59 100
REMARK H PARENT 9 19 83 53 51 64
REMARK Flexibility Score: inf
ROOT
ATOM      1  C   UNL A   1      41.417  22.019  27.414  1.00  0.00     0.188 C 
ENDROOT
BRANCH   1   2
ATOM      2  O   UNL A   1      40.651  20.859  27.124  1.00  0.00    -0.376 OA
BRANCH   2   3
ATOM      3  C   UNL A   1      39.653  20.946  26.117  1.00  0.00     0.202 C 
BRANCH   3   4
ATOM      4  C   UNL A   1      38.841  22.235  26.126  1.00  0.00     0.261 C 
BRANCH   4   5
ATOM      5  O   UNL A   1      37.594  22.065  25.436  1.00  0.00    -0.460 OA
BRANCH   5   6
ATOM      6  C   UNL A   1      36.710  23.081  25.548  1.00  0.00     0.339 C 
ATOM      7  O   UNL A   1      36.919  24.189  26.014  1.00  0.00    -0.246 OA
BRANCH   6   8
ATOM      8  C   UNL A   1      35.435  22.746  24.880  1.00  0.00     0.080 A 
ATOM      9  C   UNL A   1      33.998  23.161  22.963  1.00  0.00     0.061 A 
ATOM     10  C   UNL A   1      35.237  23.290  23.595  1.00  0.00     0.045 A 
ATOM     11  C   UNL A   1      32.951  22.503  23.622  1.00  0.00     0.066 A 
ATOM     12  C   UNL A   1      33.167  21.899  24.860  1.00  0.00     0.044 A 
ATOM     13  Cl  UNL A   1      31.387  22.373  22.904  1.00  0.00    -0.082 Cl
ATOM     14  C   UNL A   1      34.405  22.026  25.500  1.00  0.00     0.057 A 
ATOM     15  Cl  UNL A   1      34.536  21.331  27.075  1.00  0.00    -0.083 Cl
BRANCH   9  16
ATOM     16  N   UNL A   1      33.765  23.850  21.771  1.00  0.00    -0.321 N 
ATOM     17  C   UNL A   1      33.102  25.027  21.510  1.00  0.00     0.255 C 
ATOM     18  O   UNL A   1      32.919  25.310  20.324  1.00  0.00    -0.269 OA
ATOM     19  H   UNL A   1      34.143  23.415  20.973  1.00  0.00     0.170 HD
BRANCH  17  20
ATOM     20  C   UNL A   1      32.674  26.015  22.548  1.00  0.00     0.041 A 
ATOM     21  C   UNL A   1      32.140  27.953  24.576  1.00  0.00     0.137 A 
ATOM     22  C   UNL A   1      33.173  28.130  23.648  1.00  0.00     0.049 A 
ATOM     23  C   UNL A   1      31.411  26.760  24.515  1.00  0.00     0.083 A 
ATOM     24  C   UNL A   1      33.437  27.185  22.652  1.00  0.00     0.018 A 
ATOM     25  C   UNL A   1      31.674  25.811  23.503  1.00  0.00     0.038 A 
ATOM     26  Cl  UNL A   1      30.229  26.272  25.681  1.00  0.00    -0.080 Cl
BRANCH  21  27
ATOM     27  O   UNL A   1      32.070  28.995  25.451  1.00  0.00    -0.495 OA
ATOM     28  C   UNL A   1      33.214  29.771  25.773  1.00  0.00     0.278 C 
ENDBRANCH  21  27
ENDBRANCH  17  20
ENDBRANCH   9  16
ENDBRANCH   6   8
ENDBRANCH   5   6
ENDBRANCH   4   5
ENDBRANCH   3   4
ENDBRANCH   2   3
ENDBRANCH   1   2
BRANCH   1  29
ATOM     29  C   UNL A   1      42.806  22.205  26.774  1.00  0.00     0.188 C 
BRANCH  29  30
ATOM     30  O   UNL A   1      42.968  21.930  25.390  1.00  0.00    -0.376 OA
BRANCH  30  31
ATOM     31  C   UNL A   1      43.518  22.947  24.556  1.00  0.00     0.202 C 
BRANCH  31  32
ATOM     32  C   UNL A   1      43.695  24.300  25.234  1.00  0.00     0.261 C 
BRANCH  32  33
ATOM     33  O   UNL A   1      42.480  25.072  25.136  1.00  0.00    -0.460 OA
BRANCH  33  34
ATOM     34  C   UNL A   1      42.655  26.402  25.269  1.00  0.00     0.338 C 
ATOM     35  O   UNL A   1      42.839  27.206  24.372  1.00  0.00    -0.246 OA
BRANCH  34  36
ATOM     36  C   UNL A   1      42.626  26.814  26.683  1.00  0.00     0.060 A 
ATOM     37  C   UNL A   1      41.823  26.141  27.605  1.00  0.00     0.016 A 
ATOM     38  C   UNL A   1      43.228  28.024  27.028  1.00  0.00     0.016 A 
ATOM     39  C   UNL A   1      41.567  26.726  28.850  1.00  0.00     0.010 A 
ATOM     40  C   UNL A   1      42.972  28.600  28.277  1.00  0.00     0.010 A 
ATOM     41  C   UNL A   1      42.087  27.988  29.179  1.00  0.00    -0.014 A 
BRANCH  41  42
ATOM     42  C   UNL A   1      41.614  28.716  30.394  1.00  0.00     0.031 A 
ATOM     43  C   UNL A   1      40.387  29.597  30.324  1.00  0.00     0.074 A 
ATOM     44  C   UNL A   1      42.227  28.557  31.582  1.00  0.00     0.049 A 
ATOM     45  N   UNL A   1      39.898  30.417  31.222  1.00  0.00    -0.248 NA
ATOM     46  C   UNL A   1      39.595  29.533  29.086  1.00  0.00     0.031 C 
ATOM     47  C   UNL A   1      43.355  27.663  31.837  1.00  0.00     0.029 A 
ATOM     48  N   UNL A   1      41.980  29.141  32.803  1.00  0.00    -0.354 N 
ATOM     49  C   UNL A   1      38.764  30.982  30.651  1.00  0.00     0.074 A 
ATOM     50  C   UNL A   1      38.631  30.411  29.328  1.00  0.00     0.031 C 
ATOM     51  C   UNL A   1      43.691  27.742  33.133  1.00  0.00     0.029 A 
ATOM     52  C   UNL A   1      42.869  28.762  33.779  1.00  0.00     0.049 A 
ATOM     53  H   UNL A   1      41.240  29.768  32.962  1.00  0.00     0.167 HD
ATOM     54  C   UNL A   1      37.914  31.898  31.178  1.00  0.00     0.037 A 
ATOM     55  C   UNL A   1      43.051  29.223  35.033  1.00  0.00     0.037 A 
ATOM     56  C   UNL A   1      38.032  32.461  32.500  1.00  0.00     0.049 A 
ATOM     57  C   UNL A   1      42.181  30.335  35.551  1.00  0.00     0.074 A 
ATOM     58  C   UNL A   1      37.231  33.415  33.106  1.00  0.00     0.029 A 
ATOM     59  N   UNL A   1      39.011  32.122  33.420  1.00  0.00    -0.354 N 
ATOM     60  N   UNL A   1      41.165  30.927  34.973  1.00  0.00    -0.248 NA
ATOM     61  C   UNL A   1      42.502  30.863  36.885  1.00  0.00     0.031 C 
ATOM     62  C   UNL A   1      37.757  33.689  34.374  1.00  0.00     0.029 A 
ATOM     63  C   UNL A   1      38.854  32.870  34.576  1.00  0.00     0.049 A 
ATOM     64  H   UNL A   1      39.714  31.449  33.272  1.00  0.00     0.167 HD
ATOM     65  C   UNL A   1      40.721  31.888  35.871  1.00  0.00     0.074 A 
ATOM     66  C   UNL A   1      41.568  31.790  37.042  1.00  0.00     0.031 C 
ATOM     67  C   UNL A   1      39.707  32.775  35.733  1.00  0.00     0.037 A 
BRANCH  54  68
ATOM     68  C   UNL A   1      36.799  32.400  30.308  1.00  0.00     0.064 A 
ATOM     69  C   UNL A   1      36.790  33.701  29.787  1.00  0.00     0.173 A 
ATOM     70  C   UNL A   1      35.755  31.537  29.939  1.00  0.00     0.173 A 
ATOM     71  F   UNL A   1      37.760  34.567  30.118  1.00  0.00    -0.203 F 
ATOM     72  C   UNL A   1      35.770  34.124  28.935  1.00  0.00     0.198 A 
ATOM     73  C   UNL A   1      34.749  31.956  29.071  1.00  0.00     0.198 A 
ATOM     74  F   UNL A   1      35.720  30.280  30.405  1.00  0.00    -0.203 F 
ATOM     75  F   UNL A   1      35.766  35.379  28.469  1.00  0.00    -0.200 F 
ATOM     76  C   UNL A   1      34.757  33.249  28.573  1.00  0.00     0.200 A 
ATOM     77  F   UNL A   1      33.779  31.104  28.712  1.00  0.00    -0.200 F 
ATOM     78  F   UNL A   1      33.784  33.653  27.744  1.00  0.00    -0.200 F 
ENDBRANCH  54  68
BRANCH  55  79
ATOM     79  C   UNL A   1      44.168  28.684  35.854  1.00  0.00     0.064 A 
ATOM     80  C   UNL A   1      43.988  27.582  36.699  1.00  0.00     0.173 A 
ATOM     81  C   UNL A   1      45.447  29.262  35.796  1.00  0.00     0.173 A 
ATOM     82  F   UNL A   1      42.777  27.020  36.819  1.00  0.00    -0.203 F 
ATOM     83  C   UNL A   1      45.047  27.073  37.450  1.00  0.00     0.198 A 
ATOM     84  C   UNL A   1      46.511  28.732  36.520  1.00  0.00     0.198 A 
ATOM     85  F   UNL A   1      45.667  30.328  35.014  1.00  0.00    -0.203 F 
ATOM     86  F   UNL A   1      44.842  26.039  38.278  1.00  0.00    -0.200 F 
ATOM     87  C   UNL A   1      46.310  27.641  37.350  1.00  0.00     0.200 A 
ATOM     88  F   UNL A   1      47.730  29.276  36.410  1.00  0.00    -0.200 F 
ATOM     89  F   UNL A   1      47.330  27.139  38.059  1.00  0.00    -0.200 F 
ENDBRANCH  55  79
BRANCH  67  90
ATOM     90  C   UNL A   1      39.442  33.701  36.883  1.00  0.00     0.064 A 
ATOM     91  C   UNL A   1      38.676  33.297  37.987  1.00  0.00     0.173 A 
ATOM     92  C   UNL A   1      39.983  34.995  36.897  1.00  0.00     0.173 A 
ATOM     93  F   UNL A   1      38.125  32.074  38.016  1.00  0.00    -0.203 F 
ATOM     94  C   UNL A   1      38.441  34.165  39.051  1.00  0.00     0.198 A 
ATOM     95  C   UNL A   1      39.767  35.851  37.973  1.00  0.00     0.198 A 
ATOM     96  F   UNL A   1      40.728  35.427  35.868  1.00  0.00    -0.203 F 
ATOM     97  F   UNL A   1      37.669  33.774  40.075  1.00  0.00    -0.200 F 
ATOM     98  C   UNL A   1      38.991  35.438  39.046  1.00  0.00     0.200 A 
ATOM     99  F   UNL A   1      40.308  37.077  37.972  1.00  0.00    -0.200 F 
ATOM    100  F   UNL A   1      38.765  36.272  40.071  1.00  0.00    -0.200 F 
ENDBRANCH  67  90
ENDBRANCH  41  42
ENDBRANCH  34  36
ENDBRANCH  33  34
ENDBRANCH  32  33
ENDBRANCH  31  32
ENDBRANCH  30  31
ENDBRANCH  29  30
ENDBRANCH   1  29
TORSDOF 20
ENDMDL
MODEL 3
REMARK VINA RESULT:     -10.2      3.386      5.389
REMARK SMILES COc1ccc(C(=O)Nc2cc(C(=O)OCCOCCOCCOC(=O)c3ccc(-c4c5nc(c(-c6c(F)c(F)c(F)c(F)c6F)c6ccc([nH]6)c(-c6c(F)c(F)c(F)c(F)c6F)c6nc(c(-c7c(F)c(F)c(F)c(F)c7F)c7ccc4[nH]7)C=C6)C=C5)cc3)c(Cl)cc2Cl)cc1Cl
REMARK SMILES IDX 19 1 18 2 17 3 16 4 15 5 13 6 14 7 12 8 10 9 11 10 93 11
REMARK SMILES IDX 92 12 94 13 90 14 91 15 9 16 7 17 8 18 6 20 3 21 4 22 96 23
REMARK SMILES IDX 5 24 95 25 97 26 2 27 1 28 20 29 21 30 22 31 23 32 24 33
REMARK SMILES IDX 25 34 26 35 27 36 28 37 89 38 29 39 88 40 30 41 31 42 32 43
REMARK SMILES IDX 82 44 33 45 87 46 81 47 83 48 34 49 86 50 80 51 79 52 35 54
REMARK SMILES IDX 67 55 47 56 66 57 48 58 51 59 65 60 84 61 49 62 50 63 64 65
REMARK SMILES IDX 85 66 52 67 36 68 37 69 45 70 38 71 39 72 43 73 46 74 40 75
REMARK SMILES IDX 41 76 44 77 42 78 68 79 69 80 77 81 70 82 71 83 75 84 78 85
REMARK SMILES IDX 72 86 73 87 76 88 74 89 53 90 54 91 62 92 55 93 56 94 60 95
REMARK SMILES IDX 63 96 57 97 58 98 61 99 59 100
REMARK H PARENT 9 19 83 53 51 64
REMARK Flexibility Score: inf
ROOT
ATOM      1  C   UNL A   1      32.366  22.753  26.988  1.00  0.00     0.188 C 
ENDROOT
BRANCH   1   2
ATOM      2  O   UNL A   1      31.175  23.194  27.621  1.00  0.00    -0.376 OA
BRANCH   2   3
ATOM      3  C   UNL A   1      30.092  23.611  26.803  1.00  0.00     0.202 C 
BRANCH   3   4
ATOM      4  C   UNL A   1      30.057  25.103  26.494  1.00  0.00     0.261 C 
BRANCH   4   5
ATOM      5  O   UNL A   1      31.277  25.744  26.899  1.00  0.00    -0.460 OA
BRANCH   5   6
ATOM      6  C   UNL A   1      31.268  27.094  26.896  1.00  0.00     0.339 C 
ATOM      7  O   UNL A   1      30.828  27.829  27.767  1.00  0.00    -0.246 OA
BRANCH   6   8
ATOM      8  C   UNL A   1      32.015  27.624  25.736  1.00  0.00     0.080 A 
ATOM      9  C   UNL A   1      32.181  27.694  23.311  1.00  0.00     0.061 A 
ATOM     10  C   UNL A   1      31.460  27.374  24.465  1.00  0.00     0.045 A 
ATOM     11  C   UNL A   1      33.464  28.246  23.428  1.00  0.00     0.066 A 
ATOM     12  C   UNL A   1      33.982  28.563  24.684  1.00  0.00     0.044 A 
ATOM     13  Cl  UNL A   1      34.413  28.600  22.032  1.00  0.00    -0.082 Cl
ATOM     14  C   UNL A   1      33.267  28.244  25.843  1.00  0.00     0.057 A 
ATOM     15  Cl  UNL A   1      34.043  28.582  27.348  1.00  0.00    -0.083 Cl
BRANCH   9  16
ATOM     16  N   UNL A   1      31.695  27.284  22.068  1.00  0.00    -0.321 N 
ATOM     17  C   UNL A   1      31.766  26.079  21.410  1.00  0.00     0.255 C 
ATOM     18  O   UNL A   1      31.377  26.061  20.240  1.00  0.00    -0.269 OA
ATOM     19  H   UNL A   1      31.214  27.986  21.572  1.00  0.00     0.170 HD
BRANCH  17  20
ATOM     20  C   UNL A   1      32.194  24.788  22.034  1.00  0.00     0.041 A 
ATOM     21  C   UNL A   1      32.844  22.398  23.455  1.00  0.00     0.137 A 
ATOM     22  C   UNL A   1      31.552  22.937  23.481  1.00  0.00     0.049 A 
ATOM     23  C   UNL A   1      33.828  23.106  22.754  1.00  0.00     0.083 A 
ATOM     24  C   UNL A   1      31.229  24.105  22.785  1.00  0.00     0.018 A 
ATOM     25  C   UNL A   1      33.496  24.282  22.046  1.00  0.00     0.038 A 
ATOM     26  Cl  UNL A   1      35.512  22.710  22.760  1.00  0.00    -0.080 Cl
BRANCH  21  27
ATOM     27  O   UNL A   1      32.928  21.263  24.204  1.00  0.00    -0.495 OA
ATOM     28  C   UNL A   1      32.764  19.978  23.623  1.00  0.00     0.278 C 
ENDBRANCH  21  27
ENDBRANCH  17  20
ENDBRANCH   9  16
ENDBRANCH   6   8
ENDBRANCH   5   6
ENDBRANCH   4   5
ENDBRANCH   3   4
ENDBRANCH   2   3
ENDBRANCH   1   2
BRANCH   1  29
ATOM     29  C   UNL A   1      33.649  22.547  27.817  1.00  0.00     0.188 C 
BRANCH  29  30
ATOM     30  O   UNL A   1      34.872  23.088  27.338  1.00  0.00    -0.376 OA
BRANCH  30  31
ATOM     31  C   UNL A   1      35.577  22.378  26.323  1.00  0.00     0.202 C 
BRANCH  31  32
ATOM     32  C   UNL A   1      36.501  23.238  25.469  1.00  0.00     0.261 C 
BRANCH  32  33
ATOM     33  O   UNL A   1      37.347  24.048  26.309  1.00  0.00    -0.460 OA
BRANCH  33  34
ATOM     34  C   UNL A   1      38.621  23.614  26.399  1.00  0.00     0.338 C 
ATOM     35  O   UNL A   1      39.050  22.534  26.031  1.00  0.00    -0.246 OA
BRANCH  34  36
ATOM     36  C   UNL A   1      39.490  24.613  27.043  1.00  0.00     0.060 A 
ATOM     37  C   UNL A   1      39.578  24.691  28.434  1.00  0.00     0.016 A 
ATOM     38  C   UNL A   1      40.033  25.623  26.247  1.00  0.00     0.016 A 
ATOM     39  C   UNL A   1      40.148  25.825  29.024  1.00  0.00     0.010 A 
ATOM     40  C   UNL A   1      40.606  26.751  26.846  1.00  0.00     0.010 A 
ATOM     41  C   UNL A   1      40.613  26.894  28.243  1.00  0.00    -0.014 A 
BRANCH  41  42
ATOM     42  C   UNL A   1      40.986  28.195  28.872  1.00  0.00     0.031 A 
ATOM     43  C   UNL A   1      42.422  28.469  29.260  1.00  0.00     0.074 A 
ATOM     44  C   UNL A   1      40.073  29.169  29.050  1.00  0.00     0.049 A 
ATOM     45  N   UNL A   1      42.924  29.471  29.940  1.00  0.00    -0.248 NA
ATOM     46  C   UNL A   1      43.428  27.496  28.808  1.00  0.00     0.031 C 
ATOM     47  C   UNL A   1      38.674  29.099  28.633  1.00  0.00     0.029 A 
ATOM     48  N   UNL A   1      40.190  30.413  29.625  1.00  0.00    -0.354 N 
ATOM     49  C   UNL A   1      44.292  29.236  30.018  1.00  0.00     0.074 A 
ATOM     50  C   UNL A   1      44.546  27.997  29.313  1.00  0.00     0.031 C 
ATOM     51  C   UNL A   1      38.067  30.254  28.947  1.00  0.00     0.029 A 
ATOM     52  C   UNL A   1      39.005  31.106  29.674  1.00  0.00     0.049 A 
ATOM     53  H   UNL A   1      41.039  30.772  29.967  1.00  0.00     0.167 HD
ATOM     54  C   UNL A   1      45.248  29.980  30.627  1.00  0.00     0.037 A 
ATOM     55  C   UNL A   1      38.685  32.263  30.285  1.00  0.00     0.037 A 
ATOM     56  C   UNL A   1      45.005  31.221  31.318  1.00  0.00     0.049 A 
ATOM     57  C   UNL A   1      39.732  33.006  31.069  1.00  0.00     0.074 A 
ATOM     58  C   UNL A   1      45.910  32.029  31.986  1.00  0.00     0.029 A 
ATOM     59  N   UNL A   1      43.768  31.835  31.430  1.00  0.00    -0.354 N 
ATOM     60  N   UNL A   1      41.005  32.732  31.212  1.00  0.00    -0.248 NA
ATOM     61  C   UNL A   1      39.291  34.203  31.800  1.00  0.00     0.031 C 
ATOM     62  C   UNL A   1      45.211  33.105  32.545  1.00  0.00     0.029 A 
ATOM     63  C   UNL A   1      43.880  32.994  32.183  1.00  0.00     0.049 A 
ATOM     64  H   UNL A   1      42.933  31.497  31.033  1.00  0.00     0.167 HD
ATOM     65  C   UNL A   1      41.518  33.722  32.040  1.00  0.00     0.074 A 
ATOM     66  C   UNL A   1      40.423  34.615  32.353  1.00  0.00     0.031 C 
ATOM     67  C   UNL A   1      42.784  33.872  32.500  1.00  0.00     0.037 A 
BRANCH  54  68
ATOM     68  C   UNL A   1      46.653  29.452  30.624  1.00  0.00     0.064 A 
ATOM     69  C   UNL A   1      47.124  28.587  31.621  1.00  0.00     0.173 A 
ATOM     70  C   UNL A   1      47.520  29.770  29.566  1.00  0.00     0.173 A 
ATOM     71  F   UNL A   1      46.339  28.261  32.659  1.00  0.00    -0.203 F 
ATOM     72  C   UNL A   1      48.417  28.066  31.564  1.00  0.00     0.198 A 
ATOM     73  C   UNL A   1      48.802  29.231  29.501  1.00  0.00     0.198 A 
ATOM     74  F   UNL A   1      47.115  30.589  28.584  1.00  0.00    -0.203 F 
ATOM     75  F   UNL A   1      48.857  27.262  32.540  1.00  0.00    -0.200 F 
ATOM     76  C   UNL A   1      49.250  28.383  30.501  1.00  0.00     0.200 A 
ATOM     77  F   UNL A   1      49.600  29.528  28.466  1.00  0.00    -0.200 F 
ATOM     78  F   UNL A   1      50.487  27.871  30.442  1.00  0.00    -0.200 F 
ENDBRANCH  54  68
BRANCH  55  79
ATOM     79  C   UNL A   1      37.278  32.744  30.250  1.00  0.00     0.064 A 
ATOM     80  C   UNL A   1      36.364  32.405  31.256  1.00  0.00     0.173 A 
ATOM     81  C   UNL A   1      36.826  33.567  29.206  1.00  0.00     0.173 A 
ATOM     82  F   UNL A   1      36.737  31.590  32.253  1.00  0.00    -0.203 F 
ATOM     83  C   UNL A   1      35.052  32.877  31.222  1.00  0.00     0.198 A 
ATOM     84  C   UNL A   1      35.526  34.065  29.191  1.00  0.00     0.198 A 
ATOM     85  F   UNL A   1      37.657  33.908  28.211  1.00  0.00    -0.203 F 
ATOM     86  F   UNL A   1      34.187  32.511  32.177  1.00  0.00    -0.200 F 
ATOM     87  C   UNL A   1      34.639  33.716  30.197  1.00  0.00     0.200 A 
ATOM     88  F   UNL A   1      35.136  34.885  28.206  1.00  0.00    -0.200 F 
ATOM     89  F   UNL A   1      33.383  34.184  30.176  1.00  0.00    -0.200 F 
ENDBRANCH  55  79
BRANCH  67  90
ATOM     90  C   UNL A   1      43.058  35.055  33.381  1.00  0.00     0.064 A 
ATOM     91  C   UNL A   1      42.951  34.969  34.777  1.00  0.00     0.173 A 
ATOM     92  C   UNL A   1      43.462  36.279  32.827  1.00  0.00     0.173 A 
ATOM     93  F   UNL A   1      42.555  33.825  35.355  1.00  0.00    -0.203 F 
ATOM     94  C   UNL A   1      43.212  36.074  35.584  1.00  0.00     0.198 A 
ATOM     95  C   UNL A   1      43.747  37.374  33.638  1.00  0.00     0.198 A 
ATOM     96  F   UNL A   1      43.586  36.411  31.498  1.00  0.00    -0.203 F 
ATOM     97  F   UNL A   1      43.060  35.982  36.913  1.00  0.00    -0.200 F 
ATOM     98  C   UNL A   1      43.615  37.273  35.015  1.00  0.00     0.200 A 
ATOM     99  F   UNL A   1      44.147  38.529  33.087  1.00  0.00    -0.200 F 
ATOM    100  F   UNL A   1      43.869  38.334  35.793  1.00  0.00    -0.200 F 
ENDBRANCH  67  90
ENDBRANCH  41  42
ENDBRANCH  34  36
ENDBRANCH  33  34
ENDBRANCH  32  33
ENDBRANCH  31  32
ENDBRANCH  30  31
ENDBRANCH  29  30
ENDBRANCH   1  29
TORSDOF 20
ENDMDL
