MODEL 1
REMARK VINA RESULT:     -11.3      0.000      0.000
REMARK SMILES Cc1cc(F)c(-c2ccc(F)c(C(=O)OCCOCCOCCOC(=O)c3ccc(-c4c5nc(c(-c6c(F)c(F)c(F)c(F)c6F)c6ccc([nH]6)c(-c6c(F)c(F)c(F)c(F)c6F)c6nc(c(-c7c(F)c(F)c(F)c(F)c7F)c7ccc4[nH]7)C=C6)C=C5)cc3)c2)cc1F
REMARK SMILES IDX 20 1 19 2 18 3 17 4 16 5 15 6 13 7 14 8 12 9 7 10 8 11 90 12
REMARK SMILES IDX 9 13 10 14 11 15 6 16 1 17 2 18 3 19 92 20 4 21 91 22 93 23
REMARK SMILES IDX 5 24 21 25 22 26 23 27 24 28 25 29 26 30 27 31 28 32 89 33
REMARK SMILES IDX 29 34 88 35 30 36 31 37 32 38 82 39 33 40 87 41 81 42 83 43
REMARK SMILES IDX 34 44 86 45 80 46 79 47 35 49 67 50 47 51 66 52 48 53 51 54
REMARK SMILES IDX 65 55 84 56 49 57 50 58 64 60 85 61 52 62 36 63 37 64 45 65
REMARK SMILES IDX 38 66 39 67 43 68 46 69 40 70 41 71 44 72 42 73 68 74 69 75
REMARK SMILES IDX 77 76 70 77 71 78 75 79 78 80 72 81 73 82 76 83 74 84 53 85
REMARK SMILES IDX 54 86 62 87 55 88 56 89 60 90 63 91 57 92 58 93 61 94 59 95
REMARK H PARENT 83 48 51 59
REMARK Flexibility Score: inf
ROOT
ATOM      1  C   UNL A   1      41.048  21.332  26.621  1.00  0.00     0.188 C 
ENDROOT
BRANCH   1   2
ATOM      2  C   UNL A   1      40.019  22.284  27.268  1.00  0.00     0.188 C 
BRANCH   2   3
ATOM      3  O   UNL A   1      39.127  23.030  26.467  1.00  0.00    -0.376 OA
BRANCH   3   4
ATOM      4  C   UNL A   1      38.077  22.392  25.754  1.00  0.00     0.202 C 
BRANCH   4   5
ATOM      5  C   UNL A   1      37.367  23.034  24.555  1.00  0.00     0.261 C 
BRANCH   5   6
ATOM      6  O   UNL A   1      36.248  23.860  24.893  1.00  0.00    -0.460 OA
BRANCH   6   7
ATOM      7  C   UNL A   1      35.192  23.775  24.041  1.00  0.00     0.341 C 
ATOM      8  O   UNL A   1      35.169  23.236  22.949  1.00  0.00    -0.246 OA
BRANCH   7   9
ATOM      9  C   UNL A   1      33.997  24.304  24.714  1.00  0.00     0.096 A 
ATOM     10  C   UNL A   1      32.268  26.003  24.990  1.00  0.00    -0.014 A 
ATOM     11  C   UNL A   1      31.795  25.280  26.106  1.00  0.00     0.012 A 
ATOM     12  C   UNL A   1      33.390  25.499  24.305  1.00  0.00     0.027 A 
ATOM     13  C   UNL A   1      32.411  24.097  26.520  1.00  0.00     0.041 A 
ATOM     14  C   UNL A   1      33.506  23.613  25.820  1.00  0.00     0.137 A 
ATOM     15  F   UNL A   1      34.115  22.508  26.272  1.00  0.00    -0.206 F 
BRANCH  10  16
ATOM     16  C   UNL A   1      31.574  27.226  24.547  1.00  0.00     0.020 A 
ATOM     17  C   UNL A   1      29.266  30.750  23.500  1.00  0.00     0.047 C 
ATOM     18  C   UNL A   1      30.105  29.550  23.813  1.00  0.00    -0.012 A 
ATOM     19  C   UNL A   1      29.852  28.324  23.192  1.00  0.00     0.046 A 
ATOM     20  C   UNL A   1      31.103  29.604  24.788  1.00  0.00     0.126 A 
ATOM     21  C   UNL A   1      30.580  27.189  23.554  1.00  0.00     0.131 A 
ATOM     22  C   UNL A   1      31.835  28.471  25.145  1.00  0.00     0.051 A 
ATOM     23  F   UNL A   1      31.361  30.759  25.416  1.00  0.00    -0.207 F 
ATOM     24  F   UNL A   1      30.275  26.032  22.948  1.00  0.00    -0.206 F 
ENDBRANCH  10  16
ENDBRANCH   7   9
ENDBRANCH   6   7
ENDBRANCH   5   6
ENDBRANCH   4   5
ENDBRANCH   3   4
ENDBRANCH   2   3
ENDBRANCH   1   2
BRANCH   1  25
ATOM     25  O   UNL A   1      42.436  21.500  26.830  1.00  0.00    -0.376 OA
BRANCH  25  26
ATOM     26  C   UNL A   1      43.333  21.269  25.754  1.00  0.00     0.202 C 
BRANCH  26  27
ATOM     27  C   UNL A   1      43.647  22.380  24.748  1.00  0.00     0.261 C 
BRANCH  27  28
ATOM     28  O   UNL A   1      42.987  23.622  25.028  1.00  0.00    -0.460 OA
BRANCH  28  29
ATOM     29  C   UNL A   1      43.805  24.679  25.252  1.00  0.00     0.338 C 
ATOM     30  O   UNL A   1      44.803  24.996  24.626  1.00  0.00    -0.246 OA
BRANCH  29  31
ATOM     31  C   UNL A   1      43.194  25.540  26.279  1.00  0.00     0.060 A 
ATOM     32  C   UNL A   1      42.216  25.038  27.138  1.00  0.00     0.016 A 
ATOM     33  C   UNL A   1      43.622  26.870  26.382  1.00  0.00     0.016 A 
ATOM     34  C   UNL A   1      41.677  25.871  28.119  1.00  0.00     0.010 A 
ATOM     35  C   UNL A   1      43.069  27.708  27.353  1.00  0.00     0.010 A 
ATOM     36  C   UNL A   1      42.106  27.206  28.239  1.00  0.00    -0.014 A 
BRANCH  36  37
ATOM     37  C   UNL A   1      41.651  28.020  29.389  1.00  0.00     0.031 A 
ATOM     38  C   UNL A   1      40.444  28.901  29.304  1.00  0.00     0.074 A 
ATOM     39  C   UNL A   1      42.350  27.938  30.536  1.00  0.00     0.049 A 
ATOM     40  N   UNL A   1      39.852  29.573  30.260  1.00  0.00    -0.248 NA
ATOM     41  C   UNL A   1      39.824  29.057  27.982  1.00  0.00     0.031 C 
ATOM     42  C   UNL A   1      43.564  27.139  30.717  1.00  0.00     0.029 A 
ATOM     43  N   UNL A   1      42.141  28.514  31.762  1.00  0.00    -0.354 N 
ATOM     44  C   UNL A   1      38.771  30.206  29.664  1.00  0.00     0.074 A 
ATOM     45  C   UNL A   1      38.820  29.882  28.253  1.00  0.00     0.031 C 
ATOM     46  C   UNL A   1      43.973  27.252  31.989  1.00  0.00     0.029 A 
ATOM     47  C   UNL A   1      43.062  28.140  32.706  1.00  0.00     0.049 A 
ATOM     48  H   UNL A   1      41.400  29.136  31.946  1.00  0.00     0.167 HD
ATOM     49  C   UNL A   1      37.817  30.966  30.254  1.00  0.00     0.037 A 
ATOM     50  C   UNL A   1      43.157  28.463  34.009  1.00  0.00     0.037 A 
ATOM     51  C   UNL A   1      37.789  31.299  31.658  1.00  0.00     0.049 A 
ATOM     52  C   UNL A   1      42.108  29.345  34.627  1.00  0.00     0.074 A 
ATOM     53  C   UNL A   1      36.838  32.027  32.351  1.00  0.00     0.029 A 
ATOM     54  N   UNL A   1      38.764  30.940  32.578  1.00  0.00    -0.354 N 
ATOM     55  N   UNL A   1      41.036  29.863  34.076  1.00  0.00    -0.248 NA
ATOM     56  C   UNL A   1      42.275  29.679  36.047  1.00  0.00     0.031 C 
ATOM     57  C   UNL A   1      37.263  32.156  33.678  1.00  0.00     0.029 A 
ATOM     58  C   UNL A   1      38.453  31.462  33.825  1.00  0.00     0.049 A 
ATOM     59  H   UNL A   1      39.559  30.395  32.376  1.00  0.00     0.167 HD
ATOM     60  C   UNL A   1      40.392  30.567  35.083  1.00  0.00     0.074 A 
ATOM     61  C   UNL A   1      41.183  30.394  36.285  1.00  0.00     0.031 C 
ATOM     62  C   UNL A   1      39.249  31.292  35.015  1.00  0.00     0.037 A 
BRANCH  49  63
ATOM     63  C   UNL A   1      36.701  31.485  29.395  1.00  0.00     0.064 A 
ATOM     64  C   UNL A   1      35.662  30.644  28.968  1.00  0.00     0.173 A 
ATOM     65  C   UNL A   1      36.611  32.850  29.081  1.00  0.00     0.173 A 
ATOM     66  F   UNL A   1      35.700  29.332  29.243  1.00  0.00    -0.203 F 
ATOM     67  C   UNL A   1      34.579  31.149  28.252  1.00  0.00     0.198 A 
ATOM     68  C   UNL A   1      35.515  33.355  28.387  1.00  0.00     0.198 A 
ATOM     69  F   UNL A   1      37.571  33.699  29.478  1.00  0.00    -0.203 F 
ATOM     70  F   UNL A   1      33.606  30.324  27.841  1.00  0.00    -0.200 F 
ATOM     71  C   UNL A   1      34.502  32.505  27.972  1.00  0.00     0.200 A 
ATOM     72  F   UNL A   1      35.431  34.668  28.135  1.00  0.00    -0.200 F 
ATOM     73  F   UNL A   1      33.446  32.993  27.305  1.00  0.00    -0.200 F 
ENDBRANCH  49  63
BRANCH  50  74
ATOM     74  C   UNL A   1      44.265  27.903  34.821  1.00  0.00     0.064 A 
ATOM     75  C   UNL A   1      45.453  28.622  35.008  1.00  0.00     0.173 A 
ATOM     76  C   UNL A   1      44.147  26.658  35.454  1.00  0.00     0.173 A 
ATOM     77  F   UNL A   1      45.619  29.809  34.407  1.00  0.00    -0.203 F 
ATOM     78  C   UNL A   1      46.485  28.112  35.791  1.00  0.00     0.198 A 
ATOM     79  C   UNL A   1      45.168  26.161  36.260  1.00  0.00     0.198 A 
ATOM     80  F   UNL A   1      43.025  25.935  35.311  1.00  0.00    -0.203 F 
ATOM     81  F   UNL A   1      47.624  28.804  35.929  1.00  0.00    -0.200 F 
ATOM     82  C   UNL A   1      46.339  26.886  36.424  1.00  0.00     0.200 A 
ATOM     83  F   UNL A   1      45.015  24.983  36.882  1.00  0.00    -0.200 F 
ATOM     84  F   UNL A   1      47.326  26.402  37.189  1.00  0.00    -0.200 F 
ENDBRANCH  50  74
BRANCH  62  85
ATOM     85  C   UNL A   1      38.774  31.958  36.275  1.00  0.00     0.064 A 
ATOM     86  C   UNL A   1      39.096  33.293  36.561  1.00  0.00     0.173 A 
ATOM     87  C   UNL A   1      37.938  31.277  37.172  1.00  0.00     0.173 A 
ATOM     88  F   UNL A   1      39.904  33.984  35.744  1.00  0.00    -0.203 F 
ATOM     89  C   UNL A   1      38.610  33.916  37.708  1.00  0.00     0.198 A 
ATOM     90  C   UNL A   1      37.430  31.912  38.302  1.00  0.00     0.198 A 
ATOM     91  F   UNL A   1      37.596  30.000  36.941  1.00  0.00    -0.203 F 
ATOM     92  F   UNL A   1      38.959  35.181  37.981  1.00  0.00    -0.200 F 
ATOM     93  C   UNL A   1      37.769  33.228  38.572  1.00  0.00     0.200 A 
ATOM     94  F   UNL A   1      36.607  31.250  39.128  1.00  0.00    -0.200 F 
ATOM     95  F   UNL A   1      37.290  33.835  39.666  1.00  0.00    -0.200 F 
ENDBRANCH  62  85
ENDBRANCH  36  37
ENDBRANCH  29  31
ENDBRANCH  28  29
ENDBRANCH  27  28
ENDBRANCH  26  27
ENDBRANCH  25  26
ENDBRANCH   1  25
TORSDOF 18
ENDMDL
MODEL 2
REMARK VINA RESULT:     -11.3      3.437      9.009
REMARK SMILES Cc1cc(F)c(-c2ccc(F)c(C(=O)OCCOCCOCCOC(=O)c3ccc(-c4c5nc(c(-c6c(F)c(F)c(F)c(F)c6F)c6ccc([nH]6)c(-c6c(F)c(F)c(F)c(F)c6F)c6nc(c(-c7c(F)c(F)c(F)c(F)c7F)c7ccc4[nH]7)C=C6)C=C5)cc3)c2)cc1F
REMARK SMILES IDX 20 1 19 2 18 3 17 4 16 5 15 6 13 7 14 8 12 9 7 10 8 11 90 12
REMARK SMILES IDX 9 13 10 14 11 15 6 16 1 17 2 18 3 19 92 20 4 21 91 22 93 23
REMARK SMILES IDX 5 24 21 25 22 26 23 27 24 28 25 29 26 30 27 31 28 32 89 33
REMARK SMILES IDX 29 34 88 35 30 36 31 37 32 38 82 39 33 40 87 41 81 42 83 43
REMARK SMILES IDX 34 44 86 45 80 46 79 47 35 49 67 50 47 51 66 52 48 53 51 54
REMARK SMILES IDX 65 55 84 56 49 57 50 58 64 60 85 61 52 62 36 63 37 64 45 65
REMARK SMILES IDX 38 66 39 67 43 68 46 69 40 70 41 71 44 72 42 73 68 74 69 75
REMARK SMILES IDX 77 76 70 77 71 78 75 79 78 80 72 81 73 82 76 83 74 84 53 85
REMARK SMILES IDX 54 86 62 87 55 88 56 89 60 90 63 91 57 92 58 93 61 94 59 95
REMARK H PARENT 83 48 51 59
REMARK Flexibility Score: inf
ROOT
ATOM      1  C   UNL A   1      32.497  29.672  25.758  1.00  0.00     0.188 C 
ENDROOT
BRANCH   1   2
ATOM      2  C   UNL A   1      31.465  28.784  25.028  1.00  0.00     0.188 C 
BRANCH   2   3
ATOM      3  O   UNL A   1      30.706  29.299  23.954  1.00  0.00    -0.376 OA
BRANCH   3   4
ATOM      4  C   UNL A   1      30.974  28.907  22.616  1.00  0.00     0.202 C 
BRANCH   4   5
ATOM      5  C   UNL A   1      31.154  27.444  22.189  1.00  0.00     0.261 C 
BRANCH   5   6
ATOM      6  O   UNL A   1      32.460  26.908  22.423  1.00  0.00    -0.460 OA
BRANCH   6   7
ATOM      7  C   UNL A   1      32.708  25.714  21.822  1.00  0.00     0.341 C 
ATOM      8  O   UNL A   1      32.929  25.517  20.640  1.00  0.00    -0.246 OA
BRANCH   7   9
ATOM      9  C   UNL A   1      32.836  24.679  22.858  1.00  0.00     0.096 A 
ATOM     10  C   UNL A   1      34.184  23.241  24.296  1.00  0.00    -0.014 A 
ATOM     11  C   UNL A   1      32.988  22.648  24.752  1.00  0.00     0.012 A 
ATOM     12  C   UNL A   1      34.088  24.260  23.329  1.00  0.00     0.027 A 
ATOM     13  C   UNL A   1      31.743  23.058  24.271  1.00  0.00     0.041 A 
ATOM     14  C   UNL A   1      31.673  24.074  23.329  1.00  0.00     0.137 A 
ATOM     15  F   UNL A   1      30.471  24.409  22.840  1.00  0.00    -0.206 F 
BRANCH  10  16
ATOM     16  C   UNL A   1      35.483  22.820  24.852  1.00  0.00     0.020 A 
ATOM     17  C   UNL A   1      39.449  21.617  26.140  1.00  0.00     0.047 C 
ATOM     18  C   UNL A   1      38.059  22.022  25.757  1.00  0.00    -0.012 A 
ATOM     19  C   UNL A   1      37.145  21.074  25.292  1.00  0.00     0.046 A 
ATOM     20  C   UNL A   1      37.670  23.362  25.779  1.00  0.00     0.126 A 
ATOM     21  C   UNL A   1      35.881  21.473  24.853  1.00  0.00     0.131 A 
ATOM     22  C   UNL A   1      36.404  23.760  25.347  1.00  0.00     0.051 A 
ATOM     23  F   UNL A   1      38.527  24.301  26.204  1.00  0.00    -0.207 F 
ATOM     24  F   UNL A   1      35.054  20.525  24.387  1.00  0.00    -0.206 F 
ENDBRANCH  10  16
ENDBRANCH   7   9
ENDBRANCH   6   7
ENDBRANCH   5   6
ENDBRANCH   4   5
ENDBRANCH   3   4
ENDBRANCH   2   3
ENDBRANCH   1   2
BRANCH   1  25
ATOM     25  O   UNL A   1      32.109  30.534  26.809  1.00  0.00    -0.376 OA
BRANCH  25  26
ATOM     26  C   UNL A   1      31.411  31.731  26.502  1.00  0.00     0.202 C 
BRANCH  26  27
ATOM     27  C   UNL A   1      32.004  33.096  26.866  1.00  0.00     0.261 C 
BRANCH  27  28
ATOM     28  O   UNL A   1      32.861  33.070  28.016  1.00  0.00    -0.460 OA
BRANCH  28  29
ATOM     29  C   UNL A   1      33.936  33.894  27.960  1.00  0.00     0.338 C 
ATOM     30  O   UNL A   1      33.954  35.078  27.670  1.00  0.00    -0.246 OA
BRANCH  29  31
ATOM     31  C   UNL A   1      35.105  33.182  28.505  1.00  0.00     0.060 A 
ATOM     32  C   UNL A   1      36.383  33.729  28.399  1.00  0.00     0.016 A 
ATOM     33  C   UNL A   1      34.904  31.949  29.139  1.00  0.00     0.016 A 
ATOM     34  C   UNL A   1      37.466  33.043  28.951  1.00  0.00     0.010 A 
ATOM     35  C   UNL A   1      35.991  31.255  29.675  1.00  0.00     0.010 A 
ATOM     36  C   UNL A   1      37.276  31.808  29.599  1.00  0.00    -0.014 A 
BRANCH  36  37
ATOM     37  C   UNL A   1      38.405  31.182  30.325  1.00  0.00     0.031 A 
ATOM     38  C   UNL A   1      38.675  31.475  31.768  1.00  0.00     0.074 A 
ATOM     39  C   UNL A   1      39.187  30.320  29.651  1.00  0.00     0.049 A 
ATOM     40  N   UNL A   1      39.544  30.911  32.569  1.00  0.00    -0.248 NA
ATOM     41  C   UNL A   1      37.876  32.538  32.393  1.00  0.00     0.031 C 
ATOM     42  C   UNL A   1      39.037  29.991  28.232  1.00  0.00     0.029 A 
ATOM     43  N   UNL A   1      40.248  29.555  30.063  1.00  0.00    -0.354 N 
ATOM     44  C   UNL A   1      39.377  31.525  33.801  1.00  0.00     0.074 A 
ATOM     45  C   UNL A   1      38.361  32.544  33.629  1.00  0.00     0.031 C 
ATOM     46  C   UNL A   1      39.951  29.068  27.900  1.00  0.00     0.029 A 
ATOM     47  C   UNL A   1      40.760  28.753  29.075  1.00  0.00     0.049 A 
ATOM     48  H   UNL A   1      40.608  29.580  30.979  1.00  0.00     0.167 HD
ATOM     49  C   UNL A   1      40.003  31.241  34.969  1.00  0.00     0.037 A 
ATOM     50  C   UNL A   1      41.759  27.853  29.112  1.00  0.00     0.037 A 
ATOM     51  C   UNL A   1      41.028  30.238  35.125  1.00  0.00     0.049 A 
ATOM     52  C   UNL A   1      42.466  27.591  30.413  1.00  0.00     0.074 A 
ATOM     53  C   UNL A   1      41.687  29.853  36.280  1.00  0.00     0.029 A 
ATOM     54  N   UNL A   1      41.554  29.475  34.093  1.00  0.00    -0.354 N 
ATOM     55  N   UNL A   1      42.238  28.110  31.595  1.00  0.00    -0.248 NA
ATOM     56  C   UNL A   1      43.561  26.612  30.387  1.00  0.00     0.031 C 
ATOM     57  C   UNL A   1      42.650  28.896  35.938  1.00  0.00     0.029 A 
ATOM     58  C   UNL A   1      42.555  28.645  34.579  1.00  0.00     0.049 A 
ATOM     59  H   UNL A   1      41.262  29.516  33.154  1.00  0.00     0.167 HD
ATOM     60  C   UNL A   1      43.145  27.510  32.456  1.00  0.00     0.074 A 
ATOM     61  C   UNL A   1      43.915  26.572  31.665  1.00  0.00     0.031 C 
ATOM     62  C   UNL A   1      43.322  27.720  33.783  1.00  0.00     0.037 A 
BRANCH  49  63
ATOM     63  C   UNL A   1      39.591  32.010  36.191  1.00  0.00     0.064 A 
ATOM     64  C   UNL A   1      40.243  33.198  36.554  1.00  0.00     0.173 A 
ATOM     65  C   UNL A   1      38.475  31.616  36.946  1.00  0.00     0.173 A 
ATOM     66  F   UNL A   1      41.314  33.619  35.865  1.00  0.00    -0.203 F 
ATOM     67  C   UNL A   1      39.797  33.960  37.633  1.00  0.00     0.198 A 
ATOM     68  C   UNL A   1      38.018  32.393  38.007  1.00  0.00     0.198 A 
ATOM     69  F   UNL A   1      37.809  30.496  36.632  1.00  0.00    -0.203 F 
ATOM     70  F   UNL A   1      40.445  35.083  37.971  1.00  0.00    -0.200 F 
ATOM     71  C   UNL A   1      38.679  33.562  38.351  1.00  0.00     0.200 A 
ATOM     72  F   UNL A   1      36.926  32.018  38.687  1.00  0.00    -0.200 F 
ATOM     73  F   UNL A   1      38.238  34.309  39.372  1.00  0.00    -0.200 F 
ENDBRANCH  49  63
BRANCH  50  74
ATOM     74  C   UNL A   1      42.110  27.102  27.882  1.00  0.00     0.064 A 
ATOM     75  C   UNL A   1      43.035  27.617  26.964  1.00  0.00     0.173 A 
ATOM     76  C   UNL A   1      41.558  25.840  27.616  1.00  0.00     0.173 A 
ATOM     77  F   UNL A   1      43.575  28.828  27.166  1.00  0.00    -0.203 F 
ATOM     78  C   UNL A   1      43.387  26.903  25.821  1.00  0.00     0.198 A 
ATOM     79  C   UNL A   1      41.932  25.114  26.489  1.00  0.00     0.198 A 
ATOM     80  F   UNL A   1      40.674  25.301  28.470  1.00  0.00    -0.203 F 
ATOM     81  F   UNL A   1      44.249  27.432  24.943  1.00  0.00    -0.200 F 
ATOM     82  C   UNL A   1      42.842  25.649  25.589  1.00  0.00     0.200 A 
ATOM     83  F   UNL A   1      41.416  23.896  26.276  1.00  0.00    -0.200 F 
ATOM     84  F   UNL A   1      43.193  24.955  24.497  1.00  0.00    -0.200 F 
ENDBRANCH  50  74
BRANCH  62  85
ATOM     85  C   UNL A   1      44.390  26.923  34.475  1.00  0.00     0.064 A 
ATOM     86  C   UNL A   1      44.124  25.653  35.008  1.00  0.00     0.173 A 
ATOM     87  C   UNL A   1      45.706  27.403  34.552  1.00  0.00     0.173 A 
ATOM     88  F   UNL A   1      42.879  25.153  34.975  1.00  0.00    -0.203 F 
ATOM     89  C   UNL A   1      45.133  24.900  35.605  1.00  0.00     0.198 A 
ATOM     90  C   UNL A   1      46.718  26.636  35.122  1.00  0.00     0.198 A 
ATOM     91  F   UNL A   1      46.015  28.610  34.052  1.00  0.00    -0.203 F 
ATOM     92  F   UNL A   1      44.849  23.705  36.140  1.00  0.00    -0.200 F 
ATOM     93  C   UNL A   1      46.431  25.388  35.652  1.00  0.00     0.200 A 
ATOM     94  F   UNL A   1      47.974  27.104  35.154  1.00  0.00    -0.200 F 
ATOM     95  F   UNL A   1      47.403  24.657  36.212  1.00  0.00    -0.200 F 
ENDBRANCH  62  85
ENDBRANCH  36  37
ENDBRANCH  29  31
ENDBRANCH  28  29
ENDBRANCH  27  28
ENDBRANCH  26  27
ENDBRANCH  25  26
ENDBRANCH   1  25
TORSDOF 18
ENDMDL
MODEL 3
REMARK VINA RESULT:     -11.3      1.491      2.271
REMARK SMILES Cc1cc(F)c(-c2ccc(F)c(C(=O)OCCOCCOCCOC(=O)c3ccc(-c4c5nc(c(-c6c(F)c(F)c(F)c(F)c6F)c6ccc([nH]6)c(-c6c(F)c(F)c(F)c(F)c6F)c6nc(c(-c7c(F)c(F)c(F)c(F)c7F)c7ccc4[nH]7)C=C6)C=C5)cc3)c2)cc1F
REMARK SMILES IDX 20 1 19 2 18 3 17 4 16 5 15 6 13 7 14 8 12 9 7 10 8 11 90 12
REMARK SMILES IDX 9 13 10 14 11 15 6 16 1 17 2 18 3 19 92 20 4 21 91 22 93 23
REMARK SMILES IDX 5 24 21 25 22 26 23 27 24 28 25 29 26 30 27 31 28 32 89 33
REMARK SMILES IDX 29 34 88 35 30 36 31 37 32 38 82 39 33 40 87 41 81 42 83 43
REMARK SMILES IDX 34 44 86 45 80 46 79 47 35 49 67 50 47 51 66 52 48 53 51 54
REMARK SMILES IDX 65 55 84 56 49 57 50 58 64 60 85 61 52 62 36 63 37 64 45 65
REMARK SMILES IDX 38 66 39 67 43 68 46 69 40 70 41 71 44 72 42 73 68 74 69 75
REMARK SMILES IDX 77 76 70 77 71 78 75 79 78 80 72 81 73 82 76 83 74 84 53 85
REMARK SMILES IDX 54 86 62 87 55 88 56 89 60 90 63 91 57 92 58 93 61 94 59 95
REMARK H PARENT 83 48 51 59
REMARK Flexibility Score: inf
ROOT
ATOM      1  C   UNL A   1      41.908  19.545  26.174  1.00  0.00     0.188 C 
ENDROOT
BRANCH   1   2
ATOM      2  C   UNL A   1      40.790  20.455  26.728  1.00  0.00     0.188 C 
BRANCH   2   3
ATOM      3  O   UNL A   1      40.266  21.508  25.946  1.00  0.00    -0.376 OA
BRANCH   3   4
ATOM      4  C   UNL A   1      39.026  22.116  26.275  1.00  0.00     0.202 C 
BRANCH   4   5
ATOM      5  C   UNL A   1      37.856  22.221  25.288  1.00  0.00     0.261 C 
BRANCH   5   6
ATOM      6  O   UNL A   1      36.625  21.659  25.754  1.00  0.00    -0.460 OA
BRANCH   6   7
ATOM      7  C   UNL A   1      36.210  20.550  25.087  1.00  0.00     0.341 C 
ATOM      8  O   UNL A   1      36.836  19.521  24.909  1.00  0.00    -0.246 OA
BRANCH   7   9
ATOM      9  C   UNL A   1      34.791  20.712  24.736  1.00  0.00     0.096 A 
ATOM     10  C   UNL A   1      32.824  22.102  24.353  1.00  0.00    -0.014 A 
ATOM     11  C   UNL A   1      32.078  20.920  24.161  1.00  0.00     0.012 A 
ATOM     12  C   UNL A   1      34.193  21.977  24.654  1.00  0.00     0.027 A 
ATOM     13  C   UNL A   1      32.673  19.660  24.258  1.00  0.00     0.041 A 
ATOM     14  C   UNL A   1      34.028  19.562  24.542  1.00  0.00     0.137 A 
ATOM     15  F   UNL A   1      34.563  18.342  24.687  1.00  0.00    -0.206 F 
BRANCH  10  16
ATOM     16  C   UNL A   1      32.181  23.421  24.202  1.00  0.00     0.020 A 
ATOM     17  C   UNL A   1      29.991  27.121  23.612  1.00  0.00     0.047 C 
ATOM     18  C   UNL A   1      30.798  25.880  23.838  1.00  0.00    -0.012 A 
ATOM     19  C   UNL A   1      31.604  25.362  22.822  1.00  0.00     0.046 A 
ATOM     20  C   UNL A   1      30.702  25.168  25.035  1.00  0.00     0.126 A 
ATOM     21  C   UNL A   1      32.283  24.156  23.009  1.00  0.00     0.131 A 
ATOM     22  C   UNL A   1      31.387  23.966  25.224  1.00  0.00     0.051 A 
ATOM     23  F   UNL A   1      29.925  25.627  26.025  1.00  0.00    -0.207 F 
ATOM     24  F   UNL A   1      33.019  23.689  21.989  1.00  0.00    -0.206 F 
ENDBRANCH  10  16
ENDBRANCH   7   9
ENDBRANCH   6   7
ENDBRANCH   5   6
ENDBRANCH   4   5
ENDBRANCH   3   4
ENDBRANCH   2   3
ENDBRANCH   1   2
BRANCH   1  25
ATOM     25  O   UNL A   1      42.775  19.989  25.149  1.00  0.00    -0.376 OA
BRANCH  25  26
ATOM     26  C   UNL A   1      44.124  20.296  25.467  1.00  0.00     0.202 C 
BRANCH  26  27
ATOM     27  C   UNL A   1      44.636  21.737  25.381  1.00  0.00     0.261 C 
BRANCH  27  28
ATOM     28  O   UNL A   1      43.868  22.675  26.149  1.00  0.00    -0.460 OA
BRANCH  28  29
ATOM     29  C   UNL A   1      43.359  23.720  25.452  1.00  0.00     0.338 C 
ATOM     30  O   UNL A   1      43.209  23.809  24.245  1.00  0.00    -0.246 OA
BRANCH  29  31
ATOM     31  C   UNL A   1      42.811  24.700  26.405  1.00  0.00     0.060 A 
ATOM     32  C   UNL A   1      41.841  24.323  27.334  1.00  0.00     0.016 A 
ATOM     33  C   UNL A   1      43.291  26.016  26.365  1.00  0.00     0.016 A 
ATOM     34  C   UNL A   1      41.363  25.269  28.242  1.00  0.00     0.010 A 
ATOM     35  C   UNL A   1      42.799  26.965  27.263  1.00  0.00     0.010 A 
ATOM     36  C   UNL A   1      41.845  26.591  28.219  1.00  0.00    -0.014 A 
BRANCH  36  37
ATOM     37  C   UNL A   1      41.455  27.531  29.295  1.00  0.00     0.031 A 
ATOM     38  C   UNL A   1      40.273  28.438  29.160  1.00  0.00     0.074 A 
ATOM     39  C   UNL A   1      42.192  27.541  30.421  1.00  0.00     0.049 A 
ATOM     40  N   UNL A   1      39.735  29.221  30.061  1.00  0.00    -0.248 NA
ATOM     41  C   UNL A   1      39.611  28.481  27.849  1.00  0.00     0.031 C 
ATOM     42  C   UNL A   1      43.388  26.726  30.642  1.00  0.00     0.029 A 
ATOM     43  N   UNL A   1      42.043  28.244  31.588  1.00  0.00    -0.354 N 
ATOM     44  C   UNL A   1      38.653  29.826  29.440  1.00  0.00     0.074 A 
ATOM     45  C   UNL A   1      38.642  29.362  28.068  1.00  0.00     0.031 C 
ATOM     46  C   UNL A   1      43.845  26.952  31.883  1.00  0.00     0.029 A 
ATOM     47  C   UNL A   1      42.987  27.937  32.535  1.00  0.00     0.049 A 
ATOM     48  H   UNL A   1      41.328  28.906  31.732  1.00  0.00     0.167 HD
ATOM     49  C   UNL A   1      37.743  30.672  29.981  1.00  0.00     0.037 A 
ATOM     50  C   UNL A   1      43.137  28.386  33.795  1.00  0.00     0.037 A 
ATOM     51  C   UNL A   1      37.774  31.145  31.344  1.00  0.00     0.049 A 
ATOM     52  C   UNL A   1      42.137  29.359  34.353  1.00  0.00     0.074 A 
ATOM     53  C   UNL A   1      36.870  31.970  31.990  1.00  0.00     0.029 A 
ATOM     54  N   UNL A   1      38.770  30.849  32.263  1.00  0.00    -0.354 N 
ATOM     55  N   UNL A   1      41.062  29.854  33.788  1.00  0.00    -0.248 NA
ATOM     56  C   UNL A   1      42.364  29.828  35.727  1.00  0.00     0.031 C 
ATOM     57  C   UNL A   1      37.346  32.218  33.282  1.00  0.00     0.029 A 
ATOM     58  C   UNL A   1      38.520  31.504  33.461  1.00  0.00     0.049 A 
ATOM     59  H   UNL A   1      39.541  30.261  32.092  1.00  0.00     0.167 HD
ATOM     60  C   UNL A   1      40.475  30.676  34.739  1.00  0.00     0.074 A 
ATOM     61  C   UNL A   1      41.302  30.599  35.926  1.00  0.00     0.031 C 
ATOM     62  C   UNL A   1      39.352  31.428  34.635  1.00  0.00     0.037 A 
BRANCH  49  63
ATOM     63  C   UNL A   1      36.612  31.139  29.110  1.00  0.00     0.064 A 
ATOM     64  C   UNL A   1      35.564  30.276  28.757  1.00  0.00     0.173 A 
ATOM     65  C   UNL A   1      36.520  32.481  28.710  1.00  0.00     0.173 A 
ATOM     66  F   UNL A   1      35.603  28.984  29.115  1.00  0.00    -0.203 F 
ATOM     67  C   UNL A   1      34.469  30.738  28.029  1.00  0.00     0.198 A 
ATOM     68  C   UNL A   1      35.412  32.944  28.005  1.00  0.00     0.198 A 
ATOM     69  F   UNL A   1      37.489  33.351  29.034  1.00  0.00    -0.203 F 
ATOM     70  F   UNL A   1      33.487  29.891  27.690  1.00  0.00    -0.200 F 
ATOM     71  C   UNL A   1      34.390  32.073  27.664  1.00  0.00     0.200 A 
ATOM     72  F   UNL A   1      35.328  34.239  27.670  1.00  0.00    -0.200 F 
ATOM     73  F   UNL A   1      33.324  32.520  26.986  1.00  0.00    -0.200 F 
ENDBRANCH  49  63
BRANCH  50  74
ATOM     74  C   UNL A   1      44.256  27.874  34.623  1.00  0.00     0.064 A 
ATOM     75  C   UNL A   1      45.475  28.562  34.688  1.00  0.00     0.173 A 
ATOM     76  C   UNL A   1      44.121  26.709  35.392  1.00  0.00     0.173 A 
ATOM     77  F   UNL A   1      45.658  29.671  33.956  1.00  0.00    -0.203 F 
ATOM     78  C   UNL A   1      46.519  28.100  35.485  1.00  0.00     0.198 A 
ATOM     79  C   UNL A   1      45.155  26.263  36.210  1.00  0.00     0.198 A 
ATOM     80  F   UNL A   1      42.969  26.020  35.368  1.00  0.00    -0.203 F 
ATOM     81  F   UNL A   1      47.686  28.758  35.506  1.00  0.00    -0.200 F 
ATOM     82  C   UNL A   1      46.355  26.955  36.252  1.00  0.00     0.200 A 
ATOM     83  F   UNL A   1      44.986  25.166  36.962  1.00  0.00    -0.200 F 
ATOM     84  F   UNL A   1      47.355  26.519  37.030  1.00  0.00    -0.200 F 
ENDBRANCH  50  74
BRANCH  62  85
ATOM     85  C   UNL A   1      38.942  32.232  35.835  1.00  0.00     0.064 A 
ATOM     86  C   UNL A   1      38.199  31.660  36.879  1.00  0.00     0.173 A 
ATOM     87  C   UNL A   1      39.347  33.567  35.974  1.00  0.00     0.173 A 
ATOM     88  F   UNL A   1      37.773  30.391  36.788  1.00  0.00    -0.203 F 
ATOM     89  C   UNL A   1      37.865  32.401  38.010  1.00  0.00     0.198 A 
ATOM     90  C   UNL A   1      39.038  34.295  37.120  1.00  0.00     0.198 A 
ATOM     91  F   UNL A   1      40.065  34.160  35.008  1.00  0.00    -0.203 F 
ATOM     92  F   UNL A   1      37.124  31.845  38.978  1.00  0.00    -0.200 F 
ATOM     93  C   UNL A   1      38.294  33.714  38.134  1.00  0.00     0.200 A 
ATOM     94  F   UNL A   1      39.464  35.560  37.244  1.00  0.00    -0.200 F 
ATOM     95  F   UNL A   1      37.985  34.420  39.230  1.00  0.00    -0.200 F 
ENDBRANCH  62  85
ENDBRANCH  36  37
ENDBRANCH  29  31
ENDBRANCH  28  29
ENDBRANCH  27  28
ENDBRANCH  26  27
ENDBRANCH  25  26
ENDBRANCH   1  25
TORSDOF 18
ENDMDL
