MODEL 1
REMARK VINA RESULT:     -11.5      0.000      0.000
REMARK SMILES CC(=O)c1ccccc1S(=O)(=O)N1CCC(C(=O)OCCOCCOCCOC(=O)c2ccc(-c3c4nc(c(-c5c(F)c(F)c(F)c(F)c5F)c5ccc([nH]5)c(-c5c(F)c(F)c(F)c(F)c5F)c5nc(c(-c6c(F)c(F)c(F)c(F)c6F)c6ccc3[nH]6)C=C5)C=C4)cc2)CC1
REMARK SMILES IDX 23 1 22 2 21 3 20 4 19 5 17 6 18 7 16 8 13 9 14 10 95 11
REMARK SMILES IDX 15 12 94 13 10 14 11 15 12 16 9 17 4 18 5 19 6 20 8 21 7 22
REMARK SMILES IDX 2 23 1 24 3 25 24 26 25 27 26 28 27 29 28 30 29 31 30 32
REMARK SMILES IDX 31 33 32 34 93 35 33 36 92 37 34 38 35 39 36 40 86 41 37 42
REMARK SMILES IDX 91 43 85 44 87 45 38 46 90 47 84 48 83 49 39 51 71 52 51 53
REMARK SMILES IDX 70 54 52 55 55 56 69 57 88 58 53 59 54 60 68 62 89 63 56 64
REMARK SMILES IDX 40 65 41 66 49 67 42 68 43 69 47 70 50 71 44 72 45 73 48 74
REMARK SMILES IDX 46 75 72 76 73 77 81 78 74 79 75 80 79 81 82 82 76 83 77 84
REMARK SMILES IDX 80 85 78 86 57 87 58 88 66 89 59 90 60 91 64 92 67 93 61 94
REMARK SMILES IDX 62 95 65 96 63 97
REMARK H PARENT 87 50 55 61
REMARK Flexibility Score: inf
ROOT
ATOM      1  C   UNL A   1      40.895  21.884  27.940  1.00  0.00     0.188 C 
ENDROOT
BRANCH   1   2
ATOM      2  O   UNL A   1      39.885  21.157  27.247  1.00  0.00    -0.376 OA
BRANCH   2   3
ATOM      3  C   UNL A   1      39.504  21.637  25.955  1.00  0.00     0.202 C 
BRANCH   3   4
ATOM      4  C   UNL A   1      38.098  22.245  25.824  1.00  0.00     0.261 C 
BRANCH   4   5
ATOM      5  O   UNL A   1      37.190  21.481  24.996  1.00  0.00    -0.463 OA
BRANCH   5   6
ATOM      6  C   UNL A   1      35.866  21.698  25.215  1.00  0.00     0.309 C 
ATOM      7  O   UNL A   1      35.223  21.169  26.117  1.00  0.00    -0.252 OA
BRANCH   6   8
ATOM      8  C   UNL A   1      35.246  22.750  24.303  1.00  0.00     0.102 C 
ATOM      9  N   UNL A   1      33.886  24.837  23.047  1.00  0.00    -0.198 NA
ATOM     10  C   UNL A   1      33.293  23.497  22.814  1.00  0.00     0.103 C 
ATOM     11  C   UNL A   1      34.450  25.148  24.384  1.00  0.00     0.103 C 
ATOM     12  C   UNL A   1      34.027  22.334  23.489  1.00  0.00     0.032 C 
ATOM     13  C   UNL A   1      34.854  23.926  25.181  1.00  0.00     0.032 C 
BRANCH   9  14
ATOM     14  S   UNL A   1      33.046  26.130  22.309  1.00  0.00     0.243 S 
ATOM     15  O   UNL A   1      31.860  25.594  21.668  1.00  0.00    -0.207 OA
ATOM     16  O   UNL A   1      34.005  26.911  21.559  1.00  0.00    -0.207 OA
BRANCH  14  17
ATOM     17  C   UNL A   1      32.462  27.224  23.572  1.00  0.00     0.093 A 
ATOM     18  C   UNL A   1      31.396  26.998  24.440  1.00  0.00     0.037 A 
ATOM     19  C   UNL A   1      31.070  27.967  25.406  1.00  0.00     0.013 A 
ATOM     20  C   UNL A   1      31.815  29.140  25.522  1.00  0.00     0.001 A 
ATOM     21  C   UNL A   1      33.208  28.415  23.698  1.00  0.00     0.022 A 
ATOM     22  C   UNL A   1      32.890  29.364  24.669  1.00  0.00     0.001 A 
BRANCH  18  23
ATOM     23  C   UNL A   1      30.533  25.809  24.456  1.00  0.00     0.161 C 
ATOM     24  C   UNL A   1      30.912  24.681  25.374  1.00  0.00     0.093 C 
ATOM     25  O   UNL A   1      29.473  25.828  23.837  1.00  0.00    -0.294 OA
ENDBRANCH  18  23
ENDBRANCH  14  17
ENDBRANCH   9  14
ENDBRANCH   6   8
ENDBRANCH   5   6
ENDBRANCH   4   5
ENDBRANCH   3   4
ENDBRANCH   2   3
ENDBRANCH   1   2
BRANCH   1  26
ATOM     26  C   UNL A   1      42.294  21.266  27.901  1.00  0.00     0.188 C 
BRANCH  26  27
ATOM     27  O   UNL A   1      42.410  20.146  27.049  1.00  0.00    -0.376 OA
BRANCH  27  28
ATOM     28  C   UNL A   1      42.999  20.297  25.759  1.00  0.00     0.202 C 
BRANCH  28  29
ATOM     29  C   UNL A   1      43.785  21.578  25.385  1.00  0.00     0.261 C 
BRANCH  29  30
ATOM     30  O   UNL A   1      43.036  22.781  25.126  1.00  0.00    -0.460 OA
BRANCH  30  31
ATOM     31  C   UNL A   1      43.722  23.948  25.068  1.00  0.00     0.338 C 
ATOM     32  O   UNL A   1      44.555  24.254  24.242  1.00  0.00    -0.246 OA
BRANCH  31  33
ATOM     33  C   UNL A   1      43.079  24.913  26.010  1.00  0.00     0.060 A 
ATOM     34  C   UNL A   1      43.796  26.073  26.343  1.00  0.00     0.016 A 
ATOM     35  C   UNL A   1      41.779  24.744  26.497  1.00  0.00     0.016 A 
ATOM     36  C   UNL A   1      43.240  27.036  27.191  1.00  0.00     0.010 A 
ATOM     37  C   UNL A   1      41.229  25.701  27.365  1.00  0.00     0.010 A 
ATOM     38  C   UNL A   1      41.969  26.836  27.745  1.00  0.00    -0.014 A 
BRANCH  38  39
ATOM     39  C   UNL A   1      41.511  27.689  28.876  1.00  0.00     0.031 A 
ATOM     40  C   UNL A   1      42.251  27.589  30.185  1.00  0.00     0.074 A 
ATOM     41  C   UNL A   1      40.490  28.560  28.757  1.00  0.00     0.049 A 
ATOM     42  N   UNL A   1      42.006  28.169  31.333  1.00  0.00    -0.248 NA
ATOM     43  C   UNL A   1      43.433  26.710  30.196  1.00  0.00     0.031 C 
ATOM     44  C   UNL A   1      39.721  28.806  27.541  1.00  0.00     0.029 A 
ATOM     45  N   UNL A   1      39.920  29.394  29.691  1.00  0.00    -0.354 N 
ATOM     46  C   UNL A   1      42.996  27.721  32.199  1.00  0.00     0.074 A 
ATOM     47  C   UNL A   1      43.824  26.797  31.457  1.00  0.00     0.031 C 
ATOM     48  C   UNL A   1      38.763  29.713  27.808  1.00  0.00     0.029 A 
ATOM     49  C   UNL A   1      38.827  30.084  29.222  1.00  0.00     0.049 A 
ATOM     50  H   UNL A   1      40.261  29.487  30.611  1.00  0.00     0.167 HD
ATOM     51  C   UNL A   1      43.203  28.054  33.495  1.00  0.00     0.037 A 
ATOM     52  C   UNL A   1      37.962  30.895  29.867  1.00  0.00     0.037 A 
ATOM     53  C   UNL A   1      42.381  28.969  34.242  1.00  0.00     0.049 A 
ATOM     54  C   UNL A   1      38.159  31.178  31.339  1.00  0.00     0.074 A 
ATOM     55  C   UNL A   1      42.515  29.370  35.560  1.00  0.00     0.029 A 
ATOM     56  N   UNL A   1      41.266  29.621  33.738  1.00  0.00    -0.354 N 
ATOM     57  N   UNL A   1      39.105  30.763  32.147  1.00  0.00    -0.248 NA
ATOM     58  C   UNL A   1      37.165  32.049  31.989  1.00  0.00     0.031 C 
ATOM     59  C   UNL A   1      41.450  30.217  35.872  1.00  0.00     0.029 A 
ATOM     60  C   UNL A   1      40.690  30.401  34.729  1.00  0.00     0.049 A 
ATOM     61  H   UNL A   1      40.933  29.542  32.816  1.00  0.00     0.167 HD
ATOM     62  C   UNL A   1      38.841  31.348  33.382  1.00  0.00     0.074 A 
ATOM     63  C   UNL A   1      37.656  32.160  33.214  1.00  0.00     0.031 C 
ATOM     64  C   UNL A   1      39.520  31.224  34.549  1.00  0.00     0.037 A 
BRANCH  51  65
ATOM     65  C   UNL A   1      44.357  27.406  34.204  1.00  0.00     0.064 A 
ATOM     66  C   UNL A   1      44.227  26.163  34.842  1.00  0.00     0.173 A 
ATOM     67  C   UNL A   1      45.622  28.013  34.202  1.00  0.00     0.173 A 
ATOM     68  F   UNL A   1      43.036  25.548  34.887  1.00  0.00    -0.203 F 
ATOM     69  C   UNL A   1      45.315  25.565  35.472  1.00  0.00     0.198 A 
ATOM     70  C   UNL A   1      46.715  27.396  34.804  1.00  0.00     0.198 A 
ATOM     71  F   UNL A   1      45.802  29.200  33.603  1.00  0.00    -0.203 F 
ATOM     72  F   UNL A   1      45.157  24.399  36.115  1.00  0.00    -0.200 F 
ATOM     73  C   UNL A   1      46.560  26.176  35.443  1.00  0.00     0.200 A 
ATOM     74  F   UNL A   1      47.920  27.982  34.761  1.00  0.00    -0.200 F 
ATOM     75  F   UNL A   1      47.608  25.591  36.037  1.00  0.00    -0.200 F 
ENDBRANCH  51  65
BRANCH  52  76
ATOM     76  C   UNL A   1      36.796  31.479  29.146  1.00  0.00     0.064 A 
ATOM     77  C   UNL A   1      36.750  32.843  28.820  1.00  0.00     0.173 A 
ATOM     78  C   UNL A   1      35.675  30.699  28.827  1.00  0.00     0.173 A 
ATOM     79  F   UNL A   1      37.780  33.642  29.135  1.00  0.00    -0.203 F 
ATOM     80  C   UNL A   1      35.617  33.407  28.232  1.00  0.00     0.198 A 
ATOM     81  C   UNL A   1      34.559  31.256  28.207  1.00  0.00     0.198 A 
ATOM     82  F   UNL A   1      35.660  29.391  29.125  1.00  0.00    -0.203 F 
ATOM     83  F   UNL A   1      35.573  34.726  28.000  1.00  0.00    -0.200 F 
ATOM     84  C   UNL A   1      34.525  32.612  27.922  1.00  0.00     0.200 A 
ATOM     85  F   UNL A   1      33.508  30.482  27.901  1.00  0.00    -0.200 F 
ATOM     86  F   UNL A   1      33.434  33.156  27.365  1.00  0.00    -0.200 F 
ENDBRANCH  52  76
BRANCH  64  87
ATOM     87  C   UNL A   1      39.041  32.025  35.728  1.00  0.00     0.064 A 
ATOM     88  C   UNL A   1      38.241  31.462  36.733  1.00  0.00     0.173 A 
ATOM     89  C   UNL A   1      39.430  33.366  35.878  1.00  0.00     0.173 A 
ATOM     90  F   UNL A   1      37.831  30.188  36.637  1.00  0.00    -0.203 F 
ATOM     91  C   UNL A   1      37.824  32.219  37.827  1.00  0.00     0.198 A 
ATOM     92  C   UNL A   1      39.042  34.110  36.989  1.00  0.00     0.198 A 
ATOM     93  F   UNL A   1      40.205  33.952  34.953  1.00  0.00    -0.203 F 
ATOM     94  F   UNL A   1      37.015  31.675  38.747  1.00  0.00    -0.200 F 
ATOM     95  C   UNL A   1      38.231  33.538  37.958  1.00  0.00     0.200 A 
ATOM     96  F   UNL A   1      39.453  35.378  37.122  1.00  0.00    -0.200 F 
ATOM     97  F   UNL A   1      37.837  34.262  39.015  1.00  0.00    -0.200 F 
ENDBRANCH  64  87
ENDBRANCH  38  39
ENDBRANCH  31  33
ENDBRANCH  30  31
ENDBRANCH  29  30
ENDBRANCH  28  29
ENDBRANCH  27  28
ENDBRANCH  26  27
ENDBRANCH   1  26
TORSDOF 20
ENDMDL
MODEL 2
REMARK VINA RESULT:     -11.3      1.211      7.219
REMARK SMILES CC(=O)c1ccccc1S(=O)(=O)N1CCC(C(=O)OCCOCCOCCOC(=O)c2ccc(-c3c4nc(c(-c5c(F)c(F)c(F)c(F)c5F)c5ccc([nH]5)c(-c5c(F)c(F)c(F)c(F)c5F)c5nc(c(-c6c(F)c(F)c(F)c(F)c6F)c6ccc3[nH]6)C=C5)C=C4)cc2)CC1
REMARK SMILES IDX 23 1 22 2 21 3 20 4 19 5 17 6 18 7 16 8 13 9 14 10 95 11
REMARK SMILES IDX 15 12 94 13 10 14 11 15 12 16 9 17 4 18 5 19 6 20 8 21 7 22
REMARK SMILES IDX 2 23 1 24 3 25 24 26 25 27 26 28 27 29 28 30 29 31 30 32
REMARK SMILES IDX 31 33 32 34 93 35 33 36 92 37 34 38 35 39 36 40 86 41 37 42
REMARK SMILES IDX 91 43 85 44 87 45 38 46 90 47 84 48 83 49 39 51 71 52 51 53
REMARK SMILES IDX 70 54 52 55 55 56 69 57 88 58 53 59 54 60 68 62 89 63 56 64
REMARK SMILES IDX 40 65 41 66 49 67 42 68 43 69 47 70 50 71 44 72 45 73 48 74
REMARK SMILES IDX 46 75 72 76 73 77 81 78 74 79 75 80 79 81 82 82 76 83 77 84
REMARK SMILES IDX 80 85 78 86 57 87 58 88 66 89 59 90 60 91 64 92 67 93 61 94
REMARK SMILES IDX 62 95 65 96 63 97
REMARK H PARENT 87 50 55 61
REMARK Flexibility Score: inf
ROOT
ATOM      1  C   UNL A   1      40.369  20.218  26.115  1.00  0.00     0.188 C 
ENDROOT
BRANCH   1   2
ATOM      2  O   UNL A   1      39.976  21.420  26.771  1.00  0.00    -0.376 OA
BRANCH   2   3
ATOM      3  C   UNL A   1      38.964  22.208  26.137  1.00  0.00     0.202 C 
BRANCH   3   4
ATOM      4  C   UNL A   1      37.904  21.454  25.318  1.00  0.00     0.261 C 
BRANCH   4   5
ATOM      5  O   UNL A   1      36.599  22.080  25.306  1.00  0.00    -0.463 OA
BRANCH   5   6
ATOM      6  C   UNL A   1      36.262  22.720  24.156  1.00  0.00     0.309 C 
ATOM      7  O   UNL A   1      36.898  22.635  23.110  1.00  0.00    -0.252 OA
BRANCH   6   8
ATOM      8  C   UNL A   1      34.947  23.486  24.230  1.00  0.00     0.102 C 
ATOM      9  N   UNL A   1      32.333  24.442  24.443  1.00  0.00    -0.198 NA
ATOM     10  C   UNL A   1      32.842  24.368  23.051  1.00  0.00     0.103 C 
ATOM     11  C   UNL A   1      32.708  23.371  25.401  1.00  0.00     0.103 C 
ATOM     12  C   UNL A   1      34.278  23.851  22.910  1.00  0.00     0.032 C 
ATOM     13  C   UNL A   1      33.978  22.634  25.033  1.00  0.00     0.032 C 
BRANCH   9  14
ATOM     14  S   UNL A   1      30.724  24.996  24.588  1.00  0.00     0.243 S 
ATOM     15  O   UNL A   1      30.279  24.748  25.947  1.00  0.00    -0.207 OA
ATOM     16  O   UNL A   1      29.975  24.488  23.459  1.00  0.00    -0.207 OA
BRANCH  14  17
ATOM     17  C   UNL A   1      30.706  26.755  24.388  1.00  0.00     0.093 A 
ATOM     18  C   UNL A   1      31.380  27.688  25.172  1.00  0.00     0.037 A 
ATOM     19  C   UNL A   1      31.276  29.057  24.866  1.00  0.00     0.013 A 
ATOM     20  C   UNL A   1      30.528  29.490  23.772  1.00  0.00     0.001 A 
ATOM     21  C   UNL A   1      29.951  27.205  23.284  1.00  0.00     0.022 A 
ATOM     22  C   UNL A   1      29.866  28.562  22.976  1.00  0.00     0.001 A 
BRANCH  18  23
ATOM     23  C   UNL A   1      32.220  27.388  26.340  1.00  0.00     0.161 C 
ATOM     24  C   UNL A   1      33.705  27.284  26.125  1.00  0.00     0.093 C 
ATOM     25  O   UNL A   1      31.712  27.370  27.456  1.00  0.00    -0.294 OA
ENDBRANCH  18  23
ENDBRANCH  14  17
ENDBRANCH   9  14
ENDBRANCH   6   8
ENDBRANCH   5   6
ENDBRANCH   4   5
ENDBRANCH   3   4
ENDBRANCH   2   3
ENDBRANCH   1   2
BRANCH   1  26
ATOM     26  C   UNL A   1      41.818  19.787  26.345  1.00  0.00     0.188 C 
BRANCH  26  27
ATOM     27  O   UNL A   1      42.727  20.265  25.375  1.00  0.00    -0.376 OA
BRANCH  27  28
ATOM     28  C   UNL A   1      43.621  21.325  25.705  1.00  0.00     0.202 C 
BRANCH  28  29
ATOM     29  C   UNL A   1      44.055  22.364  24.641  1.00  0.00     0.261 C 
BRANCH  29  30
ATOM     30  O   UNL A   1      43.511  23.694  24.731  1.00  0.00    -0.460 OA
BRANCH  30  31
ATOM     31  C   UNL A   1      44.332  24.681  25.166  1.00  0.00     0.338 C 
ATOM     32  O   UNL A   1      45.349  25.062  24.627  1.00  0.00    -0.246 OA
BRANCH  31  33
ATOM     33  C   UNL A   1      43.631  25.422  26.258  1.00  0.00     0.060 A 
ATOM     34  C   UNL A   1      44.001  26.758  26.479  1.00  0.00     0.016 A 
ATOM     35  C   UNL A   1      42.583  24.867  26.998  1.00  0.00     0.016 A 
ATOM     36  C   UNL A   1      43.362  27.523  27.460  1.00  0.00     0.010 A 
ATOM     37  C   UNL A   1      41.955  25.628  27.997  1.00  0.00     0.010 A 
ATOM     38  C   UNL A   1      42.364  26.949  28.258  1.00  0.00    -0.014 A 
BRANCH  38  39
ATOM     39  C   UNL A   1      41.909  27.648  29.492  1.00  0.00     0.031 A 
ATOM     40  C   UNL A   1      40.664  28.493  29.409  1.00  0.00     0.074 A 
ATOM     41  C   UNL A   1      42.548  27.524  30.671  1.00  0.00     0.049 A 
ATOM     42  N   UNL A   1      40.105  29.253  30.317  1.00  0.00    -0.248 NA
ATOM     43  C   UNL A   1      39.953  28.475  28.120  1.00  0.00     0.031 C 
ATOM     44  C   UNL A   1      43.727  26.699  30.914  1.00  0.00     0.029 A 
ATOM     45  N   UNL A   1      42.290  28.111  31.888  1.00  0.00    -0.354 N 
ATOM     46  C   UNL A   1      38.985  29.806  29.708  1.00  0.00     0.074 A 
ATOM     47  C   UNL A   1      38.960  29.322  28.345  1.00  0.00     0.031 C 
ATOM     48  C   UNL A   1      44.106  26.849  32.197  1.00  0.00     0.029 A 
ATOM     49  C   UNL A   1      43.219  27.809  32.856  1.00  0.00     0.049 A 
ATOM     50  H   UNL A   1      41.514  28.695  32.052  1.00  0.00     0.167 HD
ATOM     51  C   UNL A   1      38.054  30.635  30.236  1.00  0.00     0.037 A 
ATOM     52  C   UNL A   1      43.356  28.278  34.114  1.00  0.00     0.037 A 
ATOM     53  C   UNL A   1      38.073  31.124  31.589  1.00  0.00     0.049 A 
ATOM     54  C   UNL A   1      42.357  29.277  34.651  1.00  0.00     0.074 A 
ATOM     55  C   UNL A   1      37.171  31.967  32.214  1.00  0.00     0.029 A 
ATOM     56  N   UNL A   1      39.049  30.819  32.525  1.00  0.00    -0.354 N 
ATOM     57  N   UNL A   1      41.293  29.783  34.074  1.00  0.00    -0.248 NA
ATOM     58  C   UNL A   1      42.577  29.769  36.022  1.00  0.00     0.031 C 
ATOM     59  C   UNL A   1      37.631  32.220  33.509  1.00  0.00     0.029 A 
ATOM     60  C   UNL A   1      38.783  31.479  33.715  1.00  0.00     0.049 A 
ATOM     61  H   UNL A   1      39.817  30.224  32.369  1.00  0.00     0.167 HD
ATOM     62  C   UNL A   1      40.703  30.618  35.018  1.00  0.00     0.074 A 
ATOM     63  C   UNL A   1      41.516  30.540  36.212  1.00  0.00     0.031 C 
ATOM     64  C   UNL A   1      39.587  31.381  34.906  1.00  0.00     0.037 A 
BRANCH  51  65
ATOM     65  C   UNL A   1      36.940  31.090  29.339  1.00  0.00     0.064 A 
ATOM     66  C   UNL A   1      35.855  30.256  29.029  1.00  0.00     0.173 A 
ATOM     67  C   UNL A   1      36.933  32.395  28.822  1.00  0.00     0.173 A 
ATOM     68  F   UNL A   1      35.820  28.995  29.484  1.00  0.00    -0.203 F 
ATOM     69  C   UNL A   1      34.817  30.705  28.216  1.00  0.00     0.198 A 
ATOM     70  C   UNL A   1      35.877  32.850  28.038  1.00  0.00     0.198 A 
ATOM     71  F   UNL A   1      37.945  33.234  29.091  1.00  0.00    -0.203 F 
ATOM     72  F   UNL A   1      33.813  29.876  27.896  1.00  0.00    -0.200 F 
ATOM     73  C   UNL A   1      34.823  32.004  27.730  1.00  0.00     0.200 A 
ATOM     74  F   UNL A   1      35.879  34.111  27.582  1.00  0.00    -0.200 F 
ATOM     75  F   UNL A   1      33.816  32.438  26.961  1.00  0.00    -0.200 F 
ENDBRANCH  51  65
BRANCH  52  76
ATOM     76  C   UNL A   1      44.504  27.845  34.959  1.00  0.00     0.064 A 
ATOM     77  C   UNL A   1      45.724  28.538  34.942  1.00  0.00     0.173 A 
ATOM     78  C   UNL A   1      44.427  26.689  35.750  1.00  0.00     0.173 A 
ATOM     79  F   UNL A   1      45.864  29.628  34.174  1.00  0.00    -0.203 F 
ATOM     80  C   UNL A   1      46.827  28.075  35.659  1.00  0.00     0.198 A 
ATOM     81  C   UNL A   1      45.519  26.248  36.495  1.00  0.00     0.198 A 
ATOM     82  F   UNL A   1      43.289  25.981  35.796  1.00  0.00    -0.203 F 
ATOM     83  F   UNL A   1      48.000  28.717  35.566  1.00  0.00    -0.200 F 
ATOM     84  C   UNL A   1      46.722  26.934  36.438  1.00  0.00     0.200 A 
ATOM     85  F   UNL A   1      45.411  25.148  37.253  1.00  0.00    -0.200 F 
ATOM     86  F   UNL A   1      47.785  26.485  37.120  1.00  0.00    -0.200 F 
ENDBRANCH  52  76
BRANCH  64  87
ATOM     87  C   UNL A   1      39.139  32.150  36.118  1.00  0.00     0.064 A 
ATOM     88  C   UNL A   1      39.565  33.463  36.365  1.00  0.00     0.173 A 
ATOM     89  C   UNL A   1      38.228  31.579  37.022  1.00  0.00     0.173 A 
ATOM     90  F   UNL A   1      40.442  34.055  35.541  1.00  0.00    -0.203 F 
ATOM     91  C   UNL A   1      39.122  34.163  37.486  1.00  0.00     0.198 A 
ATOM     92  C   UNL A   1      37.759  32.293  38.121  1.00  0.00     0.198 A 
ATOM     93  F   UNL A   1      37.777  30.330  36.829  1.00  0.00    -0.203 F 
ATOM     94  F   UNL A   1      39.585  35.397  37.729  1.00  0.00    -0.200 F 
ATOM     95  C   UNL A   1      38.213  33.581  38.358  1.00  0.00     0.200 A 
ATOM     96  F   UNL A   1      36.866  31.735  38.951  1.00  0.00    -0.200 F 
ATOM     97  F   UNL A   1      37.781  34.259  39.429  1.00  0.00    -0.200 F 
ENDBRANCH  64  87
ENDBRANCH  38  39
ENDBRANCH  31  33
ENDBRANCH  30  31
ENDBRANCH  29  30
ENDBRANCH  28  29
ENDBRANCH  27  28
ENDBRANCH  26  27
ENDBRANCH   1  26
TORSDOF 20
ENDMDL
MODEL 3
REMARK VINA RESULT:     -10.9      0.822      7.249
REMARK SMILES CC(=O)c1ccccc1S(=O)(=O)N1CCC(C(=O)OCCOCCOCCOC(=O)c2ccc(-c3c4nc(c(-c5c(F)c(F)c(F)c(F)c5F)c5ccc([nH]5)c(-c5c(F)c(F)c(F)c(F)c5F)c5nc(c(-c6c(F)c(F)c(F)c(F)c6F)c6ccc3[nH]6)C=C5)C=C4)cc2)CC1
REMARK SMILES IDX 23 1 22 2 21 3 20 4 19 5 17 6 18 7 16 8 13 9 14 10 95 11
REMARK SMILES IDX 15 12 94 13 10 14 11 15 12 16 9 17 4 18 5 19 6 20 8 21 7 22
REMARK SMILES IDX 2 23 1 24 3 25 24 26 25 27 26 28 27 29 28 30 29 31 30 32
REMARK SMILES IDX 31 33 32 34 93 35 33 36 92 37 34 38 35 39 36 40 86 41 37 42
REMARK SMILES IDX 91 43 85 44 87 45 38 46 90 47 84 48 83 49 39 51 71 52 51 53
REMARK SMILES IDX 70 54 52 55 55 56 69 57 88 58 53 59 54 60 68 62 89 63 56 64
REMARK SMILES IDX 40 65 41 66 49 67 42 68 43 69 47 70 50 71 44 72 45 73 48 74
REMARK SMILES IDX 46 75 72 76 73 77 81 78 74 79 75 80 79 81 82 82 76 83 77 84
REMARK SMILES IDX 80 85 78 86 57 87 58 88 66 89 59 90 60 91 64 92 67 93 61 94
REMARK SMILES IDX 62 95 65 96 63 97
REMARK H PARENT 87 50 55 61
REMARK Flexibility Score: inf
ROOT
ATOM      1  C   UNL A   1      39.671  21.155  25.958  1.00  0.00     0.188 C 
ENDROOT
BRANCH   1   2
ATOM      2  O   UNL A   1      39.190  22.425  26.389  1.00  0.00    -0.376 OA
BRANCH   2   3
ATOM      3  C   UNL A   1      37.921  22.848  25.883  1.00  0.00     0.202 C 
BRANCH   3   4
ATOM      4  C   UNL A   1      37.049  21.778  25.204  1.00  0.00     0.261 C 
BRANCH   4   5
ATOM      5  O   UNL A   1      35.834  21.453  25.918  1.00  0.00    -0.463 OA
BRANCH   5   6
ATOM      6  C   UNL A   1      34.741  21.215  25.147  1.00  0.00     0.309 C 
ATOM      7  O   UNL A   1      34.061  20.196  25.214  1.00  0.00    -0.252 OA
BRANCH   6   8
ATOM      8  C   UNL A   1      34.350  22.378  24.243  1.00  0.00     0.102 C 
ATOM      9  N   UNL A   1      33.455  24.714  23.005  1.00  0.00    -0.198 NA
ATOM     10  C   UNL A   1      32.578  23.536  22.789  1.00  0.00     0.103 C 
ATOM     11  C   UNL A   1      34.102  24.892  24.330  1.00  0.00     0.103 C 
ATOM     12  C   UNL A   1      33.052  22.241  23.455  1.00  0.00     0.032 C 
ATOM     13  C   UNL A   1      34.243  23.611  25.123  1.00  0.00     0.032 C 
BRANCH   9  14
ATOM     14  S   UNL A   1      32.906  26.159  22.279  1.00  0.00     0.243 S 
ATOM     15  O   UNL A   1      31.679  25.869  21.561  1.00  0.00    -0.207 OA
ATOM     16  O   UNL A   1      34.030  26.774  21.607  1.00  0.00    -0.207 OA
BRANCH  14  17
ATOM     17  C   UNL A   1      32.461  27.304  23.554  1.00  0.00     0.093 A 
ATOM     18  C   UNL A   1      31.356  27.221  24.398  1.00  0.00     0.037 A 
ATOM     19  C   UNL A   1      31.154  28.209  25.378  1.00  0.00     0.013 A 
ATOM     20  C   UNL A   1      32.061  29.257  25.532  1.00  0.00     0.001 A 
ATOM     21  C   UNL A   1      33.371  28.370  23.719  1.00  0.00     0.022 A 
ATOM     22  C   UNL A   1      33.175  29.337  24.704  1.00  0.00     0.001 A 
BRANCH  18  23
ATOM     23  C   UNL A   1      30.328  26.172  24.372  1.00  0.00     0.161 C 
ATOM     24  C   UNL A   1      30.538  24.964  25.243  1.00  0.00     0.093 C 
ATOM     25  O   UNL A   1      29.282  26.370  23.761  1.00  0.00    -0.294 OA
ENDBRANCH  18  23
ENDBRANCH  14  17
ENDBRANCH   9  14
ENDBRANCH   6   8
ENDBRANCH   5   6
ENDBRANCH   4   5
ENDBRANCH   3   4
ENDBRANCH   2   3
ENDBRANCH   1   2
BRANCH   1  26
ATOM     26  C   UNL A   1      40.876  20.612  26.729  1.00  0.00     0.188 C 
BRANCH  26  27
ATOM     27  O   UNL A   1      42.024  20.397  25.934  1.00  0.00    -0.376 OA
BRANCH  27  28
ATOM     28  C   UNL A   1      43.208  21.149  26.186  1.00  0.00     0.202 C 
BRANCH  28  29
ATOM     29  C   UNL A   1      43.847  22.027  25.082  1.00  0.00     0.261 C 
BRANCH  29  30
ATOM     30  O   UNL A   1      43.326  23.355  24.886  1.00  0.00    -0.460 OA
BRANCH  30  31
ATOM     31  C   UNL A   1      44.138  24.398  25.184  1.00  0.00     0.338 C 
ATOM     32  O   UNL A   1      45.097  24.771  24.543  1.00  0.00    -0.246 OA
BRANCH  31  33
ATOM     33  C   UNL A   1      43.490  25.197  26.268  1.00  0.00     0.060 A 
ATOM     34  C   UNL A   1      43.999  26.480  26.524  1.00  0.00     0.016 A 
ATOM     35  C   UNL A   1      42.364  24.751  26.967  1.00  0.00     0.016 A 
ATOM     36  C   UNL A   1      43.419  27.297  27.500  1.00  0.00     0.010 A 
ATOM     37  C   UNL A   1      41.795  25.563  27.962  1.00  0.00     0.010 A 
ATOM     38  C   UNL A   1      42.340  26.826  28.259  1.00  0.00    -0.014 A 
BRANCH  38  39
ATOM     39  C   UNL A   1      41.927  27.553  29.491  1.00  0.00     0.031 A 
ATOM     40  C   UNL A   1      40.684  28.403  29.430  1.00  0.00     0.074 A 
ATOM     41  C   UNL A   1      42.602  27.450  30.651  1.00  0.00     0.049 A 
ATOM     42  N   UNL A   1      40.157  29.184  30.338  1.00  0.00    -0.248 NA
ATOM     43  C   UNL A   1      39.932  28.362  28.164  1.00  0.00     0.031 C 
ATOM     44  C   UNL A   1      43.785  26.624  30.875  1.00  0.00     0.029 A 
ATOM     45  N   UNL A   1      42.386  28.064  31.864  1.00  0.00    -0.354 N 
ATOM     46  C   UNL A   1      39.021  29.730  29.754  1.00  0.00     0.074 A 
ATOM     47  C   UNL A   1      38.951  29.219  28.402  1.00  0.00     0.031 C 
ATOM     48  C   UNL A   1      44.205  26.799  32.142  1.00  0.00     0.029 A 
ATOM     49  C   UNL A   1      43.344  27.778  32.808  1.00  0.00     0.049 A 
ATOM     50  H   UNL A   1      41.618  28.655  32.040  1.00  0.00     0.167 HD
ATOM     51  C   UNL A   1      38.111  30.575  30.293  1.00  0.00     0.037 A 
ATOM     52  C   UNL A   1      43.523  28.272  34.050  1.00  0.00     0.037 A 
ATOM     53  C   UNL A   1      38.176  31.092  31.635  1.00  0.00     0.049 A 
ATOM     54  C   UNL A   1      42.546  29.287  34.598  1.00  0.00     0.074 A 
ATOM     55  C   UNL A   1      37.297  31.953  32.270  1.00  0.00     0.029 A 
ATOM     56  N   UNL A   1      39.180  30.802  32.546  1.00  0.00    -0.354 N 
ATOM     57  N   UNL A   1      41.467  29.787  34.045  1.00  0.00    -0.248 NA
ATOM     58  C   UNL A   1      42.812  29.806  35.950  1.00  0.00     0.031 C 
ATOM     59  C   UNL A   1      37.800  32.231  33.544  1.00  0.00     0.029 A 
ATOM     60  C   UNL A   1      38.954  31.488  33.729  1.00  0.00     0.049 A 
ATOM     61  H   UNL A   1      39.939  30.200  32.378  1.00  0.00     0.167 HD
ATOM     62  C   UNL A   1      40.910  30.645  34.989  1.00  0.00     0.074 A 
ATOM     63  C   UNL A   1      41.761  30.587  36.157  1.00  0.00     0.031 C 
ATOM     64  C   UNL A   1      39.795  31.411  34.896  1.00  0.00     0.037 A 
BRANCH  51  65
ATOM     65  C   UNL A   1      36.971  31.018  29.423  1.00  0.00     0.064 A 
ATOM     66  C   UNL A   1      36.933  32.300  28.853  1.00  0.00     0.173 A 
ATOM     67  C   UNL A   1      35.928  30.132  29.115  1.00  0.00     0.173 A 
ATOM     68  F   UNL A   1      37.897  33.191  29.128  1.00  0.00    -0.203 F 
ATOM     69  C   UNL A   1      35.880  32.684  28.026  1.00  0.00     0.198 A 
ATOM     70  C   UNL A   1      34.894  30.509  28.262  1.00  0.00     0.198 A 
ATOM     71  F   UNL A   1      35.918  28.893  29.631  1.00  0.00    -0.203 F 
ATOM     72  F   UNL A   1      35.841  33.928  27.529  1.00  0.00    -0.200 F 
ATOM     73  C   UNL A   1      34.868  31.785  27.723  1.00  0.00     0.200 A 
ATOM     74  F   UNL A   1      33.925  29.633  27.959  1.00  0.00    -0.200 F 
ATOM     75  F   UNL A   1      33.864  32.153  26.916  1.00  0.00    -0.200 F 
ENDBRANCH  51  65
BRANCH  52  76
ATOM     76  C   UNL A   1      44.695  27.851  34.868  1.00  0.00     0.064 A 
ATOM     77  C   UNL A   1      44.615  26.764  35.752  1.00  0.00     0.173 A 
ATOM     78  C   UNL A   1      45.900  28.568  34.832  1.00  0.00     0.173 A 
ATOM     79  F   UNL A   1      43.474  26.066  35.853  1.00  0.00    -0.203 F 
ATOM     80  C   UNL A   1      45.682  26.432  36.587  1.00  0.00     0.198 A 
ATOM     81  C   UNL A   1      46.978  28.213  35.640  1.00  0.00     0.198 A 
ATOM     82  F   UNL A   1      46.029  29.623  34.013  1.00  0.00    -0.203 F 
ATOM     83  F   UNL A   1      45.551  25.435  37.472  1.00  0.00    -0.200 F 
ATOM     84  C   UNL A   1      46.864  27.154  36.526  1.00  0.00     0.200 A 
ATOM     85  F   UNL A   1      48.122  28.909  35.572  1.00  0.00    -0.200 F 
ATOM     86  F   UNL A   1      47.886  26.839  37.334  1.00  0.00    -0.200 F 
ENDBRANCH  52  76
BRANCH  64  87
ATOM     87  C   UNL A   1      39.389  32.207  36.105  1.00  0.00     0.064 A 
ATOM     88  C   UNL A   1      39.959  33.455  36.399  1.00  0.00     0.173 A 
ATOM     89  C   UNL A   1      38.377  31.735  36.957  1.00  0.00     0.173 A 
ATOM     90  F   UNL A   1      40.937  33.950  35.626  1.00  0.00    -0.203 F 
ATOM     91  C   UNL A   1      39.553  34.184  37.516  1.00  0.00     0.198 A 
ATOM     92  C   UNL A   1      37.949  32.481  38.051  1.00  0.00     0.198 A 
ATOM     93  F   UNL A   1      37.788  30.553  36.717  1.00  0.00    -0.203 F 
ATOM     94  F   UNL A   1      40.150  35.348  37.807  1.00  0.00    -0.200 F 
ATOM     95  C   UNL A   1      38.544  33.702  38.335  1.00  0.00     0.200 A 
ATOM     96  F   UNL A   1      36.959  32.021  38.829  1.00  0.00    -0.200 F 
ATOM     97  F   UNL A   1      38.148  34.408  39.402  1.00  0.00    -0.200 F 
ENDBRANCH  64  87
ENDBRANCH  38  39
ENDBRANCH  31  33
ENDBRANCH  30  31
ENDBRANCH  29  30
ENDBRANCH  28  29
ENDBRANCH  27  28
ENDBRANCH  26  27
ENDBRANCH   1  26
TORSDOF 20
ENDMDL
