MODEL 1
REMARK VINA RESULT:     -13.6      0.000      0.000
REMARK SMILES Cc1ccc(C[C@@H](Cc2cc(F)cc(Br)c2)C(=O)OCCOCCOCCOC(=O)c2ccc(-c3c4nc(c(-c5c(F)c(F)c(F)c(F)c5F)c5ccc([nH]5)c(-c5c(F)c(F)c(F)c(F)c5F)c5nc(c(-c6c(F)c(F)c(F)c(F)c6F)c6ccc3[nH]6)C=C5)C=C4)cc2)cc1
REMARK SMILES IDX 23 1 22 2 21 3 20 4 19 5 17 6 18 7 7 8 6 9 5 10 1 11 2 12
REMARK SMILES IDX 3 13 95 14 4 15 94 16 8 17 9 18 10 19 16 20 11 21 14 22
REMARK SMILES IDX 12 23 13 24 15 25 24 26 25 27 26 28 27 29 28 30 29 31 30 32
REMARK SMILES IDX 31 33 32 34 93 35 33 36 92 37 34 38 35 39 36 40 86 41 37 42
REMARK SMILES IDX 91 43 85 44 87 45 38 46 90 47 84 48 83 49 39 51 71 52 51 53
REMARK SMILES IDX 70 54 52 55 55 56 69 57 88 58 53 59 54 60 68 62 89 63 56 64
REMARK SMILES IDX 40 65 41 66 49 67 42 68 43 69 47 70 50 71 44 72 45 73 48 74
REMARK SMILES IDX 46 75 72 76 73 77 81 78 74 79 75 80 79 81 82 82 76 83 77 84
REMARK SMILES IDX 80 85 78 86 57 87 58 88 66 89 59 90 60 91 64 92 67 93 61 94
REMARK SMILES IDX 62 95 65 96 63 97
REMARK H PARENT 87 50 55 61
REMARK Flexibility Score: inf
ROOT
ATOM      1  C   UNL A   1      39.515  21.346  26.086  1.00  0.00     0.188 C 
ENDROOT
BRANCH   1   2
ATOM      2  O   UNL A   1      38.214  21.893  25.766  1.00  0.00    -0.376 OA
BRANCH   2   3
ATOM      3  C   UNL A   1      37.409  21.755  24.566  1.00  0.00     0.202 C 
BRANCH   3   4
ATOM      4  C   UNL A   1      36.355  22.845  23.613  1.00  0.00     0.261 C 
BRANCH   4   5
ATOM      5  O   UNL A   1      34.709  23.366  23.707  1.00  0.00    -0.463 OA
BRANCH   5   6
ATOM      6  C   UNL A   1      33.509  23.403  22.928  1.00  0.00     0.309 C 
ATOM      7  O   UNL A   1      33.327  24.010  21.871  1.00  0.00    -0.252 OA
BRANCH   6   8
ATOM      8  C   UNL A   1      32.241  22.726  23.355  1.00  0.00     0.108 C 
BRANCH   8   9
ATOM      9  C   UNL A   1      32.479  21.865  24.576  1.00  0.00     0.051 C 
BRANCH   9  10
ATOM     10  C   UNL A   1      32.964  20.520  24.117  1.00  0.00    -0.047 A 
ATOM     11  C   UNL A   1      34.003  16.419  23.430  1.00  0.00     0.044 C 
ATOM     12  C   UNL A   1      33.621  17.844  23.668  1.00  0.00    -0.051 A 
ATOM     13  C   UNL A   1      34.381  18.610  24.553  1.00  0.00     0.004 A 
ATOM     14  C   UNL A   1      32.514  18.415  23.027  1.00  0.00     0.004 A 
ATOM     15  C   UNL A   1      34.091  19.953  24.728  1.00  0.00     0.004 A 
ATOM     16  C   UNL A   1      32.172  19.743  23.267  1.00  0.00     0.004 A 
ENDBRANCH   9  10
ENDBRANCH   8   9
BRANCH   8  17
ATOM     17  C   UNL A   1      30.893  23.603  23.438  1.00  0.00     0.051 C 
BRANCH  17  18
ATOM     18  C   UNL A   1      30.682  24.880  24.202  1.00  0.00    -0.043 A 
ATOM     19  C   UNL A   1      31.394  25.120  25.394  1.00  0.00     0.043 A 
ATOM     20  C   UNL A   1      29.898  25.887  23.697  1.00  0.00     0.019 A 
ATOM     21  C   UNL A   1      31.620  26.419  25.815  1.00  0.00     0.124 A 
ATOM     22  C   UNL A   1      30.235  27.176  24.052  1.00  0.00     0.021 A 
ATOM     23  F   UNL A   1      32.458  26.662  26.830  1.00  0.00    -0.207 F 
ATOM     24  C   UNL A   1      31.118  27.466  25.080  1.00  0.00     0.055 A 
ATOM     25  Br  UNL A   1      29.738  28.444  22.814  1.00  0.00    -0.051 Br
ENDBRANCH  17  18
ENDBRANCH   8  17
ENDBRANCH   6   8
ENDBRANCH   5   6
ENDBRANCH   4   5
ENDBRANCH   3   4
ENDBRANCH   2   3
ENDBRANCH   1   2
BRANCH   1  26
ATOM     26  C   UNL A   1      39.881  19.874  25.917  1.00  0.00     0.188 C 
BRANCH  26  27
ATOM     27  O   UNL A   1      41.079  19.616  26.606  1.00  0.00    -0.376 OA
BRANCH  27  28
ATOM     28  C   UNL A   1      42.260  19.651  25.836  1.00  0.00     0.202 C 
BRANCH  28  29
ATOM     29  C   UNL A   1      43.134  20.883  26.120  1.00  0.00     0.261 C 
BRANCH  29  30
ATOM     30  O   UNL A   1      42.957  21.889  25.090  1.00  0.00    -0.460 OA
BRANCH  30  31
ATOM     31  C   UNL A   1      43.336  23.176  25.389  1.00  0.00     0.338 C 
ATOM     32  O   UNL A   1      44.466  23.621  25.233  1.00  0.00    -0.246 OA
BRANCH  31  33
ATOM     33  C   UNL A   1      42.257  23.858  26.192  1.00  0.00     0.060 A 
ATOM     34  C   UNL A   1      41.516  24.974  25.763  1.00  0.00     0.016 A 
ATOM     35  C   UNL A   1      42.348  23.692  27.530  1.00  0.00     0.016 A 
ATOM     36  C   UNL A   1      41.129  26.044  26.680  1.00  0.00     0.010 A 
ATOM     37  C   UNL A   1      42.244  24.869  28.272  1.00  0.00     0.010 A 
ATOM     38  C   UNL A   1      41.597  26.123  28.000  1.00  0.00    -0.014 A 
BRANCH  38  39
ATOM     39  C   UNL A   1      41.478  27.529  29.049  1.00  0.00     0.031 A 
ATOM     40  C   UNL A   1      40.296  28.823  29.249  1.00  0.00     0.074 A 
ATOM     41  C   UNL A   1      42.503  27.767  29.899  1.00  0.00     0.049 A 
ATOM     42  N   UNL A   1      40.048  29.542  30.345  1.00  0.00    -0.248 NA
ATOM     43  C   UNL A   1      39.366  29.384  28.222  1.00  0.00     0.031 C 
ATOM     44  C   UNL A   1      42.448  28.553  31.131  1.00  0.00     0.029 A 
ATOM     45  N   UNL A   1      43.862  27.473  29.759  1.00  0.00    -0.354 N 
ATOM     46  C   UNL A   1      38.990  30.449  30.128  1.00  0.00     0.074 A 
ATOM     47  C   UNL A   1      38.532  30.216  28.813  1.00  0.00     0.031 C 
ATOM     48  C   UNL A   1      43.670  28.999  31.423  1.00  0.00     0.029 A 
ATOM     49  C   UNL A   1      44.539  28.560  30.364  1.00  0.00     0.049 A 
ATOM     50  H   UNL A   1      44.261  26.681  29.332  1.00  0.00     0.167 HD
ATOM     51  C   UNL A   1      38.707  31.649  30.719  1.00  0.00     0.037 A 
ATOM     52  C   UNL A   1      45.499  29.294  29.749  1.00  0.00     0.037 A 
ATOM     53  C   UNL A   1      39.921  32.262  31.246  1.00  0.00     0.049 A 
ATOM     54  C   UNL A   1      45.356  30.808  29.908  1.00  0.00     0.074 A 
ATOM     55  C   UNL A   1      40.651  32.098  32.402  1.00  0.00     0.029 A 
ATOM     56  N   UNL A   1      40.739  33.021  30.407  1.00  0.00    -0.354 N 
ATOM     57  N   UNL A   1      44.414  31.453  30.571  1.00  0.00    -0.248 NA
ATOM     58  C   UNL A   1      46.263  31.726  29.226  1.00  0.00     0.031 C 
ATOM     59  C   UNL A   1      41.978  32.571  32.147  1.00  0.00     0.029 A 
ATOM     60  C   UNL A   1      42.065  33.066  30.849  1.00  0.00     0.049 A 
ATOM     61  H   UNL A   1      40.418  33.476  29.596  1.00  0.00     0.167 HD
ATOM     62  C   UNL A   1      44.376  32.764  30.101  1.00  0.00     0.074 A 
ATOM     63  C   UNL A   1      45.686  32.908  29.489  1.00  0.00     0.031 C 
ATOM     64  C   UNL A   1      43.214  33.528  30.003  1.00  0.00     0.037 A 
BRANCH  51  65
ATOM     65  C   UNL A   1      37.291  32.311  30.627  1.00  0.00     0.064 A 
ATOM     66  C   UNL A   1      36.989  33.206  29.580  1.00  0.00     0.173 A 
ATOM     67  C   UNL A   1      36.242  32.224  31.599  1.00  0.00     0.173 A 
ATOM     68  F   UNL A   1      37.893  33.458  28.624  1.00  0.00    -0.203 F 
ATOM     69  C   UNL A   1      35.771  33.920  29.501  1.00  0.00     0.198 A 
ATOM     70  C   UNL A   1      34.999  32.873  31.477  1.00  0.00     0.198 A 
ATOM     71  F   UNL A   1      36.383  31.556  32.753  1.00  0.00    -0.203 F 
ATOM     72  F   UNL A   1      35.584  34.812  28.518  1.00  0.00    -0.200 F 
ATOM     73  C   UNL A   1      34.770  33.739  30.436  1.00  0.00     0.200 A 
ATOM     74  F   UNL A   1      34.046  32.678  32.403  1.00  0.00    -0.200 F 
ATOM     75  F   UNL A   1      33.617  34.419  30.360  1.00  0.00    -0.200 F 
ENDBRANCH  51  65
BRANCH  52  76
ATOM     76  C   UNL A   1      46.148  28.490  28.654  1.00  0.00     0.064 A 
ATOM     77  C   UNL A   1      45.816  28.882  27.333  1.00  0.00     0.173 A 
ATOM     78  C   UNL A   1      47.370  27.814  28.813  1.00  0.00     0.173 A 
ATOM     79  F   UNL A   1      44.672  29.549  27.108  1.00  0.00    -0.203 F 
ATOM     80  C   UNL A   1      46.725  28.774  26.280  1.00  0.00     0.198 A 
ATOM     81  C   UNL A   1      48.263  27.667  27.739  1.00  0.00     0.198 A 
ATOM     82  F   UNL A   1      47.764  27.389  30.019  1.00  0.00    -0.203 F 
ATOM     83  F   UNL A   1      46.450  29.349  25.099  1.00  0.00    -0.200 F 
ATOM     84  C   UNL A   1      47.959  28.191  26.488  1.00  0.00     0.200 A 
ATOM     85  F   UNL A   1      49.483  27.144  27.946  1.00  0.00    -0.200 F 
ATOM     86  F   UNL A   1      48.886  28.214  25.519  1.00  0.00    -0.200 F 
ENDBRANCH  52  76
BRANCH  64  87
ATOM     87  C   UNL A   1      43.111  34.740  29.019  1.00  0.00     0.064 A 
ATOM     88  C   UNL A   1      43.002  36.099  29.410  1.00  0.00     0.173 A 
ATOM     89  C   UNL A   1      43.172  34.591  27.613  1.00  0.00     0.173 A 
ATOM     90  F   UNL A   1      43.311  36.511  30.643  1.00  0.00    -0.203 F 
ATOM     91  C   UNL A   1      42.689  37.141  28.524  1.00  0.00     0.198 A 
ATOM     92  C   UNL A   1      42.973  35.656  26.714  1.00  0.00     0.198 A 
ATOM     93  F   UNL A   1      43.494  33.422  27.048  1.00  0.00    -0.203 F 
ATOM     94  F   UNL A   1      42.458  38.373  29.003  1.00  0.00    -0.200 F 
ATOM     95  C   UNL A   1      42.657  36.916  27.171  1.00  0.00     0.200 A 
ATOM     96  F   UNL A   1      43.107  35.448  25.397  1.00  0.00    -0.200 F 
ATOM     97  F   UNL A   1      42.390  37.914  26.318  1.00  0.00    -0.200 F 
ENDBRANCH  64  87
ENDBRANCH  38  39
ENDBRANCH  31  33
ENDBRANCH  30  31
ENDBRANCH  29  30
ENDBRANCH  28  29
ENDBRANCH  27  28
ENDBRANCH  26  27
ENDBRANCH   1  26
TORSDOF 21
ENDMDL
MODEL 2
REMARK VINA RESULT:     -13.4      1.667      2.499
REMARK SMILES Cc1ccc(C[C@@H](Cc2cc(F)cc(Br)c2)C(=O)OCCOCCOCCOC(=O)c2ccc(-c3c4nc(c(-c5c(F)c(F)c(F)c(F)c5F)c5ccc([nH]5)c(-c5c(F)c(F)c(F)c(F)c5F)c5nc(c(-c6c(F)c(F)c(F)c(F)c6F)c6ccc3[nH]6)C=C5)C=C4)cc2)cc1
REMARK SMILES IDX 23 1 22 2 21 3 20 4 19 5 17 6 18 7 7 8 6 9 5 10 1 11 2 12
REMARK SMILES IDX 3 13 95 14 4 15 94 16 8 17 9 18 10 19 16 20 11 21 14 22
REMARK SMILES IDX 12 23 13 24 15 25 24 26 25 27 26 28 27 29 28 30 29 31 30 32
REMARK SMILES IDX 31 33 32 34 93 35 33 36 92 37 34 38 35 39 36 40 86 41 37 42
REMARK SMILES IDX 91 43 85 44 87 45 38 46 90 47 84 48 83 49 39 51 71 52 51 53
REMARK SMILES IDX 70 54 52 55 55 56 69 57 88 58 53 59 54 60 68 62 89 63 56 64
REMARK SMILES IDX 40 65 41 66 49 67 42 68 43 69 47 70 50 71 44 72 45 73 48 74
REMARK SMILES IDX 46 75 72 76 73 77 81 78 74 79 75 80 79 81 82 82 76 83 77 84
REMARK SMILES IDX 80 85 78 86 57 87 58 88 66 89 59 90 60 91 64 92 67 93 61 94
REMARK SMILES IDX 62 95 65 96 63 97
REMARK H PARENT 87 50 55 61
REMARK Flexibility Score: inf
ROOT
ATOM      1  C   UNL A   1      41.510  19.479  26.713  1.00  0.00     0.188 C 
ENDROOT
BRANCH   1   2
ATOM      2  O   UNL A   1      40.469  19.765  25.749  1.00  0.00    -0.376 OA
BRANCH   2   3
ATOM      3  C   UNL A   1      39.451  20.798  25.748  1.00  0.00     0.202 C 
BRANCH   3   4
ATOM      4  C   UNL A   1      37.832  20.984  25.004  1.00  0.00     0.261 C 
BRANCH   4   5
ATOM      5  O   UNL A   1      36.791  22.311  24.624  1.00  0.00    -0.463 OA
BRANCH   5   6
ATOM      6  C   UNL A   1      36.158  23.438  25.239  1.00  0.00     0.309 C 
ATOM      7  O   UNL A   1      36.626  24.168  26.114  1.00  0.00    -0.252 OA
BRANCH   6   8
ATOM      8  C   UNL A   1      34.753  23.854  24.922  1.00  0.00     0.108 C 
BRANCH   8   9
ATOM      9  C   UNL A   1      33.758  22.962  25.631  1.00  0.00     0.051 C 
BRANCH   9  10
ATOM     10  C   UNL A   1      33.493  21.767  24.759  1.00  0.00    -0.047 A 
ATOM     11  C   UNL A   1      32.159  18.228  22.743  1.00  0.00     0.044 C 
ATOM     12  C   UNL A   1      32.606  19.472  23.442  1.00  0.00    -0.051 A 
ATOM     13  C   UNL A   1      33.403  19.358  24.582  1.00  0.00     0.004 A 
ATOM     14  C   UNL A   1      32.234  20.739  22.977  1.00  0.00     0.004 A 
ATOM     15  C   UNL A   1      33.893  20.497  25.198  1.00  0.00     0.004 A 
ATOM     16  C   UNL A   1      32.656  21.885  23.646  1.00  0.00     0.004 A 
ENDBRANCH   9  10
ENDBRANCH   8   9
BRANCH   8  17
ATOM     17  C   UNL A   1      34.381  25.420  24.998  1.00  0.00     0.051 C 
BRANCH  17  18
ATOM     18  C   UNL A   1      33.021  26.024  25.213  1.00  0.00    -0.043 A 
ATOM     19  C   UNL A   1      32.686  26.598  26.455  1.00  0.00     0.043 A 
ATOM     20  C   UNL A   1      32.128  26.143  24.177  1.00  0.00     0.019 A 
ATOM     21  C   UNL A   1      31.710  27.576  26.525  1.00  0.00     0.124 A 
ATOM     22  C   UNL A   1      31.250  27.205  24.233  1.00  0.00     0.021 A 
ATOM     23  F   UNL A   1      31.525  28.264  27.657  1.00  0.00    -0.207 F 
ATOM     24  C   UNL A   1      31.050  27.957  25.381  1.00  0.00     0.055 A 
ATOM     25  Br  UNL A   1      30.675  27.783  22.583  1.00  0.00    -0.051 Br
ENDBRANCH  17  18
ENDBRANCH   8  17
ENDBRANCH   6   8
ENDBRANCH   5   6
ENDBRANCH   4   5
ENDBRANCH   3   4
ENDBRANCH   2   3
ENDBRANCH   1   2
BRANCH   1  26
ATOM     26  C   UNL A   1      42.883  18.927  26.340  1.00  0.00     0.188 C 
BRANCH  26  27
ATOM     27  O   UNL A   1      43.114  19.157  24.972  1.00  0.00    -0.376 OA
BRANCH  27  28
ATOM     28  C   UNL A   1      44.404  18.844  24.497  1.00  0.00     0.202 C 
BRANCH  28  29
ATOM     29  C   UNL A   1      45.382  20.028  24.570  1.00  0.00     0.261 C 
BRANCH  29  30
ATOM     30  O   UNL A   1      44.675  21.288  24.445  1.00  0.00    -0.460 OA
BRANCH  30  31
ATOM     31  C   UNL A   1      44.979  22.278  25.350  1.00  0.00     0.338 C 
ATOM     32  O   UNL A   1      45.945  22.258  26.102  1.00  0.00    -0.246 OA
BRANCH  31  33
ATOM     33  C   UNL A   1      43.817  23.230  25.482  1.00  0.00     0.060 A 
ATOM     34  C   UNL A   1      43.796  24.550  25.000  1.00  0.00     0.016 A 
ATOM     35  C   UNL A   1      42.975  22.964  26.505  1.00  0.00     0.016 A 
ATOM     36  C   UNL A   1      43.145  25.633  25.735  1.00  0.00     0.010 A 
ATOM     37  C   UNL A   1      42.666  24.065  27.307  1.00  0.00     0.010 A 
ATOM     38  C   UNL A   1      42.642  25.476  27.035  1.00  0.00    -0.014 A 
BRANCH  38  39
ATOM     39  C   UNL A   1      42.172  26.778  28.118  1.00  0.00     0.031 A 
ATOM     40  C   UNL A   1      40.888  27.987  28.110  1.00  0.00     0.074 A 
ATOM     41  C   UNL A   1      42.940  26.996  29.211  1.00  0.00     0.049 A 
ATOM     42  N   UNL A   1      40.330  28.595  29.159  1.00  0.00    -0.248 NA
ATOM     43  C   UNL A   1      40.196  28.585  26.927  1.00  0.00     0.031 C 
ATOM     44  C   UNL A   1      42.532  27.668  30.443  1.00  0.00     0.029 A 
ATOM     45  N   UNL A   1      44.310  26.785  29.391  1.00  0.00    -0.354 N 
ATOM     46  C   UNL A   1      39.294  29.461  28.751  1.00  0.00     0.074 A 
ATOM     47  C   UNL A   1      39.187  29.319  27.351  1.00  0.00     0.031 C 
ATOM     48  C   UNL A   1      43.612  28.151  31.059  1.00  0.00     0.029 A 
ATOM     49  C   UNL A   1      44.741  27.850  30.220  1.00  0.00     0.049 A 
ATOM     50  H   UNL A   1      44.857  26.054  29.021  1.00  0.00     0.167 HD
ATOM     51  C   UNL A   1      38.792  30.590  29.337  1.00  0.00     0.037 A 
ATOM     52  C   UNL A   1      45.767  28.682  29.915  1.00  0.00     0.037 A 
ATOM     53  C   UNL A   1      39.794  31.217  30.190  1.00  0.00     0.049 A 
ATOM     54  C   UNL A   1      45.481  30.168  30.139  1.00  0.00     0.074 A 
ATOM     55  C   UNL A   1      40.232  30.993  31.476  1.00  0.00     0.029 A 
ATOM     56  N   UNL A   1      40.735  32.087  29.635  1.00  0.00    -0.354 N 
ATOM     57  N   UNL A   1      44.363  30.704  30.593  1.00  0.00    -0.248 NA
ATOM     58  C   UNL A   1      46.458  31.187  29.770  1.00  0.00     0.031 C 
ATOM     59  C   UNL A   1      41.544  31.555  31.591  1.00  0.00     0.029 A 
ATOM     60  C   UNL A   1      41.907  32.163  30.393  1.00  0.00     0.049 A 
ATOM     61  H   UNL A   1      40.589  32.593  28.804  1.00  0.00     0.167 HD
ATOM     62  C   UNL A   1      44.347  32.047  30.222  1.00  0.00     0.074 A 
ATOM     63  C   UNL A   1      45.752  32.311  29.965  1.00  0.00     0.031 C 
ATOM     64  C   UNL A   1      43.192  32.755  29.893  1.00  0.00     0.037 A 
BRANCH  51  65
ATOM     65  C   UNL A   1      37.396  31.183  28.945  1.00  0.00     0.064 A 
ATOM     66  C   UNL A   1      36.310  30.326  28.671  1.00  0.00     0.173 A 
ATOM     67  C   UNL A   1      37.094  32.559  28.684  1.00  0.00     0.173 A 
ATOM     68  F   UNL A   1      36.447  28.999  28.794  1.00  0.00    -0.203 F 
ATOM     69  C   UNL A   1      35.058  30.790  28.206  1.00  0.00     0.198 A 
ATOM     70  C   UNL A   1      35.824  33.026  28.298  1.00  0.00     0.198 A 
ATOM     71  F   UNL A   1      38.027  33.521  28.725  1.00  0.00    -0.203 F 
ATOM     72  F   UNL A   1      34.095  29.912  27.893  1.00  0.00    -0.200 F 
ATOM     73  C   UNL A   1      34.809  32.139  28.039  1.00  0.00     0.200 A 
ATOM     74  F   UNL A   1      35.613  34.344  28.143  1.00  0.00    -0.200 F 
ATOM     75  F   UNL A   1      33.621  32.576  27.596  1.00  0.00    -0.200 F 
ENDBRANCH  51  65
BRANCH  52  76
ATOM     76  C   UNL A   1      46.717  28.011  28.960  1.00  0.00     0.064 A 
ATOM     77  C   UNL A   1      47.703  27.188  29.558  1.00  0.00     0.173 A 
ATOM     78  C   UNL A   1      46.390  27.718  27.624  1.00  0.00     0.173 A 
ATOM     79  F   UNL A   1      48.052  27.399  30.838  1.00  0.00    -0.203 F 
ATOM     80  C   UNL A   1      48.187  26.040  28.932  1.00  0.00     0.198 A 
ATOM     81  C   UNL A   1      46.916  26.585  26.980  1.00  0.00     0.198 A 
ATOM     82  F   UNL A   1      45.482  28.449  26.966  1.00  0.00    -0.203 F 
ATOM     83  F   UNL A   1      48.955  25.179  29.617  1.00  0.00    -0.200 F 
ATOM     84  C   UNL A   1      47.774  25.724  27.653  1.00  0.00     0.200 A 
ATOM     85  F   UNL A   1      46.481  26.246  25.756  1.00  0.00    -0.200 F 
ATOM     86  F   UNL A   1      48.125  24.551  27.103  1.00  0.00    -0.200 F 
ENDBRANCH  52  76
BRANCH  64  87
ATOM     87  C   UNL A   1      43.243  34.040  29.002  1.00  0.00     0.064 A 
ATOM     88  C   UNL A   1      43.130  35.370  29.483  1.00  0.00     0.173 A 
ATOM     89  C   UNL A   1      43.468  33.993  27.606  1.00  0.00     0.173 A 
ATOM     90  F   UNL A   1      43.302  35.676  30.773  1.00  0.00    -0.203 F 
ATOM     91  C   UNL A   1      42.957  36.486  28.652  1.00  0.00     0.198 A 
ATOM     92  C   UNL A   1      43.411  35.130  26.776  1.00  0.00     0.198 A 
ATOM     93  F   UNL A   1      43.820  32.858  26.992  1.00  0.00    -0.203 F 
ATOM     94  F   UNL A   1      42.709  37.688  29.196  1.00  0.00    -0.200 F 
ATOM     95  C   UNL A   1      43.080  36.364  27.290  1.00  0.00     0.200 A 
ATOM     96  F   UNL A   1      43.695  35.015  25.471  1.00  0.00    -0.200 F 
ATOM     97  F   UNL A   1      42.948  37.433  26.493  1.00  0.00    -0.200 F 
ENDBRANCH  64  87
ENDBRANCH  38  39
ENDBRANCH  31  33
ENDBRANCH  30  31
ENDBRANCH  29  30
ENDBRANCH  28  29
ENDBRANCH  27  28
ENDBRANCH  26  27
ENDBRANCH   1  26
TORSDOF 21
ENDMDL
MODEL 3
REMARK VINA RESULT:     -13.3      2.077      3.015
REMARK SMILES Cc1ccc(C[C@@H](Cc2cc(F)cc(Br)c2)C(=O)OCCOCCOCCOC(=O)c2ccc(-c3c4nc(c(-c5c(F)c(F)c(F)c(F)c5F)c5ccc([nH]5)c(-c5c(F)c(F)c(F)c(F)c5F)c5nc(c(-c6c(F)c(F)c(F)c(F)c6F)c6ccc3[nH]6)C=C5)C=C4)cc2)cc1
REMARK SMILES IDX 23 1 22 2 21 3 20 4 19 5 17 6 18 7 7 8 6 9 5 10 1 11 2 12
REMARK SMILES IDX 3 13 95 14 4 15 94 16 8 17 9 18 10 19 16 20 11 21 14 22
REMARK SMILES IDX 12 23 13 24 15 25 24 26 25 27 26 28 27 29 28 30 29 31 30 32
REMARK SMILES IDX 31 33 32 34 93 35 33 36 92 37 34 38 35 39 36 40 86 41 37 42
REMARK SMILES IDX 91 43 85 44 87 45 38 46 90 47 84 48 83 49 39 51 71 52 51 53
REMARK SMILES IDX 70 54 52 55 55 56 69 57 88 58 53 59 54 60 68 62 89 63 56 64
REMARK SMILES IDX 40 65 41 66 49 67 42 68 43 69 47 70 50 71 44 72 45 73 48 74
REMARK SMILES IDX 46 75 72 76 73 77 81 78 74 79 75 80 79 81 82 82 76 83 77 84
REMARK SMILES IDX 80 85 78 86 57 87 58 88 66 89 59 90 60 91 64 92 67 93 61 94
REMARK SMILES IDX 62 95 65 96 63 97
REMARK H PARENT 87 50 55 61
REMARK Flexibility Score: inf
ROOT
ATOM      1  C   UNL A   1      40.762  19.585  26.163  1.00  0.00     0.188 C 
ENDROOT
BRANCH   1   2
ATOM      2  O   UNL A   1      40.486  20.778  26.935  1.00  0.00    -0.376 OA
BRANCH   2   3
ATOM      3  C   UNL A   1      39.944  22.058  26.520  1.00  0.00     0.202 C 
BRANCH   3   4
ATOM      4  C   UNL A   1      38.346  22.636  25.957  1.00  0.00     0.261 C 
BRANCH   4   5
ATOM      5  O   UNL A   1      37.194  22.126  24.773  1.00  0.00    -0.463 OA
BRANCH   5   6
ATOM      6  C   UNL A   1      36.347  22.653  23.747  1.00  0.00     0.309 C 
ATOM      7  O   UNL A   1      36.671  22.949  22.595  1.00  0.00    -0.252 OA
BRANCH   6   8
ATOM      8  C   UNL A   1      34.903  22.986  23.974  1.00  0.00     0.108 C 
BRANCH   8   9
ATOM      9  C   UNL A   1      34.748  23.915  25.158  1.00  0.00     0.051 C 
BRANCH   9  10
ATOM     10  C   UNL A   1      33.445  23.600  25.836  1.00  0.00    -0.047 A 
ATOM     11  C   UNL A   1      29.410  22.941  27.122  1.00  0.00     0.044 C 
ATOM     12  C   UNL A   1      30.815  23.156  26.658  1.00  0.00    -0.051 A 
ATOM     13  C   UNL A   1      31.361  24.439  26.728  1.00  0.00     0.004 A 
ATOM     14  C   UNL A   1      31.582  22.100  26.152  1.00  0.00     0.004 A 
ATOM     15  C   UNL A   1      32.684  24.646  26.377  1.00  0.00     0.004 A 
ATOM     16  C   UNL A   1      32.886  22.324  25.720  1.00  0.00     0.004 A 
ENDBRANCH   9  10
ENDBRANCH   8   9
BRANCH   8  17
ATOM     17  C   UNL A   1      34.003  23.405  22.705  1.00  0.00     0.051 C 
BRANCH  17  18
ATOM     18  C   UNL A   1      33.084  24.590  22.591  1.00  0.00    -0.043 A 
ATOM     19  C   UNL A   1      31.698  24.435  22.783  1.00  0.00     0.043 A 
ATOM     20  C   UNL A   1      33.583  25.859  22.427  1.00  0.00     0.019 A 
ATOM     21  C   UNL A   1      30.931  25.512  23.193  1.00  0.00     0.124 A 
ATOM     22  C   UNL A   1      32.839  26.892  22.957  1.00  0.00     0.021 A 
ATOM     23  F   UNL A   1      29.659  25.330  23.567  1.00  0.00    -0.207 F 
ATOM     24  C   UNL A   1      31.527  26.736  23.379  1.00  0.00     0.055 A 
ATOM     25  Br  UNL A   1      33.837  28.367  23.422  1.00  0.00    -0.051 Br
ENDBRANCH  17  18
ENDBRANCH   8  17
ENDBRANCH   6   8
ENDBRANCH   5   6
ENDBRANCH   4   5
ENDBRANCH   3   4
ENDBRANCH   2   3
ENDBRANCH   1   2
BRANCH   1  26
ATOM     26  C   UNL A   1      42.119  18.886  26.138  1.00  0.00     0.188 C 
BRANCH  26  27
ATOM     27  O   UNL A   1      43.123  19.841  25.894  1.00  0.00    -0.376 OA
BRANCH  27  28
ATOM     28  C   UNL A   1      44.208  19.414  25.101  1.00  0.00     0.202 C 
BRANCH  28  29
ATOM     29  C   UNL A   1      44.949  20.571  24.412  1.00  0.00     0.261 C 
BRANCH  29  30
ATOM     30  O   UNL A   1      44.106  21.749  24.336  1.00  0.00    -0.460 OA
BRANCH  30  31
ATOM     31  C   UNL A   1      44.692  22.965  24.595  1.00  0.00     0.338 C 
ATOM     32  O   UNL A   1      45.444  23.551  23.826  1.00  0.00    -0.246 OA
BRANCH  31  33
ATOM     33  C   UNL A   1      44.512  23.326  26.048  1.00  0.00     0.060 A 
ATOM     34  C   UNL A   1      43.328  23.142  26.784  1.00  0.00     0.016 A 
ATOM     35  C   UNL A   1      45.346  24.284  26.507  1.00  0.00     0.016 A 
ATOM     36  C   UNL A   1      42.881  24.107  27.786  1.00  0.00     0.010 A 
ATOM     37  C   UNL A   1      44.721  25.312  27.215  1.00  0.00     0.010 A 
ATOM     38  C   UNL A   1      43.500  25.352  27.973  1.00  0.00    -0.014 A 
BRANCH  38  39
ATOM     39  C   UNL A   1      42.837  26.702  28.884  1.00  0.00     0.031 A 
ATOM     40  C   UNL A   1      41.489  27.812  28.639  1.00  0.00     0.074 A 
ATOM     41  C   UNL A   1      43.470  27.061  30.025  1.00  0.00     0.049 A 
ATOM     42  N   UNL A   1      40.786  28.462  29.568  1.00  0.00    -0.248 NA
ATOM     43  C   UNL A   1      40.892  28.261  27.344  1.00  0.00     0.031 C 
ATOM     44  C   UNL A   1      42.891  27.801  31.145  1.00  0.00     0.029 A 
ATOM     45  N   UNL A   1      44.822  26.963  30.361  1.00  0.00    -0.354 N 
ATOM     46  C   UNL A   1      39.748  29.217  28.983  1.00  0.00     0.074 A 
ATOM     47  C   UNL A   1      39.800  28.954  27.597  1.00  0.00     0.031 C 
ATOM     48  C   UNL A   1      43.867  28.408  31.823  1.00  0.00     0.029 A 
ATOM     49  C   UNL A   1      45.096  28.120  31.132  1.00  0.00     0.049 A 
ATOM     50  H   UNL A   1      45.450  26.245  30.114  1.00  0.00     0.167 HD
ATOM     51  C   UNL A   1      39.117  30.351  29.413  1.00  0.00     0.037 A 
ATOM     52  C   UNL A   1      46.094  28.995  30.860  1.00  0.00     0.037 A 
ATOM     53  C   UNL A   1      39.981  31.115  30.305  1.00  0.00     0.049 A 
ATOM     54  C   UNL A   1      45.695  30.471  30.922  1.00  0.00     0.074 A 
ATOM     55  C   UNL A   1      40.292  31.028  31.643  1.00  0.00     0.029 A 
ATOM     56  N   UNL A   1      40.921  32.002  29.773  1.00  0.00    -0.354 N 
ATOM     57  N   UNL A   1      44.504  30.961  31.211  1.00  0.00    -0.248 NA
ATOM     58  C   UNL A   1      46.641  31.523  30.565  1.00  0.00     0.031 C 
ATOM     59  C   UNL A   1      41.547  31.688  31.840  1.00  0.00     0.029 A 
ATOM     60  C   UNL A   1      41.998  32.221  30.636  1.00  0.00     0.049 A 
ATOM     61  H   UNL A   1      40.833  32.426  28.890  1.00  0.00     0.167 HD
ATOM     62  C   UNL A   1      44.444  32.264  30.723  1.00  0.00     0.074 A 
ATOM     63  C   UNL A   1      45.850  32.606  30.588  1.00  0.00     0.031 C 
ATOM     64  C   UNL A   1      43.289  32.860  30.219  1.00  0.00     0.037 A 
BRANCH  51  65
ATOM     65  C   UNL A   1      37.737  30.810  28.831  1.00  0.00     0.064 A 
ATOM     66  C   UNL A   1      37.421  32.182  28.743  1.00  0.00     0.173 A 
ATOM     67  C   UNL A   1      36.635  29.965  28.476  1.00  0.00     0.173 A 
ATOM     68  F   UNL A   1      38.318  33.107  29.107  1.00  0.00    -0.203 F 
ATOM     69  C   UNL A   1      36.155  32.658  28.331  1.00  0.00     0.198 A 
ATOM     70  C   UNL A   1      35.403  30.441  27.991  1.00  0.00     0.198 A 
ATOM     71  F   UNL A   1      36.666  28.635  28.640  1.00  0.00    -0.203 F 
ATOM     72  F   UNL A   1      35.901  33.974  28.345  1.00  0.00    -0.200 F 
ATOM     73  C   UNL A   1      35.155  31.790  27.937  1.00  0.00     0.200 A 
ATOM     74  F   UNL A   1      34.449  29.573  27.616  1.00  0.00    -0.200 F 
ATOM     75  F   UNL A   1      33.954  32.245  27.549  1.00  0.00    -0.200 F 
ENDBRANCH  51  65
BRANCH  52  76
ATOM     76  C   UNL A   1      47.181  28.318  30.069  1.00  0.00     0.064 A 
ATOM     77  C   UNL A   1      47.925  27.337  30.771  1.00  0.00     0.173 A 
ATOM     78  C   UNL A   1      47.153  28.192  28.669  1.00  0.00     0.173 A 
ATOM     79  F   UNL A   1      47.981  27.384  32.112  1.00  0.00    -0.203 F 
ATOM     80  C   UNL A   1      48.443  26.207  30.136  1.00  0.00     0.198 A 
ATOM     81  C   UNL A   1      47.716  27.075  28.029  1.00  0.00     0.198 A 
ATOM     82  F   UNL A   1      46.491  29.078  27.916  1.00  0.00    -0.203 F 
ATOM     83  F   UNL A   1      48.952  25.205  30.869  1.00  0.00    -0.200 F 
ATOM     84  C   UNL A   1      48.315  26.063  28.769  1.00  0.00     0.200 A 
ATOM     85  F   UNL A   1      47.553  26.905  26.707  1.00  0.00    -0.200 F 
ATOM     86  F   UNL A   1      48.683  24.917  28.177  1.00  0.00    -0.200 F 
ENDBRANCH  52  76
BRANCH  64  87
ATOM     87  C   UNL A   1      43.356  34.069  29.227  1.00  0.00     0.064 A 
ATOM     88  C   UNL A   1      43.222  35.432  29.595  1.00  0.00     0.173 A 
ATOM     89  C   UNL A   1      43.618  33.911  27.846  1.00  0.00     0.173 A 
ATOM     90  F   UNL A   1      43.358  35.843  30.859  1.00  0.00    -0.203 F 
ATOM     91  C   UNL A   1      43.064  36.476  28.671  1.00  0.00     0.198 A 
ATOM     92  C   UNL A   1      43.575  34.976  26.925  1.00  0.00     0.198 A 
ATOM     93  F   UNL A   1      43.993  32.732  27.335  1.00  0.00    -0.203 F 
ATOM     94  F   UNL A   1      42.793  37.715  29.109  1.00  0.00    -0.200 F 
ATOM     95  C   UNL A   1      43.224  36.244  27.328  1.00  0.00     0.200 A 
ATOM     96  F   UNL A   1      43.894  34.757  25.641  1.00  0.00    -0.200 F 
ATOM     97  F   UNL A   1      43.105  37.244  26.443  1.00  0.00    -0.200 F 
ENDBRANCH  64  87
ENDBRANCH  38  39
ENDBRANCH  31  33
ENDBRANCH  30  31
ENDBRANCH  29  30
ENDBRANCH  28  29
ENDBRANCH  27  28
ENDBRANCH  26  27
ENDBRANCH   1  26
TORSDOF 21
ENDMDL
