MODEL 1
REMARK VINA RESULT:      -9.7      0.000      0.000
REMARK SMILES CC(C)[C@@H](CO)NC(=O)CC(C)(C)CC(=O)OCCOCCOCCOC(=O)c1ccc(-c2c3nc(c(-c4c(F)c(F)c(F)c(F)c4F)c4ccc([nH]4)c(-c4c(F)c(F)c(F)c(F)c4F)c4nc(c(-c5c(F)c(F)c(F)c(F)c5F)c5ccc2[nH]5)C=C4)C=C3)cc1
REMARK SMILES IDX 19 1 18 2 17 3 15 4 16 5 14 6 11 7 12 8 13 9 10 10 8 11 7 12
REMARK SMILES IDX 9 14 4 15 2 16 1 17 3 18 5 19 6 20 20 22 21 23 22 24 23 25
REMARK SMILES IDX 24 26 25 27 26 28 27 29 28 30 29 31 30 32 91 33 31 34 90 35
REMARK SMILES IDX 32 36 33 37 34 38 84 39 35 40 89 41 83 42 85 43 36 44 88 45
REMARK SMILES IDX 82 46 81 47 37 49 69 50 49 51 68 52 50 53 53 54 67 55 86 56
REMARK SMILES IDX 51 57 52 58 66 60 87 61 54 62 38 63 39 64 47 65 40 66 41 67
REMARK SMILES IDX 45 68 48 69 42 70 43 71 46 72 44 73 70 74 71 75 79 76 72 77
REMARK SMILES IDX 73 78 77 79 80 80 74 81 75 82 78 83 76 84 55 85 56 86 64 87
REMARK SMILES IDX 57 88 58 89 62 90 65 91 59 92 60 93 63 94 61 95
REMARK H PARENT 7 13 6 21 85 48 53 59
REMARK Flexibility Score: inf
ROOT
ATOM      1  C   UNL A   1      32.690  26.390  21.712  1.00  0.00     0.202 C 
ENDROOT
BRANCH   1   2
ATOM      2  C   UNL A   1      33.364  25.005  21.810  1.00  0.00     0.261 C 
BRANCH   2   3
ATOM      3  O   UNL A   1      32.424  23.923  22.041  1.00  0.00    -0.463 OA
BRANCH   3   4
ATOM      4  C   UNL A   1      32.680  23.079  23.077  1.00  0.00     0.306 C 
ATOM      5  O   UNL A   1      32.333  21.904  23.109  1.00  0.00    -0.252 OA
BRANCH   4   6
ATOM      6  C   UNL A   1      33.639  23.675  24.115  1.00  0.00     0.129 C 
BRANCH   6   7
ATOM      7  C   UNL A   1      33.126  24.338  25.427  1.00  0.00    -0.016 C 
ATOM      8  C   UNL A   1      31.624  24.046  25.598  1.00  0.00     0.012 C 
ATOM      9  C   UNL A   1      33.230  25.880  25.399  1.00  0.00     0.012 C 
BRANCH   7  10
ATOM     10  C   UNL A   1      33.890  23.861  26.702  1.00  0.00     0.107 C 
BRANCH  10  11
ATOM     11  C   UNL A   1      34.297  22.420  26.988  1.00  0.00     0.220 C 
ATOM     12  N   UNL A   1      35.555  21.948  26.804  1.00  0.00    -0.351 N 
ATOM     13  H   UNL A   1      36.095  21.676  27.582  1.00  0.00     0.163 HD
ATOM     14  O   UNL A   1      33.445  21.581  27.281  1.00  0.00    -0.275 OA
BRANCH  12  15
ATOM     15  C   UNL A   1      36.112  21.843  25.462  1.00  0.00     0.110 C 
BRANCH  15  16
ATOM     16  C   UNL A   1      37.479  22.565  25.333  1.00  0.00     0.007 C 
ATOM     17  C   UNL A   1      37.460  23.808  26.228  1.00  0.00     0.009 C 
ATOM     18  C   UNL A   1      38.716  21.712  25.644  1.00  0.00     0.009 C 
ENDBRANCH  15  16
BRANCH  15  19
ATOM     19  C   UNL A   1      36.221  20.339  25.068  1.00  0.00     0.181 C 
BRANCH  19  20
ATOM     20  O   UNL A   1      34.938  19.711  25.070  1.00  0.00    -0.394 OA
ATOM     21  H   UNL A   1      34.254  20.372  24.876  1.00  0.00     0.210 HD
ENDBRANCH  19  20
ENDBRANCH  15  19
ENDBRANCH  12  15
ENDBRANCH  10  11
ENDBRANCH   7  10
ENDBRANCH   6   7
ENDBRANCH   4   6
ENDBRANCH   3   4
ENDBRANCH   2   3
ENDBRANCH   1   2
BRANCH   1  22
ATOM     22  O   UNL A   1      33.557  27.524  21.826  1.00  0.00    -0.376 OA
BRANCH  22  23
ATOM     23  C   UNL A   1      33.123  28.552  22.705  1.00  0.00     0.188 C 
BRANCH  23  24
ATOM     24  C   UNL A   1      31.618  28.586  23.007  1.00  0.00     0.188 C 
BRANCH  24  25
ATOM     25  O   UNL A   1      31.257  28.542  24.378  1.00  0.00    -0.376 OA
BRANCH  25  26
ATOM     26  C   UNL A   1      31.425  29.744  25.129  1.00  0.00     0.202 C 
BRANCH  26  27
ATOM     27  C   UNL A   1      32.801  29.935  25.795  1.00  0.00     0.261 C 
BRANCH  27  28
ATOM     28  O   UNL A   1      32.777  30.394  27.162  1.00  0.00    -0.460 OA
BRANCH  28  29
ATOM     29  C   UNL A   1      33.394  31.570  27.422  1.00  0.00     0.338 C 
ATOM     30  O   UNL A   1      32.878  32.675  27.380  1.00  0.00    -0.246 OA
BRANCH  29  31
ATOM     31  C   UNL A   1      34.738  31.267  27.972  1.00  0.00     0.060 A 
ATOM     32  C   UNL A   1      35.030  29.965  28.393  1.00  0.00     0.016 A 
ATOM     33  C   UNL A   1      35.724  32.244  28.057  1.00  0.00     0.016 A 
ATOM     34  C   UNL A   1      36.240  29.642  28.991  1.00  0.00     0.010 A 
ATOM     35  C   UNL A   1      36.962  31.918  28.624  1.00  0.00     0.010 A 
ATOM     36  C   UNL A   1      37.214  30.626  29.130  1.00  0.00    -0.014 A 
BRANCH  36  37
ATOM     37  C   UNL A   1      38.429  30.362  29.933  1.00  0.00     0.031 A 
ATOM     38  C   UNL A   1      39.474  29.456  29.352  1.00  0.00     0.074 A 
ATOM     39  C   UNL A   1      38.621  30.927  31.138  1.00  0.00     0.049 A 
ATOM     40  N   UNL A   1      40.471  28.847  29.937  1.00  0.00    -0.248 NA
ATOM     41  C   UNL A   1      39.365  29.192  27.908  1.00  0.00     0.031 C 
ATOM     42  C   UNL A   1      37.761  31.936  31.753  1.00  0.00     0.029 A 
ATOM     43  N   UNL A   1      39.605  30.711  32.071  1.00  0.00    -0.354 N 
ATOM     44  C   UNL A   1      41.073  28.083  28.946  1.00  0.00     0.074 A 
ATOM     45  C   UNL A   1      40.326  28.300  27.726  1.00  0.00     0.031 C 
ATOM     46  C   UNL A   1      38.243  32.240  32.969  1.00  0.00     0.029 A 
ATOM     47  C   UNL A   1      39.393  31.384  33.250  1.00  0.00     0.049 A 
ATOM     48  H   UNL A   1      40.385  30.133  31.910  1.00  0.00     0.167 HD
ATOM     49  C   UNL A   1      42.149  27.268  29.057  1.00  0.00     0.037 A 
ATOM     50  C   UNL A   1      40.017  31.268  34.437  1.00  0.00     0.037 A 
ATOM     51  C   UNL A   1      42.889  27.091  30.278  1.00  0.00     0.049 A 
ATOM     52  C   UNL A   1      41.132  30.264  34.578  1.00  0.00     0.074 A 
ATOM     53  C   UNL A   1      43.981  26.277  30.518  1.00  0.00     0.029 A 
ATOM     54  N   UNL A   1      42.610  27.751  31.468  1.00  0.00    -0.354 N 
ATOM     55  N   UNL A   1      41.656  29.473  33.672  1.00  0.00    -0.248 NA
ATOM     56  C   UNL A   1      41.732  30.121  35.912  1.00  0.00     0.031 C 
ATOM     57  C   UNL A   1      44.326  26.401  31.867  1.00  0.00     0.029 A 
ATOM     58  C   UNL A   1      43.497  27.346  32.452  1.00  0.00     0.049 A 
ATOM     59  H   UNL A   1      41.890  28.408  31.594  1.00  0.00     0.167 HD
ATOM     60  C   UNL A   1      42.670  28.772  34.311  1.00  0.00     0.074 A 
ATOM     61  C   UNL A   1      42.688  29.232  35.686  1.00  0.00     0.031 C 
ATOM     62  C   UNL A   1      43.514  27.838  33.808  1.00  0.00     0.037 A 
BRANCH  49  63
ATOM     63  C   UNL A   1      42.538  26.467  27.848  1.00  0.00     0.064 A 
ATOM     64  C   UNL A   1      43.540  26.888  26.961  1.00  0.00     0.173 A 
ATOM     65  C   UNL A   1      41.887  25.254  27.570  1.00  0.00     0.173 A 
ATOM     66  F   UNL A   1      44.184  28.047  27.168  1.00  0.00    -0.203 F 
ATOM     67  C   UNL A   1      43.847  26.147  25.821  1.00  0.00     0.198 A 
ATOM     68  C   UNL A   1      42.224  24.496  26.452  1.00  0.00     0.198 A 
ATOM     69  F   UNL A   1      40.924  24.800  28.385  1.00  0.00    -0.203 F 
ATOM     70  F   UNL A   1      44.761  26.603  24.953  1.00  0.00    -0.200 F 
ATOM     71  C   UNL A   1      43.194  24.950  25.572  1.00  0.00     0.200 A 
ATOM     72  F   UNL A   1      41.602  23.332  26.222  1.00  0.00    -0.200 F 
ATOM     73  F   UNL A   1      43.492  24.236  24.477  1.00  0.00    -0.200 F 
ENDBRANCH  49  63
BRANCH  50  74
ATOM     74  C   UNL A   1      39.573  32.086  35.599  1.00  0.00     0.064 A 
ATOM     75  C   UNL A   1      40.137  33.344  35.848  1.00  0.00     0.173 A 
ATOM     76  C   UNL A   1      38.590  31.627  36.489  1.00  0.00     0.173 A 
ATOM     77  F   UNL A   1      41.102  33.816  35.045  1.00  0.00    -0.203 F 
ATOM     78  C   UNL A   1      39.744  34.107  36.947  1.00  0.00     0.198 A 
ATOM     79  C   UNL A   1      38.174  32.403  37.568  1.00  0.00     0.198 A 
ATOM     80  F   UNL A   1      38.022  30.426  36.304  1.00  0.00    -0.203 F 
ATOM     81  F   UNL A   1      40.334  35.285  37.188  1.00  0.00    -0.200 F 
ATOM     82  C   UNL A   1      38.756  33.639  37.801  1.00  0.00     0.200 A 
ATOM     83  F   UNL A   1      37.210  31.954  38.383  1.00  0.00    -0.200 F 
ATOM     84  F   UNL A   1      38.375  34.375  38.854  1.00  0.00    -0.200 F 
ENDBRANCH  50  74
BRANCH  62  85
ATOM     85  C   UNL A   1      44.581  27.303  34.719  1.00  0.00     0.064 A 
ATOM     86  C   UNL A   1      45.823  27.935  34.863  1.00  0.00     0.173 A 
ATOM     87  C   UNL A   1      44.322  26.173  35.511  1.00  0.00     0.173 A 
ATOM     88  F   UNL A   1      46.125  29.010  34.120  1.00  0.00    -0.203 F 
ATOM     89  C   UNL A   1      46.776  27.442  35.752  1.00  0.00     0.198 A 
ATOM     90  C   UNL A   1      45.263  25.704  36.421  1.00  0.00     0.198 A 
ATOM     91  F   UNL A   1      43.145  25.535  35.415  1.00  0.00    -0.203 F 
ATOM     92  F   UNL A   1      47.975  28.035  35.842  1.00  0.00    -0.200 F 
ATOM     93  C   UNL A   1      46.491  26.335  36.538  1.00  0.00     0.200 A 
ATOM     94  F   UNL A   1      44.977  24.645  37.192  1.00  0.00    -0.200 F 
ATOM     95  F   UNL A   1      47.404  25.874  37.403  1.00  0.00    -0.200 F 
ENDBRANCH  62  85
ENDBRANCH  36  37
ENDBRANCH  29  31
ENDBRANCH  28  29
ENDBRANCH  27  28
ENDBRANCH  26  27
ENDBRANCH  25  26
ENDBRANCH  24  25
ENDBRANCH  23  24
ENDBRANCH  22  23
ENDBRANCH   1  22
TORSDOF 24
ENDMDL
MODEL 2
REMARK VINA RESULT:      -9.4      2.602      8.556
REMARK SMILES CC(C)[C@@H](CO)NC(=O)CC(C)(C)CC(=O)OCCOCCOCCOC(=O)c1ccc(-c2c3nc(c(-c4c(F)c(F)c(F)c(F)c4F)c4ccc([nH]4)c(-c4c(F)c(F)c(F)c(F)c4F)c4nc(c(-c5c(F)c(F)c(F)c(F)c5F)c5ccc2[nH]5)C=C4)C=C3)cc1
REMARK SMILES IDX 19 1 18 2 17 3 15 4 16 5 14 6 11 7 12 8 13 9 10 10 8 11 7 12
REMARK SMILES IDX 9 14 4 15 2 16 1 17 3 18 5 19 6 20 20 22 21 23 22 24 23 25
REMARK SMILES IDX 24 26 25 27 26 28 27 29 28 30 29 31 30 32 91 33 31 34 90 35
REMARK SMILES IDX 32 36 33 37 34 38 84 39 35 40 89 41 83 42 85 43 36 44 88 45
REMARK SMILES IDX 82 46 81 47 37 49 69 50 49 51 68 52 50 53 53 54 67 55 86 56
REMARK SMILES IDX 51 57 52 58 66 60 87 61 54 62 38 63 39 64 47 65 40 66 41 67
REMARK SMILES IDX 45 68 48 69 42 70 43 71 46 72 44 73 70 74 71 75 79 76 72 77
REMARK SMILES IDX 73 78 77 79 80 80 74 81 75 82 78 83 76 84 55 85 56 86 64 87
REMARK SMILES IDX 57 88 58 89 62 90 65 91 59 92 60 93 63 94 61 95
REMARK H PARENT 7 13 6 21 85 48 53 59
REMARK Flexibility Score: inf
ROOT
ATOM      1  C   UNL A   1      31.933  30.555  26.301  1.00  0.00     0.202 C 
ENDROOT
BRANCH   1   2
ATOM      2  C   UNL A   1      32.952  29.528  25.763  1.00  0.00     0.261 C 
BRANCH   2   3
ATOM      3  O   UNL A   1      33.260  29.707  24.356  1.00  0.00    -0.463 OA
BRANCH   3   4
ATOM      4  C   UNL A   1      33.290  28.594  23.573  1.00  0.00     0.306 C 
ATOM      5  O   UNL A   1      33.913  28.509  22.521  1.00  0.00    -0.252 OA
BRANCH   4   6
ATOM      6  C   UNL A   1      32.647  27.372  24.240  1.00  0.00     0.129 C 
BRANCH   6   7
ATOM      7  C   UNL A   1      31.292  26.783  23.751  1.00  0.00    -0.016 C 
ATOM      8  C   UNL A   1      31.364  26.514  22.237  1.00  0.00     0.012 C 
ATOM      9  C   UNL A   1      30.113  27.768  23.923  1.00  0.00     0.012 C 
BRANCH   7  10
ATOM     10  C   UNL A   1      30.885  25.467  24.487  1.00  0.00     0.107 C 
BRANCH  10  11
ATOM     11  C   UNL A   1      31.076  24.061  23.930  1.00  0.00     0.220 C 
ATOM     12  N   UNL A   1      32.183  23.311  24.156  1.00  0.00    -0.351 N 
ATOM     13  H   UNL A   1      32.117  22.493  24.701  1.00  0.00     0.163 HD
ATOM     14  O   UNL A   1      30.266  23.597  23.127  1.00  0.00    -0.275 OA
BRANCH  12  15
ATOM     15  C   UNL A   1      33.468  23.710  23.598  1.00  0.00     0.110 C 
BRANCH  15  16
ATOM     16  C   UNL A   1      34.643  23.443  24.576  1.00  0.00     0.007 C 
ATOM     17  C   UNL A   1      35.815  22.858  23.781  1.00  0.00     0.009 C 
ATOM     18  C   UNL A   1      35.115  24.650  25.398  1.00  0.00     0.009 C 
ENDBRANCH  15  16
BRANCH  15  19
ATOM     19  C   UNL A   1      33.683  22.986  22.236  1.00  0.00     0.181 C 
BRANCH  19  20
ATOM     20  O   UNL A   1      32.977  23.645  21.184  1.00  0.00    -0.394 OA
ATOM     21  H   UNL A   1      32.382  23.014  20.748  1.00  0.00     0.210 HD
ENDBRANCH  19  20
ENDBRANCH  15  19
ENDBRANCH  12  15
ENDBRANCH  10  11
ENDBRANCH   7  10
ENDBRANCH   6   7
ENDBRANCH   4   6
ENDBRANCH   3   4
ENDBRANCH   2   3
ENDBRANCH   1   2
BRANCH   1  22
ATOM     22  O   UNL A   1      32.435  31.509  27.244  1.00  0.00    -0.376 OA
BRANCH  22  23
ATOM     23  C   UNL A   1      33.788  31.338  27.639  1.00  0.00     0.188 C 
BRANCH  23  24
ATOM     24  C   UNL A   1      34.513  32.604  28.118  1.00  0.00     0.188 C 
BRANCH  24  25
ATOM     25  O   UNL A   1      33.738  33.515  28.881  1.00  0.00    -0.376 OA
BRANCH  25  26
ATOM     26  C   UNL A   1      33.890  34.902  28.579  1.00  0.00     0.202 C 
BRANCH  26  27
ATOM     27  C   UNL A   1      32.941  35.860  29.323  1.00  0.00     0.261 C 
BRANCH  27  28
ATOM     28  O   UNL A   1      32.312  35.325  30.506  1.00  0.00    -0.460 OA
BRANCH  28  29
ATOM     29  C   UNL A   1      32.619  35.918  31.682  1.00  0.00     0.338 C 
ATOM     30  O   UNL A   1      32.002  36.831  32.207  1.00  0.00    -0.246 OA
BRANCH  29  31
ATOM     31  C   UNL A   1      33.701  35.130  32.321  1.00  0.00     0.060 A 
ATOM     32  C   UNL A   1      34.992  35.665  32.388  1.00  0.00     0.016 A 
ATOM     33  C   UNL A   1      33.456  33.879  32.878  1.00  0.00     0.016 A 
ATOM     34  C   UNL A   1      36.060  34.941  32.900  1.00  0.00     0.010 A 
ATOM     35  C   UNL A   1      34.520  33.157  33.431  1.00  0.00     0.010 A 
ATOM     36  C   UNL A   1      35.835  33.666  33.410  1.00  0.00    -0.014 A 
BRANCH  36  37
ATOM     37  C   UNL A   1      36.977  32.801  33.780  1.00  0.00     0.031 A 
ATOM     38  C   UNL A   1      37.625  33.021  35.116  1.00  0.00     0.074 A 
ATOM     39  C   UNL A   1      37.420  31.823  32.969  1.00  0.00     0.049 A 
ATOM     40  N   UNL A   1      38.783  32.612  35.561  1.00  0.00    -0.248 NA
ATOM     41  C   UNL A   1      36.858  33.831  36.076  1.00  0.00     0.031 C 
ATOM     42  C   UNL A   1      36.795  31.407  31.717  1.00  0.00     0.029 A 
ATOM     43  N   UNL A   1      38.524  31.014  33.079  1.00  0.00    -0.354 N 
ATOM     44  C   UNL A   1      38.909  33.162  36.829  1.00  0.00     0.074 A 
ATOM     45  C   UNL A   1      37.714  33.939  37.079  1.00  0.00     0.031 C 
ATOM     46  C   UNL A   1      37.533  30.430  31.162  1.00  0.00     0.029 A 
ATOM     47  C   UNL A   1      38.725  30.218  31.978  1.00  0.00     0.049 A 
ATOM     48  H   UNL A   1      39.112  31.005  33.868  1.00  0.00     0.167 HD
ATOM     49  C   UNL A   1      39.939  33.032  37.698  1.00  0.00     0.037 A 
ATOM     50  C   UNL A   1      39.785  29.459  31.640  1.00  0.00     0.037 A 
ATOM     51  C   UNL A   1      41.106  32.232  37.433  1.00  0.00     0.049 A 
ATOM     52  C   UNL A   1      40.979  29.425  32.560  1.00  0.00     0.074 A 
ATOM     53  C   UNL A   1      42.223  32.040  38.225  1.00  0.00     0.029 A 
ATOM     54  N   UNL A   1      41.297  31.480  36.281  1.00  0.00    -0.354 N 
ATOM     55  N   UNL A   1      41.146  30.008  33.723  1.00  0.00    -0.248 NA
ATOM     56  C   UNL A   1      42.139  28.642  32.112  1.00  0.00     0.031 C 
ATOM     57  C   UNL A   1      43.116  31.222  37.527  1.00  0.00     0.029 A 
ATOM     58  C   UNL A   1      42.525  30.841  36.332  1.00  0.00     0.049 A 
ATOM     59  H   UNL A   1      40.656  31.412  35.538  1.00  0.00     0.167 HD
ATOM     60  C   UNL A   1      42.407  29.630  34.165  1.00  0.00     0.074 A 
ATOM     61  C   UNL A   1      42.963  28.767  33.142  1.00  0.00     0.031 C 
ATOM     62  C   UNL A   1      43.047  29.963  35.314  1.00  0.00     0.037 A 
BRANCH  49  63
ATOM     63  C   UNL A   1      39.874  33.822  38.973  1.00  0.00     0.064 A 
ATOM     64  C   UNL A   1      39.199  33.353  40.110  1.00  0.00     0.173 A 
ATOM     65  C   UNL A   1      40.496  35.077  39.054  1.00  0.00     0.173 A 
ATOM     66  F   UNL A   1      38.573  32.167  40.085  1.00  0.00    -0.203 F 
ATOM     67  C   UNL A   1      39.114  34.129  41.265  1.00  0.00     0.198 A 
ATOM     68  C   UNL A   1      40.444  35.833  40.222  1.00  0.00     0.198 A 
ATOM     69  F   UNL A   1      41.159  35.575  38.000  1.00  0.00    -0.203 F 
ATOM     70  F   UNL A   1      38.408  33.690  42.316  1.00  0.00    -0.200 F 
ATOM     71  C   UNL A   1      39.742  35.365  41.322  1.00  0.00     0.200 A 
ATOM     72  F   UNL A   1      41.064  37.019  40.280  1.00  0.00    -0.200 F 
ATOM     73  F   UNL A   1      39.663  36.109  42.434  1.00  0.00    -0.200 F 
ENDBRANCH  49  63
BRANCH  50  74
ATOM     74  C   UNL A   1      39.789  28.709  30.354  1.00  0.00     0.064 A 
ATOM     75  C   UNL A   1      39.242  27.422  30.273  1.00  0.00     0.173 A 
ATOM     76  C   UNL A   1      40.347  29.253  29.187  1.00  0.00     0.173 A 
ATOM     77  F   UNL A   1      38.722  26.844  31.366  1.00  0.00    -0.203 F 
ATOM     78  C   UNL A   1      39.262  26.703  29.078  1.00  0.00     0.198 A 
ATOM     79  C   UNL A   1      40.338  28.548  27.986  1.00  0.00     0.198 A 
ATOM     80  F   UNL A   1      40.893  30.478  29.210  1.00  0.00    -0.203 F 
ATOM     81  F   UNL A   1      38.775  25.456  29.040  1.00  0.00    -0.200 F 
ATOM     82  C   UNL A   1      39.803  27.271  27.933  1.00  0.00     0.200 A 
ATOM     83  F   UNL A   1      40.849  29.105  26.879  1.00  0.00    -0.200 F 
ATOM     84  F   UNL A   1      39.817  26.581  26.784  1.00  0.00    -0.200 F 
ENDBRANCH  50  74
BRANCH  62  85
ATOM     85  C   UNL A   1      44.385  29.333  35.570  1.00  0.00     0.064 A 
ATOM     86  C   UNL A   1      44.516  28.101  36.225  1.00  0.00     0.173 A 
ATOM     87  C   UNL A   1      45.552  29.949  35.088  1.00  0.00     0.173 A 
ATOM     88  F   UNL A   1      43.435  27.479  36.718  1.00  0.00    -0.203 F 
ATOM     89  C   UNL A   1      45.769  27.518  36.408  1.00  0.00     0.198 A 
ATOM     90  C   UNL A   1      46.796  29.347  35.242  1.00  0.00     0.198 A 
ATOM     91  F   UNL A   1      45.480  31.126  34.447  1.00  0.00    -0.203 F 
ATOM     92  F   UNL A   1      45.876  26.362  37.077  1.00  0.00    -0.200 F 
ATOM     93  C   UNL A   1      46.905  28.136  35.906  1.00  0.00     0.200 A 
ATOM     94  F   UNL A   1      47.890  29.937  34.740  1.00  0.00    -0.200 F 
ATOM     95  F   UNL A   1      48.106  27.565  36.068  1.00  0.00    -0.200 F 
ENDBRANCH  62  85
ENDBRANCH  36  37
ENDBRANCH  29  31
ENDBRANCH  28  29
ENDBRANCH  27  28
ENDBRANCH  26  27
ENDBRANCH  25  26
ENDBRANCH  24  25
ENDBRANCH  23  24
ENDBRANCH  22  23
ENDBRANCH   1  22
TORSDOF 24
ENDMDL
MODEL 3
REMARK VINA RESULT:      -9.2      2.519      8.251
REMARK SMILES CC(C)[C@@H](CO)NC(=O)CC(C)(C)CC(=O)OCCOCCOCCOC(=O)c1ccc(-c2c3nc(c(-c4c(F)c(F)c(F)c(F)c4F)c4ccc([nH]4)c(-c4c(F)c(F)c(F)c(F)c4F)c4nc(c(-c5c(F)c(F)c(F)c(F)c5F)c5ccc2[nH]5)C=C4)C=C3)cc1
REMARK SMILES IDX 19 1 18 2 17 3 15 4 16 5 14 6 11 7 12 8 13 9 10 10 8 11 7 12
REMARK SMILES IDX 9 14 4 15 2 16 1 17 3 18 5 19 6 20 20 22 21 23 22 24 23 25
REMARK SMILES IDX 24 26 25 27 26 28 27 29 28 30 29 31 30 32 91 33 31 34 90 35
REMARK SMILES IDX 32 36 33 37 34 38 84 39 35 40 89 41 83 42 85 43 36 44 88 45
REMARK SMILES IDX 82 46 81 47 37 49 69 50 49 51 68 52 50 53 53 54 67 55 86 56
REMARK SMILES IDX 51 57 52 58 66 60 87 61 54 62 38 63 39 64 47 65 40 66 41 67
REMARK SMILES IDX 45 68 48 69 42 70 43 71 46 72 44 73 70 74 71 75 79 76 72 77
REMARK SMILES IDX 73 78 77 79 80 80 74 81 75 82 78 83 76 84 55 85 56 86 64 87
REMARK SMILES IDX 57 88 58 89 62 90 65 91 59 92 60 93 63 94 61 95
REMARK H PARENT 7 13 6 21 85 48 53 59
REMARK Flexibility Score: inf
ROOT
ATOM      1  C   UNL A   1      31.798  30.506  26.128  1.00  0.00     0.202 C 
ENDROOT
BRANCH   1   2
ATOM      2  C   UNL A   1      32.631  29.274  25.715  1.00  0.00     0.261 C 
BRANCH   2   3
ATOM      3  O   UNL A   1      33.505  29.524  24.582  1.00  0.00    -0.463 OA
BRANCH   3   4
ATOM      4  C   UNL A   1      33.699  28.505  23.702  1.00  0.00     0.306 C 
ATOM      5  O   UNL A   1      34.328  28.610  22.655  1.00  0.00    -0.252 OA
BRANCH   4   6
ATOM      6  C   UNL A   1      33.244  27.145  24.246  1.00  0.00     0.129 C 
BRANCH   6   7
ATOM      7  C   UNL A   1      32.264  26.228  23.456  1.00  0.00    -0.016 C 
ATOM      8  C   UNL A   1      33.064  25.294  22.531  1.00  0.00     0.012 C 
ATOM      9  C   UNL A   1      31.332  27.020  22.511  1.00  0.00     0.012 C 
BRANCH   7  10
ATOM     10  C   UNL A   1      31.341  25.370  24.378  1.00  0.00     0.107 C 
BRANCH  10  11
ATOM     11  C   UNL A   1      30.944  23.922  24.110  1.00  0.00     0.220 C 
ATOM     12  N   UNL A   1      31.405  22.874  24.836  1.00  0.00    -0.351 N 
ATOM     13  H   UNL A   1      30.785  22.362  25.406  1.00  0.00     0.163 HD
ATOM     14  O   UNL A   1      30.273  23.637  23.118  1.00  0.00    -0.275 OA
BRANCH  12  15
ATOM     15  C   UNL A   1      32.812  22.502  24.777  1.00  0.00     0.110 C 
BRANCH  15  16
ATOM     16  C   UNL A   1      33.562  22.820  26.099  1.00  0.00     0.007 C 
ATOM     17  C   UNL A   1      34.577  23.935  25.827  1.00  0.00     0.009 C 
ATOM     18  C   UNL A   1      32.676  23.196  27.294  1.00  0.00     0.009 C 
ENDBRANCH  15  16
BRANCH  15  19
ATOM     19  C   UNL A   1      32.930  20.994  24.403  1.00  0.00     0.181 C 
BRANCH  19  20
ATOM     20  O   UNL A   1      34.270  20.526  24.564  1.00  0.00    -0.394 OA
ATOM     21  H   UNL A   1      34.396  19.719  24.040  1.00  0.00     0.210 HD
ENDBRANCH  19  20
ENDBRANCH  15  19
ENDBRANCH  12  15
ENDBRANCH  10  11
ENDBRANCH   7  10
ENDBRANCH   6   7
ENDBRANCH   4   6
ENDBRANCH   3   4
ENDBRANCH   2   3
ENDBRANCH   1   2
BRANCH   1  22
ATOM     22  O   UNL A   1      32.336  31.307  27.186  1.00  0.00    -0.376 OA
BRANCH  22  23
ATOM     23  C   UNL A   1      33.687  31.043  27.539  1.00  0.00     0.188 C 
BRANCH  23  24
ATOM     24  C   UNL A   1      34.498  32.247  28.037  1.00  0.00     0.188 C 
BRANCH  24  25
ATOM     25  O   UNL A   1      33.778  33.223  28.772  1.00  0.00    -0.376 OA
BRANCH  25  26
ATOM     26  C   UNL A   1      34.021  34.590  28.442  1.00  0.00     0.202 C 
BRANCH  26  27
ATOM     27  C   UNL A   1      33.099  35.621  29.121  1.00  0.00     0.261 C 
BRANCH  27  28
ATOM     28  O   UNL A   1      32.425  35.168  30.313  1.00  0.00    -0.460 OA
BRANCH  28  29
ATOM     29  C   UNL A   1      32.741  35.797  31.468  1.00  0.00     0.338 C 
ATOM     30  O   UNL A   1      32.126  36.722  31.973  1.00  0.00    -0.246 OA
BRANCH  29  31
ATOM     31  C   UNL A   1      33.832  35.031  32.120  1.00  0.00     0.060 A 
ATOM     32  C   UNL A   1      35.139  35.526  32.076  1.00  0.00     0.016 A 
ATOM     33  C   UNL A   1      33.579  33.841  32.796  1.00  0.00     0.016 A 
ATOM     34  C   UNL A   1      36.211  34.813  32.596  1.00  0.00     0.010 A 
ATOM     35  C   UNL A   1      34.650  33.134  33.357  1.00  0.00     0.010 A 
ATOM     36  C   UNL A   1      35.976  33.596  33.226  1.00  0.00    -0.014 A 
BRANCH  36  37
ATOM     37  C   UNL A   1      37.110  32.727  33.614  1.00  0.00     0.031 A 
ATOM     38  C   UNL A   1      37.735  32.944  34.961  1.00  0.00     0.074 A 
ATOM     39  C   UNL A   1      37.566  31.751  32.809  1.00  0.00     0.049 A 
ATOM     40  N   UNL A   1      38.885  32.532  35.424  1.00  0.00    -0.248 NA
ATOM     41  C   UNL A   1      36.953  33.754  35.909  1.00  0.00     0.031 C 
ATOM     42  C   UNL A   1      36.960  31.338  31.545  1.00  0.00     0.029 A 
ATOM     43  N   UNL A   1      38.666  30.940  32.936  1.00  0.00    -0.354 N 
ATOM     44  C   UNL A   1      38.991  33.079  36.696  1.00  0.00     0.074 A 
ATOM     45  C   UNL A   1      37.793  33.857  36.927  1.00  0.00     0.031 C 
ATOM     46  C   UNL A   1      37.706  30.361  31.001  1.00  0.00     0.029 A 
ATOM     47  C   UNL A   1      38.885  30.146  31.836  1.00  0.00     0.049 A 
ATOM     48  H   UNL A   1      39.240  30.927  33.735  1.00  0.00     0.167 HD
ATOM     49  C   UNL A   1      40.006  32.946  37.582  1.00  0.00     0.037 A 
ATOM     50  C   UNL A   1      39.949  29.385  31.515  1.00  0.00     0.037 A 
ATOM     51  C   UNL A   1      41.175  32.144  37.335  1.00  0.00     0.049 A 
ATOM     52  C   UNL A   1      41.126  29.347  32.455  1.00  0.00     0.074 A 
ATOM     53  C   UNL A   1      42.279  31.949  38.146  1.00  0.00     0.029 A 
ATOM     54  N   UNL A   1      41.385  31.395  36.185  1.00  0.00    -0.354 N 
ATOM     55  N   UNL A   1      41.275  29.928  33.622  1.00  0.00    -0.248 NA
ATOM     56  C   UNL A   1      42.293  28.563  32.026  1.00  0.00     0.031 C 
ATOM     57  C   UNL A   1      43.181  31.130  37.462  1.00  0.00     0.029 A 
ATOM     58  C   UNL A   1      42.611  30.753  36.256  1.00  0.00     0.049 A 
ATOM     59  H   UNL A   1      40.757  31.329  35.431  1.00  0.00     0.167 HD
ATOM     60  C   UNL A   1      42.528  29.547  34.084  1.00  0.00     0.074 A 
ATOM     61  C   UNL A   1      43.100  28.685  33.070  1.00  0.00     0.031 C 
ATOM     62  C   UNL A   1      43.148  29.876  35.245  1.00  0.00     0.037 A 
BRANCH  49  63
ATOM     63  C   UNL A   1      39.920  33.733  38.858  1.00  0.00     0.064 A 
ATOM     64  C   UNL A   1      40.540  34.983  39.009  1.00  0.00     0.173 A 
ATOM     65  C   UNL A   1      39.207  33.221  39.952  1.00  0.00     0.173 A 
ATOM     66  F   UNL A   1      41.248  35.515  38.000  1.00  0.00    -0.203 F 
ATOM     67  C   UNL A   1      40.483  35.670  40.220  1.00  0.00     0.198 A 
ATOM     68  C   UNL A   1      39.119  33.928  41.149  1.00  0.00     0.198 A 
ATOM     69  F   UNL A   1      38.592  32.033  39.865  1.00  0.00    -0.203 F 
ATOM     70  F   UNL A   1      41.138  36.830  40.362  1.00  0.00    -0.200 F 
ATOM     71  C   UNL A   1      39.768  35.145  41.286  1.00  0.00     0.200 A 
ATOM     72  F   UNL A   1      38.415  33.425  42.172  1.00  0.00    -0.200 F 
ATOM     73  F   UNL A   1      39.712  35.808  42.450  1.00  0.00    -0.200 F 
ENDBRANCH  49  63
BRANCH  50  74
ATOM     74  C   UNL A   1      39.973  28.637  30.228  1.00  0.00     0.064 A 
ATOM     75  C   UNL A   1      40.599  29.177  29.096  1.00  0.00     0.173 A 
ATOM     76  C   UNL A   1      39.364  27.380  30.096  1.00  0.00     0.173 A 
ATOM     77  F   UNL A   1      41.171  30.388  29.161  1.00  0.00    -0.203 F 
ATOM     78  C   UNL A   1      40.606  28.494  27.881  1.00  0.00     0.198 A 
ATOM     79  C   UNL A   1      39.399  26.683  28.890  1.00  0.00     0.198 A 
ATOM     80  F   UNL A   1      38.742  26.820  31.144  1.00  0.00    -0.203 F 
ATOM     81  F   UNL A   1      41.170  29.054  26.803  1.00  0.00    -0.200 F 
ATOM     82  C   UNL A   1      40.013  27.243  27.781  1.00  0.00     0.200 A 
ATOM     83  F   UNL A   1      38.837  25.470  28.802  1.00  0.00    -0.200 F 
ATOM     84  F   UNL A   1      40.025  26.586  26.614  1.00  0.00    -0.200 F 
ENDBRANCH  50  74
BRANCH  62  85
ATOM     85  C   UNL A   1      44.481  29.243  35.522  1.00  0.00     0.064 A 
ATOM     86  C   UNL A   1      45.687  29.848  35.141  1.00  0.00     0.173 A 
ATOM     87  C   UNL A   1      44.548  28.041  36.244  1.00  0.00     0.173 A 
ATOM     88  F   UNL A   1      45.677  30.989  34.437  1.00  0.00    -0.203 F 
ATOM     89  C   UNL A   1      46.911  29.260  35.453  1.00  0.00     0.198 A 
ATOM     90  C   UNL A   1      45.772  27.475  36.584  1.00  0.00     0.198 A 
ATOM     91  F   UNL A   1      43.423  27.425  36.639  1.00  0.00    -0.203 F 
ATOM     92  F   UNL A   1      48.050  29.832  35.040  1.00  0.00    -0.200 F 
ATOM     93  C   UNL A   1      46.953  28.082  36.184  1.00  0.00     0.200 A 
ATOM     94  F   UNL A   1      45.810  26.346  37.306  1.00  0.00    -0.200 F 
ATOM     95  F   UNL A   1      48.132  27.528  36.498  1.00  0.00    -0.200 F 
ENDBRANCH  62  85
ENDBRANCH  36  37
ENDBRANCH  29  31
ENDBRANCH  28  29
ENDBRANCH  27  28
ENDBRANCH  26  27
ENDBRANCH  25  26
ENDBRANCH  24  25
ENDBRANCH  23  24
ENDBRANCH  22  23
ENDBRANCH   1  22
TORSDOF 24
ENDMDL
