MODEL 1
REMARK VINA RESULT:     -13.6      0.000      0.000
REMARK SMILES Cc1cccc(-c2noc(C[N@@H+](C)Cc3ncccc3C(=O)OCCOCCOCCOC(=O)c3ccc(-c4c5nc(c(-c6c(F)c(F)c(F)c(F)c6F)c6ccc([nH]6)c(-c6c(F)c(F)c(F)c(F)c6F)c6nc(c(-c7c(F)c(F)c(F)c(F)c7F)c7ccc4[nH]7)C=C6)C=C5)cc3)n2)c1
REMARK SMILES IDX 26 1 25 2 24 3 23 4 21 5 22 6 20 7 15 8 16 9 17 10 19 11
REMARK SMILES IDX 18 12 14 13 12 14 13 15 11 17 10 18 7 19 8 20 98 21 9 22
REMARK SMILES IDX 6 23 1 24 2 25 3 26 99 27 4 28 5 29 27 30 28 31 29 32 30 33
REMARK SMILES IDX 31 34 32 35 33 36 34 37 35 38 36 39 97 40 37 41 96 42 38 43
REMARK SMILES IDX 39 44 40 45 90 46 41 47 95 48 89 49 91 50 42 51 94 52 88 53
REMARK SMILES IDX 87 54 43 56 75 57 55 58 74 59 56 60 59 61 73 62 92 63 57 64
REMARK SMILES IDX 58 65 72 67 93 68 60 69 44 70 45 71 53 72 46 73 47 74 51 75
REMARK SMILES IDX 54 76 48 77 49 78 52 79 50 80 76 81 77 82 85 83 78 84 79 85
REMARK SMILES IDX 83 86 86 87 80 88 81 89 84 90 82 91 61 92 62 93 70 94 63 95
REMARK SMILES IDX 64 96 68 97 71 98 65 99 66 100 69 101 67 102
REMARK H PARENT 12 16 91 55 59 66
REMARK Flexibility Score: inf
ROOT
ATOM      1  O   UNL A   1      34.108  30.480  27.171  1.00  0.00    -0.376 OA
ENDROOT
BRANCH   1   2
ATOM      2  C   UNL A   1      33.184  29.382  27.222  1.00  0.00     0.202 C 
BRANCH   2   3
ATOM      3  C   UNL A   1      31.825  29.139  26.226  1.00  0.00     0.261 C 
BRANCH   3   4
ATOM      4  O   UNL A   1      30.988  27.635  25.551  1.00  0.00    -0.460 OA
BRANCH   4   5
ATOM      5  C   UNL A   1      30.008  27.148  24.502  1.00  0.00     0.340 C 
ATOM      6  O   UNL A   1      29.393  26.081  24.463  1.00  0.00    -0.246 OA
BRANCH   5   7
ATOM      7  C   UNL A   1      29.549  27.919  23.310  1.00  0.00     0.087 A 
ATOM      8  C   UNL A   1      30.388  28.774  22.466  1.00  0.00     0.109 A 
ATOM      9  N   UNL A   1      29.816  29.738  21.682  1.00  0.00    -0.254 NA
ATOM     10  C   UNL A   1      28.495  29.974  21.817  1.00  0.00     0.111 A 
ATOM     11  C   UNL A   1      28.182  28.195  23.379  1.00  0.00     0.019 A 
ATOM     12  C   UNL A   1      27.657  29.254  22.650  1.00  0.00     0.021 A 
BRANCH   8  13
ATOM     13  C   UNL A   1      31.938  28.962  22.555  1.00  0.00     0.320 C 
BRANCH  13  14
ATOM     14  N   UNL A   1      32.922  27.826  22.855  1.00  0.00    -0.325 N 
ATOM     15  C   UNL A   1      34.113  28.325  23.560  1.00  0.00     0.333 C 
ATOM     16  H   UNL A   1      32.339  27.226  23.438  1.00  0.00     0.348 HD
BRANCH  14  17
ATOM     17  C   UNL A   1      33.347  26.913  21.764  1.00  0.00     0.364 C 
BRANCH  17  18
ATOM     18  C   UNL A   1      32.978  25.403  21.813  1.00  0.00     0.282 A 
ATOM     19  C   UNL A   1      33.081  23.489  22.764  1.00  0.00     0.202 A 
ATOM     20  N   UNL A   1      31.830  23.899  23.015  1.00  0.00    -0.057 NA
ATOM     21  N   UNL A   1      33.744  24.317  21.855  1.00  0.00    -0.186 NA
ATOM     22  O   UNL A   1      31.747  25.142  22.375  1.00  0.00    -0.333 OA
BRANCH  19  23
ATOM     23  C   UNL A   1      33.798  22.497  23.603  1.00  0.00     0.023 A 
ATOM     24  C   UNL A   1      37.398  21.795  24.838  1.00  0.00     0.044 C 
ATOM     25  C   UNL A   1      35.915  21.665  24.589  1.00  0.00    -0.050 A 
ATOM     26  C   UNL A   1      35.242  20.534  25.056  1.00  0.00     0.003 A 
ATOM     27  C   UNL A   1      35.182  22.644  23.880  1.00  0.00     0.015 A 
ATOM     28  C   UNL A   1      33.875  20.382  24.812  1.00  0.00     0.001 A 
ATOM     29  C   UNL A   1      33.162  21.348  24.081  1.00  0.00     0.012 A 
ENDBRANCH  19  23
ENDBRANCH  17  18
ENDBRANCH  14  17
ENDBRANCH  13  14
ENDBRANCH   8  13
ENDBRANCH   5   7
ENDBRANCH   4   5
ENDBRANCH   3   4
ENDBRANCH   2   3
ENDBRANCH   1   2
BRANCH   1  30
ATOM     30  C   UNL A   1      33.979  31.706  27.916  1.00  0.00     0.188 C 
BRANCH  30  31
ATOM     31  C   UNL A   1      35.121  32.715  28.042  1.00  0.00     0.188 C 
BRANCH  31  32
ATOM     32  O   UNL A   1      34.631  34.026  27.900  1.00  0.00    -0.376 OA
BRANCH  32  33
ATOM     33  C   UNL A   1      33.321  34.302  28.344  1.00  0.00     0.202 C 
BRANCH  33  34
ATOM     34  C   UNL A   1      33.328  35.300  29.493  1.00  0.00     0.261 C 
BRANCH  34  35
ATOM     35  O   UNL A   1      32.595  34.895  30.674  1.00  0.00    -0.460 OA
BRANCH  35  36
ATOM     36  C   UNL A   1      33.091  35.313  31.882  1.00  0.00     0.338 C 
ATOM     37  O   UNL A   1      32.496  36.053  32.654  1.00  0.00    -0.246 OA
BRANCH  36  38
ATOM     38  C   UNL A   1      34.356  34.624  32.203  1.00  0.00     0.060 A 
ATOM     39  C   UNL A   1      35.541  35.192  32.666  1.00  0.00     0.016 A 
ATOM     40  C   UNL A   1      34.456  33.374  31.767  1.00  0.00     0.016 A 
ATOM     41  C   UNL A   1      36.891  34.589  32.610  1.00  0.00     0.010 A 
ATOM     42  C   UNL A   1      35.757  32.982  31.498  1.00  0.00     0.010 A 
ATOM     43  C   UNL A   1      37.109  33.373  31.978  1.00  0.00    -0.014 A 
BRANCH  43  44
ATOM     44  C   UNL A   1      38.658  32.462  31.773  1.00  0.00     0.031 A 
ATOM     45  C   UNL A   1      39.098  31.002  30.750  1.00  0.00     0.074 A 
ATOM     46  C   UNL A   1      39.800  32.811  32.417  1.00  0.00     0.049 A 
ATOM     47  N   UNL A   1      39.862  29.976  31.113  1.00  0.00    -0.248 NA
ATOM     48  C   UNL A   1      38.562  30.602  29.364  1.00  0.00     0.031 C 
ATOM     49  C   UNL A   1      41.136  32.460  31.908  1.00  0.00     0.029 A 
ATOM     50  N   UNL A   1      40.066  33.622  33.526  1.00  0.00    -0.354 N 
ATOM     51  C   UNL A   1      39.859  29.024  30.059  1.00  0.00     0.074 A 
ATOM     52  C   UNL A   1      38.801  29.331  29.187  1.00  0.00     0.031 C 
ATOM     53  C   UNL A   1      42.068  32.865  32.774  1.00  0.00     0.029 A 
ATOM     54  C   UNL A   1      41.384  33.328  33.953  1.00  0.00     0.049 A 
ATOM     55  H   UNL A   1      39.452  34.276  33.932  1.00  0.00     0.167 HD
ATOM     56  C   UNL A   1      40.891  28.224  29.663  1.00  0.00     0.037 A 
ATOM     57  C   UNL A   1      41.696  32.948  35.222  1.00  0.00     0.037 A 
ATOM     58  C   UNL A   1      42.028  28.489  30.484  1.00  0.00     0.049 A 
ATOM     59  C   UNL A   1      42.353  31.588  35.337  1.00  0.00     0.074 A 
ATOM     60  C   UNL A   1      43.091  29.362  30.351  1.00  0.00     0.029 A 
ATOM     61  N   UNL A   1      41.941  28.150  31.812  1.00  0.00    -0.354 N 
ATOM     62  N   UNL A   1      42.662  30.828  34.322  1.00  0.00    -0.248 NA
ATOM     63  C   UNL A   1      42.638  30.931  36.614  1.00  0.00     0.031 C 
ATOM     64  C   UNL A   1      43.646  29.555  31.638  1.00  0.00     0.029 A 
ATOM     65  C   UNL A   1      42.935  28.775  32.530  1.00  0.00     0.049 A 
ATOM     66  H   UNL A   1      41.265  27.546  32.196  1.00  0.00     0.167 HD
ATOM     67  C   UNL A   1      42.960  29.569  34.777  1.00  0.00     0.074 A 
ATOM     68  C   UNL A   1      43.030  29.709  36.214  1.00  0.00     0.031 C 
ATOM     69  C   UNL A   1      43.021  28.491  33.945  1.00  0.00     0.037 A 
BRANCH  56  70
ATOM     70  C   UNL A   1      40.907  27.598  28.261  1.00  0.00     0.064 A 
ATOM     71  C   UNL A   1      40.413  26.302  28.032  1.00  0.00     0.173 A 
ATOM     72  C   UNL A   1      41.554  28.186  27.145  1.00  0.00     0.173 A 
ATOM     73  F   UNL A   1      39.677  25.668  28.953  1.00  0.00    -0.203 F 
ATOM     74  C   UNL A   1      40.686  25.592  26.856  1.00  0.00     0.198 A 
ATOM     75  C   UNL A   1      41.903  27.448  26.005  1.00  0.00     0.198 A 
ATOM     76  F   UNL A   1      41.950  29.469  27.179  1.00  0.00    -0.203 F 
ATOM     77  F   UNL A   1      40.213  24.347  26.705  1.00  0.00    -0.200 F 
ATOM     78  C   UNL A   1      41.480  26.143  25.867  1.00  0.00     0.200 A 
ATOM     79  F   UNL A   1      42.700  27.990  25.071  1.00  0.00    -0.200 F 
ATOM     80  F   UNL A   1      41.829  25.422  24.792  1.00  0.00    -0.200 F 
ENDBRANCH  56  70
BRANCH  57  81
ATOM     81  C   UNL A   1      40.843  33.608  36.232  1.00  0.00     0.064 A 
ATOM     82  C   UNL A   1      39.747  32.876  36.726  1.00  0.00     0.173 A 
ATOM     83  C   UNL A   1      41.292  34.702  36.977  1.00  0.00     0.173 A 
ATOM     84  F   UNL A   1      39.282  31.818  36.042  1.00  0.00    -0.203 F 
ATOM     85  C   UNL A   1      39.199  33.157  37.972  1.00  0.00     0.198 A 
ATOM     86  C   UNL A   1      40.723  34.994  38.216  1.00  0.00     0.198 A 
ATOM     87  F   UNL A   1      42.335  35.427  36.548  1.00  0.00    -0.203 F 
ATOM     88  F   UNL A   1      38.231  32.373  38.470  1.00  0.00    -0.200 F 
ATOM     89  C   UNL A   1      39.702  34.201  38.727  1.00  0.00     0.200 A 
ATOM     90  F   UNL A   1      41.191  36.020  38.938  1.00  0.00    -0.200 F 
ATOM     91  F   UNL A   1      39.210  34.427  39.953  1.00  0.00    -0.200 F 
ENDBRANCH  57  81
BRANCH  69  92
ATOM     92  C   UNL A   1      43.090  27.038  34.347  1.00  0.00     0.064 A 
ATOM     93  C   UNL A   1      42.102  26.386  35.096  1.00  0.00     0.173 A 
ATOM     94  C   UNL A   1      44.086  26.203  33.777  1.00  0.00     0.173 A 
ATOM     95  F   UNL A   1      41.050  27.053  35.588  1.00  0.00    -0.203 F 
ATOM     96  C   UNL A   1      42.134  25.005  35.303  1.00  0.00     0.198 A 
ATOM     97  C   UNL A   1      44.071  24.818  33.925  1.00  0.00     0.198 A 
ATOM     98  F   UNL A   1      45.071  26.709  33.018  1.00  0.00    -0.203 F 
ATOM     99  F   UNL A   1      41.190  24.427  36.060  1.00  0.00    -0.200 F 
ATOM    100  C   UNL A   1      43.105  24.220  34.705  1.00  0.00     0.200 A 
ATOM    101  F   UNL A   1      44.980  24.068  33.283  1.00  0.00    -0.200 F 
ATOM    102  F   UNL A   1      43.096  22.890  34.863  1.00  0.00    -0.200 F 
ENDBRANCH  69  92
ENDBRANCH  43  44
ENDBRANCH  36  38
ENDBRANCH  35  36
ENDBRANCH  34  35
ENDBRANCH  33  34
ENDBRANCH  32  33
ENDBRANCH  31  32
ENDBRANCH  30  31
ENDBRANCH   1  30
TORSDOF 22
ENDMDL
MODEL 2
REMARK VINA RESULT:     -13.4      4.986      9.521
REMARK SMILES Cc1cccc(-c2noc(C[N@@H+](C)Cc3ncccc3C(=O)OCCOCCOCCOC(=O)c3ccc(-c4c5nc(c(-c6c(F)c(F)c(F)c(F)c6F)c6ccc([nH]6)c(-c6c(F)c(F)c(F)c(F)c6F)c6nc(c(-c7c(F)c(F)c(F)c(F)c7F)c7ccc4[nH]7)C=C6)C=C5)cc3)n2)c1
REMARK SMILES IDX 26 1 25 2 24 3 23 4 21 5 22 6 20 7 15 8 16 9 17 10 19 11
REMARK SMILES IDX 18 12 14 13 12 14 13 15 11 17 10 18 7 19 8 20 98 21 9 22
REMARK SMILES IDX 6 23 1 24 2 25 3 26 99 27 4 28 5 29 27 30 28 31 29 32 30 33
REMARK SMILES IDX 31 34 32 35 33 36 34 37 35 38 36 39 97 40 37 41 96 42 38 43
REMARK SMILES IDX 39 44 40 45 90 46 41 47 95 48 89 49 91 50 42 51 94 52 88 53
REMARK SMILES IDX 87 54 43 56 75 57 55 58 74 59 56 60 59 61 73 62 92 63 57 64
REMARK SMILES IDX 58 65 72 67 93 68 60 69 44 70 45 71 53 72 46 73 47 74 51 75
REMARK SMILES IDX 54 76 48 77 49 78 52 79 50 80 76 81 77 82 85 83 78 84 79 85
REMARK SMILES IDX 83 86 86 87 80 88 81 89 84 90 82 91 61 92 62 93 70 94 63 95
REMARK SMILES IDX 64 96 68 97 71 98 65 99 66 100 69 101 67 102
REMARK H PARENT 12 16 91 55 59 66
REMARK Flexibility Score: inf
ROOT
ATOM      1  O   UNL A   1      34.049  31.346  28.246  1.00  0.00    -0.376 OA
ENDROOT
BRANCH   1   2
ATOM      2  C   UNL A   1      33.616  30.503  27.168  1.00  0.00     0.202 C 
BRANCH   2   3
ATOM      3  C   UNL A   1      34.138  28.917  26.833  1.00  0.00     0.261 C 
BRANCH   3   4
ATOM      4  O   UNL A   1      33.288  27.395  26.217  1.00  0.00    -0.460 OA
BRANCH   4   5
ATOM      5  C   UNL A   1      32.055  26.531  26.385  1.00  0.00     0.340 C 
ATOM      6  O   UNL A   1      30.967  26.835  26.879  1.00  0.00    -0.246 OA
BRANCH   5   7
ATOM      7  C   UNL A   1      31.903  25.122  25.919  1.00  0.00     0.087 A 
ATOM      8  C   UNL A   1      31.046  24.669  24.819  1.00  0.00     0.109 A 
ATOM      9  N   UNL A   1      30.661  23.359  24.743  1.00  0.00    -0.254 NA
ATOM     10  C   UNL A   1      30.965  22.541  25.772  1.00  0.00     0.111 A 
ATOM     11  C   UNL A   1      32.209  24.215  26.936  1.00  0.00     0.019 A 
ATOM     12  C   UNL A   1      31.707  22.921  26.876  1.00  0.00     0.021 A 
BRANCH   8  13
ATOM     13  C   UNL A   1      30.219  25.561  23.837  1.00  0.00     0.320 C 
BRANCH  13  14
ATOM     14  N   UNL A   1      30.531  27.033  23.546  1.00  0.00    -0.325 N 
ATOM     15  C   UNL A   1      29.301  27.801  23.303  1.00  0.00     0.333 C 
ATOM     16  H   UNL A   1      30.998  27.297  24.413  1.00  0.00     0.348 HD
BRANCH  14  17
ATOM     17  C   UNL A   1      31.537  27.381  22.511  1.00  0.00     0.364 C 
BRANCH  17  18
ATOM     18  C   UNL A   1      32.764  26.457  22.264  1.00  0.00     0.282 A 
ATOM     19  C   UNL A   1      33.973  24.777  22.810  1.00  0.00     0.202 A 
ATOM     20  N   UNL A   1      33.314  24.352  21.723  1.00  0.00    -0.057 NA
ATOM     21  N   UNL A   1      33.793  26.143  23.044  1.00  0.00    -0.186 NA
ATOM     22  O   UNL A   1      32.537  25.455  21.344  1.00  0.00    -0.333 OA
BRANCH  19  23
ATOM     23  C   UNL A   1      34.529  23.861  23.836  1.00  0.00     0.023 A 
ATOM     24  C   UNL A   1      34.248  20.144  24.874  1.00  0.00     0.044 C 
ATOM     25  C   UNL A   1      34.636  21.603  24.851  1.00  0.00    -0.050 A 
ATOM     26  C   UNL A   1      35.432  22.112  25.879  1.00  0.00     0.003 A 
ATOM     27  C   UNL A   1      34.205  22.480  23.829  1.00  0.00     0.015 A 
ATOM     28  C   UNL A   1      35.779  23.465  25.891  1.00  0.00     0.001 A 
ATOM     29  C   UNL A   1      35.321  24.335  24.886  1.00  0.00     0.012 A 
ENDBRANCH  19  23
ENDBRANCH  17  18
ENDBRANCH  14  17
ENDBRANCH  13  14
ENDBRANCH   8  13
ENDBRANCH   5   7
ENDBRANCH   4   5
ENDBRANCH   3   4
ENDBRANCH   2   3
ENDBRANCH   1   2
BRANCH   1  30
ATOM     30  C   UNL A   1      34.214  32.774  28.165  1.00  0.00     0.188 C 
BRANCH  30  31
ATOM     31  C   UNL A   1      34.361  33.656  29.406  1.00  0.00     0.188 C 
BRANCH  31  32
ATOM     32  O   UNL A   1      34.242  32.879  30.573  1.00  0.00    -0.376 OA
BRANCH  32  33
ATOM     33  C   UNL A   1      35.358  32.783  31.429  1.00  0.00     0.202 C 
BRANCH  33  34
ATOM     34  C   UNL A   1      36.094  31.466  31.229  1.00  0.00     0.261 C 
BRANCH  34  35
ATOM     35  O   UNL A   1      37.045  31.442  30.138  1.00  0.00    -0.460 OA
BRANCH  35  36
ATOM     36  C   UNL A   1      37.269  30.228  29.540  1.00  0.00     0.338 C 
ATOM     37  O   UNL A   1      36.401  29.393  29.326  1.00  0.00    -0.246 OA
BRANCH  36  38
ATOM     38  C   UNL A   1      38.655  30.132  29.040  1.00  0.00     0.060 A 
ATOM     39  C   UNL A   1      39.131  29.336  28.000  1.00  0.00     0.016 A 
ATOM     40  C   UNL A   1      39.586  30.666  29.822  1.00  0.00     0.016 A 
ATOM     41  C   UNL A   1      40.538  28.942  27.762  1.00  0.00     0.010 A 
ATOM     42  C   UNL A   1      40.823  30.052  29.709  1.00  0.00     0.010 A 
ATOM     43  C   UNL A   1      41.541  29.287  28.656  1.00  0.00    -0.014 A 
BRANCH  43  44
ATOM     44  C   UNL A   1      43.308  28.906  28.580  1.00  0.00     0.031 A 
ATOM     45  C   UNL A   1      44.785  29.973  28.357  1.00  0.00     0.074 A 
ATOM     46  C   UNL A   1      43.789  27.644  28.710  1.00  0.00     0.049 A 
ATOM     47  N   UNL A   1      45.853  29.710  27.610  1.00  0.00    -0.248 NA
ATOM     48  C   UNL A   1      45.014  31.414  28.848  1.00  0.00     0.031 C 
ATOM     49  C   UNL A   1      45.159  27.361  29.167  1.00  0.00     0.029 A 
ATOM     50  N   UNL A   1      43.198  26.378  28.616  1.00  0.00    -0.354 N 
ATOM     51  C   UNL A   1      46.709  30.844  27.641  1.00  0.00     0.074 A 
ATOM     52  C   UNL A   1      45.981  31.935  28.142  1.00  0.00     0.031 C 
ATOM     53  C   UNL A   1      45.382  26.045  29.133  1.00  0.00     0.029 A 
ATOM     54  C   UNL A   1      44.247  25.435  28.489  1.00  0.00     0.049 A 
ATOM     55  H   UNL A   1      42.233  26.181  28.636  1.00  0.00     0.167 HD
ATOM     56  C   UNL A   1      48.074  30.851  27.627  1.00  0.00     0.037 A 
ATOM     57  C   UNL A   1      44.333  24.538  27.470  1.00  0.00     0.037 A 
ATOM     58  C   UNL A   1      48.547  29.505  27.581  1.00  0.00     0.049 A 
ATOM     59  C   UNL A   1      45.584  24.650  26.624  1.00  0.00     0.074 A 
ATOM     60  C   UNL A   1      48.893  28.604  28.569  1.00  0.00     0.029 A 
ATOM     61  N   UNL A   1      48.286  28.783  26.442  1.00  0.00    -0.354 N 
ATOM     62  N   UNL A   1      46.556  25.492  26.849  1.00  0.00    -0.248 NA
ATOM     63  C   UNL A   1      45.806  23.880  25.399  1.00  0.00     0.031 C 
ATOM     64  C   UNL A   1      48.827  27.307  28.005  1.00  0.00     0.029 A 
ATOM     65  C   UNL A   1      48.473  27.440  26.676  1.00  0.00     0.049 A 
ATOM     66  H   UNL A   1      48.007  29.170  25.582  1.00  0.00     0.167 HD
ATOM     67  C   UNL A   1      47.376  25.537  25.751  1.00  0.00     0.074 A 
ATOM     68  C   UNL A   1      46.927  24.444  24.918  1.00  0.00     0.031 C 
ATOM     69  C   UNL A   1      48.288  26.532  25.566  1.00  0.00     0.037 A 
BRANCH  56  70
ATOM     70  C   UNL A   1      48.858  32.075  28.121  1.00  0.00     0.064 A 
ATOM     71  C   UNL A   1      49.287  33.076  27.234  1.00  0.00     0.173 A 
ATOM     72  C   UNL A   1      49.347  32.213  29.445  1.00  0.00     0.173 A 
ATOM     73  F   UNL A   1      48.814  33.144  25.984  1.00  0.00    -0.203 F 
ATOM     74  C   UNL A   1      50.251  34.030  27.589  1.00  0.00     0.198 A 
ATOM     75  C   UNL A   1      50.373  33.109  29.777  1.00  0.00     0.198 A 
ATOM     76  F   UNL A   1      48.907  31.407  30.427  1.00  0.00    -0.203 F 
ATOM     77  F   UNL A   1      50.644  34.944  26.691  1.00  0.00    -0.200 F 
ATOM     78  C   UNL A   1      50.835  34.011  28.841  1.00  0.00     0.200 A 
ATOM     79  F   UNL A   1      50.949  33.053  30.987  1.00  0.00    -0.200 F 
ATOM     80  F   UNL A   1      51.832  34.855  29.141  1.00  0.00    -0.200 F 
ENDBRANCH  56  70
BRANCH  57  81
ATOM     81  C   UNL A   1      43.006  24.061  27.029  1.00  0.00     0.064 A 
ATOM     82  C   UNL A   1      42.482  22.926  27.675  1.00  0.00     0.173 A 
ATOM     83  C   UNL A   1      42.119  24.887  26.330  1.00  0.00     0.173 A 
ATOM     84  F   UNL A   1      43.297  22.106  28.357  1.00  0.00    -0.203 F 
ATOM     85  C   UNL A   1      41.113  22.690  27.717  1.00  0.00     0.198 A 
ATOM     86  C   UNL A   1      40.748  24.632  26.356  1.00  0.00     0.198 A 
ATOM     87  F   UNL A   1      42.571  25.982  25.703  1.00  0.00    -0.203 F 
ATOM     88  F   UNL A   1      40.631  21.665  28.436  1.00  0.00    -0.200 F 
ATOM     89  C   UNL A   1      40.245  23.557  27.077  1.00  0.00     0.200 A 
ATOM     90  F   UNL A   1      39.907  25.455  25.716  1.00  0.00    -0.200 F 
ATOM     91  F   UNL A   1      38.923  23.358  27.174  1.00  0.00    -0.200 F 
ENDBRANCH  57  81
BRANCH  69  92
ATOM     92  C   UNL A   1      49.061  26.830  24.304  1.00  0.00     0.064 A 
ATOM     93  C   UNL A   1      48.507  27.446  23.174  1.00  0.00     0.173 A 
ATOM     94  C   UNL A   1      50.473  26.688  24.300  1.00  0.00     0.173 A 
ATOM     95  F   UNL A   1      47.201  27.736  23.112  1.00  0.00    -0.203 F 
ATOM     96  C   UNL A   1      49.301  27.847  22.096  1.00  0.00     0.198 A 
ATOM     97  C   UNL A   1      51.267  27.156  23.256  1.00  0.00     0.198 A 
ATOM     98  F   UNL A   1      51.122  26.136  25.339  1.00  0.00    -0.203 F 
ATOM     99  F   UNL A   1      48.724  28.396  21.017  1.00  0.00    -0.200 F 
ATOM    100  C   UNL A   1      50.677  27.718  22.144  1.00  0.00     0.200 A 
ATOM    101  F   UNL A   1      52.603  27.085  23.348  1.00  0.00    -0.200 F 
ATOM    102  F   UNL A   1      51.436  28.155  21.130  1.00  0.00    -0.200 F 
ENDBRANCH  69  92
ENDBRANCH  43  44
ENDBRANCH  36  38
ENDBRANCH  35  36
ENDBRANCH  34  35
ENDBRANCH  33  34
ENDBRANCH  32  33
ENDBRANCH  31  32
ENDBRANCH  30  31
ENDBRANCH   1  30
TORSDOF 22
ENDMDL
MODEL 3
REMARK VINA RESULT:     -13.1      1.194      2.186
REMARK SMILES Cc1cccc(-c2noc(C[N@@H+](C)Cc3ncccc3C(=O)OCCOCCOCCOC(=O)c3ccc(-c4c5nc(c(-c6c(F)c(F)c(F)c(F)c6F)c6ccc([nH]6)c(-c6c(F)c(F)c(F)c(F)c6F)c6nc(c(-c7c(F)c(F)c(F)c(F)c7F)c7ccc4[nH]7)C=C6)C=C5)cc3)n2)c1
REMARK SMILES IDX 26 1 25 2 24 3 23 4 21 5 22 6 20 7 15 8 16 9 17 10 19 11
REMARK SMILES IDX 18 12 14 13 12 14 13 15 11 17 10 18 7 19 8 20 98 21 9 22
REMARK SMILES IDX 6 23 1 24 2 25 3 26 99 27 4 28 5 29 27 30 28 31 29 32 30 33
REMARK SMILES IDX 31 34 32 35 33 36 34 37 35 38 36 39 97 40 37 41 96 42 38 43
REMARK SMILES IDX 39 44 40 45 90 46 41 47 95 48 89 49 91 50 42 51 94 52 88 53
REMARK SMILES IDX 87 54 43 56 75 57 55 58 74 59 56 60 59 61 73 62 92 63 57 64
REMARK SMILES IDX 58 65 72 67 93 68 60 69 44 70 45 71 53 72 46 73 47 74 51 75
REMARK SMILES IDX 54 76 48 77 49 78 52 79 50 80 76 81 77 82 85 83 78 84 79 85
REMARK SMILES IDX 83 86 86 87 80 88 81 89 84 90 82 91 61 92 62 93 70 94 63 95
REMARK SMILES IDX 64 96 68 97 71 98 65 99 66 100 69 101 67 102
REMARK H PARENT 12 16 91 55 59 66
REMARK Flexibility Score: inf
ROOT
ATOM      1  O   UNL A   1      34.069  30.494  27.066  1.00  0.00    -0.376 OA
ENDROOT
BRANCH   1   2
ATOM      2  C   UNL A   1      33.172  29.376  27.153  1.00  0.00     0.202 C 
BRANCH   2   3
ATOM      3  C   UNL A   1      31.766  29.117  26.230  1.00  0.00     0.261 C 
BRANCH   3   4
ATOM      4  O   UNL A   1      30.974  27.612  25.502  1.00  0.00    -0.460 OA
BRANCH   4   5
ATOM      5  C   UNL A   1      29.967  27.137  24.475  1.00  0.00     0.340 C 
ATOM      6  O   UNL A   1      29.330  26.082  24.456  1.00  0.00    -0.246 OA
BRANCH   5   7
ATOM      7  C   UNL A   1      29.503  27.906  23.284  1.00  0.00     0.087 A 
ATOM      8  C   UNL A   1      30.340  28.759  22.434  1.00  0.00     0.109 A 
ATOM      9  N   UNL A   1      29.766  29.722  21.651  1.00  0.00    -0.254 NA
ATOM     10  C   UNL A   1      28.445  29.961  21.793  1.00  0.00     0.111 A 
ATOM     11  C   UNL A   1      28.137  28.184  23.359  1.00  0.00     0.019 A 
ATOM     12  C   UNL A   1      27.610  29.244  22.631  1.00  0.00     0.021 A 
BRANCH   8  13
ATOM     13  C   UNL A   1      31.890  28.943  22.515  1.00  0.00     0.320 C 
BRANCH  13  14
ATOM     14  N   UNL A   1      32.870  27.818  22.865  1.00  0.00    -0.325 N 
ATOM     15  C   UNL A   1      34.029  28.333  23.609  1.00  0.00     0.333 C 
ATOM     16  H   UNL A   1      32.269  27.220  23.431  1.00  0.00     0.348 HD
BRANCH  14  17
ATOM     17  C   UNL A   1      33.342  26.896  21.801  1.00  0.00     0.364 C 
BRANCH  17  18
ATOM     18  C   UNL A   1      32.889  25.409  21.790  1.00  0.00     0.282 A 
ATOM     19  C   UNL A   1      32.907  23.448  22.647  1.00  0.00     0.202 A 
ATOM     20  N   UNL A   1      31.689  23.915  22.954  1.00  0.00    -0.057 NA
ATOM     21  N   UNL A   1      33.591  24.281  21.758  1.00  0.00    -0.186 NA
ATOM     22  O   UNL A   1      31.660  25.191  22.375  1.00  0.00    -0.333 OA
BRANCH  19  23
ATOM     23  C   UNL A   1      33.588  22.378  23.417  1.00  0.00     0.023 A 
ATOM     24  C   UNL A   1      32.731  18.972  25.043  1.00  0.00     0.044 C 
ATOM     25  C   UNL A   1      33.484  20.205  24.606  1.00  0.00    -0.050 A 
ATOM     26  C   UNL A   1      34.800  20.388  25.036  1.00  0.00     0.003 A 
ATOM     27  C   UNL A   1      32.895  21.196  23.786  1.00  0.00     0.015 A 
ATOM     28  C   UNL A   1      35.504  21.536  24.666  1.00  0.00     0.001 A 
ATOM     29  C   UNL A   1      34.900  22.528  23.874  1.00  0.00     0.012 A 
ENDBRANCH  19  23
ENDBRANCH  17  18
ENDBRANCH  14  17
ENDBRANCH  13  14
ENDBRANCH   8  13
ENDBRANCH   5   7
ENDBRANCH   4   5
ENDBRANCH   3   4
ENDBRANCH   2   3
ENDBRANCH   1   2
BRANCH   1  30
ATOM     30  C   UNL A   1      33.958  31.706  27.836  1.00  0.00     0.188 C 
BRANCH  30  31
ATOM     31  C   UNL A   1      35.143  32.647  28.062  1.00  0.00     0.188 C 
BRANCH  31  32
ATOM     32  O   UNL A   1      34.700  33.981  28.129  1.00  0.00    -0.376 OA
BRANCH  32  33
ATOM     33  C   UNL A   1      33.450  34.241  28.727  1.00  0.00     0.202 C 
BRANCH  33  34
ATOM     34  C   UNL A   1      33.599  35.139  29.948  1.00  0.00     0.261 C 
BRANCH  34  35
ATOM     35  O   UNL A   1      33.256  34.529  31.215  1.00  0.00    -0.460 OA
BRANCH  35  36
ATOM     36  C   UNL A   1      34.256  34.448  32.152  1.00  0.00     0.338 C 
ATOM     37  O   UNL A   1      34.170  34.884  33.292  1.00  0.00    -0.246 OA
BRANCH  36  38
ATOM     38  C   UNL A   1      35.377  33.623  31.660  1.00  0.00     0.060 A 
ATOM     39  C   UNL A   1      35.455  32.232  31.618  1.00  0.00     0.016 A 
ATOM     40  C   UNL A   1      36.524  34.265  31.473  1.00  0.00     0.016 A 
ATOM     41  C   UNL A   1      36.688  31.421  31.505  1.00  0.00     0.010 A 
ATOM     42  C   UNL A   1      37.641  33.464  31.643  1.00  0.00     0.010 A 
ATOM     43  C   UNL A   1      37.942  32.014  31.518  1.00  0.00    -0.014 A 
BRANCH  43  44
ATOM     44  C   UNL A   1      39.569  31.229  31.411  1.00  0.00     0.031 A 
ATOM     45  C   UNL A   1      40.204  29.858  30.367  1.00  0.00     0.074 A 
ATOM     46  C   UNL A   1      40.622  31.626  32.168  1.00  0.00     0.049 A 
ATOM     47  N   UNL A   1      41.010  28.874  30.749  1.00  0.00    -0.248 NA
ATOM     48  C   UNL A   1      39.819  29.492  28.922  1.00  0.00     0.031 C 
ATOM     49  C   UNL A   1      42.019  31.399  31.765  1.00  0.00     0.029 A 
ATOM     50  N   UNL A   1      40.730  32.397  33.332  1.00  0.00    -0.354 N 
ATOM     51  C   UNL A   1      41.170  27.978  29.658  1.00  0.00     0.074 A 
ATOM     52  C   UNL A   1      40.169  28.252  28.711  1.00  0.00     0.031 C 
ATOM     53  C   UNL A   1      42.840  31.826  32.726  1.00  0.00     0.029 A 
ATOM     54  C   UNL A   1      42.025  32.178  33.860  1.00  0.00     0.049 A 
ATOM     55  H   UNL A   1      40.035  32.983  33.711  1.00  0.00     0.167 HD
ATOM     56  C   UNL A   1      42.290  27.277  29.319  1.00  0.00     0.037 A 
ATOM     57  C   UNL A   1      42.257  31.756  35.133  1.00  0.00     0.037 A 
ATOM     58  C   UNL A   1      43.330  27.582  30.249  1.00  0.00     0.049 A 
ATOM     59  C   UNL A   1      43.004  30.444  35.245  1.00  0.00     0.074 A 
ATOM     60  C   UNL A   1      44.330  28.534  30.249  1.00  0.00     0.029 A 
ATOM     61  N   UNL A   1      43.156  27.169  31.548  1.00  0.00    -0.354 N 
ATOM     62  N   UNL A   1      43.455  29.760  34.228  1.00  0.00    -0.248 NA
ATOM     63  C   UNL A   1      43.229  29.745  36.512  1.00  0.00     0.031 C 
ATOM     64  C   UNL A   1      44.758  28.701  31.588  1.00  0.00     0.029 A 
ATOM     65  C   UNL A   1      44.035  27.827  32.378  1.00  0.00     0.049 A 
ATOM     66  H   UNL A   1      42.499  26.500  31.843  1.00  0.00     0.167 HD
ATOM     67  C   UNL A   1      43.809  28.505  34.652  1.00  0.00     0.074 A 
ATOM     68  C   UNL A   1      43.746  28.577  36.094  1.00  0.00     0.031 C 
ATOM     69  C   UNL A   1      44.022  27.479  33.781  1.00  0.00     0.037 A 
BRANCH  56  70
ATOM     70  C   UNL A   1      42.472  26.726  27.898  1.00  0.00     0.064 A 
ATOM     71  C   UNL A   1      42.131  25.401  27.577  1.00  0.00     0.173 A 
ATOM     72  C   UNL A   1      43.136  27.429  26.862  1.00  0.00     0.173 A 
ATOM     73  F   UNL A   1      41.399  24.652  28.410  1.00  0.00    -0.203 F 
ATOM     74  C   UNL A   1      42.562  24.781  26.396  1.00  0.00     0.198 A 
ATOM     75  C   UNL A   1      43.641  26.788  25.722  1.00  0.00     0.198 A 
ATOM     76  F   UNL A   1      43.396  28.743  26.981  1.00  0.00    -0.203 F 
ATOM     77  F   UNL A   1      42.231  23.504  26.157  1.00  0.00    -0.200 F 
ATOM     78  C   UNL A   1      43.365  25.456  25.497  1.00  0.00     0.200 A 
ATOM     79  F   UNL A   1      44.446  27.451  24.877  1.00  0.00    -0.200 F 
ATOM     80  F   UNL A   1      43.864  24.827  24.423  1.00  0.00    -0.200 F 
ENDBRANCH  56  70
BRANCH  57  81
ATOM     81  C   UNL A   1      41.273  32.300  36.092  1.00  0.00     0.064 A 
ATOM     82  C   UNL A   1      41.432  33.642  36.486  1.00  0.00     0.173 A 
ATOM     83  C   UNL A   1      40.025  31.701  36.289  1.00  0.00     0.173 A 
ATOM     84  F   UNL A   1      42.613  34.256  36.316  1.00  0.00    -0.203 F 
ATOM     85  C   UNL A   1      40.355  34.387  36.951  1.00  0.00     0.198 A 
ATOM     86  C   UNL A   1      38.953  32.447  36.779  1.00  0.00     0.198 A 
ATOM     87  F   UNL A   1      39.824  30.426  35.925  1.00  0.00    -0.203 F 
ATOM     88  F   UNL A   1      40.507  35.694  37.212  1.00  0.00    -0.200 F 
ATOM     89  C   UNL A   1      39.111  33.795  37.075  1.00  0.00     0.200 A 
ATOM     90  F   UNL A   1      37.753  31.871  36.924  1.00  0.00    -0.200 F 
ATOM     91  F   UNL A   1      38.063  34.536  37.465  1.00  0.00    -0.200 F 
ENDBRANCH  57  81
BRANCH  69  92
ATOM     92  C   UNL A   1      44.169  26.015  34.122  1.00  0.00     0.064 A 
ATOM     93  C   UNL A   1      45.390  25.329  34.116  1.00  0.00     0.173 A 
ATOM     94  C   UNL A   1      43.070  25.317  34.688  1.00  0.00     0.173 A 
ATOM     95  F   UNL A   1      46.520  25.925  33.711  1.00  0.00    -0.203 F 
ATOM     96  C   UNL A   1      45.497  24.021  34.595  1.00  0.00     0.198 A 
ATOM     97  C   UNL A   1      43.198  24.041  35.231  1.00  0.00     0.198 A 
ATOM     98  F   UNL A   1      41.854  25.881  34.772  1.00  0.00    -0.203 F 
ATOM     99  F   UNL A   1      46.677  23.388  34.534  1.00  0.00    -0.200 F 
ATOM    100  C   UNL A   1      44.409  23.385  35.167  1.00  0.00     0.200 A 
ATOM    101  F   UNL A   1      42.151  23.467  35.842  1.00  0.00    -0.200 F 
ATOM    102  F   UNL A   1      44.532  22.152  35.674  1.00  0.00    -0.200 F 
ENDBRANCH  69  92
ENDBRANCH  43  44
ENDBRANCH  36  38
ENDBRANCH  35  36
ENDBRANCH  34  35
ENDBRANCH  33  34
ENDBRANCH  32  33
ENDBRANCH  31  32
ENDBRANCH  30  31
ENDBRANCH   1  30
TORSDOF 22
ENDMDL
