MODEL 1
REMARK VINA RESULT:     -11.5      0.000      0.000
REMARK SMILES Cc1cc2nc(C(F)(F)F)c(=O)n([C@H](C)C(=O)OCCOCCOCCOC(=O)c3ccc(-c4c5nc(c(-c6c(F)c(F)c(F)c(F)c6F)c6ccc([nH]6)c(-c6c(F)c(F)c(F)c(F)c6F)c6nc(c(-c7c(F)c(F)c(F)c(F)c7F)c7ccc4[nH]7)C=C6)C=C5)cc3)c2cc1C
REMARK SMILES IDX 22 1 21 2 20 3 19 4 18 5 16 6 17 7 14 8 15 9 13 10 1 11 2 12
REMARK SMILES IDX 3 13 95 14 4 15 94 16 96 17 5 18 93 19 6 20 11 21 12 22 7 23
REMARK SMILES IDX 8 24 9 25 10 26 23 27 24 28 25 29 26 30 27 31 28 32 29 33
REMARK SMILES IDX 30 34 31 35 92 36 32 37 91 38 33 39 34 40 35 41 85 42 36 43
REMARK SMILES IDX 90 44 84 45 86 46 37 47 89 48 83 49 82 50 38 52 70 53 50 54
REMARK SMILES IDX 69 55 51 56 54 57 68 58 87 59 52 60 53 61 67 63 88 64 55 65
REMARK SMILES IDX 39 66 40 67 48 68 41 69 42 70 46 71 49 72 43 73 44 74 47 75
REMARK SMILES IDX 45 76 71 77 72 78 80 79 73 80 74 81 78 82 81 83 75 84 76 85
REMARK SMILES IDX 79 86 77 87 56 88 57 89 65 90 58 91 59 92 63 93 66 94 60 95
REMARK SMILES IDX 61 96 64 97 62 98
REMARK H PARENT 86 51 54 62
REMARK Flexibility Score: inf
ROOT
ATOM      1  C   UNL A   1      30.674  27.074  25.013  1.00  0.00     0.188 C 
ENDROOT
BRANCH   1   2
ATOM      2  O   UNL A   1      30.361  25.704  24.832  1.00  0.00    -0.376 OA
BRANCH   2   3
ATOM      3  C   UNL A   1      30.252  25.214  23.496  1.00  0.00     0.202 C 
BRANCH   3   4
ATOM      4  C   UNL A   1      31.540  24.875  22.721  1.00  0.00     0.261 C 
BRANCH   4   5
ATOM      5  O   UNL A   1      31.921  23.475  22.743  1.00  0.00    -0.462 OA
BRANCH   5   6
ATOM      6  C   UNL A   1      33.135  23.208  23.281  1.00  0.00     0.329 C 
ATOM      7  O   UNL A   1      34.190  23.306  22.655  1.00  0.00    -0.250 OA
BRANCH   6   8
ATOM      8  C   UNL A   1      33.123  22.703  24.739  1.00  0.00     0.197 C 
ATOM      9  C   UNL A   1      31.903  22.560  25.649  1.00  0.00     0.044 C 
BRANCH   8  10
ATOM     10  N   UNL A   1      33.944  21.498  24.695  1.00  0.00    -0.291 N 
ATOM     11  C   UNL A   1      39.566  21.410  25.785  1.00  0.00     0.044 C 
ATOM     12  C   UNL A   1      38.080  21.469  25.569  1.00  0.00    -0.046 A 
ATOM     13  C   UNL A   1      37.393  20.292  25.217  1.00  0.00     0.034 A 
ATOM     14  C   UNL A   1      37.351  22.646  25.789  1.00  0.00    -0.046 A 
ATOM     15  C   UNL A   1      36.012  20.284  24.997  1.00  0.00     0.088 A 
ATOM     16  C   UNL A   1      35.962  22.618  25.611  1.00  0.00     0.032 A 
ATOM     17  C   UNL A   1      38.005  23.944  26.187  1.00  0.00     0.044 C 
ATOM     18  N   UNL A   1      35.379  19.056  24.726  1.00  0.00    -0.236 NA
ATOM     19  C   UNL A   1      35.299  21.480  25.129  1.00  0.00     0.071 A 
ATOM     20  C   UNL A   1      34.105  19.068  24.436  1.00  0.00     0.210 A 
ATOM     21  C   UNL A   1      33.344  20.341  24.212  1.00  0.00     0.282 A 
ATOM     22  O   UNL A   1      32.275  20.312  23.618  1.00  0.00    -0.267 OA
BRANCH  20  23
ATOM     23  C   UNL A   1      33.284  17.819  24.274  1.00  0.00     0.438 C 
ATOM     24  F   UNL A   1      33.803  16.769  24.969  1.00  0.00    -0.164 F 
ATOM     25  F   UNL A   1      32.012  17.985  24.742  1.00  0.00    -0.164 F 
ATOM     26  F   UNL A   1      33.132  17.394  22.989  1.00  0.00    -0.164 F 
ENDBRANCH  20  23
ENDBRANCH   8  10
ENDBRANCH   6   8
ENDBRANCH   5   6
ENDBRANCH   4   5
ENDBRANCH   3   4
ENDBRANCH   2   3
ENDBRANCH   1   2
BRANCH   1  27
ATOM     27  C   UNL A   1      30.255  28.064  23.923  1.00  0.00     0.188 C 
BRANCH  27  28
ATOM     28  O   UNL A   1      30.554  29.413  24.165  1.00  0.00    -0.376 OA
BRANCH  28  29
ATOM     29  C   UNL A   1      31.635  29.783  25.002  1.00  0.00     0.202 C 
BRANCH  29  30
ATOM     30  C   UNL A   1      31.534  30.883  26.085  1.00  0.00     0.261 C 
BRANCH  30  31
ATOM     31  O   UNL A   1      32.507  30.912  27.142  1.00  0.00    -0.460 OA
BRANCH  31  32
ATOM     32  C   UNL A   1      33.162  32.083  27.378  1.00  0.00     0.338 C 
ATOM     33  O   UNL A   1      32.682  33.194  27.367  1.00  0.00    -0.246 OA
BRANCH  32  34
ATOM     34  C   UNL A   1      34.484  31.720  27.983  1.00  0.00     0.060 A 
ATOM     35  C   UNL A   1      35.494  32.670  28.134  1.00  0.00     0.016 A 
ATOM     36  C   UNL A   1      34.750  30.371  28.279  1.00  0.00     0.016 A 
ATOM     37  C   UNL A   1      36.747  32.280  28.621  1.00  0.00     0.010 A 
ATOM     38  C   UNL A   1      36.009  29.980  28.759  1.00  0.00     0.010 A 
ATOM     39  C   UNL A   1      37.010  30.939  28.966  1.00  0.00    -0.014 A 
BRANCH  39  40
ATOM     40  C   UNL A   1      38.243  30.622  29.740  1.00  0.00     0.031 A 
ATOM     41  C   UNL A   1      38.474  31.086  31.147  1.00  0.00     0.074 A 
ATOM     42  C   UNL A   1      39.161  29.838  29.140  1.00  0.00     0.049 A 
ATOM     43  N   UNL A   1      39.418  30.725  31.982  1.00  0.00    -0.248 NA
ATOM     44  C   UNL A   1      37.542  32.084  31.691  1.00  0.00     0.031 C 
ATOM     45  C   UNL A   1      39.070  29.360  27.760  1.00  0.00     0.029 A 
ATOM     46  N   UNL A   1      40.321  29.278  29.611  1.00  0.00    -0.354 N 
ATOM     47  C   UNL A   1      39.174  31.414  33.163  1.00  0.00     0.074 A 
ATOM     48  C   UNL A   1      38.029  32.268  32.914  1.00  0.00     0.031 C 
ATOM     49  C   UNL A   1      40.091  28.528  27.515  1.00  0.00     0.029 A 
ATOM     50  C   UNL A   1      40.927  28.437  28.709  1.00  0.00     0.049 A 
ATOM     51  H   UNL A   1      40.685  29.461  30.508  1.00  0.00     0.167 HD
ATOM     52  C   UNL A   1      39.828  31.316  34.348  1.00  0.00     0.037 A 
ATOM     53  C   UNL A   1      42.020  27.658  28.831  1.00  0.00     0.037 A 
ATOM     54  C   UNL A   1      40.981  30.480  34.584  1.00  0.00     0.049 A 
ATOM     55  C   UNL A   1      42.758  27.621  30.140  1.00  0.00     0.074 A 
ATOM     56  C   UNL A   1      41.688  30.301  35.763  1.00  0.00     0.029 A 
ATOM     57  N   UNL A   1      41.604  29.693  33.628  1.00  0.00    -0.354 N 
ATOM     58  N   UNL A   1      42.455  28.199  31.277  1.00  0.00    -0.248 NA
ATOM     59  C   UNL A   1      43.988  26.817  30.185  1.00  0.00     0.031 C 
ATOM     60  C   UNL A   1      42.765  29.449  35.508  1.00  0.00     0.029 A 
ATOM     61  C   UNL A   1      42.702  29.051  34.184  1.00  0.00     0.049 A 
ATOM     62  H   UNL A   1      41.311  29.602  32.693  1.00  0.00     0.167 HD
ATOM     63  C   UNL A   1      43.440  27.809  32.175  1.00  0.00     0.074 A 
ATOM     64  C   UNL A   1      44.336  26.926  31.460  1.00  0.00     0.031 C 
ATOM     65  C   UNL A   1      43.587  28.161  33.475  1.00  0.00     0.037 A 
BRANCH  52  66
ATOM     66  C   UNL A   1      39.299  32.098  35.518  1.00  0.00     0.064 A 
ATOM     67  C   UNL A   1      38.394  31.516  36.419  1.00  0.00     0.173 A 
ATOM     68  C   UNL A   1      39.798  33.374  35.824  1.00  0.00     0.173 A 
ATOM     69  F   UNL A   1      37.894  30.295  36.179  1.00  0.00    -0.203 F 
ATOM     70  C   UNL A   1      38.005  32.184  37.578  1.00  0.00     0.198 A 
ATOM     71  C   UNL A   1      39.426  34.028  36.997  1.00  0.00     0.198 A 
ATOM     72  F   UNL A   1      40.684  33.966  35.009  1.00  0.00    -0.203 F 
ATOM     73  F   UNL A   1      37.132  31.611  38.418  1.00  0.00    -0.200 F 
ATOM     74  C   UNL A   1      38.530  33.433  37.872  1.00  0.00     0.200 A 
ATOM     75  F   UNL A   1      39.956  35.223  37.294  1.00  0.00    -0.200 F 
ATOM     76  F   UNL A   1      38.179  34.060  39.004  1.00  0.00    -0.200 F 
ENDBRANCH  52  66
BRANCH  53  77
ATOM     77  C   UNL A   1      42.455  26.810  27.691  1.00  0.00     0.064 A 
ATOM     78  C   UNL A   1      41.925  25.524  27.511  1.00  0.00     0.173 A 
ATOM     79  C   UNL A   1      43.407  27.258  26.764  1.00  0.00     0.173 A 
ATOM     80  F   UNL A   1      41.024  25.043  28.381  1.00  0.00    -0.203 F 
ATOM     81  C   UNL A   1      42.349  24.711  26.462  1.00  0.00     0.198 A 
ATOM     82  C   UNL A   1      43.804  26.458  25.696  1.00  0.00     0.198 A 
ATOM     83  F   UNL A   1      43.939  28.483  26.886  1.00  0.00    -0.203 F 
ATOM     84  F   UNL A   1      41.863  23.467  26.343  1.00  0.00    -0.200 F 
ATOM     85  C   UNL A   1      43.283  25.182  25.552  1.00  0.00     0.200 A 
ATOM     86  F   UNL A   1      44.693  26.923  24.808  1.00  0.00    -0.200 F 
ATOM     87  F   UNL A   1      43.686  24.401  24.539  1.00  0.00    -0.200 F 
ENDBRANCH  53  77
BRANCH  65  88
ATOM     88  C   UNL A   1      44.751  27.587  34.231  1.00  0.00     0.064 A 
ATOM     89  C   UNL A   1      44.683  26.316  34.823  1.00  0.00     0.173 A 
ATOM     90  C   UNL A   1      45.974  28.272  34.289  1.00  0.00     0.173 A 
ATOM     91  F   UNL A   1      43.532  25.627  34.810  1.00  0.00    -0.203 F 
ATOM     92  C   UNL A   1      45.793  25.758  35.451  1.00  0.00     0.198 A 
ATOM     93  C   UNL A   1      47.092  27.697  34.890  1.00  0.00     0.198 A 
ATOM     94  F   UNL A   1      46.095  29.488  33.736  1.00  0.00    -0.203 F 
ATOM     95  F   UNL A   1      45.696  24.556  36.036  1.00  0.00    -0.200 F 
ATOM     96  C   UNL A   1      46.999  26.442  35.472  1.00  0.00     0.200 A 
ATOM     97  F   UNL A   1      48.260  28.353  34.896  1.00  0.00    -0.200 F 
ATOM     98  F   UNL A   1      48.073  25.891  36.054  1.00  0.00    -0.200 F 
ENDBRANCH  65  88
ENDBRANCH  39  40
ENDBRANCH  32  34
ENDBRANCH  31  32
ENDBRANCH  30  31
ENDBRANCH  29  30
ENDBRANCH  28  29
ENDBRANCH  27  28
ENDBRANCH   1  27
TORSDOF 19
ENDMDL
MODEL 2
REMARK VINA RESULT:     -11.5      4.609     10.090
REMARK SMILES Cc1cc2nc(C(F)(F)F)c(=O)n([C@H](C)C(=O)OCCOCCOCCOC(=O)c3ccc(-c4c5nc(c(-c6c(F)c(F)c(F)c(F)c6F)c6ccc([nH]6)c(-c6c(F)c(F)c(F)c(F)c6F)c6nc(c(-c7c(F)c(F)c(F)c(F)c7F)c7ccc4[nH]7)C=C6)C=C5)cc3)c2cc1C
REMARK SMILES IDX 22 1 21 2 20 3 19 4 18 5 16 6 17 7 14 8 15 9 13 10 1 11 2 12
REMARK SMILES IDX 3 13 95 14 4 15 94 16 96 17 5 18 93 19 6 20 11 21 12 22 7 23
REMARK SMILES IDX 8 24 9 25 10 26 23 27 24 28 25 29 26 30 27 31 28 32 29 33
REMARK SMILES IDX 30 34 31 35 92 36 32 37 91 38 33 39 34 40 35 41 85 42 36 43
REMARK SMILES IDX 90 44 84 45 86 46 37 47 89 48 83 49 82 50 38 52 70 53 50 54
REMARK SMILES IDX 69 55 51 56 54 57 68 58 87 59 52 60 53 61 67 63 88 64 55 65
REMARK SMILES IDX 39 66 40 67 48 68 41 69 42 70 46 71 49 72 43 73 44 74 47 75
REMARK SMILES IDX 45 76 71 77 72 78 80 79 73 80 74 81 78 82 81 83 75 84 76 85
REMARK SMILES IDX 79 86 77 87 56 88 57 89 65 90 58 91 59 92 63 93 66 94 60 95
REMARK SMILES IDX 61 96 64 97 62 98
REMARK H PARENT 86 51 54 62
REMARK Flexibility Score: inf
ROOT
ATOM      1  C   UNL A   1      32.516  21.422  25.106  1.00  0.00     0.188 C 
ENDROOT
BRANCH   1   2
ATOM      2  O   UNL A   1      32.093  22.376  24.148  1.00  0.00    -0.376 OA
BRANCH   2   3
ATOM      3  C   UNL A   1      33.052  22.842  23.200  1.00  0.00     0.202 C 
BRANCH   3   4
ATOM      4  C   UNL A   1      32.769  24.152  22.439  1.00  0.00     0.261 C 
BRANCH   4   5
ATOM      5  O   UNL A   1      33.861  25.108  22.432  1.00  0.00    -0.462 OA
BRANCH   5   6
ATOM      6  C   UNL A   1      33.619  26.277  23.072  1.00  0.00     0.329 C 
ATOM      7  O   UNL A   1      33.931  27.377  22.616  1.00  0.00    -0.250 OA
BRANCH   6   8
ATOM      8  C   UNL A   1      32.971  26.153  24.467  1.00  0.00     0.197 C 
ATOM      9  C   UNL A   1      33.653  25.691  25.755  1.00  0.00     0.044 C 
BRANCH   8  10
ATOM     10  N   UNL A   1      32.248  27.409  24.626  1.00  0.00    -0.291 N 
ATOM     11  C   UNL A   1      33.966  31.684  28.030  1.00  0.00     0.044 C 
ATOM     12  C   UNL A   1      33.587  30.564  27.102  1.00  0.00    -0.046 A 
ATOM     13  C   UNL A   1      32.395  30.664  26.360  1.00  0.00     0.034 A 
ATOM     14  C   UNL A   1      34.429  29.462  26.896  1.00  0.00    -0.046 A 
ATOM     15  C   UNL A   1      31.984  29.653  25.485  1.00  0.00     0.088 A 
ATOM     16  C   UNL A   1      34.033  28.476  25.984  1.00  0.00     0.032 A 
ATOM     17  C   UNL A   1      35.731  29.287  27.634  1.00  0.00     0.044 C 
ATOM     18  N   UNL A   1      30.823  29.856  24.716  1.00  0.00    -0.236 NA
ATOM     19  C   UNL A   1      32.782  28.513  25.349  1.00  0.00     0.071 A 
ATOM     20  C   UNL A   1      30.399  28.873  23.967  1.00  0.00     0.210 A 
ATOM     21  C   UNL A   1      30.996  27.498  24.031  1.00  0.00     0.282 A 
ATOM     22  O   UNL A   1      30.369  26.545  23.589  1.00  0.00    -0.267 OA
BRANCH  20  23
ATOM     23  C   UNL A   1      29.263  29.011  22.991  1.00  0.00     0.438 C 
ATOM     24  F   UNL A   1      28.317  28.047  23.165  1.00  0.00    -0.164 F 
ATOM     25  F   UNL A   1      28.614  30.203  23.134  1.00  0.00    -0.164 F 
ATOM     26  F   UNL A   1      29.624  28.964  21.678  1.00  0.00    -0.164 F 
ENDBRANCH  20  23
ENDBRANCH   8  10
ENDBRANCH   6   8
ENDBRANCH   5   6
ENDBRANCH   4   5
ENDBRANCH   3   4
ENDBRANCH   2   3
ENDBRANCH   1   2
BRANCH   1  27
ATOM     27  C   UNL A   1      33.678  20.494  24.741  1.00  0.00     0.188 C 
BRANCH  27  28
ATOM     28  O   UNL A   1      34.914  20.789  25.334  1.00  0.00    -0.376 OA
BRANCH  28  29
ATOM     29  C   UNL A   1      36.048  21.101  24.544  1.00  0.00     0.202 C 
BRANCH  29  30
ATOM     30  C   UNL A   1      37.490  20.698  24.931  1.00  0.00     0.261 C 
BRANCH  30  31
ATOM     31  O   UNL A   1      38.108  21.326  26.066  1.00  0.00    -0.460 OA
BRANCH  31  32
ATOM     32  C   UNL A   1      39.422  21.060  26.310  1.00  0.00     0.338 C 
ATOM     33  O   UNL A   1      40.036  20.075  25.966  1.00  0.00    -0.246 OA
BRANCH  32  34
ATOM     34  C   UNL A   1      40.040  22.344  26.773  1.00  0.00     0.060 A 
ATOM     35  C   UNL A   1      41.062  22.353  27.722  1.00  0.00     0.016 A 
ATOM     36  C   UNL A   1      39.487  23.562  26.338  1.00  0.00     0.016 A 
ATOM     37  C   UNL A   1      41.559  23.572  28.198  1.00  0.00     0.010 A 
ATOM     38  C   UNL A   1      39.980  24.784  26.822  1.00  0.00     0.010 A 
ATOM     39  C   UNL A   1      41.044  24.800  27.734  1.00  0.00    -0.014 A 
BRANCH  39  40
ATOM     40  C   UNL A   1      41.784  26.054  28.044  1.00  0.00     0.031 A 
ATOM     41  C   UNL A   1      43.167  26.342  27.541  1.00  0.00     0.074 A 
ATOM     42  C   UNL A   1      41.137  26.983  28.777  1.00  0.00     0.049 A 
ATOM     43  N   UNL A   1      43.838  27.468  27.592  1.00  0.00    -0.248 NA
ATOM     44  C   UNL A   1      43.899  25.236  26.909  1.00  0.00     0.031 C 
ATOM     45  C   UNL A   1      39.807  26.803  29.360  1.00  0.00     0.029 A 
ATOM     46  N   UNL A   1      41.484  28.264  29.128  1.00  0.00    -0.354 N 
ATOM     47  C   UNL A   1      45.052  27.222  26.963  1.00  0.00     0.074 A 
ATOM     48  C   UNL A   1      45.052  25.819  26.598  1.00  0.00     0.031 C 
ATOM     49  C   UNL A   1      39.423  27.949  29.939  1.00  0.00     0.029 A 
ATOM     50  C   UNL A   1      40.490  28.936  29.796  1.00  0.00     0.049 A 
ATOM     51  H   UNL A   1      42.361  28.662  28.922  1.00  0.00     0.167 HD
ATOM     52  C   UNL A   1      46.054  28.096  26.692  1.00  0.00     0.037 A 
ATOM     53  C   UNL A   1      40.427  30.211  30.227  1.00  0.00     0.037 A 
ATOM     54  C   UNL A   1      46.058  29.488  27.078  1.00  0.00     0.049 A 
ATOM     55  C   UNL A   1      41.582  31.136  29.965  1.00  0.00     0.074 A 
ATOM     56  C   UNL A   1      47.022  30.449  26.820  1.00  0.00     0.029 A 
ATOM     57  N   UNL A   1      45.061  30.114  27.810  1.00  0.00    -0.354 N 
ATOM     58  N   UNL A   1      42.678  30.918  29.280  1.00  0.00    -0.248 NA
ATOM     59  C   UNL A   1      41.489  32.490  30.531  1.00  0.00     0.031 C 
ATOM     60  C   UNL A   1      46.634  31.641  27.437  1.00  0.00     0.029 A 
ATOM     61  C   UNL A   1      45.402  31.441  28.036  1.00  0.00     0.049 A 
ATOM     62  H   UNL A   1      44.234  29.683  28.123  1.00  0.00     0.167 HD
ATOM     63  C   UNL A   1      43.390  32.110  29.312  1.00  0.00     0.074 A 
ATOM     64  C   UNL A   1      42.593  33.056  30.062  1.00  0.00     0.031 C 
ATOM     65  C   UNL A   1      44.601  32.387  28.772  1.00  0.00     0.037 A 
BRANCH  52  66
ATOM     66  C   UNL A   1      47.231  27.603  25.899  1.00  0.00     0.064 A 
ATOM     67  C   UNL A   1      47.250  27.712  24.500  1.00  0.00     0.173 A 
ATOM     68  C   UNL A   1      48.399  27.154  26.536  1.00  0.00     0.173 A 
ATOM     69  F   UNL A   1      46.164  28.145  23.843  1.00  0.00    -0.203 F 
ATOM     70  C   UNL A   1      48.390  27.384  23.769  1.00  0.00     0.198 A 
ATOM     71  C   UNL A   1      49.546  26.851  25.803  1.00  0.00     0.198 A 
ATOM     72  F   UNL A   1      48.445  27.054  27.873  1.00  0.00    -0.203 F 
ATOM     73  F   UNL A   1      48.379  27.487  22.433  1.00  0.00    -0.200 F 
ATOM     74  C   UNL A   1      49.539  26.965  24.421  1.00  0.00     0.200 A 
ATOM     75  F   UNL A   1      50.665  26.474  26.437  1.00  0.00    -0.200 F 
ATOM     76  F   UNL A   1      50.645  26.682  23.718  1.00  0.00    -0.200 F 
ENDBRANCH  52  66
BRANCH  53  77
ATOM     77  C   UNL A   1      39.203  30.702  30.911  1.00  0.00     0.064 A 
ATOM     78  C   UNL A   1      39.066  30.596  32.302  1.00  0.00     0.173 A 
ATOM     79  C   UNL A   1      38.146  31.282  30.193  1.00  0.00     0.173 A 
ATOM     80  F   UNL A   1      40.042  30.033  33.030  1.00  0.00    -0.203 F 
ATOM     81  C   UNL A   1      37.909  31.028  32.947  1.00  0.00     0.198 A 
ATOM     82  C   UNL A   1      37.004  31.745  30.843  1.00  0.00     0.198 A 
ATOM     83  F   UNL A   1      38.230  31.414  28.862  1.00  0.00    -0.203 F 
ATOM     84  F   UNL A   1      37.783  30.868  34.271  1.00  0.00    -0.200 F 
ATOM     85  C   UNL A   1      36.883  31.609  32.217  1.00  0.00     0.200 A 
ATOM     86  F   UNL A   1      36.022  32.322  30.137  1.00  0.00    -0.200 F 
ATOM     87  F   UNL A   1      35.772  32.030  32.838  1.00  0.00    -0.200 F 
ENDBRANCH  53  77
BRANCH  65  88
ATOM     88  C   UNL A   1      45.149  33.774  28.950  1.00  0.00     0.064 A 
ATOM     89  C   UNL A   1      46.016  34.087  30.009  1.00  0.00     0.173 A 
ATOM     90  C   UNL A   1      44.879  34.777  28.007  1.00  0.00     0.173 A 
ATOM     91  F   UNL A   1      46.293  33.169  30.947  1.00  0.00    -0.203 F 
ATOM     92  C   UNL A   1      46.584  35.354  30.119  1.00  0.00     0.198 A 
ATOM     93  C   UNL A   1      45.474  36.033  28.103  1.00  0.00     0.198 A 
ATOM     94  F   UNL A   1      44.060  34.530  26.973  1.00  0.00    -0.203 F 
ATOM     95  F   UNL A   1      47.385  35.638  31.155  1.00  0.00    -0.200 F 
ATOM     96  C   UNL A   1      46.324  36.320  29.160  1.00  0.00     0.200 A 
ATOM     97  F   UNL A   1      45.234  36.960  27.166  1.00  0.00    -0.200 F 
ATOM     98  F   UNL A   1      46.892  37.530  29.254  1.00  0.00    -0.200 F 
ENDBRANCH  65  88
ENDBRANCH  39  40
ENDBRANCH  32  34
ENDBRANCH  31  32
ENDBRANCH  30  31
ENDBRANCH  29  30
ENDBRANCH  28  29
ENDBRANCH  27  28
ENDBRANCH   1  27
TORSDOF 19
ENDMDL
MODEL 3
REMARK VINA RESULT:     -11.3      1.080      7.286
REMARK SMILES Cc1cc2nc(C(F)(F)F)c(=O)n([C@H](C)C(=O)OCCOCCOCCOC(=O)c3ccc(-c4c5nc(c(-c6c(F)c(F)c(F)c(F)c6F)c6ccc([nH]6)c(-c6c(F)c(F)c(F)c(F)c6F)c6nc(c(-c7c(F)c(F)c(F)c(F)c7F)c7ccc4[nH]7)C=C6)C=C5)cc3)c2cc1C
REMARK SMILES IDX 22 1 21 2 20 3 19 4 18 5 16 6 17 7 14 8 15 9 13 10 1 11 2 12
REMARK SMILES IDX 3 13 95 14 4 15 94 16 96 17 5 18 93 19 6 20 11 21 12 22 7 23
REMARK SMILES IDX 8 24 9 25 10 26 23 27 24 28 25 29 26 30 27 31 28 32 29 33
REMARK SMILES IDX 30 34 31 35 92 36 32 37 91 38 33 39 34 40 35 41 85 42 36 43
REMARK SMILES IDX 90 44 84 45 86 46 37 47 89 48 83 49 82 50 38 52 70 53 50 54
REMARK SMILES IDX 69 55 51 56 54 57 68 58 87 59 52 60 53 61 67 63 88 64 55 65
REMARK SMILES IDX 39 66 40 67 48 68 41 69 42 70 46 71 49 72 43 73 44 74 47 75
REMARK SMILES IDX 45 76 71 77 72 78 80 79 73 80 74 81 78 82 81 83 75 84 76 85
REMARK SMILES IDX 79 86 77 87 56 88 57 89 65 90 58 91 59 92 63 93 66 94 60 95
REMARK SMILES IDX 61 96 64 97 62 98
REMARK H PARENT 86 51 54 62
REMARK Flexibility Score: inf
ROOT
ATOM      1  C   UNL A   1      31.442  27.102  26.287  1.00  0.00     0.188 C 
ENDROOT
BRANCH   1   2
ATOM      2  O   UNL A   1      30.910  25.908  26.832  1.00  0.00    -0.376 OA
BRANCH   2   3
ATOM      3  C   UNL A   1      30.297  24.980  25.938  1.00  0.00     0.202 C 
BRANCH   3   4
ATOM      4  C   UNL A   1      30.679  23.490  26.037  1.00  0.00     0.261 C 
BRANCH   4   5
ATOM      5  O   UNL A   1      31.411  23.120  27.233  1.00  0.00    -0.462 OA
BRANCH   5   6
ATOM      6  C   UNL A   1      32.743  22.938  27.071  1.00  0.00     0.329 C 
ATOM      7  O   UNL A   1      33.497  22.597  27.981  1.00  0.00    -0.250 OA
BRANCH   6   8
ATOM      8  C   UNL A   1      33.293  23.248  25.662  1.00  0.00     0.197 C 
ATOM      9  C   UNL A   1      33.963  24.545  25.207  1.00  0.00     0.044 C 
BRANCH   8  10
ATOM     10  N   UNL A   1      34.065  22.059  25.321  1.00  0.00    -0.291 N 
ATOM     11  C   UNL A   1      39.766  21.712  25.751  1.00  0.00     0.044 C 
ATOM     12  C   UNL A   1      38.268  21.827  25.715  1.00  0.00    -0.046 A 
ATOM     13  C   UNL A   1      37.510  20.738  25.244  1.00  0.00     0.034 A 
ATOM     14  C   UNL A   1      37.604  22.956  26.213  1.00  0.00    -0.046 A 
ATOM     15  C   UNL A   1      36.114  20.785  25.179  1.00  0.00     0.088 A 
ATOM     16  C   UNL A   1      36.204  22.977  26.188  1.00  0.00     0.032 A 
ATOM     17  C   UNL A   1      38.338  24.156  26.753  1.00  0.00     0.044 C 
ATOM     18  N   UNL A   1      35.418  19.632  24.773  1.00  0.00    -0.236 NA
ATOM     19  C   UNL A   1      35.458  21.949  25.593  1.00  0.00     0.071 A 
ATOM     20  C   UNL A   1      34.121  19.711  24.632  1.00  0.00     0.210 A 
ATOM     21  C   UNL A   1      33.381  21.013  24.716  1.00  0.00     0.282 A 
ATOM     22  O   UNL A   1      32.254  21.101  24.247  1.00  0.00    -0.267 OA
BRANCH  20  23
ATOM     23  C   UNL A   1      33.248  18.519  24.349  1.00  0.00     0.438 C 
ATOM     24  F   UNL A   1      33.903  17.342  24.554  1.00  0.00    -0.164 F 
ATOM     25  F   UNL A   1      32.155  18.487  25.166  1.00  0.00    -0.164 F 
ATOM     26  F   UNL A   1      32.742  18.464  23.085  1.00  0.00    -0.164 F 
ENDBRANCH  20  23
ENDBRANCH   8  10
ENDBRANCH   6   8
ENDBRANCH   5   6
ENDBRANCH   4   5
ENDBRANCH   3   4
ENDBRANCH   2   3
ENDBRANCH   1   2
BRANCH   1  27
ATOM     27  C   UNL A   1      30.971  27.539  24.897  1.00  0.00     0.188 C 
BRANCH  27  28
ATOM     28  O   UNL A   1      31.754  28.511  24.256  1.00  0.00    -0.376 OA
BRANCH  28  29
ATOM     29  C   UNL A   1      32.513  29.446  25.002  1.00  0.00     0.202 C 
BRANCH  29  30
ATOM     30  C   UNL A   1      31.877  30.551  25.877  1.00  0.00     0.261 C 
BRANCH  30  31
ATOM     31  O   UNL A   1      32.418  30.802  27.184  1.00  0.00    -0.460 OA
BRANCH  31  32
ATOM     32  C   UNL A   1      33.260  31.863  27.336  1.00  0.00     0.338 C 
ATOM     33  O   UNL A   1      32.975  33.034  27.227  1.00  0.00    -0.246 OA
BRANCH  32  34
ATOM     34  C   UNL A   1      34.500  31.334  27.991  1.00  0.00     0.060 A 
ATOM     35  C   UNL A   1      35.497  32.195  28.452  1.00  0.00     0.016 A 
ATOM     36  C   UNL A   1      34.717  29.945  28.018  1.00  0.00     0.016 A 
ATOM     37  C   UNL A   1      36.681  31.668  28.979  1.00  0.00     0.010 A 
ATOM     38  C   UNL A   1      35.909  29.418  28.539  1.00  0.00     0.010 A 
ATOM     39  C   UNL A   1      36.889  30.275  29.055  1.00  0.00    -0.014 A 
BRANCH  39  40
ATOM     40  C   UNL A   1      38.021  29.760  29.874  1.00  0.00     0.031 A 
ATOM     41  C   UNL A   1      39.059  28.816  29.343  1.00  0.00     0.074 A 
ATOM     42  C   UNL A   1      38.124  30.217  31.138  1.00  0.00     0.049 A 
ATOM     43  N   UNL A   1      40.187  28.443  29.901  1.00  0.00    -0.248 NA
ATOM     44  C   UNL A   1      38.807  28.203  28.033  1.00  0.00     0.031 C 
ATOM     45  C   UNL A   1      37.153  31.104  31.782  1.00  0.00     0.029 A 
ATOM     46  N   UNL A   1      39.093  30.037  32.092  1.00  0.00    -0.354 N 
ATOM     47  C   UNL A   1      40.800  27.588  28.996  1.00  0.00     0.074 A 
ATOM     48  C   UNL A   1      39.887  27.443  27.879  1.00  0.00     0.031 C 
ATOM     49  C   UNL A   1      37.606  31.442  32.997  1.00  0.00     0.029 A 
ATOM     50  C   UNL A   1      38.883  30.773  33.232  1.00  0.00     0.049 A 
ATOM     51  H   UNL A   1      39.865  29.436  31.971  1.00  0.00     0.167 HD
ATOM     52  C   UNL A   1      42.023  27.006  29.080  1.00  0.00     0.037 A 
ATOM     53  C   UNL A   1      39.639  30.918  34.337  1.00  0.00     0.037 A 
ATOM     54  C   UNL A   1      42.920  27.136  30.204  1.00  0.00     0.049 A 
ATOM     55  C   UNL A   1      40.962  30.209  34.424  1.00  0.00     0.074 A 
ATOM     56  C   UNL A   1      44.189  26.602  30.359  1.00  0.00     0.029 A 
ATOM     57  N   UNL A   1      42.642  27.838  31.367  1.00  0.00    -0.354 N 
ATOM     58  N   UNL A   1      41.575  29.486  33.519  1.00  0.00    -0.248 NA
ATOM     59  C   UNL A   1      41.704  30.340  35.688  1.00  0.00     0.031 C 
ATOM     60  C   UNL A   1      44.658  26.936  31.632  1.00  0.00     0.029 A 
ATOM     61  C   UNL A   1      43.705  27.725  32.254  1.00  0.00     0.049 A 
ATOM     62  H   UNL A   1      41.815  28.343  31.539  1.00  0.00     0.167 HD
ATOM     63  C   UNL A   1      42.779  29.100  34.091  1.00  0.00     0.074 A 
ATOM     64  C   UNL A   1      42.824  29.687  35.413  1.00  0.00     0.031 C 
ATOM     65  C   UNL A   1      43.755  28.322  33.565  1.00  0.00     0.037 A 
BRANCH  52  66
ATOM     66  C   UNL A   1      42.508  26.199  27.908  1.00  0.00     0.064 A 
ATOM     67  C   UNL A   1      43.336  26.776  26.933  1.00  0.00     0.173 A 
ATOM     68  C   UNL A   1      42.269  24.818  27.829  1.00  0.00     0.173 A 
ATOM     69  F   UNL A   1      43.605  28.090  26.968  1.00  0.00    -0.203 F 
ATOM     70  C   UNL A   1      43.900  26.004  25.920  1.00  0.00     0.198 A 
ATOM     71  C   UNL A   1      42.856  24.044  26.829  1.00  0.00     0.198 A 
ATOM     72  F   UNL A   1      41.505  24.210  28.749  1.00  0.00    -0.203 F 
ATOM     73  F   UNL A   1      44.679  26.581  24.995  1.00  0.00    -0.200 F 
ATOM     74  C   UNL A   1      43.669  24.638  25.876  1.00  0.00     0.200 A 
ATOM     75  F   UNL A   1      42.655  22.719  26.804  1.00  0.00    -0.200 F 
ATOM     76  F   UNL A   1      44.239  23.891  24.920  1.00  0.00    -0.200 F 
ENDBRANCH  52  66
BRANCH  53  77
ATOM     77  C   UNL A   1      39.186  31.812  35.434  1.00  0.00     0.064 A 
ATOM     78  C   UNL A   1      39.581  33.157  35.473  1.00  0.00     0.173 A 
ATOM     79  C   UNL A   1      38.355  31.346  36.463  1.00  0.00     0.173 A 
ATOM     80  F   UNL A   1      40.389  33.645  34.520  1.00  0.00    -0.203 F 
ATOM     81  C   UNL A   1      39.184  33.994  36.513  1.00  0.00     0.198 A 
ATOM     82  C   UNL A   1      37.930  32.193  37.484  1.00  0.00     0.198 A 
ATOM     83  F   UNL A   1      37.941  30.071  36.469  1.00  0.00    -0.203 F 
ATOM     84  F   UNL A   1      39.618  35.262  36.553  1.00  0.00    -0.200 F 
ATOM     85  C   UNL A   1      38.352  33.513  37.513  1.00  0.00     0.200 A 
ATOM     86  F   UNL A   1      37.111  31.730  38.439  1.00  0.00    -0.200 F 
ATOM     87  F   UNL A   1      37.965  34.321  38.511  1.00  0.00    -0.200 F 
ENDBRANCH  53  77
BRANCH  65  88
ATOM     88  C   UNL A   1      44.973  28.059  34.404  1.00  0.00     0.064 A 
ATOM     89  C   UNL A   1      46.066  28.939  34.401  1.00  0.00     0.173 A 
ATOM     90  C   UNL A   1      45.013  26.967  35.285  1.00  0.00     0.173 A 
ATOM     91  F   UNL A   1      46.086  29.988  33.565  1.00  0.00    -0.203 F 
ATOM     92  C   UNL A   1      47.156  28.731  35.244  1.00  0.00     0.198 A 
ATOM     93  C   UNL A   1      46.090  26.780  36.149  1.00  0.00     0.198 A 
ATOM     94  F   UNL A   1      43.992  26.098  35.331  1.00  0.00    -0.203 F 
ATOM     95  F   UNL A   1      48.202  29.568  35.202  1.00  0.00    -0.200 F 
ATOM     96  C   UNL A   1      47.160  27.661  36.125  1.00  0.00     0.200 A 
ATOM     97  F   UNL A   1      46.085  25.755  37.012  1.00  0.00    -0.200 F 
ATOM     98  F   UNL A   1      48.198  27.478  36.953  1.00  0.00    -0.200 F 
ENDBRANCH  65  88
ENDBRANCH  39  40
ENDBRANCH  32  34
ENDBRANCH  31  32
ENDBRANCH  30  31
ENDBRANCH  29  30
ENDBRANCH  28  29
ENDBRANCH  27  28
ENDBRANCH   1  27
TORSDOF 19
ENDMDL
