MODEL 1
REMARK VINA RESULT:     -14.2      0.000      0.000
REMARK SMILES Cc1ccc(C(=O)N2CCCC[C@@H]2C(=O)OCCOCCOCCOC(=O)c2ccc(-c3c4nc(c(-c5c(F)c(F)c(F)c(F)c5F)c5ccc([nH]5)c(-c5c(F)c(F)c(F)c(F)c5F)c5nc(c(-c6c(F)c(F)c(F)c(F)c6F)c6ccc3[nH]6)C=C5)C=C4)cc2)cc1S(=O)(=O)N1CCCCC1
REMARK SMILES IDX 20 1 19 2 18 3 17 4 16 5 14 6 15 7 13 8 8 9 9 10 10 11 12 12
REMARK SMILES IDX 11 13 6 14 7 15 5 16 1 17 2 18 3 19 92 20 4 21 91 22 93 23
REMARK SMILES IDX 94 24 95 25 96 26 97 27 101 28 98 29 100 30 99 31 21 32
REMARK SMILES IDX 22 33 23 34 24 35 25 36 26 37 27 38 28 39 29 40 90 41 30 42
REMARK SMILES IDX 89 43 31 44 32 45 33 46 83 47 34 48 88 49 82 50 84 51 35 52
REMARK SMILES IDX 87 53 81 54 80 55 36 57 68 58 48 59 67 60 49 61 52 62 66 63
REMARK SMILES IDX 85 64 50 65 51 66 65 68 86 69 53 70 37 71 38 72 46 73 39 74
REMARK SMILES IDX 40 75 44 76 47 77 41 78 42 79 45 80 43 81 69 82 70 83 78 84
REMARK SMILES IDX 71 85 72 86 76 87 79 88 73 89 74 90 77 91 75 92 54 93 55 94
REMARK SMILES IDX 63 95 56 96 57 97 61 98 64 99 58 100 59 101 62 102 60 103
REMARK H PARENT 84 56 52 67
REMARK Flexibility Score: inf
ROOT
ATOM      1  C   UNL A   1      30.828  32.094  25.869  1.00  0.00     0.188 C 
ENDROOT
BRANCH   1   2
ATOM      2  O   UNL A   1      30.733  30.914  25.019  1.00  0.00    -0.376 OA
BRANCH   2   3
ATOM      3  C   UNL A   1      29.847  30.592  23.873  1.00  0.00     0.202 C 
BRANCH   3   4
ATOM      4  C   UNL A   1      29.062  29.107  23.092  1.00  0.00     0.261 C 
BRANCH   4   5
ATOM      5  O   UNL A   1      29.583  27.356  22.979  1.00  0.00    -0.462 OA
BRANCH   5   6
ATOM      6  C   UNL A   1      30.873  26.511  23.081  1.00  0.00     0.328 C 
ATOM      7  O   UNL A   1      30.980  25.298  22.867  1.00  0.00    -0.250 OA
BRANCH   6   8
ATOM      8  C   UNL A   1      32.220  26.993  23.566  1.00  0.00     0.195 C 
ATOM      9  N   UNL A   1      32.470  26.888  25.086  1.00  0.00    -0.325 N 
ATOM     10  C   UNL A   1      33.332  27.910  25.680  1.00  0.00     0.121 C 
ATOM     11  C   UNL A   1      33.534  29.186  24.885  1.00  0.00     0.022 C 
ATOM     12  C   UNL A   1      32.603  28.256  22.832  1.00  0.00     0.037 C 
ATOM     13  C   UNL A   1      33.843  28.867  23.435  1.00  0.00     0.005 C 
BRANCH   9  14
ATOM     14  C   UNL A   1      32.483  25.697  25.943  1.00  0.00     0.254 C 
ATOM     15  O   UNL A   1      31.611  25.556  26.814  1.00  0.00    -0.269 OA
BRANCH  14  16
ATOM     16  C   UNL A   1      33.311  24.460  25.787  1.00  0.00     0.041 A 
ATOM     17  C   UNL A   1      37.223  20.976  24.673  1.00  0.00     0.046 C 
ATOM     18  C   UNL A   1      35.453  22.226  25.135  1.00  0.00    -0.031 A 
ATOM     19  C   UNL A   1      35.566  23.675  25.773  1.00  0.00     0.005 A 
ATOM     20  C   UNL A   1      33.889  22.056  24.956  1.00  0.00     0.086 A 
ATOM     21  C   UNL A   1      34.641  24.701  25.939  1.00  0.00     0.014 A 
ATOM     22  C   UNL A   1      32.941  23.190  25.258  1.00  0.00     0.035 A 
BRANCH  20  23
ATOM     23  S   UNL A   1      32.716  20.489  24.528  1.00  0.00     0.243 S 
ATOM     24  O   UNL A   1      31.554  20.648  25.382  1.00  0.00    -0.207 OA
ATOM     25  O   UNL A   1      32.568  20.566  23.087  1.00  0.00    -0.207 OA
BRANCH  23  26
ATOM     26  N   UNL A   1      33.286  18.872  24.863  1.00  0.00    -0.198 NA
ATOM     27  C   UNL A   1      32.520  18.067  25.835  1.00  0.00     0.102 C 
ATOM     28  C   UNL A   1      34.507  18.316  24.218  1.00  0.00     0.102 C 
ATOM     29  C   UNL A   1      32.701  16.546  25.753  1.00  0.00     0.017 C 
ATOM     30  C   UNL A   1      34.563  16.772  24.080  1.00  0.00     0.017 C 
ATOM     31  C   UNL A   1      33.335  15.970  24.502  1.00  0.00     0.003 C 
ENDBRANCH  23  26
ENDBRANCH  20  23
ENDBRANCH  14  16
ENDBRANCH   9  14
ENDBRANCH   6   8
ENDBRANCH   5   6
ENDBRANCH   4   5
ENDBRANCH   3   4
ENDBRANCH   2   3
ENDBRANCH   1   2
BRANCH   1  32
ATOM     32  C   UNL A   1      31.722  32.095  27.069  1.00  0.00     0.188 C 
BRANCH  32  33
ATOM     33  O   UNL A   1      31.854  33.448  27.383  1.00  0.00    -0.376 OA
BRANCH  33  34
ATOM     34  C   UNL A   1      33.139  33.933  27.613  1.00  0.00     0.202 C 
BRANCH  34  35
ATOM     35  C   UNL A   1      33.222  34.605  28.981  1.00  0.00     0.261 C 
BRANCH  35  36
ATOM     36  O   UNL A   1      34.474  34.286  29.665  1.00  0.00    -0.460 OA
BRANCH  36  37
ATOM     37  C   UNL A   1      34.534  33.188  30.504  1.00  0.00     0.338 C 
ATOM     38  O   UNL A   1      34.086  33.171  31.636  1.00  0.00    -0.246 OA
BRANCH  37  39
ATOM     39  C   UNL A   1      35.293  32.053  29.869  1.00  0.00     0.060 A 
ATOM     40  C   UNL A   1      35.482  30.751  30.366  1.00  0.00     0.016 A 
ATOM     41  C   UNL A   1      36.155  32.421  28.906  1.00  0.00     0.016 A 
ATOM     42  C   UNL A   1      36.745  30.018  30.172  1.00  0.00     0.010 A 
ATOM     43  C   UNL A   1      37.408  31.817  28.987  1.00  0.00     0.010 A 
ATOM     44  C   UNL A   1      37.902  30.592  29.640  1.00  0.00    -0.014 A 
BRANCH  44  45
ATOM     45  C   UNL A   1      39.597  29.851  29.568  1.00  0.00     0.031 A 
ATOM     46  C   UNL A   1      40.143  28.132  29.195  1.00  0.00     0.074 A 
ATOM     47  C   UNL A   1      40.683  30.621  29.813  1.00  0.00     0.049 A 
ATOM     48  N   UNL A   1      41.360  27.743  28.841  1.00  0.00    -0.248 NA
ATOM     49  C   UNL A   1      39.304  26.841  29.052  1.00  0.00     0.031 C 
ATOM     50  C   UNL A   1      42.092  30.389  29.464  1.00  0.00     0.029 A 
ATOM     51  N   UNL A   1      40.737  31.894  30.384  1.00  0.00    -0.354 N 
ATOM     52  C   UNL A   1      41.353  26.400  28.394  1.00  0.00     0.074 A 
ATOM     53  C   UNL A   1      40.032  25.933  28.440  1.00  0.00     0.031 C 
ATOM     54  C   UNL A   1      42.857  31.283  30.119  1.00  0.00     0.029 A 
ATOM     55  C   UNL A   1      41.974  31.974  31.025  1.00  0.00     0.049 A 
ATOM     56  H   UNL A   1      40.043  32.593  30.343  1.00  0.00     0.167 HD
ATOM     57  C   UNL A   1      42.419  25.576  28.224  1.00  0.00     0.037 A 
ATOM     58  C   UNL A   1      41.970  31.885  32.374  1.00  0.00     0.037 A 
ATOM     59  C   UNL A   1      43.501  26.041  29.036  1.00  0.00     0.049 A 
ATOM     60  C   UNL A   1      42.696  30.613  32.803  1.00  0.00     0.074 A 
ATOM     61  C   UNL A   1      44.487  26.976  28.835  1.00  0.00     0.029 A 
ATOM     62  N   UNL A   1      43.481  25.726  30.383  1.00  0.00    -0.354 N 
ATOM     63  N   UNL A   1      43.299  29.366  31.861  1.00  0.00    -0.248 NA
ATOM     64  C   UNL A   1      43.139  30.140  34.711  1.00  0.00     0.031 C 
ATOM     65  C   UNL A   1      44.978  27.334  30.114  1.00  0.00     0.029 A 
ATOM     66  C   UNL A   1      44.309  26.587  31.073  1.00  0.00     0.049 A 
ATOM     67  H   UNL A   1      42.956  24.997  30.787  1.00  0.00     0.167 HD
ATOM     68  C   UNL A   1      43.940  27.960  32.940  1.00  0.00     0.074 A 
ATOM     69  C   UNL A   1      43.759  28.598  34.762  1.00  0.00     0.031 C 
ATOM     70  C   UNL A   1      44.204  26.684  32.513  1.00  0.00     0.037 A 
BRANCH  57  71
ATOM     71  C   UNL A   1      42.505  24.333  27.329  1.00  0.00     0.064 A 
ATOM     72  C   UNL A   1      42.197  23.083  27.917  1.00  0.00     0.173 A 
ATOM     73  C   UNL A   1      43.048  24.230  26.023  1.00  0.00     0.173 A 
ATOM     74  F   UNL A   1      41.612  23.010  29.120  1.00  0.00    -0.203 F 
ATOM     75  C   UNL A   1      42.519  21.859  27.318  1.00  0.00     0.198 A 
ATOM     76  C   UNL A   1      43.327  23.000  25.407  1.00  0.00     0.198 A 
ATOM     77  F   UNL A   1      43.381  25.289  25.280  1.00  0.00    -0.203 F 
ATOM     78  F   UNL A   1      42.293  20.718  27.984  1.00  0.00    -0.200 F 
ATOM     79  C   UNL A   1      43.104  21.817  26.071  1.00  0.00     0.200 A 
ATOM     80  F   UNL A   1      43.860  22.981  24.175  1.00  0.00    -0.200 F 
ATOM     81  F   UNL A   1      43.464  20.649  25.523  1.00  0.00    -0.200 F 
ENDBRANCH  57  71
BRANCH  58  82
ATOM     82  C   UNL A   1      40.710  32.509  32.957  1.00  0.00     0.064 A 
ATOM     83  C   UNL A   1      39.656  31.680  33.400  1.00  0.00     0.173 A 
ATOM     84  C   UNL A   1      40.667  33.810  33.467  1.00  0.00     0.173 A 
ATOM     85  F   UNL A   1      39.624  30.390  33.029  1.00  0.00    -0.203 F 
ATOM     86  C   UNL A   1      38.700  32.112  34.337  1.00  0.00     0.198 A 
ATOM     87  C   UNL A   1      39.624  34.296  34.272  1.00  0.00     0.198 A 
ATOM     88  F   UNL A   1      41.748  34.581  33.382  1.00  0.00    -0.203 F 
ATOM     89  F   UNL A   1      37.850  31.231  34.885  1.00  0.00    -0.200 F 
ATOM     90  C   UNL A   1      38.684  33.423  34.771  1.00  0.00     0.200 A 
ATOM     91  F   UNL A   1      39.681  35.548  34.757  1.00  0.00    -0.200 F 
ATOM     92  F   UNL A   1      37.858  33.811  35.755  1.00  0.00    -0.200 F 
ENDBRANCH  58  82
BRANCH  70  93
ATOM     93  C   UNL A   1      44.286  25.510  33.470  1.00  0.00     0.064 A 
ATOM     94  C   UNL A   1      43.302  25.171  34.421  1.00  0.00     0.173 A 
ATOM     95  C   UNL A   1      45.380  24.625  33.448  1.00  0.00     0.173 A 
ATOM     96  F   UNL A   1      42.046  25.614  34.328  1.00  0.00    -0.203 F 
ATOM     97  C   UNL A   1      43.528  24.270  35.462  1.00  0.00     0.198 A 
ATOM     98  C   UNL A   1      45.557  23.631  34.418  1.00  0.00     0.198 A 
ATOM     99  F   UNL A   1      46.288  24.675  32.464  1.00  0.00    -0.203 F 
ATOM    100  F   UNL A   1      42.620  24.140  36.440  1.00  0.00    -0.200 F 
ATOM    101  C   UNL A   1      44.673  23.510  35.471  1.00  0.00     0.200 A 
ATOM    102  F   UNL A   1      46.598  22.793  34.327  1.00  0.00    -0.200 F 
ATOM    103  F   UNL A   1      44.899  22.637  36.461  1.00  0.00    -0.200 F 
ENDBRANCH  70  93
ENDBRANCH  44  45
ENDBRANCH  37  39
ENDBRANCH  36  37
ENDBRANCH  35  36
ENDBRANCH  34  35
ENDBRANCH  33  34
ENDBRANCH  32  33
ENDBRANCH   1  32
TORSDOF 21
ENDMDL
MODEL 2
REMARK VINA RESULT:     -13.6      4.316     10.162
REMARK SMILES Cc1ccc(C(=O)N2CCCC[C@@H]2C(=O)OCCOCCOCCOC(=O)c2ccc(-c3c4nc(c(-c5c(F)c(F)c(F)c(F)c5F)c5ccc([nH]5)c(-c5c(F)c(F)c(F)c(F)c5F)c5nc(c(-c6c(F)c(F)c(F)c(F)c6F)c6ccc3[nH]6)C=C5)C=C4)cc2)cc1S(=O)(=O)N1CCCCC1
REMARK SMILES IDX 20 1 19 2 18 3 17 4 16 5 14 6 15 7 13 8 8 9 9 10 10 11 12 12
REMARK SMILES IDX 11 13 6 14 7 15 5 16 1 17 2 18 3 19 92 20 4 21 91 22 93 23
REMARK SMILES IDX 94 24 95 25 96 26 97 27 101 28 98 29 100 30 99 31 21 32
REMARK SMILES IDX 22 33 23 34 24 35 25 36 26 37 27 38 28 39 29 40 90 41 30 42
REMARK SMILES IDX 89 43 31 44 32 45 33 46 83 47 34 48 88 49 82 50 84 51 35 52
REMARK SMILES IDX 87 53 81 54 80 55 36 57 68 58 48 59 67 60 49 61 52 62 66 63
REMARK SMILES IDX 85 64 50 65 51 66 65 68 86 69 53 70 37 71 38 72 46 73 39 74
REMARK SMILES IDX 40 75 44 76 47 77 41 78 42 79 45 80 43 81 69 82 70 83 78 84
REMARK SMILES IDX 71 85 72 86 76 87 79 88 73 89 74 90 77 91 75 92 54 93 55 94
REMARK SMILES IDX 63 95 56 96 57 97 61 98 64 99 58 100 59 101 62 102 60 103
REMARK H PARENT 84 56 52 67
REMARK Flexibility Score: inf
ROOT
ATOM      1  C   UNL A   1      43.233  20.841  25.894  1.00  0.00     0.188 C 
ENDROOT
BRANCH   1   2
ATOM      2  O   UNL A   1      41.910  20.242  25.777  1.00  0.00    -0.376 OA
BRANCH   2   3
ATOM      3  C   UNL A   1      40.607  20.599  26.392  1.00  0.00     0.202 C 
BRANCH   3   4
ATOM      4  C   UNL A   1      39.229  21.810  26.133  1.00  0.00     0.261 C 
BRANCH   4   5
ATOM      5  O   UNL A   1      37.648  21.697  25.216  1.00  0.00    -0.462 OA
BRANCH   5   6
ATOM      6  C   UNL A   1      36.131  21.805  25.485  1.00  0.00     0.328 C 
ATOM      7  O   UNL A   1      35.591  22.217  26.519  1.00  0.00    -0.250 OA
BRANCH   6   8
ATOM      8  C   UNL A   1      35.026  21.324  24.574  1.00  0.00     0.195 C 
ATOM      9  N   UNL A   1      33.925  22.354  24.241  1.00  0.00    -0.325 N 
ATOM     10  C   UNL A   1      32.578  21.827  24.021  1.00  0.00     0.121 C 
ATOM     11  C   UNL A   1      32.289  20.437  24.556  1.00  0.00     0.022 C 
ATOM     12  C   UNL A   1      34.638  19.912  24.945  1.00  0.00     0.037 C 
ATOM     13  C   UNL A   1      33.408  19.482  24.188  1.00  0.00     0.005 C 
BRANCH   9  14
ATOM     14  C   UNL A   1      34.044  23.652  23.566  1.00  0.00     0.254 C 
ATOM     15  O   UNL A   1      34.329  23.694  22.359  1.00  0.00    -0.269 OA
BRANCH  14  16
ATOM     16  C   UNL A   1      33.657  25.000  24.088  1.00  0.00     0.041 A 
ATOM     17  C   UNL A   1      32.128  29.086  27.193  1.00  0.00     0.046 C 
ATOM     18  C   UNL A   1      32.688  27.531  25.718  1.00  0.00    -0.031 A 
ATOM     19  C   UNL A   1      33.717  26.367  26.044  1.00  0.00     0.005 A 
ATOM     20  C   UNL A   1      32.266  27.202  24.228  1.00  0.00     0.086 A 
ATOM     21  C   UNL A   1      34.043  25.190  25.378  1.00  0.00     0.014 A 
ATOM     22  C   UNL A   1      32.748  25.950  23.539  1.00  0.00     0.035 A 
BRANCH  20  23
ATOM     23  S   UNL A   1      31.265  28.224  22.825  1.00  0.00     0.243 S 
ATOM     24  O   UNL A   1      32.194  29.240  22.368  1.00  0.00    -0.207 OA
ATOM     25  O   UNL A   1      30.821  27.189  21.911  1.00  0.00    -0.207 OA
BRANCH  23  26
ATOM     26  N   UNL A   1      29.829  29.114  23.271  1.00  0.00    -0.198 NA
ATOM     27  C   UNL A   1      30.016  30.439  23.894  1.00  0.00     0.102 C 
ATOM     28  C   UNL A   1      28.462  28.566  23.057  1.00  0.00     0.102 C 
ATOM     29  C   UNL A   1      28.823  31.401  23.819  1.00  0.00     0.017 C 
ATOM     30  C   UNL A   1      27.327  29.610  22.886  1.00  0.00     0.017 C 
ATOM     31  C   UNL A   1      27.713  31.085  22.836  1.00  0.00     0.003 C 
ENDBRANCH  23  26
ENDBRANCH  20  23
ENDBRANCH  14  16
ENDBRANCH   9  14
ENDBRANCH   6   8
ENDBRANCH   5   6
ENDBRANCH   4   5
ENDBRANCH   3   4
ENDBRANCH   2   3
ENDBRANCH   1   2
BRANCH   1  32
ATOM     32  C   UNL A   1      43.491  22.221  25.377  1.00  0.00     0.188 C 
BRANCH  32  33
ATOM     33  O   UNL A   1      43.356  23.030  26.505  1.00  0.00    -0.376 OA
BRANCH  33  34
ATOM     34  C   UNL A   1      42.349  23.990  26.492  1.00  0.00     0.202 C 
BRANCH  34  35
ATOM     35  C   UNL A   1      42.262  24.695  27.843  1.00  0.00     0.261 C 
BRANCH  35  36
ATOM     36  O   UNL A   1      41.463  25.918  27.764  1.00  0.00    -0.460 OA
BRANCH  36  37
ATOM     37  C   UNL A   1      40.135  25.892  28.145  1.00  0.00     0.338 C 
ATOM     38  O   UNL A   1      39.430  24.901  28.095  1.00  0.00    -0.246 OA
BRANCH  37  39
ATOM     39  C   UNL A   1      39.653  27.262  28.549  1.00  0.00     0.060 A 
ATOM     40  C   UNL A   1      40.057  28.508  28.036  1.00  0.00     0.016 A 
ATOM     41  C   UNL A   1      39.039  27.313  29.743  1.00  0.00     0.016 A 
ATOM     42  C   UNL A   1      40.187  29.699  28.893  1.00  0.00     0.010 A 
ATOM     43  C   UNL A   1      39.439  28.372  30.556  1.00  0.00     0.010 A 
ATOM     44  C   UNL A   1      40.089  29.666  30.287  1.00  0.00    -0.014 A 
BRANCH  44  45
ATOM     45  C   UNL A   1      40.466  31.036  31.474  1.00  0.00     0.031 A 
ATOM     46  C   UNL A   1      41.452  31.041  33.030  1.00  0.00     0.074 A 
ATOM     47  C   UNL A   1      39.984  32.281  31.246  1.00  0.00     0.049 A 
ATOM     48  N   UNL A   1      41.952  32.100  33.651  1.00  0.00    -0.248 NA
ATOM     49  C   UNL A   1      42.034  29.854  33.831  1.00  0.00     0.031 C 
ATOM     50  C   UNL A   1      40.428  33.570  31.795  1.00  0.00     0.029 A 
ATOM     51  N   UNL A   1      38.991  32.679  30.349  1.00  0.00    -0.354 N 
ATOM     52  C   UNL A   1      42.856  31.711  34.668  1.00  0.00     0.074 A 
ATOM     53  C   UNL A   1      42.952  30.313  34.654  1.00  0.00     0.031 C 
ATOM     54  C   UNL A   1      39.511  34.510  31.497  1.00  0.00     0.029 A 
ATOM     55  C   UNL A   1      38.394  33.807  30.915  1.00  0.00     0.049 A 
ATOM     56  H   UNL A   1      38.758  32.251  29.493  1.00  0.00     0.167 HD
ATOM     57  C   UNL A   1      43.340  32.471  35.684  1.00  0.00     0.037 A 
ATOM     58  C   UNL A   1      37.171  33.640  31.465  1.00  0.00     0.037 A 
ATOM     59  C   UNL A   1      42.440  33.558  35.921  1.00  0.00     0.049 A 
ATOM     60  C   UNL A   1      37.251  33.877  32.971  1.00  0.00     0.074 A 
ATOM     61  C   UNL A   1      42.311  34.805  35.360  1.00  0.00     0.029 A 
ATOM     62  N   UNL A   1      41.300  33.304  36.663  1.00  0.00    -0.354 N 
ATOM     63  N   UNL A   1      38.597  34.143  33.933  1.00  0.00    -0.248 NA
ATOM     64  C   UNL A   1      35.657  33.954  34.201  1.00  0.00     0.031 C 
ATOM     65  C   UNL A   1      41.002  35.254  35.658  1.00  0.00     0.029 A 
ATOM     66  C   UNL A   1      40.364  34.290  36.426  1.00  0.00     0.049 A 
ATOM     67  H   UNL A   1      41.177  32.537  37.268  1.00  0.00     0.167 HD
ATOM     68  C   UNL A   1      38.118  34.193  35.755  1.00  0.00     0.074 A 
ATOM     69  C   UNL A   1      36.185  34.042  35.774  1.00  0.00     0.031 C 
ATOM     70  C   UNL A   1      38.985  34.078  36.811  1.00  0.00     0.037 A 
BRANCH  57  71
ATOM     71  C   UNL A   1      44.628  32.246  36.488  1.00  0.00     0.064 A 
ATOM     72  C   UNL A   1      45.754  33.033  36.149  1.00  0.00     0.173 A 
ATOM     73  C   UNL A   1      44.915  31.207  37.409  1.00  0.00     0.173 A 
ATOM     74  F   UNL A   1      45.637  34.097  35.344  1.00  0.00    -0.203 F 
ATOM     75  C   UNL A   1      47.051  32.732  36.581  1.00  0.00     0.198 A 
ATOM     76  C   UNL A   1      46.210  30.937  37.876  1.00  0.00     0.198 A 
ATOM     77  F   UNL A   1      43.989  30.368  37.882  1.00  0.00    -0.203 F 
ATOM     78  F   UNL A   1      48.083  33.460  36.131  1.00  0.00    -0.200 F 
ATOM     79  C   UNL A   1      47.283  31.671  37.429  1.00  0.00     0.200 A 
ATOM     80  F   UNL A   1      46.408  29.923  38.733  1.00  0.00    -0.200 F 
ATOM     81  F   UNL A   1      48.530  31.348  37.796  1.00  0.00    -0.200 F 
ENDBRANCH  57  71
BRANCH  58  82
ATOM     82  C   UNL A   1      36.371  32.593  30.704  1.00  0.00     0.064 A 
ATOM     83  C   UNL A   1      35.819  32.910  29.442  1.00  0.00     0.173 A 
ATOM     84  C   UNL A   1      36.473  31.221  30.955  1.00  0.00     0.173 A 
ATOM     85  F   UNL A   1      35.728  34.193  29.061  1.00  0.00    -0.203 F 
ATOM     86  C   UNL A   1      35.484  31.923  28.497  1.00  0.00     0.198 A 
ATOM     87  C   UNL A   1      35.989  30.232  30.083  1.00  0.00     0.198 A 
ATOM     88  F   UNL A   1      37.247  30.795  31.951  1.00  0.00    -0.203 F 
ATOM     89  F   UNL A   1      35.167  32.275  27.243  1.00  0.00    -0.200 F 
ATOM     90  C   UNL A   1      35.568  30.583  28.820  1.00  0.00     0.200 A 
ATOM     91  F   UNL A   1      36.166  28.934  30.379  1.00  0.00    -0.200 F 
ATOM     92  F   UNL A   1      35.371  29.638  27.888  1.00  0.00    -0.200 F 
ENDBRANCH  58  82
BRANCH  70  93
ATOM     93  C   UNL A   1      38.523  33.686  38.201  1.00  0.00     0.064 A 
ATOM     94  C   UNL A   1      37.810  32.511  38.516  1.00  0.00     0.173 A 
ATOM     95  C   UNL A   1      38.817  34.487  39.320  1.00  0.00     0.173 A 
ATOM     96  F   UNL A   1      37.794  31.454  37.700  1.00  0.00    -0.203 F 
ATOM     97  C   UNL A   1      37.163  32.318  39.736  1.00  0.00     0.198 A 
ATOM     98  C   UNL A   1      38.272  34.233  40.585  1.00  0.00     0.198 A 
ATOM     99  F   UNL A   1      39.670  35.516  39.229  1.00  0.00    -0.203 F 
ATOM    100  F   UNL A   1      36.345  31.268  39.898  1.00  0.00    -0.200 F 
ATOM    101  C   UNL A   1      37.379  33.196  40.771  1.00  0.00     0.200 A 
ATOM    102  F   UNL A   1      38.615  35.007  41.623  1.00  0.00    -0.200 F 
ATOM    103  F   UNL A   1      36.769  33.018  41.950  1.00  0.00    -0.200 F 
ENDBRANCH  70  93
ENDBRANCH  44  45
ENDBRANCH  37  39
ENDBRANCH  36  37
ENDBRANCH  35  36
ENDBRANCH  34  35
ENDBRANCH  33  34
ENDBRANCH  32  33
ENDBRANCH   1  32
TORSDOF 21
ENDMDL
MODEL 3
REMARK VINA RESULT:     -13.1      3.705     10.383
REMARK SMILES Cc1ccc(C(=O)N2CCCC[C@@H]2C(=O)OCCOCCOCCOC(=O)c2ccc(-c3c4nc(c(-c5c(F)c(F)c(F)c(F)c5F)c5ccc([nH]5)c(-c5c(F)c(F)c(F)c(F)c5F)c5nc(c(-c6c(F)c(F)c(F)c(F)c6F)c6ccc3[nH]6)C=C5)C=C4)cc2)cc1S(=O)(=O)N1CCCCC1
REMARK SMILES IDX 20 1 19 2 18 3 17 4 16 5 14 6 15 7 13 8 8 9 9 10 10 11 12 12
REMARK SMILES IDX 11 13 6 14 7 15 5 16 1 17 2 18 3 19 92 20 4 21 91 22 93 23
REMARK SMILES IDX 94 24 95 25 96 26 97 27 101 28 98 29 100 30 99 31 21 32
REMARK SMILES IDX 22 33 23 34 24 35 25 36 26 37 27 38 28 39 29 40 90 41 30 42
REMARK SMILES IDX 89 43 31 44 32 45 33 46 83 47 34 48 88 49 82 50 84 51 35 52
REMARK SMILES IDX 87 53 81 54 80 55 36 57 68 58 48 59 67 60 49 61 52 62 66 63
REMARK SMILES IDX 85 64 50 65 51 66 65 68 86 69 53 70 37 71 38 72 46 73 39 74
REMARK SMILES IDX 40 75 44 76 47 77 41 78 42 79 45 80 43 81 69 82 70 83 78 84
REMARK SMILES IDX 71 85 72 86 76 87 79 88 73 89 74 90 77 91 75 92 54 93 55 94
REMARK SMILES IDX 63 95 56 96 57 97 61 98 64 99 58 100 59 101 62 102 60 103
REMARK H PARENT 84 56 52 67
REMARK Flexibility Score: inf
ROOT
ATOM      1  C   UNL A   1      41.575  22.132  27.588  1.00  0.00     0.188 C 
ENDROOT
BRANCH   1   2
ATOM      2  O   UNL A   1      40.140  22.273  27.374  1.00  0.00    -0.376 OA
BRANCH   2   3
ATOM      3  C   UNL A   1      39.349  23.278  26.622  1.00  0.00     0.202 C 
BRANCH   3   4
ATOM      4  C   UNL A   1      37.747  23.382  25.697  1.00  0.00     0.261 C 
BRANCH   4   5
ATOM      5  O   UNL A   1      36.013  23.563  26.256  1.00  0.00    -0.462 OA
BRANCH   5   6
ATOM      6  C   UNL A   1      34.617  22.980  25.942  1.00  0.00     0.328 C 
ATOM      7  O   UNL A   1      33.559  23.243  26.525  1.00  0.00    -0.250 OA
BRANCH   6   8
ATOM      8  C   UNL A   1      34.307  21.899  24.934  1.00  0.00     0.195 C 
ATOM      9  N   UNL A   1      33.059  22.128  24.055  1.00  0.00    -0.325 N 
ATOM     10  C   UNL A   1      32.324  20.935  23.635  1.00  0.00     0.121 C 
ATOM     11  C   UNL A   1      32.566  19.665  24.428  1.00  0.00     0.022 C 
ATOM     12  C   UNL A   1      34.542  20.542  25.555  1.00  0.00     0.037 C 
ATOM     13  C   UNL A   1      34.051  19.446  24.643  1.00  0.00     0.005 C 
BRANCH   9  14
ATOM     14  C   UNL A   1      32.777  23.218  23.112  1.00  0.00     0.254 C 
ATOM     15  O   UNL A   1      32.955  23.041  21.897  1.00  0.00    -0.269 OA
BRANCH  14  16
ATOM     16  C   UNL A   1      32.080  24.513  23.384  1.00  0.00     0.041 A 
ATOM     17  C   UNL A   1      28.774  28.724  23.239  1.00  0.00     0.046 C 
ATOM     18  C   UNL A   1      30.297  27.125  23.422  1.00  0.00    -0.031 A 
ATOM     19  C   UNL A   1      29.950  25.584  23.263  1.00  0.00     0.005 A 
ATOM     20  C   UNL A   1      31.858  27.095  23.682  1.00  0.00     0.086 A 
ATOM     21  C   UNL A   1      30.747  24.454  23.119  1.00  0.00     0.014 A 
ATOM     22  C   UNL A   1      32.637  25.805  23.608  1.00  0.00     0.035 A 
BRANCH  20  23
ATOM     23  S   UNL A   1      33.176  28.471  24.303  1.00  0.00     0.243 S 
ATOM     24  O   UNL A   1      34.303  27.709  24.806  1.00  0.00    -0.207 OA
ATOM     25  O   UNL A   1      33.343  29.322  23.140  1.00  0.00    -0.207 OA
BRANCH  23  26
ATOM     26  N   UNL A   1      32.748  29.539  25.617  1.00  0.00    -0.198 NA
ATOM     27  C   UNL A   1      33.716  29.680  26.723  1.00  0.00     0.102 C 
ATOM     28  C   UNL A   1      31.453  30.273  25.649  1.00  0.00     0.102 C 
ATOM     29  C   UNL A   1      33.588  30.944  27.583  1.00  0.00     0.017 C 
ATOM     30  C   UNL A   1      31.438  31.597  26.456  1.00  0.00     0.017 C 
ATOM     31  C   UNL A   1      32.756  32.091  27.045  1.00  0.00     0.003 C 
ENDBRANCH  23  26
ENDBRANCH  20  23
ENDBRANCH  14  16
ENDBRANCH   9  14
ENDBRANCH   6   8
ENDBRANCH   5   6
ENDBRANCH   4   5
ENDBRANCH   3   4
ENDBRANCH   2   3
ENDBRANCH   1   2
BRANCH   1  32
ATOM     32  C   UNL A   1      42.484  23.312  27.442  1.00  0.00     0.188 C 
BRANCH  32  33
ATOM     33  O   UNL A   1      42.814  23.312  26.087  1.00  0.00    -0.376 OA
BRANCH  33  34
ATOM     34  C   UNL A   1      42.697  24.515  25.396  1.00  0.00     0.202 C 
BRANCH  34  35
ATOM     35  C   UNL A   1      44.030  25.259  25.384  1.00  0.00     0.261 C 
BRANCH  35  36
ATOM     36  O   UNL A   1      43.985  26.462  26.214  1.00  0.00    -0.460 OA
BRANCH  36  37
ATOM     37  C   UNL A   1      44.327  27.684  25.666  1.00  0.00     0.338 C 
ATOM     38  O   UNL A   1      45.208  27.838  24.839  1.00  0.00    -0.246 OA
BRANCH  37  39
ATOM     39  C   UNL A   1      43.529  28.804  26.282  1.00  0.00     0.060 A 
ATOM     40  C   UNL A   1      43.953  29.748  27.234  1.00  0.00     0.016 A 
ATOM     41  C   UNL A   1      42.197  28.674  26.168  1.00  0.00     0.016 A 
ATOM     42  C   UNL A   1      43.061  30.236  28.299  1.00  0.00     0.010 A 
ATOM     43  C   UNL A   1      41.486  28.942  27.337  1.00  0.00     0.010 A 
ATOM     44  C   UNL A   1      41.799  29.697  28.562  1.00  0.00    -0.014 A 
BRANCH  44  45
ATOM     45  C   UNL A   1      40.697  30.060  30.005  1.00  0.00     0.031 A 
ATOM     46  C   UNL A   1      39.595  31.496  30.345  1.00  0.00     0.074 A 
ATOM     47  C   UNL A   1      40.617  29.182  31.033  1.00  0.00     0.049 A 
ATOM     48  N   UNL A   1      38.600  31.545  31.220  1.00  0.00    -0.248 NA
ATOM     49  C   UNL A   1      39.478  32.846  29.601  1.00  0.00     0.031 C 
ATOM     50  C   UNL A   1      39.583  29.047  32.069  1.00  0.00     0.029 A 
ATOM     51  N   UNL A   1      41.456  28.104  31.325  1.00  0.00    -0.354 N 
ATOM     52  C   UNL A   1      37.819  32.710  31.034  1.00  0.00     0.074 A 
ATOM     53  C   UNL A   1      38.344  33.417  29.944  1.00  0.00     0.031 C 
ATOM     54  C   UNL A   1      40.032  28.215  33.027  1.00  0.00     0.029 A 
ATOM     55  C   UNL A   1      41.414  27.952  32.711  1.00  0.00     0.049 A 
ATOM     56  H   UNL A   1      41.972  27.563  30.683  1.00  0.00     0.167 HD
ATOM     57  C   UNL A   1      36.912  33.248  31.891  1.00  0.00     0.037 A 
ATOM     58  C   UNL A   1      42.495  28.372  33.405  1.00  0.00     0.037 A 
ATOM     59  C   UNL A   1      37.205  32.801  33.218  1.00  0.00     0.049 A 
ATOM     60  C   UNL A   1      42.104  29.549  34.296  1.00  0.00     0.074 A 
ATOM     61  C   UNL A   1      36.858  31.675  33.925  1.00  0.00     0.029 A 
ATOM     62  N   UNL A   1      38.222  33.440  33.906  1.00  0.00    -0.354 N 
ATOM     63  N   UNL A   1      40.653  30.384  34.374  1.00  0.00    -0.248 NA
ATOM     64  C   UNL A   1      43.310  30.388  35.675  1.00  0.00     0.031 C 
ATOM     65  C   UNL A   1      37.784  31.560  34.989  1.00  0.00     0.029 A 
ATOM     66  C   UNL A   1      38.659  32.635  34.938  1.00  0.00     0.049 A 
ATOM     67  H   UNL A   1      38.578  34.332  33.691  1.00  0.00     0.167 HD
ATOM     68  C   UNL A   1      40.795  31.865  35.531  1.00  0.00     0.074 A 
ATOM     69  C   UNL A   1      42.576  31.746  36.289  1.00  0.00     0.031 C 
ATOM     70  C   UNL A   1      39.922  32.921  35.585  1.00  0.00     0.037 A 
BRANCH  57  71
ATOM     71  C   UNL A   1      35.750  34.190  31.550  1.00  0.00     0.064 A 
ATOM     72  C   UNL A   1      35.348  35.114  32.543  1.00  0.00     0.173 A 
ATOM     73  C   UNL A   1      34.876  34.134  30.435  1.00  0.00     0.173 A 
ATOM     74  F   UNL A   1      36.101  35.336  33.628  1.00  0.00    -0.203 F 
ATOM     75  C   UNL A   1      34.134  35.812  32.488  1.00  0.00     0.198 A 
ATOM     76  C   UNL A   1      33.683  34.870  30.362  1.00  0.00     0.198 A 
ATOM     77  F   UNL A   1      35.086  33.349  29.375  1.00  0.00    -0.203 F 
ATOM     78  F   UNL A   1      33.772  36.589  33.518  1.00  0.00    -0.200 F 
ATOM     79  C   UNL A   1      33.291  35.674  31.407  1.00  0.00     0.200 A 
ATOM     80  F   UNL A   1      32.895  34.752  29.282  1.00  0.00    -0.200 F 
ATOM     81  F   UNL A   1      32.105  36.296  31.380  1.00  0.00    -0.200 F 
ENDBRANCH  57  71
BRANCH  58  82
ATOM     82  C   UNL A   1      43.771  28.165  32.603  1.00  0.00     0.064 A 
ATOM     83  C   UNL A   1      44.220  26.855  32.323  1.00  0.00     0.173 A 
ATOM     84  C   UNL A   1      44.321  29.147  31.774  1.00  0.00     0.173 A 
ATOM     85  F   UNL A   1      43.715  25.819  33.011  1.00  0.00    -0.203 F 
ATOM     86  C   UNL A   1      45.080  26.567  31.248  1.00  0.00     0.198 A 
ATOM     87  C   UNL A   1      45.306  28.887  30.806  1.00  0.00     0.198 A 
ATOM     88  F   UNL A   1      43.758  30.352  31.726  1.00  0.00    -0.203 F 
ATOM     89  F   UNL A   1      45.308  25.294  30.892  1.00  0.00    -0.200 F 
ATOM     90  C   UNL A   1      45.624  27.585  30.490  1.00  0.00     0.200 A 
ATOM     91  F   UNL A   1      45.750  29.881  30.020  1.00  0.00    -0.200 F 
ATOM     92  F   UNL A   1      46.343  27.315  29.390  1.00  0.00    -0.200 F 
ENDBRANCH  58  82
BRANCH  70  93
ATOM     93  C   UNL A   1      40.302  34.258  36.192  1.00  0.00     0.064 A 
ATOM     94  C   UNL A   1      41.395  35.050  35.783  1.00  0.00     0.173 A 
ATOM     95  C   UNL A   1      39.540  34.836  37.223  1.00  0.00     0.173 A 
ATOM     96  F   UNL A   1      41.976  34.892  34.591  1.00  0.00    -0.203 F 
ATOM     97  C   UNL A   1      41.881  36.121  36.533  1.00  0.00     0.198 A 
ATOM     98  C   UNL A   1      39.953  35.986  37.905  1.00  0.00     0.198 A 
ATOM     99  F   UNL A   1      38.351  34.323  37.573  1.00  0.00    -0.203 F 
ATOM    100  F   UNL A   1      43.036  36.707  36.187  1.00  0.00    -0.200 F 
ATOM    101  C   UNL A   1      41.166  36.579  37.613  1.00  0.00     0.200 A 
ATOM    102  F   UNL A   1      39.169  36.514  38.854  1.00  0.00    -0.200 F 
ATOM    103  F   UNL A   1      41.618  37.611  38.337  1.00  0.00    -0.200 F 
ENDBRANCH  70  93
ENDBRANCH  44  45
ENDBRANCH  37  39
ENDBRANCH  36  37
ENDBRANCH  35  36
ENDBRANCH  34  35
ENDBRANCH  33  34
ENDBRANCH  32  33
ENDBRANCH   1  32
TORSDOF 21
ENDMDL
