MODEL 1
REMARK VINA RESULT:     -11.2      0.000      0.000
REMARK SMILES CC(C)n1c([C@H](O)CC(=O)OCCOCCOCCOC(=O)c2ccc(-c3c4nc(c(-c5c(F)c(F)c(F)c(F)c5F)c5ccc([nH]5)c(-c5c(F)c(F)c(F)c(F)c5F)c5nc(c(-c6c(F)c(F)c(F)c(F)c6F)c6ccc3[nH]6)C=C5)C=C4)cc2)nc2cc(Cl)ccc21
REMARK SMILES IDX 15 1 14 2 13 3 12 4 11 5 9 6 10 7 8 8 6 9 5 10 4 11 93 12
REMARK SMILES IDX 86 13 87 14 92 15 88 16 91 17 89 18 90 19 2 20 1 21 3 22
REMARK SMILES IDX 7 23 16 25 17 26 18 27 19 28 20 29 21 30 22 31 23 32 24 33
REMARK SMILES IDX 85 34 25 35 84 36 26 37 27 38 28 39 78 40 29 41 83 42 77 43
REMARK SMILES IDX 79 44 30 45 82 46 76 47 75 48 31 50 63 51 43 52 62 53 44 54
REMARK SMILES IDX 47 55 61 56 80 57 45 58 46 59 60 61 81 62 48 63 32 64 33 65
REMARK SMILES IDX 41 66 34 67 35 68 39 69 42 70 36 71 37 72 40 73 38 74 64 75
REMARK SMILES IDX 65 76 73 77 66 78 67 79 71 80 74 81 68 82 69 83 72 84 70 85
REMARK SMILES IDX 49 86 50 87 58 88 51 89 52 90 56 91 59 92 53 93 54 94 57 95
REMARK SMILES IDX 55 96
REMARK H PARENT 7 24 79 49 47 60
REMARK Flexibility Score: inf
ROOT
ATOM      1  C   UNL A   1      34.902  23.101  23.487  1.00  0.00     0.188 C 
ENDROOT
BRANCH   1   2
ATOM      2  O   UNL A   1      33.902  22.103  23.505  1.00  0.00    -0.376 OA
BRANCH   2   3
ATOM      3  C   UNL A   1      34.122  20.932  24.273  1.00  0.00     0.202 C 
BRANCH   3   4
ATOM      4  C   UNL A   1      33.354  20.772  25.589  1.00  0.00     0.261 C 
BRANCH   4   5
ATOM      5  O   UNL A   1      33.945  21.540  26.660  1.00  0.00    -0.463 OA
BRANCH   5   6
ATOM      6  C   UNL A   1      33.095  22.400  27.270  1.00  0.00     0.308 C 
ATOM      7  O   UNL A   1      32.851  22.347  28.474  1.00  0.00    -0.252 OA
BRANCH   6   8
ATOM      8  C   UNL A   1      32.690  23.612  26.434  1.00  0.00     0.162 C 
BRANCH   8   9
ATOM      9  C   UNL A   1      31.241  24.016  26.095  1.00  0.00     0.191 C 
BRANCH   9  10
ATOM     10  C   UNL A   1      30.928  25.384  25.434  1.00  0.00     0.139 A 
ATOM     11  N   UNL A   1      31.698  26.534  25.541  1.00  0.00    -0.323 N 
ATOM     12  C   UNL A   1      31.032  27.606  24.993  1.00  0.00     0.069 A 
ATOM     13  N   UNL A   1      29.993  25.636  24.512  1.00  0.00    -0.230 NA
ATOM     14  C   UNL A   1      30.093  26.990  24.185  1.00  0.00     0.090 A 
ATOM     15  C   UNL A   1      31.405  28.954  24.930  1.00  0.00     0.030 A 
ATOM     16  C   UNL A   1      29.509  27.770  23.174  1.00  0.00     0.051 A 
ATOM     17  C   UNL A   1      30.831  29.706  23.917  1.00  0.00     0.023 A 
ATOM     18  C   UNL A   1      29.908  29.118  23.049  1.00  0.00     0.043 A 
ATOM     19  Cl  UNL A   1      29.286  30.079  21.760  1.00  0.00    -0.084 Cl
BRANCH  11  20
ATOM     20  C   UNL A   1      33.149  26.533  25.340  1.00  0.00     0.083 C 
ATOM     21  C   UNL A   1      33.348  26.485  23.827  1.00  0.00     0.031 C 
ATOM     22  C   UNL A   1      33.687  27.496  26.430  1.00  0.00     0.031 C 
ENDBRANCH  11  20
ENDBRANCH   9  10
BRANCH   9  23
ATOM     23  O   UNL A   1      30.417  23.915  27.246  1.00  0.00    -0.385 OA
ATOM     24  H   UNL A   1      29.539  24.274  27.046  1.00  0.00     0.211 HD
ENDBRANCH   9  23
ENDBRANCH   8   9
ENDBRANCH   6   8
ENDBRANCH   5   6
ENDBRANCH   4   5
ENDBRANCH   3   4
ENDBRANCH   2   3
ENDBRANCH   1   2
BRANCH   1  25
ATOM     25  C   UNL A   1      36.384  22.686  23.628  1.00  0.00     0.188 C 
BRANCH  25  26
ATOM     26  O   UNL A   1      37.112  22.995  24.787  1.00  0.00    -0.376 OA
BRANCH  26  27
ATOM     27  C   UNL A   1      37.330  21.898  25.656  1.00  0.00     0.202 C 
BRANCH  27  28
ATOM     28  C   UNL A   1      38.733  21.235  25.663  1.00  0.00     0.261 C 
BRANCH  28  29
ATOM     29  O   UNL A   1      39.564  21.576  26.812  1.00  0.00    -0.460 OA
BRANCH  29  30
ATOM     30  C   UNL A   1      40.698  22.325  26.569  1.00  0.00     0.338 C 
ATOM     31  O   UNL A   1      41.529  22.090  25.741  1.00  0.00    -0.246 OA
BRANCH  30  32
ATOM     32  C   UNL A   1      40.532  23.690  27.209  1.00  0.00     0.060 A 
ATOM     33  C   UNL A   1      39.473  24.567  26.950  1.00  0.00     0.016 A 
ATOM     34  C   UNL A   1      41.633  24.172  27.935  1.00  0.00     0.016 A 
ATOM     35  C   UNL A   1      39.562  25.931  27.328  1.00  0.00     0.010 A 
ATOM     36  C   UNL A   1      41.731  25.533  28.279  1.00  0.00     0.010 A 
ATOM     37  C   UNL A   1      40.712  26.447  27.952  1.00  0.00    -0.014 A 
BRANCH  37  38
ATOM     38  C   UNL A   1      40.714  27.771  28.638  1.00  0.00     0.031 A 
ATOM     39  C   UNL A   1      41.755  28.667  28.093  1.00  0.00     0.074 A 
ATOM     40  C   UNL A   1      39.947  28.326  29.615  1.00  0.00     0.049 A 
ATOM     41  N   UNL A   1      42.730  29.140  28.799  1.00  0.00    -0.248 NA
ATOM     42  C   UNL A   1      41.834  28.957  26.662  1.00  0.00     0.031 C 
ATOM     43  C   UNL A   1      39.034  27.688  30.557  1.00  0.00     0.029 A 
ATOM     44  N   UNL A   1      39.804  29.673  29.953  1.00  0.00    -0.354 N 
ATOM     45  C   UNL A   1      43.456  29.938  27.942  1.00  0.00     0.074 A 
ATOM     46  C   UNL A   1      42.964  29.666  26.615  1.00  0.00     0.031 C 
ATOM     47  C   UNL A   1      38.335  28.638  31.229  1.00  0.00     0.029 A 
ATOM     48  C   UNL A   1      38.677  29.960  30.728  1.00  0.00     0.049 A 
ATOM     49  H   UNL A   1      40.444  30.365  29.668  1.00  0.00     0.167 HD
ATOM     50  C   UNL A   1      44.239  30.935  28.427  1.00  0.00     0.037 A 
ATOM     51  C   UNL A   1      38.159  31.114  31.250  1.00  0.00     0.037 A 
ATOM     52  C   UNL A   1      44.581  30.739  29.817  1.00  0.00     0.049 A 
ATOM     53  C   UNL A   1      39.342  31.904  31.620  1.00  0.00     0.074 A 
ATOM     54  C   UNL A   1      45.170  29.707  30.530  1.00  0.00     0.029 A 
ATOM     55  N   UNL A   1      44.015  31.548  30.771  1.00  0.00    -0.354 N 
ATOM     56  N   UNL A   1      40.100  31.567  32.622  1.00  0.00    -0.248 NA
ATOM     57  C   UNL A   1      39.938  32.773  30.619  1.00  0.00     0.031 C 
ATOM     58  C   UNL A   1      44.510  29.686  31.793  1.00  0.00     0.029 A 
ATOM     59  C   UNL A   1      43.599  30.736  31.797  1.00  0.00     0.049 A 
ATOM     60  H   UNL A   1      43.927  32.528  30.728  1.00  0.00     0.167 HD
ATOM     61  C   UNL A   1      41.376  31.753  32.131  1.00  0.00     0.074 A 
ATOM     62  C   UNL A   1      41.220  32.589  30.941  1.00  0.00     0.031 C 
ATOM     63  C   UNL A   1      42.402  30.965  32.558  1.00  0.00     0.037 A 
BRANCH  50  64
ATOM     64  C   UNL A   1      44.418  32.228  27.690  1.00  0.00     0.064 A 
ATOM     65  C   UNL A   1      45.565  32.438  26.911  1.00  0.00     0.173 A 
ATOM     66  C   UNL A   1      43.604  33.363  27.908  1.00  0.00     0.173 A 
ATOM     67  F   UNL A   1      46.441  31.443  26.706  1.00  0.00    -0.203 F 
ATOM     68  C   UNL A   1      45.877  33.697  26.393  1.00  0.00     0.198 A 
ATOM     69  C   UNL A   1      43.881  34.599  27.335  1.00  0.00     0.198 A 
ATOM     70  F   UNL A   1      42.578  33.346  28.767  1.00  0.00    -0.203 F 
ATOM     71  F   UNL A   1      47.035  33.878  25.743  1.00  0.00    -0.200 F 
ATOM     72  C   UNL A   1      45.029  34.773  26.594  1.00  0.00     0.200 A 
ATOM     73  F   UNL A   1      43.061  35.633  27.570  1.00  0.00    -0.200 F 
ATOM     74  F   UNL A   1      45.345  35.986  26.125  1.00  0.00    -0.200 F 
ENDBRANCH  50  64
BRANCH  51  75
ATOM     75  C   UNL A   1      36.939  31.842  30.740  1.00  0.00     0.064 A 
ATOM     76  C   UNL A   1      36.185  32.663  31.598  1.00  0.00     0.173 A 
ATOM     77  C   UNL A   1      36.568  31.893  29.381  1.00  0.00     0.173 A 
ATOM     78  F   UNL A   1      36.522  32.761  32.892  1.00  0.00    -0.203 F 
ATOM     79  C   UNL A   1      35.098  33.429  31.139  1.00  0.00     0.198 A 
ATOM     80  C   UNL A   1      35.458  32.620  28.927  1.00  0.00     0.198 A 
ATOM     81  F   UNL A   1      37.333  31.307  28.449  1.00  0.00    -0.203 F 
ATOM     82  F   UNL A   1      34.434  34.230  31.985  1.00  0.00    -0.200 F 
ATOM     83  C   UNL A   1      34.722  33.389  29.807  1.00  0.00     0.200 A 
ATOM     84  F   UNL A   1      35.133  32.603  27.627  1.00  0.00    -0.200 F 
ATOM     85  F   UNL A   1      33.684  34.116  29.369  1.00  0.00    -0.200 F 
ENDBRANCH  51  75
BRANCH  63  86
ATOM     86  C   UNL A   1      42.126  30.051  33.720  1.00  0.00     0.064 A 
ATOM     87  C   UNL A   1      41.712  28.720  33.553  1.00  0.00     0.173 A 
ATOM     88  C   UNL A   1      42.419  30.464  35.020  1.00  0.00     0.173 A 
ATOM     89  F   UNL A   1      41.572  28.215  32.327  1.00  0.00    -0.203 F 
ATOM     90  C   UNL A   1      41.531  27.859  34.631  1.00  0.00     0.198 A 
ATOM     91  C   UNL A   1      42.290  29.589  36.100  1.00  0.00     0.198 A 
ATOM     92  F   UNL A   1      42.892  31.701  35.237  1.00  0.00    -0.203 F 
ATOM     93  F   UNL A   1      41.119  26.598  34.429  1.00  0.00    -0.200 F 
ATOM     94  C   UNL A   1      41.831  28.293  35.908  1.00  0.00     0.200 A 
ATOM     95  F   UNL A   1      42.648  29.991  37.326  1.00  0.00    -0.200 F 
ATOM     96  F   UNL A   1      41.724  27.453  36.947  1.00  0.00    -0.200 F 
ENDBRANCH  63  86
ENDBRANCH  37  38
ENDBRANCH  30  32
ENDBRANCH  29  30
ENDBRANCH  28  29
ENDBRANCH  27  28
ENDBRANCH  26  27
ENDBRANCH  25  26
ENDBRANCH   1  25
TORSDOF 21
ENDMDL
MODEL 2
REMARK VINA RESULT:     -11.2      5.522     11.283
REMARK SMILES CC(C)n1c([C@H](O)CC(=O)OCCOCCOCCOC(=O)c2ccc(-c3c4nc(c(-c5c(F)c(F)c(F)c(F)c5F)c5ccc([nH]5)c(-c5c(F)c(F)c(F)c(F)c5F)c5nc(c(-c6c(F)c(F)c(F)c(F)c6F)c6ccc3[nH]6)C=C5)C=C4)cc2)nc2cc(Cl)ccc21
REMARK SMILES IDX 15 1 14 2 13 3 12 4 11 5 9 6 10 7 8 8 6 9 5 10 4 11 93 12
REMARK SMILES IDX 86 13 87 14 92 15 88 16 91 17 89 18 90 19 2 20 1 21 3 22
REMARK SMILES IDX 7 23 16 25 17 26 18 27 19 28 20 29 21 30 22 31 23 32 24 33
REMARK SMILES IDX 85 34 25 35 84 36 26 37 27 38 28 39 78 40 29 41 83 42 77 43
REMARK SMILES IDX 79 44 30 45 82 46 76 47 75 48 31 50 63 51 43 52 62 53 44 54
REMARK SMILES IDX 47 55 61 56 80 57 45 58 46 59 60 61 81 62 48 63 32 64 33 65
REMARK SMILES IDX 41 66 34 67 35 68 39 69 42 70 36 71 37 72 40 73 38 74 64 75
REMARK SMILES IDX 65 76 73 77 66 78 67 79 71 80 74 81 68 82 69 83 72 84 70 85
REMARK SMILES IDX 49 86 50 87 58 88 51 89 52 90 56 91 59 92 53 93 54 94 57 95
REMARK SMILES IDX 55 96
REMARK H PARENT 7 24 79 49 47 60
REMARK Flexibility Score: inf
ROOT
ATOM      1  C   UNL A   1      33.298  35.799  31.276  1.00  0.00     0.188 C 
ENDROOT
BRANCH   1   2
ATOM      2  O   UNL A   1      33.548  34.504  31.782  1.00  0.00    -0.376 OA
BRANCH   2   3
ATOM      3  C   UNL A   1      34.722  33.825  31.372  1.00  0.00     0.202 C 
BRANCH   3   4
ATOM      4  C   UNL A   1      34.787  32.307  31.562  1.00  0.00     0.261 C 
BRANCH   4   5
ATOM      5  O   UNL A   1      35.610  31.935  32.690  1.00  0.00    -0.463 OA
BRANCH   5   6
ATOM      6  C   UNL A   1      36.507  30.954  32.431  1.00  0.00     0.308 C 
ATOM      7  O   UNL A   1      36.260  30.012  31.681  1.00  0.00    -0.252 OA
BRANCH   6   8
ATOM      8  C   UNL A   1      37.935  31.244  32.891  1.00  0.00     0.162 C 
BRANCH   8   9
ATOM      9  C   UNL A   1      38.402  32.543  33.579  1.00  0.00     0.191 C 
BRANCH   9  10
ATOM     10  C   UNL A   1      38.454  32.653  35.125  1.00  0.00     0.139 A 
ATOM     11  N   UNL A   1      39.574  32.977  35.880  1.00  0.00    -0.323 N 
ATOM     12  C   UNL A   1      39.314  32.797  37.218  1.00  0.00     0.069 A 
ATOM     13  N   UNL A   1      37.416  32.648  35.967  1.00  0.00    -0.230 NA
ATOM     14  C   UNL A   1      37.932  32.803  37.256  1.00  0.00     0.090 A 
ATOM     15  C   UNL A   1      40.162  32.949  38.322  1.00  0.00     0.030 A 
ATOM     16  C   UNL A   1      37.326  33.043  38.500  1.00  0.00     0.051 A 
ATOM     17  C   UNL A   1      39.549  33.201  39.540  1.00  0.00     0.023 A 
ATOM     18  C   UNL A   1      38.155  33.258  39.621  1.00  0.00     0.043 A 
ATOM     19  Cl  UNL A   1      37.451  33.653  41.144  1.00  0.00    -0.084 Cl
BRANCH  11  20
ATOM     20  C   UNL A   1      40.437  34.117  35.560  1.00  0.00     0.083 C 
ATOM     21  C   UNL A   1      41.494  33.570  34.605  1.00  0.00     0.031 C 
ATOM     22  C   UNL A   1      39.460  35.317  35.455  1.00  0.00     0.031 C 
ENDBRANCH  11  20
ENDBRANCH   9  10
BRANCH   9  23
ATOM     23  O   UNL A   1      37.647  33.649  33.111  1.00  0.00    -0.385 OA
ATOM     24  H   UNL A   1      38.188  34.175  32.502  1.00  0.00     0.211 HD
ENDBRANCH   9  23
ENDBRANCH   8   9
ENDBRANCH   6   8
ENDBRANCH   5   6
ENDBRANCH   4   5
ENDBRANCH   3   4
ENDBRANCH   2   3
ENDBRANCH   1   2
BRANCH   1  25
ATOM     25  C   UNL A   1      32.814  35.957  29.816  1.00  0.00     0.188 C 
BRANCH  25  26
ATOM     26  O   UNL A   1      33.622  36.577  28.852  1.00  0.00    -0.376 OA
BRANCH  26  27
ATOM     27  C   UNL A   1      34.422  35.688  28.093  1.00  0.00     0.202 C 
BRANCH  27  28
ATOM     28  C   UNL A   1      33.959  34.212  27.965  1.00  0.00     0.261 C 
BRANCH  28  29
ATOM     29  O   UNL A   1      35.032  33.255  27.719  1.00  0.00    -0.460 OA
BRANCH  29  30
ATOM     30  C   UNL A   1      34.755  31.924  27.954  1.00  0.00     0.338 C 
ATOM     31  O   UNL A   1      33.690  31.395  27.820  1.00  0.00    -0.246 OA
BRANCH  30  32
ATOM     32  C   UNL A   1      36.060  31.152  28.008  1.00  0.00     0.060 A 
ATOM     33  C   UNL A   1      36.213  29.819  27.611  1.00  0.00     0.016 A 
ATOM     34  C   UNL A   1      37.114  31.764  28.706  1.00  0.00     0.016 A 
ATOM     35  C   UNL A   1      37.363  29.084  27.994  1.00  0.00     0.010 A 
ATOM     36  C   UNL A   1      38.237  31.022  29.112  1.00  0.00     0.010 A 
ATOM     37  C   UNL A   1      38.369  29.658  28.793  1.00  0.00    -0.014 A 
BRANCH  37  38
ATOM     38  C   UNL A   1      39.714  29.031  28.944  1.00  0.00     0.031 A 
ATOM     39  C   UNL A   1      40.022  28.730  30.357  1.00  0.00     0.074 A 
ATOM     40  C   UNL A   1      40.680  28.654  28.063  1.00  0.00     0.049 A 
ATOM     41  N   UNL A   1      41.019  29.248  30.997  1.00  0.00    -0.248 NA
ATOM     42  C   UNL A   1      39.113  27.929  31.177  1.00  0.00     0.031 C 
ATOM     43  C   UNL A   1      40.859  29.020  26.663  1.00  0.00     0.029 A 
ATOM     44  N   UNL A   1      41.747  27.776  28.262  1.00  0.00    -0.354 N 
ATOM     45  C   UNL A   1      40.973  28.703  32.261  1.00  0.00     0.074 A 
ATOM     46  C   UNL A   1      39.703  28.031  32.370  1.00  0.00     0.031 C 
ATOM     47  C   UNL A   1      41.845  28.266  26.115  1.00  0.00     0.029 A 
ATOM     48  C   UNL A   1      42.333  27.298  27.086  1.00  0.00     0.049 A 
ATOM     49  H   UNL A   1      42.062  27.513  29.157  1.00  0.00     0.167 HD
ATOM     50  C   UNL A   1      42.092  28.648  33.028  1.00  0.00     0.037 A 
ATOM     51  C   UNL A   1      43.360  26.433  26.826  1.00  0.00     0.037 A 
ATOM     52  C   UNL A   1      43.097  29.594  32.603  1.00  0.00     0.049 A 
ATOM     53  C   UNL A   1      44.329  26.692  27.901  1.00  0.00     0.074 A 
ATOM     54  C   UNL A   1      43.107  30.965  32.398  1.00  0.00     0.029 A 
ATOM     55  N   UNL A   1      44.236  29.138  31.987  1.00  0.00    -0.354 N 
ATOM     56  N   UNL A   1      45.018  27.795  27.945  1.00  0.00    -0.248 NA
ATOM     57  C   UNL A   1      44.195  25.961  29.149  1.00  0.00     0.031 C 
ATOM     58  C   UNL A   1      43.955  31.180  31.273  1.00  0.00     0.029 A 
ATOM     59  C   UNL A   1      44.454  29.940  30.893  1.00  0.00     0.049 A 
ATOM     60  H   UNL A   1      44.793  28.380  32.276  1.00  0.00     0.167 HD
ATOM     61  C   UNL A   1      44.968  28.147  29.278  1.00  0.00     0.074 A 
ATOM     62  C   UNL A   1      44.542  26.940  29.986  1.00  0.00     0.031 C 
ATOM     63  C   UNL A   1      44.981  29.459  29.646  1.00  0.00     0.037 A 
BRANCH  50  64
ATOM     64  C   UNL A   1      42.352  27.505  33.962  1.00  0.00     0.064 A 
ATOM     65  C   UNL A   1      41.918  27.576  35.294  1.00  0.00     0.173 A 
ATOM     66  C   UNL A   1      43.221  26.433  33.654  1.00  0.00     0.173 A 
ATOM     67  F   UNL A   1      41.150  28.596  35.707  1.00  0.00    -0.203 F 
ATOM     68  C   UNL A   1      42.329  26.643  36.249  1.00  0.00     0.198 A 
ATOM     69  C   UNL A   1      43.575  25.467  34.589  1.00  0.00     0.198 A 
ATOM     70  F   UNL A   1      43.844  26.343  32.472  1.00  0.00    -0.203 F 
ATOM     71  F   UNL A   1      41.976  26.806  37.531  1.00  0.00    -0.200 F 
ATOM     72  C   UNL A   1      43.146  25.583  35.893  1.00  0.00     0.200 A 
ATOM     73  F   UNL A   1      44.392  24.468  34.228  1.00  0.00    -0.200 F 
ATOM     74  F   UNL A   1      43.567  24.708  36.815  1.00  0.00    -0.200 F 
ENDBRANCH  50  64
BRANCH  51  75
ATOM     75  C   UNL A   1      43.213  25.019  26.316  1.00  0.00     0.064 A 
ATOM     76  C   UNL A   1      44.064  24.531  25.308  1.00  0.00     0.173 A 
ATOM     77  C   UNL A   1      42.363  24.059  26.900  1.00  0.00     0.173 A 
ATOM     78  F   UNL A   1      44.980  25.342  24.758  1.00  0.00    -0.203 F 
ATOM     79  C   UNL A   1      44.020  23.194  24.872  1.00  0.00     0.198 A 
ATOM     80  C   UNL A   1      42.284  22.738  26.438  1.00  0.00     0.198 A 
ATOM     81  F   UNL A   1      41.653  24.363  27.996  1.00  0.00    -0.203 F 
ATOM     82  F   UNL A   1      44.878  22.763  23.936  1.00  0.00    -0.200 F 
ATOM     83  C   UNL A   1      43.114  22.305  25.423  1.00  0.00     0.200 A 
ATOM     84  F   UNL A   1      41.431  21.878  27.011  1.00  0.00    -0.200 F 
ATOM     85  F   UNL A   1      43.068  21.031  25.005  1.00  0.00    -0.200 F 
ENDBRANCH  51  75
BRANCH  63  86
ATOM     86  C   UNL A   1      45.265  30.470  28.570  1.00  0.00     0.064 A 
ATOM     87  C   UNL A   1      44.248  31.068  27.809  1.00  0.00     0.173 A 
ATOM     88  C   UNL A   1      46.560  30.958  28.393  1.00  0.00     0.173 A 
ATOM     89  F   UNL A   1      42.973  30.764  28.044  1.00  0.00    -0.203 F 
ATOM     90  C   UNL A   1      44.513  32.058  26.866  1.00  0.00     0.198 A 
ATOM     91  C   UNL A   1      46.823  31.987  27.487  1.00  0.00     0.198 A 
ATOM     92  F   UNL A   1      47.562  30.480  29.144  1.00  0.00    -0.203 F 
ATOM     93  F   UNL A   1      43.514  32.595  26.149  1.00  0.00    -0.200 F 
ATOM     94  C   UNL A   1      45.804  32.526  26.713  1.00  0.00     0.200 A 
ATOM     95  F   UNL A   1      48.063  32.485  27.390  1.00  0.00    -0.200 F 
ATOM     96  F   UNL A   1      46.061  33.524  25.856  1.00  0.00    -0.200 F 
ENDBRANCH  63  86
ENDBRANCH  37  38
ENDBRANCH  30  32
ENDBRANCH  29  30
ENDBRANCH  28  29
ENDBRANCH  27  28
ENDBRANCH  26  27
ENDBRANCH  25  26
ENDBRANCH   1  25
TORSDOF 21
ENDMDL
MODEL 3
REMARK VINA RESULT:     -11.0      1.288      2.323
REMARK SMILES CC(C)n1c([C@H](O)CC(=O)OCCOCCOCCOC(=O)c2ccc(-c3c4nc(c(-c5c(F)c(F)c(F)c(F)c5F)c5ccc([nH]5)c(-c5c(F)c(F)c(F)c(F)c5F)c5nc(c(-c6c(F)c(F)c(F)c(F)c6F)c6ccc3[nH]6)C=C5)C=C4)cc2)nc2cc(Cl)ccc21
REMARK SMILES IDX 15 1 14 2 13 3 12 4 11 5 9 6 10 7 8 8 6 9 5 10 4 11 93 12
REMARK SMILES IDX 86 13 87 14 92 15 88 16 91 17 89 18 90 19 2 20 1 21 3 22
REMARK SMILES IDX 7 23 16 25 17 26 18 27 19 28 20 29 21 30 22 31 23 32 24 33
REMARK SMILES IDX 85 34 25 35 84 36 26 37 27 38 28 39 78 40 29 41 83 42 77 43
REMARK SMILES IDX 79 44 30 45 82 46 76 47 75 48 31 50 63 51 43 52 62 53 44 54
REMARK SMILES IDX 47 55 61 56 80 57 45 58 46 59 60 61 81 62 48 63 32 64 33 65
REMARK SMILES IDX 41 66 34 67 35 68 39 69 42 70 36 71 37 72 40 73 38 74 64 75
REMARK SMILES IDX 65 76 73 77 66 78 67 79 71 80 74 81 68 82 69 83 72 84 70 85
REMARK SMILES IDX 49 86 50 87 58 88 51 89 52 90 56 91 59 92 53 93 54 94 57 95
REMARK SMILES IDX 55 96
REMARK H PARENT 7 24 79 49 47 60
REMARK Flexibility Score: inf
ROOT
ATOM      1  C   UNL A   1      34.376  23.682  23.137  1.00  0.00     0.188 C 
ENDROOT
BRANCH   1   2
ATOM      2  O   UNL A   1      33.084  23.468  23.664  1.00  0.00    -0.376 OA
BRANCH   2   3
ATOM      3  C   UNL A   1      32.916  22.506  24.692  1.00  0.00     0.202 C 
BRANCH   3   4
ATOM      4  C   UNL A   1      31.535  22.369  25.340  1.00  0.00     0.261 C 
BRANCH   4   5
ATOM      5  O   UNL A   1      30.705  23.528  25.102  1.00  0.00    -0.463 OA
BRANCH   5   6
ATOM      6  C   UNL A   1      30.707  24.436  26.108  1.00  0.00     0.308 C 
ATOM      7  O   UNL A   1      31.138  24.179  27.230  1.00  0.00    -0.252 OA
BRANCH   6   8
ATOM      8  C   UNL A   1      30.416  25.873  25.682  1.00  0.00     0.162 C 
BRANCH   8   9
ATOM      9  C   UNL A   1      31.006  26.571  24.439  1.00  0.00     0.191 C 
BRANCH   9  10
ATOM     10  C   UNL A   1      30.346  27.845  23.851  1.00  0.00     0.139 A 
ATOM     11  N   UNL A   1      30.483  29.135  24.348  1.00  0.00    -0.323 N 
ATOM     12  C   UNL A   1      29.615  29.986  23.704  1.00  0.00     0.069 A 
ATOM     13  N   UNL A   1      29.708  27.953  22.681  1.00  0.00    -0.230 NA
ATOM     14  C   UNL A   1      29.310  29.286  22.552  1.00  0.00     0.090 A 
ATOM     15  C   UNL A   1      29.377  31.350  23.919  1.00  0.00     0.030 A 
ATOM     16  C   UNL A   1      28.771  30.018  21.481  1.00  0.00     0.051 A 
ATOM     17  C   UNL A   1      28.859  32.061  22.847  1.00  0.00     0.023 A 
ATOM     18  C   UNL A   1      28.573  31.406  21.647  1.00  0.00     0.043 A 
ATOM     19  Cl  UNL A   1      28.006  32.354  20.325  1.00  0.00    -0.084 Cl
BRANCH  11  20
ATOM     20  C   UNL A   1      31.784  29.713  24.691  1.00  0.00     0.083 C 
ATOM     21  C   UNL A   1      31.749  29.921  26.203  1.00  0.00     0.031 C 
ATOM     22  C   UNL A   1      32.786  28.976  23.764  1.00  0.00     0.031 C 
ENDBRANCH  11  20
ENDBRANCH   9  10
BRANCH   9  23
ATOM     23  O   UNL A   1      31.143  25.647  23.371  1.00  0.00    -0.385 OA
ATOM     24  H   UNL A   1      30.520  25.875  22.665  1.00  0.00     0.211 HD
ENDBRANCH   9  23
ENDBRANCH   8   9
ENDBRANCH   6   8
ENDBRANCH   5   6
ENDBRANCH   4   5
ENDBRANCH   3   4
ENDBRANCH   2   3
ENDBRANCH   1   2
BRANCH   1  25
ATOM     25  C   UNL A   1      35.539  22.773  23.599  1.00  0.00     0.188 C 
BRANCH  25  26
ATOM     26  O   UNL A   1      36.408  23.180  24.622  1.00  0.00    -0.376 OA
BRANCH  26  27
ATOM     27  C   UNL A   1      36.586  22.232  25.659  1.00  0.00     0.202 C 
BRANCH  27  28
ATOM     28  C   UNL A   1      37.921  21.442  25.710  1.00  0.00     0.261 C 
BRANCH  28  29
ATOM     29  O   UNL A   1      39.119  22.256  25.534  1.00  0.00    -0.460 OA
BRANCH  29  30
ATOM     30  C   UNL A   1      40.048  22.235  26.554  1.00  0.00     0.338 C 
ATOM     31  O   UNL A   1      40.905  21.414  26.706  1.00  0.00    -0.246 OA
BRANCH  30  32
ATOM     32  C   UNL A   1      40.091  23.603  27.209  1.00  0.00     0.060 A 
ATOM     33  C   UNL A   1      39.213  24.652  26.917  1.00  0.00     0.016 A 
ATOM     34  C   UNL A   1      41.224  23.881  27.991  1.00  0.00     0.016 A 
ATOM     35  C   UNL A   1      39.517  25.977  27.321  1.00  0.00     0.010 A 
ATOM     36  C   UNL A   1      41.539  25.201  28.360  1.00  0.00     0.010 A 
ATOM     37  C   UNL A   1      40.709  26.280  28.004  1.00  0.00    -0.014 A 
BRANCH  37  38
ATOM     38  C   UNL A   1      40.908  27.579  28.711  1.00  0.00     0.031 A 
ATOM     39  C   UNL A   1      42.091  28.303  28.202  1.00  0.00     0.074 A 
ATOM     40  C   UNL A   1      40.218  28.237  29.682  1.00  0.00     0.049 A 
ATOM     41  N   UNL A   1      43.113  28.604  28.935  1.00  0.00    -0.248 NA
ATOM     42  C   UNL A   1      42.247  28.594  26.777  1.00  0.00     0.031 C 
ATOM     43  C   UNL A   1      39.194  27.742  30.594  1.00  0.00     0.029 A 
ATOM     44  N   UNL A   1      40.285  29.585  30.038  1.00  0.00    -0.354 N 
ATOM     45  C   UNL A   1      43.977  29.286  28.106  1.00  0.00     0.074 A 
ATOM     46  C   UNL A   1      43.477  29.113  26.764  1.00  0.00     0.031 C 
ATOM     47  C   UNL A   1      38.641  28.783  31.267  1.00  0.00     0.029 A 
ATOM     48  C   UNL A   1      39.202  30.040  30.795  1.00  0.00     0.049 A 
ATOM     49  H   UNL A   1      41.034  30.169  29.777  1.00  0.00     0.167 HD
ATOM     50  C   UNL A   1      44.898  30.138  28.622  1.00  0.00     0.037 A 
ATOM     51  C   UNL A   1      38.864  31.255  31.325  1.00  0.00     0.037 A 
ATOM     52  C   UNL A   1      45.172  29.872  30.015  1.00  0.00     0.049 A 
ATOM     53  C   UNL A   1      40.149  31.840  31.731  1.00  0.00     0.074 A 
ATOM     54  C   UNL A   1      45.573  28.751  30.723  1.00  0.00     0.029 A 
ATOM     55  N   UNL A   1      44.723  30.750  30.970  1.00  0.00    -0.354 N 
ATOM     56  N   UNL A   1      40.821  31.373  32.743  1.00  0.00    -0.248 NA
ATOM     57  C   UNL A   1      40.899  32.615  30.756  1.00  0.00     0.031 C 
ATOM     58  C   UNL A   1      44.890  28.820  31.972  1.00  0.00     0.029 A 
ATOM     59  C   UNL A   1      44.159  30.002  31.975  1.00  0.00     0.049 A 
ATOM     60  H   UNL A   1      44.793  31.731  30.942  1.00  0.00     0.167 HD
ATOM     61  C   UNL A   1      42.121  31.359  32.280  1.00  0.00     0.074 A 
ATOM     62  C   UNL A   1      42.127  32.223  31.101  1.00  0.00     0.031 C 
ATOM     63  C   UNL A   1      42.998  30.410  32.715  1.00  0.00     0.037 A 
BRANCH  50  64
ATOM     64  C   UNL A   1      45.298  31.395  27.909  1.00  0.00     0.064 A 
ATOM     65  C   UNL A   1      44.320  32.324  27.525  1.00  0.00     0.173 A 
ATOM     66  C   UNL A   1      46.592  31.609  27.383  1.00  0.00     0.173 A 
ATOM     67  F   UNL A   1      43.044  32.169  27.910  1.00  0.00    -0.203 F 
ATOM     68  C   UNL A   1      44.618  33.388  26.670  1.00  0.00     0.198 A 
ATOM     69  C   UNL A   1      46.902  32.707  26.588  1.00  0.00     0.198 A 
ATOM     70  F   UNL A   1      47.575  30.711  27.527  1.00  0.00    -0.203 F 
ATOM     71  F   UNL A   1      43.634  34.192  26.245  1.00  0.00    -0.200 F 
ATOM     72  C   UNL A   1      45.909  33.586  26.213  1.00  0.00     0.200 A 
ATOM     73  F   UNL A   1      48.153  32.860  26.132  1.00  0.00    -0.200 F 
ATOM     74  F   UNL A   1      46.187  34.587  25.369  1.00  0.00    -0.200 F 
ENDBRANCH  50  64
BRANCH  51  75
ATOM     75  C   UNL A   1      37.787  32.175  30.801  1.00  0.00     0.064 A 
ATOM     76  C   UNL A   1      37.462  32.189  29.433  1.00  0.00     0.173 A 
ATOM     77  C   UNL A   1      36.939  32.940  31.628  1.00  0.00     0.173 A 
ATOM     78  F   UNL A   1      38.146  31.417  28.577  1.00  0.00    -0.203 F 
ATOM     79  C   UNL A   1      36.404  32.963  28.922  1.00  0.00     0.198 A 
ATOM     80  C   UNL A   1      35.913  33.747  31.117  1.00  0.00     0.198 A 
ATOM     81  F   UNL A   1      37.033  32.847  32.962  1.00  0.00    -0.203 F 
ATOM     82  F   UNL A   1      36.104  32.914  27.616  1.00  0.00    -0.200 F 
ATOM     83  C   UNL A   1      35.645  33.759  29.762  1.00  0.00     0.200 A 
ATOM     84  F   UNL A   1      35.160  34.479  31.950  1.00  0.00    -0.200 F 
ATOM     85  F   UNL A   1      34.639  34.501  29.276  1.00  0.00    -0.200 F 
ENDBRANCH  51  75
BRANCH  63  86
ATOM     86  C   UNL A   1      42.553  29.538  33.856  1.00  0.00     0.064 A 
ATOM     87  C   UNL A   1      41.916  28.303  33.659  1.00  0.00     0.173 A 
ATOM     88  C   UNL A   1      42.896  29.872  35.167  1.00  0.00     0.173 A 
ATOM     89  F   UNL A   1      41.707  27.851  32.423  1.00  0.00    -0.203 F 
ATOM     90  C   UNL A   1      41.576  27.467  34.719  1.00  0.00     0.198 A 
ATOM     91  C   UNL A   1      42.604  29.014  36.228  1.00  0.00     0.198 A 
ATOM     92  F   UNL A   1      43.573  31.004  35.412  1.00  0.00    -0.203 F 
ATOM     93  F   UNL A   1      40.955  26.300  34.489  1.00  0.00    -0.200 F 
ATOM     94  C   UNL A   1      41.930  27.820  36.007  1.00  0.00     0.200 A 
ATOM     95  F   UNL A   1      43.010  29.326  37.466  1.00  0.00    -0.200 F 
ATOM     96  F   UNL A   1      41.666  26.993  37.029  1.00  0.00    -0.200 F 
ENDBRANCH  63  86
ENDBRANCH  37  38
ENDBRANCH  30  32
ENDBRANCH  29  30
ENDBRANCH  28  29
ENDBRANCH  27  28
ENDBRANCH  26  27
ENDBRANCH  25  26
ENDBRANCH   1  25
TORSDOF 21
ENDMDL
