MODEL 1
REMARK VINA RESULT:     -13.0      0.000      0.000
REMARK SMILES COC(=O)c1ccc(C)c(NC(=O)[C@H]2CC=CC[C@H]2C(=O)OCCOCCOCCOC(=O)c2ccc(-c3c4nc(c(-c5c(F)c(F)c(F)c(F)c5F)c5ccc([nH]5)c(-c5c(F)c(F)c(F)c(F)c5F)c5nc(c(-c6c(F)c(F)c(F)c(F)c6F)c6ccc3[nH]6)C=C5)C=C4)cc2)c1
REMARK SMILES IDX 26 1 25 2 24 3 23 4 22 5 20 6 21 7 19 8 14 9 15 10 16 11
REMARK SMILES IDX 18 12 17 13 12 14 11 15 13 17 10 18 5 19 6 20 97 21 7 22
REMARK SMILES IDX 8 23 9 24 3 25 4 26 2 27 1 28 27 29 28 30 29 31 30 32 31 33
REMARK SMILES IDX 32 34 33 35 34 36 35 37 96 38 36 39 95 40 37 41 38 42 39 43
REMARK SMILES IDX 89 44 40 45 94 46 88 47 90 48 41 49 93 50 87 51 86 52 42 54
REMARK SMILES IDX 74 55 54 56 73 57 55 58 58 59 72 60 91 61 56 62 57 63 71 65
REMARK SMILES IDX 92 66 59 67 43 68 44 69 52 70 45 71 46 72 50 73 53 74 47 75
REMARK SMILES IDX 48 76 51 77 49 78 75 79 76 80 84 81 77 82 78 83 82 84 85 85
REMARK SMILES IDX 79 86 80 87 83 88 81 89 60 90 61 91 69 92 62 93 63 94 67 95
REMARK SMILES IDX 70 96 64 97 65 98 68 99 66 100
REMARK H PARENT 11 16 90 53 58 64
REMARK Flexibility Score: inf
ROOT
ATOM      1  C   UNL A   1      34.160  32.448  28.376  1.00  0.00     0.188 C 
ENDROOT
BRANCH   1   2
ATOM      2  O   UNL A   1      33.269  31.451  27.950  1.00  0.00    -0.376 OA
BRANCH   2   3
ATOM      3  C   UNL A   1      32.518  31.718  26.773  1.00  0.00     0.202 C 
BRANCH   3   4
ATOM      4  C   UNL A   1      31.678  30.526  26.063  1.00  0.00     0.261 C 
BRANCH   4   5
ATOM      5  O   UNL A   1      31.490  28.874  26.123  1.00  0.00    -0.463 OA
BRANCH   5   6
ATOM      6  C   UNL A   1      31.661  27.732  26.942  1.00  0.00     0.310 C 
ATOM      7  O   UNL A   1      31.319  27.914  28.117  1.00  0.00    -0.252 OA
BRANCH   6   8
ATOM      8  C   UNL A   1      31.929  26.110  26.527  1.00  0.00     0.116 C 
ATOM      9  C   UNL A   1      31.036  24.834  25.956  1.00  0.00     0.097 C 
ATOM     10  C   UNL A   1      31.796  23.537  26.389  1.00  0.00     0.041 C 
ATOM     11  C   UNL A   1      33.267  23.552  26.074  1.00  0.00    -0.030 C 
ATOM     12  C   UNL A   1      33.322  26.044  25.805  1.00  0.00     0.043 C 
ATOM     13  C   UNL A   1      33.938  24.671  25.774  1.00  0.00    -0.030 C 
BRANCH   9  14
ATOM     14  C   UNL A   1      30.823  24.579  24.411  1.00  0.00     0.228 C 
ATOM     15  N   UNL A   1      30.648  25.478  23.391  1.00  0.00    -0.326 N 
ATOM     16  H   UNL A   1      30.514  24.983  22.551  1.00  0.00     0.169 HD
ATOM     17  O   UNL A   1      30.772  23.414  23.986  1.00  0.00    -0.274 OA
BRANCH  15  18
ATOM     18  C   UNL A   1      30.590  26.866  23.121  1.00  0.00     0.044 A 
ATOM     19  C   UNL A   1      29.014  28.774  22.981  1.00  0.00     0.062 A 
ATOM     20  C   UNL A   1      30.013  29.561  22.420  1.00  0.00     0.016 A 
ATOM     21  C   UNL A   1      29.325  27.458  23.382  1.00  0.00     0.042 A 
ATOM     22  C   UNL A   1      31.293  29.030  22.262  1.00  0.00     0.006 A 
ATOM     23  C   UNL A   1      31.601  27.691  22.616  1.00  0.00    -0.027 A 
ATOM     24  C   UNL A   1      33.019  27.259  22.430  1.00  0.00     0.046 C 
BRANCH  19  25
ATOM     25  C   UNL A   1      27.622  29.308  22.990  1.00  0.00     0.337 C 
ATOM     26  O   UNL A   1      26.640  28.669  23.361  1.00  0.00    -0.246 OA
BRANCH  25  27
ATOM     27  O   UNL A   1      27.605  30.568  22.506  1.00  0.00    -0.465 OA
ATOM     28  C   UNL A   1      27.644  31.592  23.501  1.00  0.00     0.282 C 
ENDBRANCH  25  27
ENDBRANCH  19  25
ENDBRANCH  15  18
ENDBRANCH   9  14
ENDBRANCH   6   8
ENDBRANCH   5   6
ENDBRANCH   4   5
ENDBRANCH   3   4
ENDBRANCH   2   3
ENDBRANCH   1   2
BRANCH   1  29
ATOM     29  C   UNL A   1      33.854  33.891  27.981  1.00  0.00     0.188 C 
BRANCH  29  30
ATOM     30  O   UNL A   1      32.706  34.476  28.590  1.00  0.00    -0.376 OA
BRANCH  30  31
ATOM     31  C   UNL A   1      32.942  35.842  28.976  1.00  0.00     0.202 C 
BRANCH  31  32
ATOM     32  C   UNL A   1      32.487  36.130  30.415  1.00  0.00     0.261 C 
BRANCH  32  33
ATOM     33  O   UNL A   1      33.630  36.476  31.202  1.00  0.00    -0.460 OA
BRANCH  33  34
ATOM     34  C   UNL A   1      33.853  35.614  32.211  1.00  0.00     0.338 C 
ATOM     35  O   UNL A   1      33.512  35.755  33.374  1.00  0.00    -0.246 OA
BRANCH  34  36
ATOM     36  C   UNL A   1      34.708  34.516  31.709  1.00  0.00     0.060 A 
ATOM     37  C   UNL A   1      34.464  33.275  32.209  1.00  0.00     0.016 A 
ATOM     38  C   UNL A   1      35.829  34.679  30.872  1.00  0.00     0.016 A 
ATOM     39  C   UNL A   1      35.443  32.299  31.988  1.00  0.00     0.010 A 
ATOM     40  C   UNL A   1      36.805  33.677  30.701  1.00  0.00     0.010 A 
ATOM     41  C   UNL A   1      36.702  32.477  31.381  1.00  0.00    -0.014 A 
BRANCH  41  42
ATOM     42  C   UNL A   1      37.985  31.695  31.603  1.00  0.00     0.031 A 
ATOM     43  C   UNL A   1      38.275  30.469  30.831  1.00  0.00     0.074 A 
ATOM     44  C   UNL A   1      39.072  32.064  32.353  1.00  0.00     0.049 A 
ATOM     45  N   UNL A   1      39.158  29.584  31.194  1.00  0.00    -0.248 NA
ATOM     46  C   UNL A   1      37.463  30.059  29.699  1.00  0.00     0.031 C 
ATOM     47  C   UNL A   1      40.482  31.989  31.949  1.00  0.00     0.029 A 
ATOM     48  N   UNL A   1      39.185  32.503  33.660  1.00  0.00    -0.354 N 
ATOM     49  C   UNL A   1      39.215  28.671  30.176  1.00  0.00     0.074 A 
ATOM     50  C   UNL A   1      37.955  28.832  29.508  1.00  0.00     0.031 C 
ATOM     51  C   UNL A   1      41.282  32.392  32.958  1.00  0.00     0.029 A 
ATOM     52  C   UNL A   1      40.477  32.644  34.146  1.00  0.00     0.049 A 
ATOM     53  H   UNL A   1      38.395  32.703  34.213  1.00  0.00     0.167 HD
ATOM     54  C   UNL A   1      40.405  28.097  29.831  1.00  0.00     0.037 A 
ATOM     55  C   UNL A   1      40.810  32.622  35.474  1.00  0.00     0.037 A 
ATOM     56  C   UNL A   1      41.470  28.440  30.794  1.00  0.00     0.049 A 
ATOM     57  C   UNL A   1      41.635  31.395  35.671  1.00  0.00     0.074 A 
ATOM     58  C   UNL A   1      42.553  29.302  30.701  1.00  0.00     0.029 A 
ATOM     59  N   UNL A   1      41.386  28.079  32.145  1.00  0.00    -0.354 N 
ATOM     60  N   UNL A   1      41.780  30.538  34.707  1.00  0.00    -0.248 NA
ATOM     61  C   UNL A   1      42.280  30.974  36.905  1.00  0.00     0.031 C 
ATOM     62  C   UNL A   1      43.108  29.468  31.993  1.00  0.00     0.029 A 
ATOM     63  C   UNL A   1      42.404  28.671  32.882  1.00  0.00     0.049 A 
ATOM     64  H   UNL A   1      40.697  27.485  32.523  1.00  0.00     0.167 HD
ATOM     65  C   UNL A   1      42.448  29.457  35.150  1.00  0.00     0.074 A 
ATOM     66  C   UNL A   1      42.770  29.777  36.532  1.00  0.00     0.031 C 
ATOM     67  C   UNL A   1      42.617  28.403  34.309  1.00  0.00     0.037 A 
BRANCH  54  68
ATOM     68  C   UNL A   1      40.691  27.512  28.435  1.00  0.00     0.064 A 
ATOM     69  C   UNL A   1      40.304  26.186  28.128  1.00  0.00     0.173 A 
ATOM     70  C   UNL A   1      41.403  28.138  27.381  1.00  0.00     0.173 A 
ATOM     71  F   UNL A   1      39.585  25.454  28.987  1.00  0.00    -0.203 F 
ATOM     72  C   UNL A   1      40.645  25.549  26.923  1.00  0.00     0.198 A 
ATOM     73  C   UNL A   1      41.731  27.509  26.177  1.00  0.00     0.198 A 
ATOM     74  F   UNL A   1      41.841  29.394  27.432  1.00  0.00    -0.203 F 
ATOM     75  F   UNL A   1      40.281  24.275  26.717  1.00  0.00    -0.200 F 
ATOM     76  C   UNL A   1      41.362  26.210  25.948  1.00  0.00     0.200 A 
ATOM     77  F   UNL A   1      42.424  28.186  25.249  1.00  0.00    -0.200 F 
ATOM     78  F   UNL A   1      41.693  25.605  24.800  1.00  0.00    -0.200 F 
ENDBRANCH  54  68
BRANCH  55  79
ATOM     79  C   UNL A   1      39.838  33.158  36.491  1.00  0.00     0.064 A 
ATOM     80  C   UNL A   1      38.889  32.294  37.071  1.00  0.00     0.173 A 
ATOM     81  C   UNL A   1      39.970  34.412  37.098  1.00  0.00     0.173 A 
ATOM     82  F   UNL A   1      38.598  31.127  36.475  1.00  0.00    -0.203 F 
ATOM     83  C   UNL A   1      38.278  32.585  38.300  1.00  0.00     0.198 A 
ATOM     84  C   UNL A   1      39.417  34.676  38.361  1.00  0.00     0.198 A 
ATOM     85  F   UNL A   1      40.683  35.375  36.500  1.00  0.00    -0.203 F 
ATOM     86  F   UNL A   1      37.428  31.713  38.863  1.00  0.00    -0.200 F 
ATOM     87  C   UNL A   1      38.614  33.737  38.984  1.00  0.00     0.200 A 
ATOM     88  F   UNL A   1      39.726  35.810  39.009  1.00  0.00    -0.200 F 
ATOM     89  F   UNL A   1      38.183  33.932  40.240  1.00  0.00    -0.200 F 
ENDBRANCH  55  79
BRANCH  67  90
ATOM     90  C   UNL A   1      43.152  27.092  34.765  1.00  0.00     0.064 A 
ATOM     91  C   UNL A   1      44.510  26.867  35.042  1.00  0.00     0.173 A 
ATOM     92  C   UNL A   1      42.268  26.031  35.035  1.00  0.00     0.173 A 
ATOM     93  F   UNL A   1      45.419  27.846  34.928  1.00  0.00    -0.203 F 
ATOM     94  C   UNL A   1      44.964  25.629  35.486  1.00  0.00     0.198 A 
ATOM     95  C   UNL A   1      42.717  24.817  35.535  1.00  0.00     0.198 A 
ATOM     96  F   UNL A   1      40.948  26.151  34.830  1.00  0.00    -0.203 F 
ATOM     97  F   UNL A   1      46.275  25.436  35.682  1.00  0.00    -0.200 F 
ATOM     98  C   UNL A   1      44.068  24.608  35.741  1.00  0.00     0.200 A 
ATOM     99  F   UNL A   1      41.834  23.851  35.825  1.00  0.00    -0.200 F 
ATOM    100  F   UNL A   1      44.502  23.429  36.202  1.00  0.00    -0.200 F 
ENDBRANCH  67  90
ENDBRANCH  41  42
ENDBRANCH  34  36
ENDBRANCH  33  34
ENDBRANCH  32  33
ENDBRANCH  31  32
ENDBRANCH  30  31
ENDBRANCH  29  30
ENDBRANCH   1  29
TORSDOF 21
ENDMDL
MODEL 2
REMARK VINA RESULT:     -12.5      3.920      9.390
REMARK SMILES COC(=O)c1ccc(C)c(NC(=O)[C@H]2CC=CC[C@H]2C(=O)OCCOCCOCCOC(=O)c2ccc(-c3c4nc(c(-c5c(F)c(F)c(F)c(F)c5F)c5ccc([nH]5)c(-c5c(F)c(F)c(F)c(F)c5F)c5nc(c(-c6c(F)c(F)c(F)c(F)c6F)c6ccc3[nH]6)C=C5)C=C4)cc2)c1
REMARK SMILES IDX 26 1 25 2 24 3 23 4 22 5 20 6 21 7 19 8 14 9 15 10 16 11
REMARK SMILES IDX 18 12 17 13 12 14 11 15 13 17 10 18 5 19 6 20 97 21 7 22
REMARK SMILES IDX 8 23 9 24 3 25 4 26 2 27 1 28 27 29 28 30 29 31 30 32 31 33
REMARK SMILES IDX 32 34 33 35 34 36 35 37 96 38 36 39 95 40 37 41 38 42 39 43
REMARK SMILES IDX 89 44 40 45 94 46 88 47 90 48 41 49 93 50 87 51 86 52 42 54
REMARK SMILES IDX 74 55 54 56 73 57 55 58 58 59 72 60 91 61 56 62 57 63 71 65
REMARK SMILES IDX 92 66 59 67 43 68 44 69 52 70 45 71 46 72 50 73 53 74 47 75
REMARK SMILES IDX 48 76 51 77 49 78 75 79 76 80 84 81 77 82 78 83 82 84 85 85
REMARK SMILES IDX 79 86 80 87 83 88 81 89 60 90 61 91 69 92 62 93 63 94 67 95
REMARK SMILES IDX 70 96 64 97 65 98 68 99 66 100
REMARK H PARENT 11 16 90 53 58 64
REMARK Flexibility Score: inf
ROOT
ATOM      1  C   UNL A   1      40.809  20.926  26.512  1.00  0.00     0.188 C 
ENDROOT
BRANCH   1   2
ATOM      2  O   UNL A   1      39.594  21.547  26.187  1.00  0.00    -0.376 OA
BRANCH   2   3
ATOM      3  C   UNL A   1      39.410  22.882  26.642  1.00  0.00     0.202 C 
BRANCH   3   4
ATOM      4  C   UNL A   1      38.050  23.683  26.267  1.00  0.00     0.261 C 
BRANCH   4   5
ATOM      5  O   UNL A   1      36.588  23.448  25.509  1.00  0.00    -0.463 OA
BRANCH   5   6
ATOM      6  C   UNL A   1      35.919  23.526  24.264  1.00  0.00     0.310 C 
ATOM      7  O   UNL A   1      36.094  22.530  23.549  1.00  0.00    -0.252 OA
BRANCH   6   8
ATOM      8  C   UNL A   1      34.688  24.565  23.738  1.00  0.00     0.116 C 
ATOM      9  C   UNL A   1      33.434  24.520  22.653  1.00  0.00     0.097 C 
ATOM     10  C   UNL A   1      33.121  26.007  22.280  1.00  0.00     0.041 C 
ATOM     11  C   UNL A   1      32.981  26.923  23.466  1.00  0.00    -0.030 C 
ATOM     12  C   UNL A   1      34.161  25.332  25.004  1.00  0.00     0.043 C 
ATOM     13  C   UNL A   1      33.413  26.600  24.692  1.00  0.00    -0.030 C 
BRANCH   9  14
ATOM     14  C   UNL A   1      32.001  23.981  23.045  1.00  0.00     0.228 C 
ATOM     15  N   UNL A   1      31.646  22.818  23.677  1.00  0.00    -0.326 N 
ATOM     16  H   UNL A   1      30.665  22.777  23.741  1.00  0.00     0.169 HD
ATOM     17  O   UNL A   1      30.996  24.644  22.744  1.00  0.00    -0.274 OA
BRANCH  15  18
ATOM     18  C   UNL A   1      32.193  21.655  24.271  1.00  0.00     0.044 A 
ATOM     19  C   UNL A   1      32.684  19.267  23.820  1.00  0.00     0.062 A 
ATOM     20  C   UNL A   1      32.981  19.073  25.164  1.00  0.00     0.016 A 
ATOM     21  C   UNL A   1      32.353  20.564  23.374  1.00  0.00     0.042 A 
ATOM     22  C   UNL A   1      32.939  20.159  26.037  1.00  0.00     0.006 A 
ATOM     23  C   UNL A   1      32.558  21.457  25.607  1.00  0.00    -0.027 A 
ATOM     24  C   UNL A   1      32.591  22.539  26.636  1.00  0.00     0.046 C 
BRANCH  19  25
ATOM     25  C   UNL A   1      32.580  18.066  22.944  1.00  0.00     0.337 C 
ATOM     26  O   UNL A   1      32.178  18.093  21.782  1.00  0.00    -0.246 OA
BRANCH  25  27
ATOM     27  O   UNL A   1      32.956  16.962  23.622  1.00  0.00    -0.465 OA
ATOM     28  C   UNL A   1      34.267  16.487  23.314  1.00  0.00     0.282 C 
ENDBRANCH  25  27
ENDBRANCH  19  25
ENDBRANCH  15  18
ENDBRANCH   9  14
ENDBRANCH   6   8
ENDBRANCH   5   6
ENDBRANCH   4   5
ENDBRANCH   3   4
ENDBRANCH   2   3
ENDBRANCH   1   2
BRANCH   1  29
ATOM     29  C   UNL A   1      42.099  21.597  26.043  1.00  0.00     0.188 C 
BRANCH  29  30
ATOM     30  O   UNL A   1      42.760  22.420  27.000  1.00  0.00    -0.376 OA
BRANCH  30  31
ATOM     31  C   UNL A   1      43.727  23.289  26.383  1.00  0.00     0.202 C 
BRANCH  31  32
ATOM     32  C   UNL A   1      43.526  24.760  26.778  1.00  0.00     0.261 C 
BRANCH  32  33
ATOM     33  O   UNL A   1      42.125  25.045  26.807  1.00  0.00    -0.460 OA
BRANCH  33  34
ATOM     34  C   UNL A   1      41.779  26.060  25.994  1.00  0.00     0.338 C 
ATOM     35  O   UNL A   1      42.226  26.282  24.880  1.00  0.00    -0.246 OA
BRANCH  34  36
ATOM     36  C   UNL A   1      40.857  26.955  26.727  1.00  0.00     0.060 A 
ATOM     37  C   UNL A   1      41.067  28.291  26.591  1.00  0.00     0.016 A 
ATOM     38  C   UNL A   1      39.883  26.533  27.652  1.00  0.00     0.016 A 
ATOM     39  C   UNL A   1      40.417  29.131  27.503  1.00  0.00     0.010 A 
ATOM     40  C   UNL A   1      39.274  27.411  28.572  1.00  0.00     0.010 A 
ATOM     41  C   UNL A   1      39.636  28.745  28.610  1.00  0.00    -0.014 A 
BRANCH  41  42
ATOM     42  C   UNL A   1      39.395  29.491  29.911  1.00  0.00     0.031 A 
ATOM     43  C   UNL A   1      38.713  30.802  29.925  1.00  0.00     0.074 A 
ATOM     44  C   UNL A   1      39.583  29.030  31.189  1.00  0.00     0.049 A 
ATOM     45  N   UNL A   1      38.775  31.633  30.923  1.00  0.00    -0.248 NA
ATOM     46  C   UNL A   1      38.070  31.350  28.743  1.00  0.00     0.031 C 
ATOM     47  C   UNL A   1      38.645  29.151  32.311  1.00  0.00     0.029 A 
ATOM     48  N   UNL A   1      40.670  28.434  31.804  1.00  0.00    -0.354 N 
ATOM     49  C   UNL A   1      37.932  32.665  30.607  1.00  0.00     0.074 A 
ATOM     50  C   UNL A   1      37.830  32.589  29.178  1.00  0.00     0.031 C 
ATOM     51  C   UNL A   1      39.183  28.625  33.432  1.00  0.00     0.029 A 
ATOM     52  C   UNL A   1      40.561  28.232  33.172  1.00  0.00     0.049 A 
ATOM     53  H   UNL A   1      41.474  28.169  31.299  1.00  0.00     0.167 HD
ATOM     54  C   UNL A   1      37.193  33.274  31.580  1.00  0.00     0.037 A 
ATOM     55  C   UNL A   1      41.626  28.090  34.019  1.00  0.00     0.037 A 
ATOM     56  C   UNL A   1      37.587  32.812  32.927  1.00  0.00     0.049 A 
ATOM     57  C   UNL A   1      41.601  29.281  34.916  1.00  0.00     0.074 A 
ATOM     58  C   UNL A   1      36.960  31.966  33.829  1.00  0.00     0.029 A 
ATOM     59  N   UNL A   1      38.883  33.005  33.422  1.00  0.00    -0.354 N 
ATOM     60  N   UNL A   1      40.764  30.250  34.699  1.00  0.00    -0.248 NA
ATOM     61  C   UNL A   1      42.497  29.546  36.031  1.00  0.00     0.031 C 
ATOM     62  C   UNL A   1      37.881  31.642  34.855  1.00  0.00     0.029 A 
ATOM     63  C   UNL A   1      39.063  32.325  34.619  1.00  0.00     0.049 A 
ATOM     64  H   UNL A   1      39.575  33.550  32.980  1.00  0.00     0.167 HD
ATOM     65  C   UNL A   1      41.009  31.266  35.546  1.00  0.00     0.074 A 
ATOM     66  C   UNL A   1      42.090  30.779  36.388  1.00  0.00     0.031 C 
ATOM     67  C   UNL A   1      40.296  32.415  35.411  1.00  0.00     0.037 A 
BRANCH  54  68
ATOM     68  C   UNL A   1      35.877  34.025  31.301  1.00  0.00     0.064 A 
ATOM     69  C   UNL A   1      35.393  34.978  32.229  1.00  0.00     0.173 A 
ATOM     70  C   UNL A   1      34.995  33.818  30.210  1.00  0.00     0.173 A 
ATOM     71  F   UNL A   1      36.113  35.334  33.300  1.00  0.00    -0.203 F 
ATOM     72  C   UNL A   1      34.142  35.604  32.100  1.00  0.00     0.198 A 
ATOM     73  C   UNL A   1      33.757  34.451  30.075  1.00  0.00     0.198 A 
ATOM     74  F   UNL A   1      35.254  32.991  29.201  1.00  0.00    -0.203 F 
ATOM     75  F   UNL A   1      33.729  36.466  33.040  1.00  0.00    -0.200 F 
ATOM     76  C   UNL A   1      33.322  35.338  31.024  1.00  0.00     0.200 A 
ATOM     77  F   UNL A   1      32.989  34.172  29.011  1.00  0.00    -0.200 F 
ATOM     78  F   UNL A   1      32.127  35.930  30.899  1.00  0.00    -0.200 F 
ENDBRANCH  54  68
BRANCH  55  79
ATOM     79  C   UNL A   1      42.888  27.436  33.521  1.00  0.00     0.064 A 
ATOM     80  C   UNL A   1      43.160  26.097  33.861  1.00  0.00     0.173 A 
ATOM     81  C   UNL A   1      43.702  27.987  32.525  1.00  0.00     0.173 A 
ATOM     82  F   UNL A   1      42.523  25.531  34.899  1.00  0.00    -0.203 F 
ATOM     83  C   UNL A   1      44.036  25.305  33.104  1.00  0.00     0.198 A 
ATOM     84  C   UNL A   1      44.523  27.181  31.721  1.00  0.00     0.198 A 
ATOM     85  F   UNL A   1      43.665  29.304  32.281  1.00  0.00    -0.203 F 
ATOM     86  F   UNL A   1      44.225  24.013  33.411  1.00  0.00    -0.200 F 
ATOM     87  C   UNL A   1      44.647  25.828  31.982  1.00  0.00     0.200 A 
ATOM     88  F   UNL A   1      45.135  27.702  30.647  1.00  0.00    -0.200 F 
ATOM     89  F   UNL A   1      45.332  25.031  31.147  1.00  0.00    -0.200 F 
ENDBRANCH  55  79
BRANCH  67  90
ATOM     90  C   UNL A   1      40.633  33.659  36.154  1.00  0.00     0.064 A 
ATOM     91  C   UNL A   1      41.678  34.520  35.783  1.00  0.00     0.173 A 
ATOM     92  C   UNL A   1      39.824  34.074  37.229  1.00  0.00     0.173 A 
ATOM     93  F   UNL A   1      42.437  34.276  34.704  1.00  0.00    -0.203 F 
ATOM     94  C   UNL A   1      41.946  35.685  36.495  1.00  0.00     0.198 A 
ATOM     95  C   UNL A   1      40.057  35.267  37.899  1.00  0.00     0.198 A 
ATOM     96  F   UNL A   1      38.784  33.337  37.646  1.00  0.00    -0.203 F 
ATOM     97  F   UNL A   1      42.989  36.450  36.147  1.00  0.00    -0.200 F 
ATOM     98  C   UNL A   1      41.130  36.063  37.545  1.00  0.00     0.200 A 
ATOM     99  F   UNL A   1      39.231  35.646  38.883  1.00  0.00    -0.200 F 
ATOM    100  F   UNL A   1      41.368  37.202  38.208  1.00  0.00    -0.200 F 
ENDBRANCH  67  90
ENDBRANCH  41  42
ENDBRANCH  34  36
ENDBRANCH  33  34
ENDBRANCH  32  33
ENDBRANCH  31  32
ENDBRANCH  30  31
ENDBRANCH  29  30
ENDBRANCH   1  29
TORSDOF 21
ENDMDL
MODEL 3
REMARK VINA RESULT:     -12.0      3.499      9.012
REMARK SMILES COC(=O)c1ccc(C)c(NC(=O)[C@H]2CC=CC[C@H]2C(=O)OCCOCCOCCOC(=O)c2ccc(-c3c4nc(c(-c5c(F)c(F)c(F)c(F)c5F)c5ccc([nH]5)c(-c5c(F)c(F)c(F)c(F)c5F)c5nc(c(-c6c(F)c(F)c(F)c(F)c6F)c6ccc3[nH]6)C=C5)C=C4)cc2)c1
REMARK SMILES IDX 26 1 25 2 24 3 23 4 22 5 20 6 21 7 19 8 14 9 15 10 16 11
REMARK SMILES IDX 18 12 17 13 12 14 11 15 13 17 10 18 5 19 6 20 97 21 7 22
REMARK SMILES IDX 8 23 9 24 3 25 4 26 2 27 1 28 27 29 28 30 29 31 30 32 31 33
REMARK SMILES IDX 32 34 33 35 34 36 35 37 96 38 36 39 95 40 37 41 38 42 39 43
REMARK SMILES IDX 89 44 40 45 94 46 88 47 90 48 41 49 93 50 87 51 86 52 42 54
REMARK SMILES IDX 74 55 54 56 73 57 55 58 58 59 72 60 91 61 56 62 57 63 71 65
REMARK SMILES IDX 92 66 59 67 43 68 44 69 52 70 45 71 46 72 50 73 53 74 47 75
REMARK SMILES IDX 48 76 51 77 49 78 75 79 76 80 84 81 77 82 78 83 82 84 85 85
REMARK SMILES IDX 79 86 80 87 83 88 81 89 60 90 61 91 69 92 62 93 63 94 67 95
REMARK SMILES IDX 70 96 64 97 65 98 68 99 66 100
REMARK H PARENT 11 16 90 53 58 64
REMARK Flexibility Score: inf
ROOT
ATOM      1  C   UNL A   1      37.959  21.691  25.019  1.00  0.00     0.188 C 
ENDROOT
BRANCH   1   2
ATOM      2  O   UNL A   1      37.101  22.782  24.820  1.00  0.00    -0.376 OA
BRANCH   2   3
ATOM      3  C   UNL A   1      36.388  22.825  23.589  1.00  0.00     0.202 C 
BRANCH   3   4
ATOM      4  C   UNL A   1      34.974  23.615  23.502  1.00  0.00     0.261 C 
BRANCH   4   5
ATOM      5  O   UNL A   1      34.242  24.850  22.662  1.00  0.00    -0.463 OA
BRANCH   5   6
ATOM      6  C   UNL A   1      33.754  26.174  22.768  1.00  0.00     0.310 C 
ATOM      7  O   UNL A   1      33.632  26.742  21.675  1.00  0.00    -0.252 OA
BRANCH   6   8
ATOM      8  C   UNL A   1      33.013  26.973  24.066  1.00  0.00     0.116 C 
ATOM      9  C   UNL A   1      31.495  27.077  24.729  1.00  0.00     0.097 C 
ATOM     10  C   UNL A   1      31.445  28.437  25.501  1.00  0.00     0.041 C 
ATOM     11  C   UNL A   1      32.619  28.671  26.412  1.00  0.00    -0.030 C 
ATOM     12  C   UNL A   1      34.027  26.943  25.265  1.00  0.00     0.043 C 
ATOM     13  C   UNL A   1      33.758  27.973  26.329  1.00  0.00    -0.030 C 
BRANCH   9  14
ATOM     14  C   UNL A   1      30.987  26.065  25.831  1.00  0.00     0.228 C 
ATOM     15  N   UNL A   1      30.924  24.696  25.800  1.00  0.00    -0.326 N 
ATOM     16  H   UNL A   1      30.528  24.377  26.643  1.00  0.00     0.169 HD
ATOM     17  O   UNL A   1      30.540  26.503  26.903  1.00  0.00    -0.274 OA
BRANCH  15  18
ATOM     18  C   UNL A   1      31.226  23.580  24.983  1.00  0.00     0.044 A 
ATOM     19  C   UNL A   1      32.357  21.375  25.016  1.00  0.00     0.062 A 
ATOM     20  C   UNL A   1      32.233  21.289  23.634  1.00  0.00     0.016 A 
ATOM     21  C   UNL A   1      31.801  22.486  25.684  1.00  0.00     0.042 A 
ATOM     22  C   UNL A   1      31.570  22.302  22.944  1.00  0.00     0.006 A 
ATOM     23  C   UNL A   1      31.052  23.447  23.602  1.00  0.00    -0.027 A 
ATOM     24  C   UNL A   1      30.330  24.440  22.749  1.00  0.00     0.046 C 
BRANCH  19  25
ATOM     25  C   UNL A   1      33.207  20.365  25.709  1.00  0.00     0.337 C 
ATOM     26  O   UNL A   1      32.800  19.273  26.101  1.00  0.00    -0.246 OA
BRANCH  25  27
ATOM     27  O   UNL A   1      34.461  20.840  25.864  1.00  0.00    -0.465 OA
ATOM     28  C   UNL A   1      34.716  21.455  27.127  1.00  0.00     0.282 C 
ENDBRANCH  25  27
ENDBRANCH  19  25
ENDBRANCH  15  18
ENDBRANCH   9  14
ENDBRANCH   6   8
ENDBRANCH   5   6
ENDBRANCH   4   5
ENDBRANCH   3   4
ENDBRANCH   2   3
ENDBRANCH   1   2
BRANCH   1  29
ATOM     29  C   UNL A   1      39.011  21.805  26.122  1.00  0.00     0.188 C 
BRANCH  29  30
ATOM     30  O   UNL A   1      40.348  21.488  25.746  1.00  0.00    -0.376 OA
BRANCH  30  31
ATOM     31  C   UNL A   1      41.272  22.523  26.129  1.00  0.00     0.202 C 
BRANCH  31  32
ATOM     32  C   UNL A   1      40.566  23.726  26.772  1.00  0.00     0.261 C 
BRANCH  32  33
ATOM     33  O   UNL A   1      41.524  24.768  26.980  1.00  0.00    -0.460 OA
BRANCH  33  34
ATOM     34  C   UNL A   1      41.375  25.797  26.125  1.00  0.00     0.338 C 
ATOM     35  O   UNL A   1      41.893  25.907  25.025  1.00  0.00    -0.246 OA
BRANCH  34  36
ATOM     36  C   UNL A   1      40.580  26.850  26.793  1.00  0.00     0.060 A 
ATOM     37  C   UNL A   1      41.084  28.113  26.751  1.00  0.00     0.016 A 
ATOM     38  C   UNL A   1      39.432  26.626  27.576  1.00  0.00     0.016 A 
ATOM     39  C   UNL A   1      40.518  29.050  27.625  1.00  0.00     0.010 A 
ATOM     40  C   UNL A   1      38.914  27.590  28.465  1.00  0.00     0.010 A 
ATOM     41  C   UNL A   1      39.543  28.813  28.614  1.00  0.00    -0.014 A 
BRANCH  41  42
ATOM     42  C   UNL A   1      39.306  29.559  29.915  1.00  0.00     0.031 A 
ATOM     43  C   UNL A   1      38.627  30.871  29.931  1.00  0.00     0.074 A 
ATOM     44  C   UNL A   1      39.497  29.097  31.193  1.00  0.00     0.049 A 
ATOM     45  N   UNL A   1      38.693  31.702  30.929  1.00  0.00    -0.248 NA
ATOM     46  C   UNL A   1      37.983  31.421  28.750  1.00  0.00     0.031 C 
ATOM     47  C   UNL A   1      38.561  29.220  32.317  1.00  0.00     0.029 A 
ATOM     48  N   UNL A   1      40.583  28.499  31.805  1.00  0.00    -0.354 N 
ATOM     49  C   UNL A   1      37.852  32.736  30.615  1.00  0.00     0.074 A 
ATOM     50  C   UNL A   1      37.747  32.661  29.186  1.00  0.00     0.031 C 
ATOM     51  C   UNL A   1      39.100  28.693  33.437  1.00  0.00     0.029 A 
ATOM     52  C   UNL A   1      40.477  28.296  33.173  1.00  0.00     0.049 A 
ATOM     53  H   UNL A   1      41.385  28.232  31.298  1.00  0.00     0.167 HD
ATOM     54  C   UNL A   1      37.117  33.346  31.590  1.00  0.00     0.037 A 
ATOM     55  C   UNL A   1      41.544  28.152  34.018  1.00  0.00     0.037 A 
ATOM     56  C   UNL A   1      37.512  32.883  32.936  1.00  0.00     0.049 A 
ATOM     57  C   UNL A   1      41.523  29.343  34.915  1.00  0.00     0.074 A 
ATOM     58  C   UNL A   1      36.886  32.039  33.839  1.00  0.00     0.029 A 
ATOM     59  N   UNL A   1      38.810  33.073  33.428  1.00  0.00    -0.354 N 
ATOM     60  N   UNL A   1      40.688  30.313  34.700  1.00  0.00    -0.248 NA
ATOM     61  C   UNL A   1      42.422  29.605  36.028  1.00  0.00     0.031 C 
ATOM     62  C   UNL A   1      37.809  31.712  34.863  1.00  0.00     0.029 A 
ATOM     63  C   UNL A   1      38.992  32.392  34.625  1.00  0.00     0.049 A 
ATOM     64  H   UNL A   1      39.502  33.617  32.985  1.00  0.00     0.167 HD
ATOM     65  C   UNL A   1      40.937  31.329  35.547  1.00  0.00     0.074 A 
ATOM     66  C   UNL A   1      42.019  30.839  36.386  1.00  0.00     0.031 C 
ATOM     67  C   UNL A   1      40.226  32.479  35.414  1.00  0.00     0.037 A 
BRANCH  54  68
ATOM     68  C   UNL A   1      35.802  34.100  31.314  1.00  0.00     0.064 A 
ATOM     69  C   UNL A   1      35.311  35.039  32.253  1.00  0.00     0.173 A 
ATOM     70  C   UNL A   1      34.928  33.910  30.214  1.00  0.00     0.173 A 
ATOM     71  F   UNL A   1      36.024  35.379  33.335  1.00  0.00    -0.203 F 
ATOM     72  C   UNL A   1      34.061  35.666  32.126  1.00  0.00     0.198 A 
ATOM     73  C   UNL A   1      33.690  34.544  30.081  1.00  0.00     0.198 A 
ATOM     74  F   UNL A   1      35.194  33.098  29.195  1.00  0.00    -0.203 F 
ATOM     75  F   UNL A   1      33.641  36.513  33.077  1.00  0.00    -0.200 F 
ATOM     76  C   UNL A   1      33.248  35.416  31.041  1.00  0.00     0.200 A 
ATOM     77  F   UNL A   1      32.929  34.280  29.009  1.00  0.00    -0.200 F 
ATOM     78  F   UNL A   1      32.053  36.008  30.918  1.00  0.00    -0.200 F 
ENDBRANCH  54  68
BRANCH  55  79
ATOM     79  C   UNL A   1      42.803  27.495  33.517  1.00  0.00     0.064 A 
ATOM     80  C   UNL A   1      43.084  26.163  33.875  1.00  0.00     0.173 A 
ATOM     81  C   UNL A   1      43.604  28.034  32.504  1.00  0.00     0.173 A 
ATOM     82  F   UNL A   1      42.460  25.610  34.927  1.00  0.00    -0.203 F 
ATOM     83  C   UNL A   1      43.955  25.362  33.121  1.00  0.00     0.198 A 
ATOM     84  C   UNL A   1      44.420  27.219  31.704  1.00  0.00     0.198 A 
ATOM     85  F   UNL A   1      43.560  29.347  32.241  1.00  0.00    -0.203 F 
ATOM     86  F   UNL A   1      44.153  24.075  33.445  1.00  0.00    -0.200 F 
ATOM     87  C   UNL A   1      44.552  25.870  31.984  1.00  0.00     0.200 A 
ATOM     88  F   UNL A   1      45.019  27.726  30.616  1.00  0.00    -0.200 F 
ATOM     89  F   UNL A   1      45.232  25.063  31.155  1.00  0.00    -0.200 F 
ENDBRANCH  55  79
BRANCH  67  90
ATOM     90  C   UNL A   1      40.568  33.723  36.157  1.00  0.00     0.064 A 
ATOM     91  C   UNL A   1      40.336  33.888  37.532  1.00  0.00     0.173 A 
ATOM     92  C   UNL A   1      41.244  34.767  35.500  1.00  0.00     0.173 A 
ATOM     93  F   UNL A   1      39.802  32.908  38.275  1.00  0.00    -0.203 F 
ATOM     94  C   UNL A   1      40.690  35.061  38.191  1.00  0.00     0.198 A 
ATOM     95  C   UNL A   1      41.649  35.911  36.173  1.00  0.00     0.198 A 
ATOM     96  F   UNL A   1      41.537  34.698  34.192  1.00  0.00    -0.203 F 
ATOM     97  F   UNL A   1      40.399  35.205  39.491  1.00  0.00    -0.200 F 
ATOM     98  C   UNL A   1      41.354  36.067  37.514  1.00  0.00     0.200 A 
ATOM     99  F   UNL A   1      42.335  36.858  35.519  1.00  0.00    -0.200 F 
ATOM    100  F   UNL A   1      41.726  37.181  38.158  1.00  0.00    -0.200 F 
ENDBRANCH  67  90
ENDBRANCH  41  42
ENDBRANCH  34  36
ENDBRANCH  33  34
ENDBRANCH  32  33
ENDBRANCH  31  32
ENDBRANCH  30  31
ENDBRANCH  29  30
ENDBRANCH   1  29
TORSDOF 21
ENDMDL
