MODEL 1
REMARK VINA RESULT:     -10.4      0.000      0.000
REMARK SMILES COc1ccc2c(c1OC)C(=O)O[C@@H]2Nc1nonc1C(=O)OCCOCCOCCOC(=O)c1ccc(-c2c3nc(c(-c4c(F)c(F)c(F)c(F)c4F)c4ccc([nH]4)c(-c4c(F)c(F)c(F)c(F)c4F)c4nc(c(-c5c(F)c(F)c(F)c(F)c5F)c5ccc2[nH]5)C=C4)C=C3)cc1
REMARK SMILES IDX 27 1 26 2 25 3 24 4 23 5 21 6 22 7 20 8 16 9 17 10 18 11
REMARK SMILES IDX 19 12 15 13 14 15 3 16 4 17 8 18 5 19 7 20 6 21 11 22 12 23
REMARK SMILES IDX 13 24 2 25 1 26 9 27 10 28 28 29 29 30 30 31 31 32 32 33
REMARK SMILES IDX 33 34 34 35 35 36 36 37 97 38 37 39 96 40 38 41 39 42 40 43
REMARK SMILES IDX 90 44 41 45 95 46 89 47 91 48 42 49 94 50 88 51 87 52 43 54
REMARK SMILES IDX 75 55 55 56 74 57 56 58 59 59 73 60 92 61 57 62 58 63 72 65
REMARK SMILES IDX 93 66 60 67 44 68 45 69 53 70 46 71 47 72 51 73 54 74 48 75
REMARK SMILES IDX 49 76 52 77 50 78 76 79 77 80 85 81 78 82 79 83 83 84 86 85
REMARK SMILES IDX 80 86 81 87 84 88 82 89 61 90 62 91 70 92 63 93 64 94 68 95
REMARK SMILES IDX 71 96 65 97 66 98 69 99 67 100
REMARK H PARENT 15 14 91 53 59 64
REMARK Flexibility Score: inf
ROOT
ATOM      1  C   UNL A   1      35.649  32.186  28.025  1.00  0.00     0.188 C 
ENDROOT
BRANCH   1   2
ATOM      2  O   UNL A   1      34.985  30.969  28.355  1.00  0.00    -0.376 OA
BRANCH   2   3
ATOM      3  C   UNL A   1      33.866  30.555  27.573  1.00  0.00     0.202 C 
BRANCH   3   4
ATOM      4  C   UNL A   1      34.057  29.339  26.656  1.00  0.00     0.261 C 
BRANCH   4   5
ATOM      5  O   UNL A   1      33.466  28.145  27.209  1.00  0.00    -0.458 OA
BRANCH   5   6
ATOM      6  C   UNL A   1      32.117  27.989  27.053  1.00  0.00     0.364 C 
ATOM      7  O   UNL A   1      31.308  28.140  27.960  1.00  0.00    -0.244 OA
BRANCH   6   8
ATOM      8  C   UNL A   1      31.741  27.764  25.663  1.00  0.00     0.236 A 
ATOM      9  C   UNL A   1      31.842  26.616  24.824  1.00  0.00     0.209 A 
ATOM     10  N   UNL A   1      31.574  26.982  23.570  1.00  0.00    -0.031 NA
ATOM     11  O   UNL A   1      31.216  28.315  23.632  1.00  0.00    -0.241 OA
ATOM     12  N   UNL A   1      31.322  28.801  24.921  1.00  0.00    -0.040 NA
BRANCH   9  13
ATOM     13  N   UNL A   1      32.187  25.340  25.131  1.00  0.00    -0.326 N 
ATOM     14  H   UNL A   1      31.601  24.824  25.730  1.00  0.00     0.166 HD
BRANCH  13  15
ATOM     15  C   UNL A   1      33.369  24.712  24.621  1.00  0.00     0.307 C 
ATOM     16  C   UNL A   1      33.941  20.565  24.713  1.00  0.00     0.161 A 
ATOM     17  C   UNL A   1      32.672  21.002  24.316  1.00  0.00     0.051 A 
ATOM     18  C   UNL A   1      34.936  21.453  25.181  1.00  0.00     0.175 A 
ATOM     19  C   UNL A   1      32.371  22.352  24.349  1.00  0.00     0.014 A 
ATOM     20  C   UNL A   1      34.601  22.805  25.203  1.00  0.00     0.114 A 
ATOM     21  C   UNL A   1      33.358  23.239  24.750  1.00  0.00     0.032 A 
ATOM     22  C   UNL A   1      35.330  24.023  25.596  1.00  0.00     0.344 C 
ATOM     23  O   UNL A   1      36.442  24.127  26.073  1.00  0.00    -0.246 OA
ATOM     24  O   UNL A   1      34.501  25.091  25.393  1.00  0.00    -0.434 OA
BRANCH  16  25
ATOM     25  O   UNL A   1      34.195  19.225  24.537  1.00  0.00    -0.493 OA
ATOM     26  C   UNL A   1      33.095  18.442  24.993  1.00  0.00     0.278 C 
ENDBRANCH  16  25
BRANCH  18  27
ATOM     27  O   UNL A   1      36.126  20.854  25.466  1.00  0.00    -0.492 OA
ATOM     28  C   UNL A   1      37.243  21.097  24.629  1.00  0.00     0.278 C 
ENDBRANCH  18  27
ENDBRANCH  13  15
ENDBRANCH   9  13
ENDBRANCH   6   8
ENDBRANCH   5   6
ENDBRANCH   4   5
ENDBRANCH   3   4
ENDBRANCH   2   3
ENDBRANCH   1   2
BRANCH   1  29
ATOM     29  C   UNL A   1      35.447  33.411  28.942  1.00  0.00     0.188 C 
BRANCH  29  30
ATOM     30  O   UNL A   1      34.121  33.882  28.952  1.00  0.00    -0.376 OA
BRANCH  30  31
ATOM     31  C   UNL A   1      33.879  35.274  28.846  1.00  0.00     0.202 C 
BRANCH  31  32
ATOM     32  C   UNL A   1      32.854  36.026  29.721  1.00  0.00     0.261 C 
BRANCH  32  33
ATOM     33  O   UNL A   1      32.356  35.365  30.887  1.00  0.00    -0.460 OA
BRANCH  33  34
ATOM     34  C   UNL A   1      32.746  35.843  32.093  1.00  0.00     0.338 C 
ATOM     35  O   UNL A   1      32.164  36.649  32.793  1.00  0.00    -0.246 OA
BRANCH  34  36
ATOM     36  C   UNL A   1      33.931  35.062  32.509  1.00  0.00     0.060 A 
ATOM     37  C   UNL A   1      35.206  35.633  32.388  1.00  0.00     0.016 A 
ATOM     38  C   UNL A   1      33.771  33.797  33.075  1.00  0.00     0.016 A 
ATOM     39  C   UNL A   1      36.328  34.942  32.854  1.00  0.00     0.010 A 
ATOM     40  C   UNL A   1      34.896  33.096  33.512  1.00  0.00     0.010 A 
ATOM     41  C   UNL A   1      36.180  33.661  33.400  1.00  0.00    -0.014 A 
BRANCH  41  42
ATOM     42  C   UNL A   1      37.363  32.833  33.737  1.00  0.00     0.031 A 
ATOM     43  C   UNL A   1      38.086  33.105  35.024  1.00  0.00     0.074 A 
ATOM     44  C   UNL A   1      37.815  31.886  32.896  1.00  0.00     0.049 A 
ATOM     45  N   UNL A   1      39.212  32.612  35.470  1.00  0.00    -0.248 NA
ATOM     46  C   UNL A   1      37.448  34.075  35.927  1.00  0.00     0.031 C 
ATOM     47  C   UNL A   1      37.173  31.489  31.647  1.00  0.00     0.029 A 
ATOM     48  N   UNL A   1      38.939  31.101  32.965  1.00  0.00    -0.354 N 
ATOM     49  C   UNL A   1      39.422  33.215  36.702  1.00  0.00     0.074 A 
ATOM     50  C   UNL A   1      38.325  34.134  36.917  1.00  0.00     0.031 C 
ATOM     51  C   UNL A   1      37.922  30.540  31.057  1.00  0.00     0.029 A 
ATOM     52  C   UNL A   1      39.118  30.300  31.865  1.00  0.00     0.049 A 
ATOM     53  H   UNL A   1      39.559  31.112  33.730  1.00  0.00     0.167 HD
ATOM     54  C   UNL A   1      40.438  33.016  37.576  1.00  0.00     0.037 A 
ATOM     55  C   UNL A   1      40.145  29.492  31.536  1.00  0.00     0.037 A 
ATOM     56  C   UNL A   1      41.540  32.119  37.346  1.00  0.00     0.049 A 
ATOM     57  C   UNL A   1      41.331  29.386  32.464  1.00  0.00     0.074 A 
ATOM     58  C   UNL A   1      42.614  31.839  38.171  1.00  0.00     0.029 A 
ATOM     59  N   UNL A   1      41.715  31.367  36.192  1.00  0.00    -0.354 N 
ATOM     60  N   UNL A   1      41.518  29.939  33.639  1.00  0.00    -0.248 NA
ATOM     61  C   UNL A   1      42.453  28.549  32.014  1.00  0.00     0.031 C 
ATOM     62  C   UNL A   1      43.473  30.971  37.490  1.00  0.00     0.029 A 
ATOM     63  C   UNL A   1      42.903  30.656  36.267  1.00  0.00     0.049 A 
ATOM     64  H   UNL A   1      41.090  31.343  35.432  1.00  0.00     0.167 HD
ATOM     65  C   UNL A   1      42.758  29.492  34.081  1.00  0.00     0.074 A 
ATOM     66  C   UNL A   1      43.276  28.616  33.051  1.00  0.00     0.031 C 
ATOM     67  C   UNL A   1      43.407  29.780  35.238  1.00  0.00     0.037 A 
BRANCH  54  68
ATOM     68  C   UNL A   1      40.419  33.825  38.843  1.00  0.00     0.064 A 
ATOM     69  C   UNL A   1      39.705  33.408  39.977  1.00  0.00     0.173 A 
ATOM     70  C   UNL A   1      41.118  35.039  38.920  1.00  0.00     0.173 A 
ATOM     71  F   UNL A   1      39.008  32.261  39.952  1.00  0.00    -0.203 F 
ATOM     72  C   UNL A   1      39.656  34.196  41.123  1.00  0.00     0.198 A 
ATOM     73  C   UNL A   1      41.096  35.807  40.081  1.00  0.00     0.198 A 
ATOM     74  F   UNL A   1      41.822  35.483  37.868  1.00  0.00    -0.203 F 
ATOM     75  F   UNL A   1      38.909  33.810  42.168  1.00  0.00    -0.200 F 
ATOM     76  C   UNL A   1      40.354  35.392  41.176  1.00  0.00     0.200 A 
ATOM     77  F   UNL A   1      41.784  36.956  40.135  1.00  0.00    -0.200 F 
ATOM     78  F   UNL A   1      40.303  36.152  42.278  1.00  0.00    -0.200 F 
ENDBRANCH  54  68
BRANCH  55  79
ATOM     79  C   UNL A   1      40.111  28.720  30.266  1.00  0.00     0.064 A 
ATOM     80  C   UNL A   1      40.685  29.241  29.097  1.00  0.00     0.173 A 
ATOM     81  C   UNL A   1      39.493  27.464  30.184  1.00  0.00     0.173 A 
ATOM     82  F   UNL A   1      41.258  30.454  29.116  1.00  0.00    -0.203 F 
ATOM     83  C   UNL A   1      40.632  28.540  27.894  1.00  0.00     0.198 A 
ATOM     84  C   UNL A   1      39.467  26.751  28.987  1.00  0.00     0.198 A 
ATOM     85  F   UNL A   1      38.919  26.925  31.269  1.00  0.00    -0.203 F 
ATOM     86  F   UNL A   1      41.148  29.083  26.783  1.00  0.00    -0.200 F 
ATOM     87  C   UNL A   1      40.030  27.292  27.841  1.00  0.00     0.200 A 
ATOM     88  F   UNL A   1      38.890  25.541  28.942  1.00  0.00    -0.200 F 
ATOM     89  F   UNL A   1      39.983  26.617  26.684  1.00  0.00    -0.200 F 
ENDBRANCH  55  79
BRANCH  67  90
ATOM     90  C   UNL A   1      44.733  29.115  35.477  1.00  0.00     0.064 A 
ATOM     91  C   UNL A   1      44.833  27.868  36.111  1.00  0.00     0.173 A 
ATOM     92  C   UNL A   1      45.917  29.707  35.008  1.00  0.00     0.173 A 
ATOM     93  F   UNL A   1      43.735  27.266  36.593  1.00  0.00    -0.203 F 
ATOM     94  C   UNL A   1      46.068  27.247  36.282  1.00  0.00     0.198 A 
ATOM     95  C   UNL A   1      47.146  29.068  35.150  1.00  0.00     0.198 A 
ATOM     96  F   UNL A   1      45.880  30.896  34.387  1.00  0.00    -0.203 F 
ATOM     97  F   UNL A   1      46.143  26.075  36.927  1.00  0.00    -0.200 F 
ATOM     98  C   UNL A   1      47.221  27.842  35.792  1.00  0.00     0.200 A 
ATOM     99  F   UNL A   1      48.256  29.636  34.661  1.00  0.00    -0.200 F 
ATOM    100  F   UNL A   1      48.406  27.234  35.942  1.00  0.00    -0.200 F 
ENDBRANCH  67  90
ENDBRANCH  41  42
ENDBRANCH  34  36
ENDBRANCH  33  34
ENDBRANCH  32  33
ENDBRANCH  31  32
ENDBRANCH  30  31
ENDBRANCH  29  30
ENDBRANCH   1  29
TORSDOF 21
ENDMDL
MODEL 2
REMARK VINA RESULT:     -10.3      0.813      2.046
REMARK SMILES COc1ccc2c(c1OC)C(=O)O[C@@H]2Nc1nonc1C(=O)OCCOCCOCCOC(=O)c1ccc(-c2c3nc(c(-c4c(F)c(F)c(F)c(F)c4F)c4ccc([nH]4)c(-c4c(F)c(F)c(F)c(F)c4F)c4nc(c(-c5c(F)c(F)c(F)c(F)c5F)c5ccc2[nH]5)C=C4)C=C3)cc1
REMARK SMILES IDX 27 1 26 2 25 3 24 4 23 5 21 6 22 7 20 8 16 9 17 10 18 11
REMARK SMILES IDX 19 12 15 13 14 15 3 16 4 17 8 18 5 19 7 20 6 21 11 22 12 23
REMARK SMILES IDX 13 24 2 25 1 26 9 27 10 28 28 29 29 30 30 31 31 32 32 33
REMARK SMILES IDX 33 34 34 35 35 36 36 37 97 38 37 39 96 40 38 41 39 42 40 43
REMARK SMILES IDX 90 44 41 45 95 46 89 47 91 48 42 49 94 50 88 51 87 52 43 54
REMARK SMILES IDX 75 55 55 56 74 57 56 58 59 59 73 60 92 61 57 62 58 63 72 65
REMARK SMILES IDX 93 66 60 67 44 68 45 69 53 70 46 71 47 72 51 73 54 74 48 75
REMARK SMILES IDX 49 76 52 77 50 78 76 79 77 80 85 81 78 82 79 83 83 84 86 85
REMARK SMILES IDX 80 86 81 87 84 88 82 89 61 90 62 91 70 92 63 93 64 94 68 95
REMARK SMILES IDX 71 96 65 97 66 98 69 99 67 100
REMARK H PARENT 15 14 91 53 59 64
REMARK Flexibility Score: inf
ROOT
ATOM      1  C   UNL A   1      35.874  32.651  28.132  1.00  0.00     0.188 C 
ENDROOT
BRANCH   1   2
ATOM      2  O   UNL A   1      35.614  31.257  27.994  1.00  0.00    -0.376 OA
BRANCH   2   3
ATOM      3  C   UNL A   1      34.264  30.798  28.008  1.00  0.00     0.202 C 
BRANCH   3   4
ATOM      4  C   UNL A   1      33.680  30.282  26.685  1.00  0.00     0.261 C 
BRANCH   4   5
ATOM      5  O   UNL A   1      32.248  30.123  26.751  1.00  0.00    -0.458 OA
BRANCH   5   6
ATOM      6  C   UNL A   1      31.751  28.867  26.536  1.00  0.00     0.364 C 
ATOM      7  O   UNL A   1      31.415  28.108  27.436  1.00  0.00    -0.244 OA
BRANCH   6   8
ATOM      8  C   UNL A   1      31.537  28.589  25.121  1.00  0.00     0.236 A 
ATOM      9  C   UNL A   1      32.172  27.684  24.223  1.00  0.00     0.209 A 
ATOM     10  N   UNL A   1      31.774  27.968  22.982  1.00  0.00    -0.031 NA
ATOM     11  O   UNL A   1      30.831  28.970  23.106  1.00  0.00    -0.241 OA
ATOM     12  N   UNL A   1      30.686  29.358  24.424  1.00  0.00    -0.040 NA
BRANCH   9  13
ATOM     13  N   UNL A   1      33.074  26.700  24.469  1.00  0.00    -0.326 N 
ATOM     14  H   UNL A   1      33.919  26.698  23.964  1.00  0.00     0.166 HD
BRANCH  13  15
ATOM     15  C   UNL A   1      32.848  25.664  25.432  1.00  0.00     0.307 C 
ATOM     16  C   UNL A   1      35.240  22.235  25.661  1.00  0.00     0.161 A 
ATOM     17  C   UNL A   1      35.919  23.448  25.493  1.00  0.00     0.051 A 
ATOM     18  C   UNL A   1      33.830  22.145  25.627  1.00  0.00     0.175 A 
ATOM     19  C   UNL A   1      35.199  24.616  25.314  1.00  0.00     0.014 A 
ATOM     20  C   UNL A   1      33.135  23.338  25.444  1.00  0.00     0.114 A 
ATOM     21  C   UNL A   1      33.814  24.549  25.337  1.00  0.00     0.032 A 
ATOM     22  C   UNL A   1      31.704  23.675  25.363  1.00  0.00     0.344 C 
ATOM     23  O   UNL A   1      30.742  22.933  25.383  1.00  0.00    -0.246 OA
ATOM     24  O   UNL A   1      31.601  25.027  25.187  1.00  0.00    -0.434 OA
BRANCH  16  25
ATOM     25  O   UNL A   1      36.026  21.145  25.952  1.00  0.00    -0.493 OA
ATOM     26  C   UNL A   1      37.077  21.017  24.998  1.00  0.00     0.278 C 
ENDBRANCH  16  25
BRANCH  18  27
ATOM     27  O   UNL A   1      33.347  20.893  25.868  1.00  0.00    -0.492 OA
ATOM     28  C   UNL A   1      33.104  20.021  24.779  1.00  0.00     0.278 C 
ENDBRANCH  18  27
ENDBRANCH  13  15
ENDBRANCH   9  13
ENDBRANCH   6   8
ENDBRANCH   5   6
ENDBRANCH   4   5
ENDBRANCH   3   4
ENDBRANCH   2   3
ENDBRANCH   1   2
BRANCH   1  29
ATOM     29  C   UNL A   1      35.003  33.473  29.106  1.00  0.00     0.188 C 
BRANCH  29  30
ATOM     30  O   UNL A   1      34.024  34.246  28.456  1.00  0.00    -0.376 OA
BRANCH  30  31
ATOM     31  C   UNL A   1      33.914  35.625  28.759  1.00  0.00     0.202 C 
BRANCH  31  32
ATOM     32  C   UNL A   1      32.830  36.206  29.691  1.00  0.00     0.261 C 
BRANCH  32  33
ATOM     33  O   UNL A   1      32.348  35.379  30.754  1.00  0.00    -0.460 OA
BRANCH  33  34
ATOM     34  C   UNL A   1      32.634  35.759  32.023  1.00  0.00     0.338 C 
ATOM     35  O   UNL A   1      31.968  36.470  32.750  1.00  0.00    -0.246 OA
BRANCH  34  36
ATOM     36  C   UNL A   1      33.825  34.994  32.448  1.00  0.00     0.060 A 
ATOM     37  C   UNL A   1      35.088  35.603  32.391  1.00  0.00     0.016 A 
ATOM     38  C   UNL A   1      33.682  33.704  32.960  1.00  0.00     0.016 A 
ATOM     39  C   UNL A   1      36.212  34.924  32.869  1.00  0.00     0.010 A 
ATOM     40  C   UNL A   1      34.812  33.016  33.408  1.00  0.00     0.010 A 
ATOM     41  C   UNL A   1      36.082  33.619  33.361  1.00  0.00    -0.014 A 
BRANCH  41  42
ATOM     42  C   UNL A   1      37.276  32.810  33.706  1.00  0.00     0.031 A 
ATOM     43  C   UNL A   1      37.987  33.095  34.996  1.00  0.00     0.074 A 
ATOM     44  C   UNL A   1      37.748  31.869  32.869  1.00  0.00     0.049 A 
ATOM     45  N   UNL A   1      39.118  32.620  35.450  1.00  0.00    -0.248 NA
ATOM     46  C   UNL A   1      37.329  34.056  35.894  1.00  0.00     0.031 C 
ATOM     47  C   UNL A   1      37.120  31.460  31.616  1.00  0.00     0.029 A 
ATOM     48  N   UNL A   1      38.884  31.102  32.945  1.00  0.00    -0.354 N 
ATOM     49  C   UNL A   1      39.312  33.228  36.682  1.00  0.00     0.074 A 
ATOM     50  C   UNL A   1      38.199  34.130  36.890  1.00  0.00     0.031 C 
ATOM     51  C   UNL A   1      37.887  30.522  31.032  1.00  0.00     0.029 A 
ATOM     52  C   UNL A   1      39.081  30.303  31.847  1.00  0.00     0.049 A 
ATOM     53  H   UNL A   1      39.499  31.124  33.714  1.00  0.00     0.167 HD
ATOM     54  C   UNL A   1      40.326  33.046  37.563  1.00  0.00     0.037 A 
ATOM     55  C   UNL A   1      40.123  29.510  31.526  1.00  0.00     0.037 A 
ATOM     56  C   UNL A   1      41.442  32.165  37.340  1.00  0.00     0.049 A 
ATOM     57  C   UNL A   1      41.304  29.424  32.461  1.00  0.00     0.074 A 
ATOM     58  C   UNL A   1      42.516  31.904  38.172  1.00  0.00     0.029 A 
ATOM     59  N   UNL A   1      41.637  31.415  36.187  1.00  0.00    -0.354 N 
ATOM     60  N   UNL A   1      41.476  29.981  33.636  1.00  0.00    -0.248 NA
ATOM     61  C   UNL A   1      42.442  28.604  32.018  1.00  0.00     0.031 C 
ATOM     62  C   UNL A   1      43.393  31.048  37.497  1.00  0.00     0.029 A 
ATOM     63  C   UNL A   1      42.835  30.723  36.271  1.00  0.00     0.049 A 
ATOM     64  H   UNL A   1      41.016  31.381  35.425  1.00  0.00     0.167 HD
ATOM     65  C   UNL A   1      42.720  29.554  34.086  1.00  0.00     0.074 A 
ATOM     66  C   UNL A   1      43.258  28.684  33.060  1.00  0.00     0.031 C 
ATOM     67  C   UNL A   1      43.358  29.853  35.246  1.00  0.00     0.037 A 
BRANCH  54  68
ATOM     68  C   UNL A   1      40.286  33.856  38.828  1.00  0.00     0.064 A 
ATOM     69  C   UNL A   1      40.974  35.074  38.948  1.00  0.00     0.173 A 
ATOM     70  C   UNL A   1      39.557  33.404  39.938  1.00  0.00     0.173 A 
ATOM     71  F   UNL A   1      41.698  35.545  37.922  1.00  0.00    -0.203 F 
ATOM     72  C   UNL A   1      40.970  35.784  40.145  1.00  0.00     0.198 A 
ATOM     73  C   UNL A   1      39.525  34.136  41.122  1.00  0.00     0.198 A 
ATOM     74  F   UNL A   1      38.877  32.250  39.876  1.00  0.00    -0.203 F 
ATOM     75  F   UNL A   1      41.692  36.908  40.259  1.00  0.00    -0.200 F 
ATOM     76  C   UNL A   1      40.243  35.317  41.230  1.00  0.00     0.200 A 
ATOM     77  F   UNL A   1      38.810  33.689  42.163  1.00  0.00    -0.200 F 
ATOM     78  F   UNL A   1      40.242  35.999  42.383  1.00  0.00    -0.200 F 
ENDBRANCH  54  68
BRANCH  55  79
ATOM     79  C   UNL A   1      40.108  28.736  30.256  1.00  0.00     0.064 A 
ATOM     80  C   UNL A   1      40.699  29.256  29.095  1.00  0.00     0.173 A 
ATOM     81  C   UNL A   1      39.494  27.478  30.168  1.00  0.00     0.173 A 
ATOM     82  F   UNL A   1      41.269  30.470  29.121  1.00  0.00    -0.203 F 
ATOM     83  C   UNL A   1      40.664  28.553  27.892  1.00  0.00     0.198 A 
ATOM     84  C   UNL A   1      39.486  26.764  28.971  1.00  0.00     0.198 A 
ATOM     85  F   UNL A   1      38.905  26.940  31.245  1.00  0.00    -0.203 F 
ATOM     86  F   UNL A   1      41.195  29.095  26.788  1.00  0.00    -0.200 F 
ATOM     87  C   UNL A   1      40.065  27.304  27.833  1.00  0.00     0.200 A 
ATOM     88  F   UNL A   1      38.911  25.553  28.920  1.00  0.00    -0.200 F 
ATOM     89  F   UNL A   1      40.035  26.627  26.677  1.00  0.00    -0.200 F 
ENDBRANCH  55  79
BRANCH  67  90
ATOM     90  C   UNL A   1      44.693  29.210  35.494  1.00  0.00     0.064 A 
ATOM     91  C   UNL A   1      45.895  29.837  35.135  1.00  0.00     0.173 A 
ATOM     92  C   UNL A   1      44.772  27.975  36.158  1.00  0.00     0.173 A 
ATOM     93  F   UNL A   1      45.876  31.010  34.484  1.00  0.00    -0.203 F 
ATOM     94  C   UNL A   1      47.124  29.245  35.416  1.00  0.00     0.198 A 
ATOM     95  C   UNL A   1      46.003  27.402  36.468  1.00  0.00     0.198 A 
ATOM     96  F   UNL A   1      43.654  27.334  36.531  1.00  0.00    -0.203 F 
ATOM     97  F   UNL A   1      48.259  29.843  35.027  1.00  0.00    -0.200 F 
ATOM     98  C   UNL A   1      47.178  28.034  36.091  1.00  0.00     0.200 A 
ATOM     99  F   UNL A   1      46.052  26.241  37.134  1.00  0.00    -0.200 F 
ATOM    100  F   UNL A   1      48.362  27.475  36.375  1.00  0.00    -0.200 F 
ENDBRANCH  67  90
ENDBRANCH  41  42
ENDBRANCH  34  36
ENDBRANCH  33  34
ENDBRANCH  32  33
ENDBRANCH  31  32
ENDBRANCH  30  31
ENDBRANCH  29  30
ENDBRANCH   1  29
TORSDOF 21
ENDMDL
MODEL 3
REMARK VINA RESULT:     -10.2      1.270      2.068
REMARK SMILES COc1ccc2c(c1OC)C(=O)O[C@@H]2Nc1nonc1C(=O)OCCOCCOCCOC(=O)c1ccc(-c2c3nc(c(-c4c(F)c(F)c(F)c(F)c4F)c4ccc([nH]4)c(-c4c(F)c(F)c(F)c(F)c4F)c4nc(c(-c5c(F)c(F)c(F)c(F)c5F)c5ccc2[nH]5)C=C4)C=C3)cc1
REMARK SMILES IDX 27 1 26 2 25 3 24 4 23 5 21 6 22 7 20 8 16 9 17 10 18 11
REMARK SMILES IDX 19 12 15 13 14 15 3 16 4 17 8 18 5 19 7 20 6 21 11 22 12 23
REMARK SMILES IDX 13 24 2 25 1 26 9 27 10 28 28 29 29 30 30 31 31 32 32 33
REMARK SMILES IDX 33 34 34 35 35 36 36 37 97 38 37 39 96 40 38 41 39 42 40 43
REMARK SMILES IDX 90 44 41 45 95 46 89 47 91 48 42 49 94 50 88 51 87 52 43 54
REMARK SMILES IDX 75 55 55 56 74 57 56 58 59 59 73 60 92 61 57 62 58 63 72 65
REMARK SMILES IDX 93 66 60 67 44 68 45 69 53 70 46 71 47 72 51 73 54 74 48 75
REMARK SMILES IDX 49 76 52 77 50 78 76 79 77 80 85 81 78 82 79 83 83 84 86 85
REMARK SMILES IDX 80 86 81 87 84 88 82 89 61 90 62 91 70 92 63 93 64 94 68 95
REMARK SMILES IDX 71 96 65 97 66 98 69 99 67 100
REMARK H PARENT 15 14 91 53 59 64
REMARK Flexibility Score: inf
ROOT
ATOM      1  C   UNL A   1      33.786  31.827  27.602  1.00  0.00     0.188 C 
ENDROOT
BRANCH   1   2
ATOM      2  O   UNL A   1      34.385  30.611  28.038  1.00  0.00    -0.376 OA
BRANCH   2   3
ATOM      3  C   UNL A   1      34.060  29.395  27.366  1.00  0.00     0.202 C 
BRANCH   3   4
ATOM      4  C   UNL A   1      33.632  29.496  25.895  1.00  0.00     0.261 C 
BRANCH   4   5
ATOM      5  O   UNL A   1      32.333  28.911  25.668  1.00  0.00    -0.458 OA
BRANCH   5   6
ATOM      6  C   UNL A   1      31.363  29.729  25.160  1.00  0.00     0.364 C 
ATOM      7  O   UNL A   1      31.115  30.844  25.604  1.00  0.00    -0.244 OA
BRANCH   6   8
ATOM      8  C   UNL A   1      30.756  29.188  23.950  1.00  0.00     0.236 A 
ATOM      9  C   UNL A   1      31.184  28.177  23.042  1.00  0.00     0.209 A 
ATOM     10  N   UNL A   1      30.392  28.208  21.969  1.00  0.00    -0.031 NA
ATOM     11  O   UNL A   1      29.424  29.156  22.238  1.00  0.00    -0.241 OA
ATOM     12  N   UNL A   1      29.648  29.766  23.458  1.00  0.00    -0.040 NA
BRANCH   9  13
ATOM     13  N   UNL A   1      32.226  27.312  23.128  1.00  0.00    -0.326 N 
ATOM     14  H   UNL A   1      33.140  27.674  23.139  1.00  0.00     0.166 HD
BRANCH  13  15
ATOM     15  C   UNL A   1      32.050  25.892  23.204  1.00  0.00     0.307 C 
ATOM     16  C   UNL A   1      33.949  23.534  26.096  1.00  0.00     0.161 A 
ATOM     17  C   UNL A   1      33.391  24.734  26.552  1.00  0.00     0.051 A 
ATOM     18  C   UNL A   1      33.991  23.189  24.726  1.00  0.00     0.175 A 
ATOM     19  C   UNL A   1      32.828  25.615  25.644  1.00  0.00     0.014 A 
ATOM     20  C   UNL A   1      33.417  24.097  23.839  1.00  0.00     0.114 A 
ATOM     21  C   UNL A   1      32.810  25.261  24.304  1.00  0.00     0.032 A 
ATOM     22  C   UNL A   1      33.244  24.114  22.377  1.00  0.00     0.344 C 
ATOM     23  O   UNL A   1      33.637  23.313  21.552  1.00  0.00    -0.246 OA
ATOM     24  O   UNL A   1      32.588  25.267  22.046  1.00  0.00    -0.434 OA
BRANCH  16  25
ATOM     25  O   UNL A   1      34.378  22.665  27.072  1.00  0.00    -0.493 OA
ATOM     26  C   UNL A   1      33.273  22.180  27.831  1.00  0.00     0.278 C 
ENDBRANCH  16  25
BRANCH  18  27
ATOM     27  O   UNL A   1      34.518  21.957  24.479  1.00  0.00    -0.492 OA
ATOM     28  C   UNL A   1      33.648  20.862  24.252  1.00  0.00     0.278 C 
ENDBRANCH  18  27
ENDBRANCH  13  15
ENDBRANCH   9  13
ENDBRANCH   6   8
ENDBRANCH   5   6
ENDBRANCH   4   5
ENDBRANCH   3   4
ENDBRANCH   2   3
ENDBRANCH   1   2
BRANCH   1  29
ATOM     29  C   UNL A   1      33.967  33.093  28.466  1.00  0.00     0.188 C 
BRANCH  29  30
ATOM     30  O   UNL A   1      33.353  34.232  27.915  1.00  0.00    -0.376 OA
BRANCH  30  31
ATOM     31  C   UNL A   1      32.673  35.135  28.770  1.00  0.00     0.202 C 
BRANCH  31  32
ATOM     32  C   UNL A   1      33.346  35.847  29.961  1.00  0.00     0.261 C 
BRANCH  32  33
ATOM     33  O   UNL A   1      32.513  36.588  30.857  1.00  0.00    -0.460 OA
BRANCH  33  34
ATOM     34  C   UNL A   1      32.316  36.076  32.096  1.00  0.00     0.338 C 
ATOM     35  O   UNL A   1      31.308  36.146  32.774  1.00  0.00    -0.246 OA
BRANCH  34  36
ATOM     36  C   UNL A   1      33.493  35.241  32.415  1.00  0.00     0.060 A 
ATOM     37  C   UNL A   1      33.302  33.910  32.814  1.00  0.00     0.016 A 
ATOM     38  C   UNL A   1      34.780  35.756  32.257  1.00  0.00     0.016 A 
ATOM     39  C   UNL A   1      34.406  33.082  33.037  1.00  0.00     0.010 A 
ATOM     40  C   UNL A   1      35.882  34.937  32.511  1.00  0.00     0.010 A 
ATOM     41  C   UNL A   1      35.702  33.599  32.906  1.00  0.00    -0.014 A 
BRANCH  41  42
ATOM     42  C   UNL A   1      36.886  32.802  33.308  1.00  0.00     0.031 A 
ATOM     43  C   UNL A   1      37.535  33.097  34.628  1.00  0.00     0.074 A 
ATOM     44  C   UNL A   1      37.403  31.862  32.497  1.00  0.00     0.049 A 
ATOM     45  N   UNL A   1      38.648  32.634  35.135  1.00  0.00    -0.248 NA
ATOM     46  C   UNL A   1      36.829  34.055  35.492  1.00  0.00     0.031 C 
ATOM     47  C   UNL A   1      36.836  31.443  31.219  1.00  0.00     0.029 A 
ATOM     48  N   UNL A   1      38.541  31.105  32.628  1.00  0.00    -0.354 N 
ATOM     49  C   UNL A   1      38.781  33.248  36.373  1.00  0.00     0.074 A 
ATOM     50  C   UNL A   1      37.652  34.141  36.526  1.00  0.00     0.031 C 
ATOM     51  C   UNL A   1      37.637  30.510  30.673  1.00  0.00     0.029 A 
ATOM     52  C   UNL A   1      38.795  30.304  31.543  1.00  0.00     0.049 A 
ATOM     53  H   UNL A   1      39.120  31.135  33.424  1.00  0.00     0.167 HD
ATOM     54  C   UNL A   1      39.755  33.078  37.299  1.00  0.00     0.037 A 
ATOM     55  C   UNL A   1      39.857  29.519  31.273  1.00  0.00     0.037 A 
ATOM     56  C   UNL A   1      40.888  32.206  37.130  1.00  0.00     0.049 A 
ATOM     57  C   UNL A   1      40.995  29.447  32.261  1.00  0.00     0.074 A 
ATOM     58  C   UNL A   1      41.925  31.957  38.011  1.00  0.00     0.029 A 
ATOM     59  N   UNL A   1      41.141  31.454  35.991  1.00  0.00    -0.354 N 
ATOM     60  N   UNL A   1      41.109  30.009  33.440  1.00  0.00    -0.248 NA
ATOM     61  C   UNL A   1      42.159  28.635  31.873  1.00  0.00     0.031 C 
ATOM     62  C   UNL A   1      42.839  31.107  37.380  1.00  0.00     0.029 A 
ATOM     63  C   UNL A   1      42.340  30.772  36.131  1.00  0.00     0.049 A 
ATOM     64  H   UNL A   1      40.556  31.411  35.201  1.00  0.00     0.167 HD
ATOM     65  C   UNL A   1      42.335  29.595  33.948  1.00  0.00     0.074 A 
ATOM     66  C   UNL A   1      42.926  28.726  32.950  1.00  0.00     0.031 C 
ATOM     67  C   UNL A   1      42.916  29.904  35.134  1.00  0.00     0.037 A 
BRANCH  54  68
ATOM     68  C   UNL A   1      39.652  33.892  38.558  1.00  0.00     0.064 A 
ATOM     69  C   UNL A   1      38.888  33.464  39.655  1.00  0.00     0.173 A 
ATOM     70  C   UNL A   1      40.319  35.122  38.664  1.00  0.00     0.173 A 
ATOM     71  F   UNL A   1      38.219  32.302  39.600  1.00  0.00    -0.203 F 
ATOM     72  C   UNL A   1      38.762  34.256  40.792  1.00  0.00     0.198 A 
ATOM     73  C   UNL A   1      40.219  35.894  39.818  1.00  0.00     0.198 A 
ATOM     74  F   UNL A   1      41.067  35.577  37.648  1.00  0.00    -0.203 F 
ATOM     75  F   UNL A   1      37.970  33.859  41.799  1.00  0.00    -0.200 F 
ATOM     76  C   UNL A   1      39.430  35.468  40.875  1.00  0.00     0.200 A 
ATOM     77  F   UNL A   1      40.877  37.059  39.901  1.00  0.00    -0.200 F 
ATOM     78  F   UNL A   1      39.303  36.232  41.968  1.00  0.00    -0.200 F 
ENDBRANCH  54  68
BRANCH  55  79
ATOM     79  C   UNL A   1      39.906  28.740  30.007  1.00  0.00     0.064 A 
ATOM     80  C   UNL A   1      39.336  27.461  29.932  1.00  0.00     0.173 A 
ATOM     81  C   UNL A   1      40.534  29.242  28.857  1.00  0.00     0.173 A 
ATOM     82  F   UNL A   1      38.753  26.923  31.014  1.00  0.00    -0.203 F 
ATOM     83  C   UNL A   1      39.402  26.710  28.759  1.00  0.00     0.198 A 
ATOM     84  C   UNL A   1      40.573  28.502  27.677  1.00  0.00     0.198 A 
ATOM     85  F   UNL A   1      41.105  30.455  28.878  1.00  0.00    -0.203 F 
ATOM     86  F   UNL A   1      38.889  25.472  28.731  1.00  0.00    -0.200 F 
ATOM     87  C   UNL A   1      40.013  27.234  27.631  1.00  0.00     0.200 A 
ATOM     88  F   UNL A   1      41.159  29.015  26.586  1.00  0.00    -0.200 F 
ATOM     89  F   UNL A   1      40.073  26.512  26.503  1.00  0.00    -0.200 F 
ENDBRANCH  55  79
BRANCH  67  90
ATOM     90  C   UNL A   1      44.245  29.273  35.445  1.00  0.00     0.064 A 
ATOM     91  C   UNL A   1      44.341  28.022  36.072  1.00  0.00     0.173 A 
ATOM     92  C   UNL A   1      45.437  29.901  35.051  1.00  0.00     0.173 A 
ATOM     93  F   UNL A   1      43.234  27.385  36.483  1.00  0.00    -0.203 F 
ATOM     94  C   UNL A   1      45.581  27.433  36.309  1.00  0.00     0.198 A 
ATOM     95  C   UNL A   1      46.673  29.294  35.260  1.00  0.00     0.198 A 
ATOM     96  F   UNL A   1      45.404  31.096  34.441  1.00  0.00    -0.203 F 
ATOM     97  F   UNL A   1      45.651  26.256  36.947  1.00  0.00    -0.200 F 
ATOM     98  C   UNL A   1      46.744  28.063  35.894  1.00  0.00     0.200 A 
ATOM     99  F   UNL A   1      47.794  29.898  34.842  1.00  0.00    -0.200 F 
ATOM    100  F   UNL A   1      47.935  27.487  36.108  1.00  0.00    -0.200 F 
ENDBRANCH  67  90
ENDBRANCH  41  42
ENDBRANCH  34  36
ENDBRANCH  33  34
ENDBRANCH  32  33
ENDBRANCH  31  32
ENDBRANCH  30  31
ENDBRANCH  29  30
ENDBRANCH   1  29
TORSDOF 21
ENDMDL
