MODEL 1
REMARK VINA RESULT:     -11.8      0.000      0.000
REMARK SMILES CC(C)Cc1cc2c(cc1Cl)C=C(C(=O)OCCOCCOCCOC(=O)c1ccc(-c3c4nc(c(-c5c(F)c(F)c(F)c(F)c5F)c5ccc([nH]5)c(-c5c(F)c(F)c(F)c(F)c5F)c5nc(c(-c6c(F)c(F)c(F)c(F)c6F)c6ccc3[nH]6)C=C5)C=C4)cc1)[C@H](C(F)(F)F)O2
REMARK SMILES IDX 20 1 19 2 18 3 17 4 16 5 14 6 15 7 13 8 5 9 6 10 10 11 7 12
REMARK SMILES IDX 9 13 11 14 8 15 96 16 12 17 91 18 4 19 2 20 1 21 3 22 92 23
REMARK SMILES IDX 93 24 94 25 95 26 21 27 22 28 23 29 24 30 25 31 26 32 27 33
REMARK SMILES IDX 28 34 29 35 90 36 30 37 89 38 31 39 32 40 33 41 83 42 34 43
REMARK SMILES IDX 88 44 82 45 84 46 35 47 87 48 81 49 80 50 36 52 68 53 48 54
REMARK SMILES IDX 67 55 49 56 52 57 66 58 85 59 50 60 51 61 65 63 86 64 53 65
REMARK SMILES IDX 37 66 38 67 46 68 39 69 40 70 44 71 47 72 41 73 42 74 45 75
REMARK SMILES IDX 43 76 69 77 70 78 78 79 71 80 72 81 76 82 79 83 73 84 74 85
REMARK SMILES IDX 77 86 75 87 54 88 55 89 63 90 56 91 57 92 61 93 64 94 58 95
REMARK SMILES IDX 59 96 62 97 60 98
REMARK H PARENT 84 51 52 62
REMARK Flexibility Score: inf
ROOT
ATOM      1  C   UNL A   1      38.575  21.055  26.062  1.00  0.00     0.188 C 
ENDROOT
BRANCH   1   2
ATOM      2  O   UNL A   1      37.896  20.969  24.831  1.00  0.00    -0.376 OA
BRANCH   2   3
ATOM      3  C   UNL A   1      36.559  21.425  24.693  1.00  0.00     0.202 C 
BRANCH   3   4
ATOM      4  C   UNL A   1      35.537  21.465  25.838  1.00  0.00     0.261 C 
BRANCH   4   5
ATOM      5  O   UNL A   1      35.218  22.764  26.348  1.00  0.00    -0.460 OA
BRANCH   5   6
ATOM      6  C   UNL A   1      34.048  22.847  27.019  1.00  0.00     0.338 C 
ATOM      7  O   UNL A   1      33.758  22.265  28.051  1.00  0.00    -0.246 OA
BRANCH   6   8
ATOM      8  C   UNL A   1      33.187  23.882  26.428  1.00  0.00     0.087 C 
ATOM      9  C   UNL A   1      31.769  28.359  24.662  1.00  0.00    -0.025 A 
ATOM     10  C   UNL A   1      31.183  27.395  25.505  1.00  0.00     0.052 A 
ATOM     11  C   UNL A   1      32.990  28.052  24.042  1.00  0.00     0.045 A 
ATOM     12  C   UNL A   1      31.833  26.196  25.782  1.00  0.00     0.128 A 
ATOM     13  C   UNL A   1      33.635  26.840  24.307  1.00  0.00     0.032 A 
ATOM     14  Cl  UNL A   1      33.798  29.158  22.989  1.00  0.00    -0.084 Cl
ATOM     15  C   UNL A   1      33.071  25.925  25.199  1.00  0.00     0.019 A 
ATOM     16  O   UNL A   1      31.248  25.388  26.719  1.00  0.00    -0.475 OA
ATOM     17  C   UNL A   1      33.818  24.759  25.635  1.00  0.00     0.027 C 
ATOM     18  C   UNL A   1      31.750  24.026  26.852  1.00  0.00     0.316 C 
BRANCH   9  19
ATOM     19  C   UNL A   1      31.107  29.717  24.567  1.00  0.00     0.040 C 
BRANCH  19  20
ATOM     20  C   UNL A   1      29.889  29.713  23.614  1.00  0.00    -0.013 C 
ATOM     21  C   UNL A   1      29.029  30.975  23.749  1.00  0.00     0.008 C 
ATOM     22  C   UNL A   1      30.355  29.562  22.166  1.00  0.00     0.008 C 
ENDBRANCH  19  20
ENDBRANCH   9  19
BRANCH  18  23
ATOM     23  C   UNL A   1      30.751  23.073  26.170  1.00  0.00     0.430 C 
ATOM     24  F   UNL A   1      29.537  23.095  26.765  1.00  0.00    -0.167 F 
ATOM     25  F   UNL A   1      30.588  23.358  24.861  1.00  0.00    -0.167 F 
ATOM     26  F   UNL A   1      31.199  21.792  26.227  1.00  0.00    -0.167 F 
ENDBRANCH  18  23
ENDBRANCH   6   8
ENDBRANCH   5   6
ENDBRANCH   4   5
ENDBRANCH   3   4
ENDBRANCH   2   3
ENDBRANCH   1   2
BRANCH   1  27
ATOM     27  C   UNL A   1      40.005  21.629  26.119  1.00  0.00     0.188 C 
BRANCH  27  28
ATOM     28  O   UNL A   1      41.052  20.934  26.760  1.00  0.00    -0.376 OA
BRANCH  28  29
ATOM     29  C   UNL A   1      42.216  20.588  26.027  1.00  0.00     0.202 C 
BRANCH  29  30
ATOM     30  C   UNL A   1      43.218  21.654  25.570  1.00  0.00     0.261 C 
BRANCH  30  31
ATOM     31  O   UNL A   1      42.625  22.870  25.100  1.00  0.00    -0.460 OA
BRANCH  31  32
ATOM     32  C   UNL A   1      43.441  23.958  25.123  1.00  0.00     0.338 C 
ATOM     33  O   UNL A   1      44.368  24.209  24.390  1.00  0.00    -0.246 OA
BRANCH  32  34
ATOM     34  C   UNL A   1      42.885  24.923  26.094  1.00  0.00     0.060 A 
ATOM     35  C   UNL A   1      41.886  24.534  26.985  1.00  0.00     0.016 A 
ATOM     36  C   UNL A   1      43.379  26.236  26.099  1.00  0.00     0.016 A 
ATOM     37  C   UNL A   1      41.391  25.462  27.900  1.00  0.00     0.010 A 
ATOM     38  C   UNL A   1      42.869  27.168  27.002  1.00  0.00     0.010 A 
ATOM     39  C   UNL A   1      41.887  26.780  27.922  1.00  0.00    -0.014 A 
BRANCH  39  40
ATOM     40  C   UNL A   1      41.496  27.684  29.028  1.00  0.00     0.031 A 
ATOM     41  C   UNL A   1      40.303  28.582  28.937  1.00  0.00     0.074 A 
ATOM     42  C   UNL A   1      42.251  27.667  30.142  1.00  0.00     0.049 A 
ATOM     43  N   UNL A   1      39.772  29.334  29.868  1.00  0.00    -0.248 NA
ATOM     44  C   UNL A   1      39.620  28.653  27.639  1.00  0.00     0.031 C 
ATOM     45  C   UNL A   1      43.458  26.859  30.318  1.00  0.00     0.029 A 
ATOM     46  N   UNL A   1      42.111  28.328  31.335  1.00  0.00    -0.354 N 
ATOM     47  C   UNL A   1      38.674  29.947  29.281  1.00  0.00     0.074 A 
ATOM     48  C   UNL A   1      38.648  29.521  27.896  1.00  0.00     0.031 C 
ATOM     49  C   UNL A   1      43.928  27.042  31.561  1.00  0.00     0.029 A 
ATOM     50  C   UNL A   1      43.071  27.995  32.258  1.00  0.00     0.049 A 
ATOM     51  H   UNL A   1      41.392  28.977  31.512  1.00  0.00     0.167 HD
ATOM     52  C   UNL A   1      37.764  30.766  29.862  1.00  0.00     0.037 A 
ATOM     53  C   UNL A   1      43.233  28.402  33.531  1.00  0.00     0.037 A 
ATOM     54  C   UNL A   1      37.815  31.195  31.238  1.00  0.00     0.049 A 
ATOM     55  C   UNL A   1      42.233  29.348  34.132  1.00  0.00     0.074 A 
ATOM     56  C   UNL A   1      36.915  31.994  31.925  1.00  0.00     0.029 A 
ATOM     57  N   UNL A   1      38.826  30.877  32.134  1.00  0.00    -0.354 N 
ATOM     58  N   UNL A   1      41.146  29.849  33.598  1.00  0.00    -0.248 NA
ATOM     59  C   UNL A   1      42.478  29.779  35.515  1.00  0.00     0.031 C 
ATOM     60  C   UNL A   1      37.410  32.206  33.215  1.00  0.00     0.029 A 
ATOM     61  C   UNL A   1      38.588  31.492  33.356  1.00  0.00     0.049 A 
ATOM     62  H   UNL A   1      39.598  30.302  31.932  1.00  0.00     0.167 HD
ATOM     63  C   UNL A   1      40.567  30.637  34.583  1.00  0.00     0.074 A 
ATOM     64  C   UNL A   1      41.411  30.529  35.754  1.00  0.00     0.031 C 
ATOM     65  C   UNL A   1      39.436  31.383  34.517  1.00  0.00     0.037 A 
BRANCH  52  66
ATOM     66  C   UNL A   1      36.615  31.250  29.023  1.00  0.00     0.064 A 
ATOM     67  C   UNL A   1      35.559  30.393  28.675  1.00  0.00     0.173 A 
ATOM     68  C   UNL A   1      36.512  32.599  28.654  1.00  0.00     0.173 A 
ATOM     69  F   UNL A   1      35.607  29.093  29.003  1.00  0.00    -0.203 F 
ATOM     70  C   UNL A   1      34.451  30.868  27.978  1.00  0.00     0.198 A 
ATOM     71  C   UNL A   1      35.389  33.076  27.982  1.00  0.00     0.198 A 
ATOM     72  F   UNL A   1      37.487  33.463  28.973  1.00  0.00    -0.203 F 
ATOM     73  F   UNL A   1      33.466  30.025  27.636  1.00  0.00    -0.200 F 
ATOM     74  C   UNL A   1      34.362  32.210  27.643  1.00  0.00     0.200 A 
ATOM     75  F   UNL A   1      35.296  34.378  27.676  1.00  0.00    -0.200 F 
ATOM     76  F   UNL A   1      33.283  32.669  26.993  1.00  0.00    -0.200 F 
ENDBRANCH  52  66
BRANCH  53  77
ATOM     77  C   UNL A   1      44.368  27.870  34.327  1.00  0.00     0.064 A 
ATOM     78  C   UNL A   1      44.245  26.673  35.043  1.00  0.00     0.173 A 
ATOM     79  C   UNL A   1      45.608  28.527  34.357  1.00  0.00     0.173 A 
ATOM     80  F   UNL A   1      43.075  26.018  35.055  1.00  0.00    -0.203 F 
ATOM     81  C   UNL A   1      45.315  26.158  35.771  1.00  0.00     0.198 A 
ATOM     82  C   UNL A   1      46.685  27.995  35.060  1.00  0.00     0.198 A 
ATOM     83  F   UNL A   1      45.778  29.673  33.681  1.00  0.00    -0.203 F 
ATOM     84  F   UNL A   1      45.160  25.029  36.475  1.00  0.00    -0.200 F 
ATOM     85  C   UNL A   1      46.537  26.814  35.772  1.00  0.00     0.200 A 
ATOM     86  F   UNL A   1      47.870  28.623  35.043  1.00  0.00    -0.200 F 
ATOM     87  F   UNL A   1      47.570  26.310  36.460  1.00  0.00    -0.200 F 
ENDBRANCH  53  77
BRANCH  65  88
ATOM     88  C   UNL A   1      39.035  32.145  35.748  1.00  0.00     0.064 A 
ATOM     89  C   UNL A   1      38.317  31.531  36.787  1.00  0.00     0.173 A 
ATOM     90  C   UNL A   1      39.428  33.479  35.923  1.00  0.00     0.173 A 
ATOM     91  F   UNL A   1      37.904  30.261  36.664  1.00  0.00    -0.203 F 
ATOM     92  C   UNL A   1      37.996  32.231  37.947  1.00  0.00     0.198 A 
ATOM     93  C   UNL A   1      39.133  34.167  37.098  1.00  0.00     0.198 A 
ATOM     94  F   UNL A   1      40.121  34.112  34.964  1.00  0.00    -0.203 F 
ATOM     95  F   UNL A   1      37.277  31.638  38.909  1.00  0.00    -0.200 F 
ATOM     96  C   UNL A   1      38.414  33.544  38.107  1.00  0.00     0.200 A 
ATOM     97  F   UNL A   1      39.553  35.430  37.257  1.00  0.00    -0.200 F 
ATOM     98  F   UNL A   1      38.120  34.211  39.231  1.00  0.00    -0.200 F 
ENDBRANCH  65  88
ENDBRANCH  39  40
ENDBRANCH  32  34
ENDBRANCH  31  32
ENDBRANCH  30  31
ENDBRANCH  29  30
ENDBRANCH  28  29
ENDBRANCH  27  28
ENDBRANCH   1  27
TORSDOF 20
ENDMDL
MODEL 2
REMARK VINA RESULT:     -11.7      1.341      2.053
REMARK SMILES CC(C)Cc1cc2c(cc1Cl)C=C(C(=O)OCCOCCOCCOC(=O)c1ccc(-c3c4nc(c(-c5c(F)c(F)c(F)c(F)c5F)c5ccc([nH]5)c(-c5c(F)c(F)c(F)c(F)c5F)c5nc(c(-c6c(F)c(F)c(F)c(F)c6F)c6ccc3[nH]6)C=C5)C=C4)cc1)[C@H](C(F)(F)F)O2
REMARK SMILES IDX 20 1 19 2 18 3 17 4 16 5 14 6 15 7 13 8 5 9 6 10 10 11 7 12
REMARK SMILES IDX 9 13 11 14 8 15 96 16 12 17 91 18 4 19 2 20 1 21 3 22 92 23
REMARK SMILES IDX 93 24 94 25 95 26 21 27 22 28 23 29 24 30 25 31 26 32 27 33
REMARK SMILES IDX 28 34 29 35 90 36 30 37 89 38 31 39 32 40 33 41 83 42 34 43
REMARK SMILES IDX 88 44 82 45 84 46 35 47 87 48 81 49 80 50 36 52 68 53 48 54
REMARK SMILES IDX 67 55 49 56 52 57 66 58 85 59 50 60 51 61 65 63 86 64 53 65
REMARK SMILES IDX 37 66 38 67 46 68 39 69 40 70 44 71 47 72 41 73 42 74 45 75
REMARK SMILES IDX 43 76 69 77 70 78 78 79 71 80 72 81 76 82 79 83 73 84 74 85
REMARK SMILES IDX 77 86 75 87 54 88 55 89 63 90 56 91 57 92 61 93 64 94 58 95
REMARK SMILES IDX 59 96 62 97 60 98
REMARK H PARENT 84 51 52 62
REMARK Flexibility Score: inf
ROOT
ATOM      1  C   UNL A   1      41.139  19.848  26.903  1.00  0.00     0.188 C 
ENDROOT
BRANCH   1   2
ATOM      2  O   UNL A   1      40.053  20.328  26.144  1.00  0.00    -0.376 OA
BRANCH   2   3
ATOM      3  C   UNL A   1      39.697  21.702  26.156  1.00  0.00     0.202 C 
BRANCH   3   4
ATOM      4  C   UNL A   1      38.279  22.230  25.894  1.00  0.00     0.261 C 
BRANCH   4   5
ATOM      5  O   UNL A   1      37.694  21.858  24.640  1.00  0.00    -0.460 OA
BRANCH   5   6
ATOM      6  C   UNL A   1      36.676  20.974  24.722  1.00  0.00     0.338 C 
ATOM      7  O   UNL A   1      36.763  19.788  24.997  1.00  0.00    -0.246 OA
BRANCH   6   8
ATOM      8  C   UNL A   1      35.383  21.662  24.595  1.00  0.00     0.087 C 
ATOM      9  C   UNL A   1      32.085  25.427  24.250  1.00  0.00    -0.025 A 
ATOM     10  C   UNL A   1      32.138  24.219  24.972  1.00  0.00     0.052 A 
ATOM     11  C   UNL A   1      33.092  25.689  23.308  1.00  0.00     0.045 A 
ATOM     12  C   UNL A   1      33.205  23.337  24.815  1.00  0.00     0.128 A 
ATOM     13  C   UNL A   1      34.154  24.795  23.139  1.00  0.00     0.032 A 
ATOM     14  Cl  UNL A   1      33.127  27.137  22.366  1.00  0.00    -0.084 Cl
ATOM     15  C   UNL A   1      34.225  23.634  23.912  1.00  0.00     0.019 A 
ATOM     16  O   UNL A   1      33.234  22.262  25.661  1.00  0.00    -0.475 OA
ATOM     17  C   UNL A   1      35.414  22.801  23.891  1.00  0.00     0.027 C 
ATOM     18  C   UNL A   1      34.178  21.191  25.366  1.00  0.00     0.316 C 
BRANCH   9  19
ATOM     19  C   UNL A   1      31.010  26.428  24.617  1.00  0.00     0.040 C 
BRANCH  19  20
ATOM     20  C   UNL A   1      31.460  27.387  25.745  1.00  0.00    -0.013 C 
ATOM     21  C   UNL A   1      32.865  27.069  26.265  1.00  0.00     0.008 C 
ATOM     22  C   UNL A   1      31.409  28.835  25.255  1.00  0.00     0.008 C 
ENDBRANCH  19  20
ENDBRANCH   9  19
BRANCH  18  23
ATOM     23  C   UNL A   1      33.402  20.016  24.744  1.00  0.00     0.430 C 
ATOM     24  F   UNL A   1      32.936  20.309  23.509  1.00  0.00    -0.167 F 
ATOM     25  F   UNL A   1      34.152  18.897  24.661  1.00  0.00    -0.167 F 
ATOM     26  F   UNL A   1      32.327  19.697  25.510  1.00  0.00    -0.167 F 
ENDBRANCH  18  23
ENDBRANCH   6   8
ENDBRANCH   5   6
ENDBRANCH   4   5
ENDBRANCH   3   4
ENDBRANCH   2   3
ENDBRANCH   1   2
BRANCH   1  27
ATOM     27  C   UNL A   1      42.376  19.258  26.197  1.00  0.00     0.188 C 
BRANCH  27  28
ATOM     28  O   UNL A   1      43.146  20.027  25.298  1.00  0.00    -0.376 OA
BRANCH  28  29
ATOM     29  C   UNL A   1      43.519  21.350  25.646  1.00  0.00     0.202 C 
BRANCH  29  30
ATOM     30  C   UNL A   1      43.461  22.491  24.625  1.00  0.00     0.261 C 
BRANCH  30  31
ATOM     31  O   UNL A   1      42.809  23.678  25.091  1.00  0.00    -0.460 OA
BRANCH  31  32
ATOM     32  C   UNL A   1      43.627  24.747  25.288  1.00  0.00     0.338 C 
ATOM     33  O   UNL A   1      44.612  25.057  24.660  1.00  0.00    -0.246 OA
BRANCH  32  34
ATOM     34  C   UNL A   1      42.999  25.619  26.302  1.00  0.00     0.060 A 
ATOM     35  C   UNL A   1      42.024  25.115  27.161  1.00  0.00     0.016 A 
ATOM     36  C   UNL A   1      43.401  26.961  26.380  1.00  0.00     0.016 A 
ATOM     37  C   UNL A   1      41.460  25.958  28.118  1.00  0.00     0.010 A 
ATOM     38  C   UNL A   1      42.822  27.807  27.325  1.00  0.00     0.010 A 
ATOM     39  C   UNL A   1      41.863  27.304  28.215  1.00  0.00    -0.014 A 
BRANCH  39  40
ATOM     40  C   UNL A   1      41.404  28.119  29.362  1.00  0.00     0.031 A 
ATOM     41  C   UNL A   1      40.203  29.008  29.277  1.00  0.00     0.074 A 
ATOM     42  C   UNL A   1      42.102  28.029  30.509  1.00  0.00     0.049 A 
ATOM     43  N   UNL A   1      39.614  29.682  30.232  1.00  0.00    -0.248 NA
ATOM     44  C   UNL A   1      39.584  29.166  27.954  1.00  0.00     0.031 C 
ATOM     45  C   UNL A   1      43.312  27.225  30.687  1.00  0.00     0.029 A 
ATOM     46  N   UNL A   1      41.893  28.599  31.738  1.00  0.00    -0.354 N 
ATOM     47  C   UNL A   1      38.538  30.323  29.636  1.00  0.00     0.074 A 
ATOM     48  C   UNL A   1      38.587  30.000  28.224  1.00  0.00     0.031 C 
ATOM     49  C   UNL A   1      43.716  27.322  31.962  1.00  0.00     0.029 A 
ATOM     50  C   UNL A   1      42.811  28.210  32.682  1.00  0.00     0.049 A 
ATOM     51  H   UNL A   1      41.156  29.224  31.926  1.00  0.00     0.167 HD
ATOM     52  C   UNL A   1      37.587  31.087  30.228  1.00  0.00     0.037 A 
ATOM     53  C   UNL A   1      42.903  28.525  33.988  1.00  0.00     0.037 A 
ATOM     54  C   UNL A   1      37.563  31.414  31.633  1.00  0.00     0.049 A 
ATOM     55  C   UNL A   1      41.860  29.412  34.604  1.00  0.00     0.074 A 
ATOM     56  C   UNL A   1      36.617  32.149  32.329  1.00  0.00     0.029 A 
ATOM     57  N   UNL A   1      38.533  31.043  32.553  1.00  0.00    -0.354 N 
ATOM     58  N   UNL A   1      40.793  29.938  34.055  1.00  0.00    -0.248 NA
ATOM     59  C   UNL A   1      42.028  29.742  36.026  1.00  0.00     0.031 C 
ATOM     60  C   UNL A   1      37.044  32.272  33.655  1.00  0.00     0.029 A 
ATOM     61  C   UNL A   1      38.225  31.563  33.803  1.00  0.00     0.049 A 
ATOM     62  H   UNL A   1      39.323  30.493  32.349  1.00  0.00     0.167 HD
ATOM     63  C   UNL A   1      40.153  30.644  35.063  1.00  0.00     0.074 A 
ATOM     64  C   UNL A   1      40.939  30.460  36.265  1.00  0.00     0.031 C 
ATOM     65  C   UNL A   1      39.016  31.380  34.994  1.00  0.00     0.037 A 
BRANCH  52  66
ATOM     66  C   UNL A   1      36.474  31.617  29.370  1.00  0.00     0.064 A 
ATOM     67  C   UNL A   1      35.451  30.776  28.906  1.00  0.00     0.173 A 
ATOM     68  C   UNL A   1      36.369  32.989  29.095  1.00  0.00     0.173 A 
ATOM     69  F   UNL A   1      35.503  29.456  29.140  1.00  0.00    -0.203 F 
ATOM     70  C   UNL A   1      34.371  31.287  28.191  1.00  0.00     0.198 A 
ATOM     71  C   UNL A   1      35.273  33.500  28.403  1.00  0.00     0.198 A 
ATOM     72  F   UNL A   1      37.313  33.839  29.525  1.00  0.00    -0.203 F 
ATOM     73  F   UNL A   1      33.417  30.461  27.738  1.00  0.00    -0.200 F 
ATOM     74  C   UNL A   1      34.277  32.649  27.950  1.00  0.00     0.200 A 
ATOM     75  F   UNL A   1      35.174  34.820  28.189  1.00  0.00    -0.200 F 
ATOM     76  F   UNL A   1      33.225  33.142  27.282  1.00  0.00    -0.200 F 
ENDBRANCH  52  66
BRANCH  53  77
ATOM     77  C   UNL A   1      44.005  27.949  34.799  1.00  0.00     0.064 A 
ATOM     78  C   UNL A   1      43.860  26.708  35.432  1.00  0.00     0.173 A 
ATOM     79  C   UNL A   1      45.237  28.610  34.928  1.00  0.00     0.173 A 
ATOM     80  F   UNL A   1      42.696  26.047  35.349  1.00  0.00    -0.203 F 
ATOM     81  C   UNL A   1      44.899  26.153  36.174  1.00  0.00     0.198 A 
ATOM     82  C   UNL A   1      46.286  28.039  35.645  1.00  0.00     0.198 A 
ATOM     83  F   UNL A   1      45.428  29.796  34.334  1.00  0.00    -0.203 F 
ATOM     84  F   UNL A   1      44.722  24.981  36.797  1.00  0.00    -0.200 F 
ATOM     85  C   UNL A   1      46.115  26.815  36.272  1.00  0.00     0.200 A 
ATOM     86  F   UNL A   1      47.464  28.673  35.722  1.00  0.00    -0.200 F 
ATOM     87  F   UNL A   1      47.120  26.273  36.973  1.00  0.00    -0.200 F 
ENDBRANCH  53  77
BRANCH  65  88
ATOM     88  C   UNL A   1      38.541  32.043  36.256  1.00  0.00     0.064 A 
ATOM     89  C   UNL A   1      37.789  31.344  37.213  1.00  0.00     0.173 A 
ATOM     90  C   UNL A   1      38.899  33.368  36.545  1.00  0.00     0.173 A 
ATOM     91  F   UNL A   1      37.407  30.080  36.980  1.00  0.00    -0.203 F 
ATOM     92  C   UNL A   1      37.400  31.954  38.403  1.00  0.00     0.198 A 
ATOM     93  C   UNL A   1      38.536  33.965  37.749  1.00  0.00     0.198 A 
ATOM     94  F   UNL A   1      39.623  34.080  35.668  1.00  0.00    -0.203 F 
ATOM     95  F   UNL A   1      36.648  31.280  39.284  1.00  0.00    -0.200 F 
ATOM     96  C   UNL A   1      37.783  33.258  38.675  1.00  0.00     0.200 A 
ATOM     97  F   UNL A   1      38.922  35.219  38.018  1.00  0.00    -0.200 F 
ATOM     98  F   UNL A   1      37.422  33.837  39.829  1.00  0.00    -0.200 F 
ENDBRANCH  65  88
ENDBRANCH  39  40
ENDBRANCH  32  34
ENDBRANCH  31  32
ENDBRANCH  30  31
ENDBRANCH  29  30
ENDBRANCH  28  29
ENDBRANCH  27  28
ENDBRANCH   1  27
TORSDOF 20
ENDMDL
MODEL 3
REMARK VINA RESULT:     -11.5      3.197      8.796
REMARK SMILES CC(C)Cc1cc2c(cc1Cl)C=C(C(=O)OCCOCCOCCOC(=O)c1ccc(-c3c4nc(c(-c5c(F)c(F)c(F)c(F)c5F)c5ccc([nH]5)c(-c5c(F)c(F)c(F)c(F)c5F)c5nc(c(-c6c(F)c(F)c(F)c(F)c6F)c6ccc3[nH]6)C=C5)C=C4)cc1)[C@H](C(F)(F)F)O2
REMARK SMILES IDX 20 1 19 2 18 3 17 4 16 5 14 6 15 7 13 8 5 9 6 10 10 11 7 12
REMARK SMILES IDX 9 13 11 14 8 15 96 16 12 17 91 18 4 19 2 20 1 21 3 22 92 23
REMARK SMILES IDX 93 24 94 25 95 26 21 27 22 28 23 29 24 30 25 31 26 32 27 33
REMARK SMILES IDX 28 34 29 35 90 36 30 37 89 38 31 39 32 40 33 41 83 42 34 43
REMARK SMILES IDX 88 44 82 45 84 46 35 47 87 48 81 49 80 50 36 52 68 53 48 54
REMARK SMILES IDX 67 55 49 56 52 57 66 58 85 59 50 60 51 61 65 63 86 64 53 65
REMARK SMILES IDX 37 66 38 67 46 68 39 69 40 70 44 71 47 72 41 73 42 74 45 75
REMARK SMILES IDX 43 76 69 77 70 78 78 79 71 80 72 81 76 82 79 83 73 84 74 85
REMARK SMILES IDX 77 86 75 87 54 88 55 89 63 90 56 91 57 92 61 93 64 94 58 95
REMARK SMILES IDX 59 96 62 97 60 98
REMARK H PARENT 84 51 52 62
REMARK Flexibility Score: inf
ROOT
ATOM      1  C   UNL A   1      31.813  27.206  26.567  1.00  0.00     0.188 C 
ENDROOT
BRANCH   1   2
ATOM      2  O   UNL A   1      30.635  26.473  26.817  1.00  0.00    -0.376 OA
BRANCH   2   3
ATOM      3  C   UNL A   1      29.913  25.856  25.762  1.00  0.00     0.202 C 
BRANCH   3   4
ATOM      4  C   UNL A   1      29.916  26.350  24.309  1.00  0.00     0.261 C 
BRANCH   4   5
ATOM      5  O   UNL A   1      30.518  25.472  23.350  1.00  0.00    -0.460 OA
BRANCH   5   6
ATOM      6  C   UNL A   1      31.869  25.463  23.350  1.00  0.00     0.338 C 
ATOM      7  O   UNL A   1      32.604  26.422  23.178  1.00  0.00    -0.246 OA
BRANCH   6   8
ATOM      8  C   UNL A   1      32.376  24.144  23.758  1.00  0.00     0.087 C 
ATOM      9  C   UNL A   1      32.578  19.161  24.311  1.00  0.00    -0.025 A 
ATOM     10  C   UNL A   1      32.809  20.263  25.158  1.00  0.00     0.052 A 
ATOM     11  C   UNL A   1      32.321  19.403  22.953  1.00  0.00     0.045 A 
ATOM     12  C   UNL A   1      32.707  21.567  24.680  1.00  0.00     0.128 A 
ATOM     13  C   UNL A   1      32.235  20.712  22.470  1.00  0.00     0.032 A 
ATOM     14  Cl  UNL A   1      32.024  18.129  21.824  1.00  0.00    -0.084 Cl
ATOM     15  C   UNL A   1      32.400  21.794  23.339  1.00  0.00     0.019 A 
ATOM     16  O   UNL A   1      32.812  22.565  25.610  1.00  0.00    -0.475 OA
ATOM     17  C   UNL A   1      32.120  23.148  22.898  1.00  0.00     0.027 C 
ATOM     18  C   UNL A   1      32.967  23.932  25.126  1.00  0.00     0.316 C 
BRANCH   9  19
ATOM     19  C   UNL A   1      32.504  17.785  24.938  1.00  0.00     0.040 C 
BRANCH  19  20
ATOM     20  C   UNL A   1      33.654  16.862  24.472  1.00  0.00    -0.013 C 
ATOM     21  C   UNL A   1      34.999  17.592  24.385  1.00  0.00     0.008 C 
ATOM     22  C   UNL A   1      33.780  15.663  25.411  1.00  0.00     0.008 C 
ENDBRANCH  19  20
ENDBRANCH   9  19
BRANCH  18  23
ATOM     23  C   UNL A   1      34.442  24.340  25.290  1.00  0.00     0.430 C 
ATOM     24  F   UNL A   1      35.151  24.157  24.154  1.00  0.00    -0.167 F 
ATOM     25  F   UNL A   1      34.574  25.629  25.669  1.00  0.00    -0.167 F 
ATOM     26  F   UNL A   1      35.038  23.597  26.256  1.00  0.00    -0.167 F 
ENDBRANCH  18  23
ENDBRANCH   6   8
ENDBRANCH   5   6
ENDBRANCH   4   5
ENDBRANCH   3   4
ENDBRANCH   2   3
ENDBRANCH   1   2
BRANCH   1  27
ATOM     27  C   UNL A   1      31.800  28.744  26.655  1.00  0.00     0.188 C 
BRANCH  27  28
ATOM     28  O   UNL A   1      31.737  29.547  25.496  1.00  0.00    -0.376 OA
BRANCH  28  29
ATOM     29  C   UNL A   1      31.095  30.810  25.551  1.00  0.00     0.202 C 
BRANCH  29  30
ATOM     30  C   UNL A   1      31.588  31.915  26.492  1.00  0.00     0.261 C 
BRANCH  30  31
ATOM     31  O   UNL A   1      32.777  31.593  27.223  1.00  0.00    -0.460 OA
BRANCH  31  32
ATOM     32  C   UNL A   1      33.542  32.658  27.582  1.00  0.00     0.338 C 
ATOM     33  O   UNL A   1      33.229  33.826  27.605  1.00  0.00    -0.246 OA
BRANCH  32  34
ATOM     34  C   UNL A   1      34.803  32.142  28.151  1.00  0.00     0.060 A 
ATOM     35  C   UNL A   1      35.919  32.970  28.263  1.00  0.00     0.016 A 
ATOM     36  C   UNL A   1      34.857  30.805  28.573  1.00  0.00     0.016 A 
ATOM     37  C   UNL A   1      37.093  32.459  28.817  1.00  0.00     0.010 A 
ATOM     38  C   UNL A   1      36.036  30.291  29.110  1.00  0.00     0.010 A 
ATOM     39  C   UNL A   1      37.155  31.123  29.255  1.00  0.00    -0.014 A 
BRANCH  39  40
ATOM     40  C   UNL A   1      38.336  30.664  30.023  1.00  0.00     0.031 A 
ATOM     41  C   UNL A   1      38.583  31.096  31.433  1.00  0.00     0.074 A 
ATOM     42  C   UNL A   1      39.188  29.823  29.410  1.00  0.00     0.049 A 
ATOM     43  N   UNL A   1      39.503  30.681  32.267  1.00  0.00    -0.248 NA
ATOM     44  C   UNL A   1      37.691  32.127  31.981  1.00  0.00     0.031 C 
ATOM     45  C   UNL A   1      39.062  29.372  28.023  1.00  0.00     0.029 A 
ATOM     46  N   UNL A   1      40.312  29.187  29.869  1.00  0.00    -0.354 N 
ATOM     47  C   UNL A   1      39.287  31.376  33.448  1.00  0.00     0.074 A 
ATOM     48  C   UNL A   1      38.181  32.281  33.205  1.00  0.00     0.031 C 
ATOM     49  C   UNL A   1      40.047  28.502  27.756  1.00  0.00     0.029 A 
ATOM     50  C   UNL A   1      40.885  28.353  28.941  1.00  0.00     0.049 A 
ATOM     51  H   UNL A   1      40.674  29.315  30.776  1.00  0.00     0.167 HD
ATOM     52  C   UNL A   1      39.941  31.243  34.628  1.00  0.00     0.037 A 
ATOM     53  C   UNL A   1      41.958  27.546  29.040  1.00  0.00     0.037 A 
ATOM     54  C   UNL A   1      41.052  30.350  34.848  1.00  0.00     0.049 A 
ATOM     55  C   UNL A   1      42.690  27.456  30.348  1.00  0.00     0.074 A 
ATOM     56  C   UNL A   1      41.752  30.119  36.021  1.00  0.00     0.029 A 
ATOM     57  N   UNL A   1      41.637  29.553  33.874  1.00  0.00    -0.354 N 
ATOM     58  N   UNL A   1      42.422  28.047  31.487  1.00  0.00    -0.248 NA
ATOM     59  C   UNL A   1      43.870  26.581  30.388  1.00  0.00     0.031 C 
ATOM     60  C   UNL A   1      42.794  29.229  35.744  1.00  0.00     0.029 A 
ATOM     61  C   UNL A   1      42.710  28.856  34.413  1.00  0.00     0.049 A 
ATOM     62  H   UNL A   1      41.336  29.491  32.940  1.00  0.00     0.167 HD
ATOM     63  C   UNL A   1      43.384  27.601  32.383  1.00  0.00     0.074 A 
ATOM     64  C   UNL A   1      44.229  26.674  31.661  1.00  0.00     0.031 C 
ATOM     65  C   UNL A   1      43.550  27.937  33.686  1.00  0.00     0.037 A 
BRANCH  52  66
ATOM     66  C   UNL A   1      39.469  32.068  35.792  1.00  0.00     0.064 A 
ATOM     67  C   UNL A   1      38.492  31.585  36.676  1.00  0.00     0.173 A 
ATOM     68  C   UNL A   1      40.069  33.301  36.088  1.00  0.00     0.173 A 
ATOM     69  F   UNL A   1      37.886  30.412  36.439  1.00  0.00    -0.203 F 
ATOM     70  C   UNL A   1      38.125  32.312  37.806  1.00  0.00     0.198 A 
ATOM     71  C   UNL A   1      39.719  34.012  37.234  1.00  0.00     0.198 A 
ATOM     72  F   UNL A   1      41.017  33.803  35.284  1.00  0.00    -0.203 F 
ATOM     73  F   UNL A   1      37.173  31.841  38.623  1.00  0.00    -0.200 F 
ATOM     74  C   UNL A   1      38.747  33.518  38.090  1.00  0.00     0.200 A 
ATOM     75  F   UNL A   1      40.335  35.168  37.518  1.00  0.00    -0.200 F 
ATOM     76  F   UNL A   1      38.409  34.204  39.191  1.00  0.00    -0.200 F 
ENDBRANCH  52  66
BRANCH  53  77
ATOM     77  C   UNL A   1      42.364  26.728  27.869  1.00  0.00     0.064 A 
ATOM     78  C   UNL A   1      41.781  25.477  27.630  1.00  0.00     0.173 A 
ATOM     79  C   UNL A   1      43.314  27.195  26.948  1.00  0.00     0.173 A 
ATOM     80  F   UNL A   1      40.880  24.983  28.491  1.00  0.00    -0.203 F 
ATOM     81  C   UNL A   1      42.142  24.717  26.520  1.00  0.00     0.198 A 
ATOM     82  C   UNL A   1      43.651  26.448  25.823  1.00  0.00     0.198 A 
ATOM     83  F   UNL A   1      43.894  28.391  27.129  1.00  0.00    -0.203 F 
ATOM     84  F   UNL A   1      41.595  23.508  26.333  1.00  0.00    -0.200 F 
ATOM     85  C   UNL A   1      43.070  25.207  25.612  1.00  0.00     0.200 A 
ATOM     86  F   UNL A   1      44.533  26.933  24.938  1.00  0.00    -0.200 F 
ATOM     87  F   UNL A   1      43.404  24.482  24.537  1.00  0.00    -0.200 F 
ENDBRANCH  53  77
BRANCH  65  88
ATOM     88  C   UNL A   1      44.687  27.294  34.429  1.00  0.00     0.064 A 
ATOM     89  C   UNL A   1      45.939  27.920  34.536  1.00  0.00     0.173 A 
ATOM     90  C   UNL A   1      44.505  26.074  35.097  1.00  0.00     0.173 A 
ATOM     91  F   UNL A   1      46.170  29.080  33.904  1.00  0.00    -0.203 F 
ATOM     92  C   UNL A   1      46.969  27.340  35.271  1.00  0.00     0.198 A 
ATOM     93  C   UNL A   1      45.528  25.512  35.858  1.00  0.00     0.198 A 
ATOM     94  F   UNL A   1      43.327  25.436  35.033  1.00  0.00    -0.203 F 
ATOM     95  F   UNL A   1      48.168  27.936  35.327  1.00  0.00    -0.200 F 
ATOM     96  C   UNL A   1      46.760  26.143  35.940  1.00  0.00     0.200 A 
ATOM     97  F   UNL A   1      45.318  24.365  36.518  1.00  0.00    -0.200 F 
ATOM     98  F   UNL A   1      47.747  25.595  36.662  1.00  0.00    -0.200 F 
ENDBRANCH  65  88
ENDBRANCH  39  40
ENDBRANCH  32  34
ENDBRANCH  31  32
ENDBRANCH  30  31
ENDBRANCH  29  30
ENDBRANCH  28  29
ENDBRANCH  27  28
ENDBRANCH   1  27
TORSDOF 20
ENDMDL
