MODEL 1
REMARK VINA RESULT:     -10.7      0.000      0.000
REMARK SMILES CC[C@@](O)(C(=O)OCCOCCOCCOC(=O)c1ccc(-c2c3nc(c(-c4c(F)c(F)c(F)c(F)c4F)c4ccc([nH]4)c(-c4c(F)c(F)c(F)c(F)c4F)c4nc(c(-c5c(F)c(F)c(F)c(F)c5F)c5ccc2[nH]5)C=C4)C=C3)cc1)[C@@H]1CCOc2ccccc21
REMARK SMILES IDX 12 1 11 2 10 3 9 4 8 5 7 6 5 7 6 8 3 9 2 10 1 11 4 12 82 14
REMARK SMILES IDX 83 15 91 16 84 17 86 18 90 19 85 20 87 21 89 22 88 23 13 24
REMARK SMILES IDX 14 25 15 26 16 27 17 28 18 29 19 30 20 31 81 32 21 33 80 34
REMARK SMILES IDX 22 35 23 36 24 37 74 38 25 39 79 40 73 41 75 42 26 43 78 44
REMARK SMILES IDX 72 45 71 46 27 48 59 49 39 50 58 51 40 52 43 53 57 54 76 55
REMARK SMILES IDX 41 56 42 57 56 59 77 60 44 61 28 62 29 63 37 64 30 65 31 66
REMARK SMILES IDX 35 67 38 68 32 69 33 70 36 71 34 72 60 73 61 74 69 75 62 76
REMARK SMILES IDX 63 77 67 78 70 79 64 80 65 81 68 82 66 83 45 84 46 85 54 86
REMARK SMILES IDX 47 87 48 88 52 89 55 90 49 91 50 92 53 93 51 94
REMARK H PARENT 4 13 75 47 43 58
REMARK Flexibility Score: inf
ROOT
ATOM      1  C   UNL A   1      32.671  29.871  25.978  1.00  0.00     0.188 C 
ENDROOT
BRANCH   1   2
ATOM      2  C   UNL A   1      33.428  28.621  26.398  1.00  0.00     0.188 C 
BRANCH   2   3
ATOM      3  O   UNL A   1      33.510  27.680  25.365  1.00  0.00    -0.376 OA
BRANCH   3   4
ATOM      4  C   UNL A   1      32.401  27.550  24.495  1.00  0.00     0.202 C 
BRANCH   4   5
ATOM      5  C   UNL A   1      32.184  26.420  23.449  1.00  0.00     0.261 C 
BRANCH   5   6
ATOM      6  O   UNL A   1      32.537  25.044  23.706  1.00  0.00    -0.461 OA
BRANCH   6   7
ATOM      7  C   UNL A   1      31.666  24.377  24.512  1.00  0.00     0.338 C 
ATOM      8  O   UNL A   1      30.481  24.712  24.557  1.00  0.00    -0.249 OA
BRANCH   7   9
ATOM      9  C   UNL A   1      32.255  23.154  25.354  1.00  0.00     0.168 C 
BRANCH   9  10
ATOM     10  C   UNL A   1      33.220  23.572  26.508  1.00  0.00     0.044 C 
ATOM     11  C   UNL A   1      33.550  22.548  27.599  1.00  0.00     0.007 C 
ENDBRANCH   9  10
BRANCH   9  12
ATOM     12  O   UNL A   1      31.142  22.496  25.985  1.00  0.00    -0.378 OA
ATOM     13  H   UNL A   1      31.445  22.045  26.787  1.00  0.00     0.212 HD
ENDBRANCH   9  12
BRANCH   9  14
ATOM     14  C   UNL A   1      32.899  22.215  24.236  1.00  0.00     0.070 C 
ATOM     15  C   UNL A   1      32.169  20.833  24.199  1.00  0.00     0.053 C 
ATOM     16  C   UNL A   1      34.398  21.998  24.278  1.00  0.00     0.001 A 
ATOM     17  C   UNL A   1      33.090  19.635  24.260  1.00  0.00     0.230 C 
ATOM     18  C   UNL A   1      34.916  20.838  24.865  1.00  0.00     0.122 A 
ATOM     19  C   UNL A   1      35.298  22.900  23.692  1.00  0.00     0.008 A 
ATOM     20  O   UNL A   1      34.083  19.830  25.271  1.00  0.00    -0.493 OA
ATOM     21  C   UNL A   1      36.285  20.637  25.001  1.00  0.00     0.047 A 
ATOM     22  C   UNL A   1      36.677  22.688  23.794  1.00  0.00     0.001 A 
ATOM     23  C   UNL A   1      37.169  21.570  24.470  1.00  0.00     0.004 A 
ENDBRANCH   9  14
ENDBRANCH   7   9
ENDBRANCH   6   7
ENDBRANCH   5   6
ENDBRANCH   4   5
ENDBRANCH   3   4
ENDBRANCH   2   3
ENDBRANCH   1   2
BRANCH   1  24
ATOM     24  O   UNL A   1      31.832  30.591  26.863  1.00  0.00    -0.376 OA
BRANCH  24  25
ATOM     25  C   UNL A   1      31.362  31.881  26.500  1.00  0.00     0.202 C 
BRANCH  25  26
ATOM     26  C   UNL A   1      32.149  33.147  26.888  1.00  0.00     0.261 C 
BRANCH  26  27
ATOM     27  O   UNL A   1      33.005  33.042  28.032  1.00  0.00    -0.460 OA
BRANCH  27  28
ATOM     28  C   UNL A   1      34.115  33.827  27.995  1.00  0.00     0.338 C 
ATOM     29  O   UNL A   1      34.169  35.027  27.822  1.00  0.00    -0.246 OA
BRANCH  28  30
ATOM     30  C   UNL A   1      35.272  33.008  28.430  1.00  0.00     0.060 A 
ATOM     31  C   UNL A   1      35.055  31.651  28.724  1.00  0.00     0.016 A 
ATOM     32  C   UNL A   1      36.550  33.556  28.522  1.00  0.00     0.016 A 
ATOM     33  C   UNL A   1      36.115  30.839  29.118  1.00  0.00     0.010 A 
ATOM     34  C   UNL A   1      37.604  32.751  28.964  1.00  0.00     0.010 A 
ATOM     35  C   UNL A   1      37.384  31.400  29.290  1.00  0.00    -0.014 A 
BRANCH  35  36
ATOM     36  C   UNL A   1      38.422  30.643  30.029  1.00  0.00     0.031 A 
ATOM     37  C   UNL A   1      38.641  30.983  31.476  1.00  0.00     0.074 A 
ATOM     38  C   UNL A   1      39.141  29.671  29.443  1.00  0.00     0.049 A 
ATOM     39  N   UNL A   1      39.548  30.542  32.310  1.00  0.00    -0.248 NA
ATOM     40  C   UNL A   1      37.709  31.961  32.061  1.00  0.00     0.031 C 
ATOM     41  C   UNL A   1      38.980  29.208  28.068  1.00  0.00     0.029 A 
ATOM     42  N   UNL A   1      40.170  28.908  29.940  1.00  0.00    -0.354 N 
ATOM     43  C   UNL A   1      39.303  31.197  33.508  1.00  0.00     0.074 A 
ATOM     44  C   UNL A   1      38.185  32.087  33.289  1.00  0.00     0.031 C 
ATOM     45  C   UNL A   1      39.898  28.257  27.820  1.00  0.00     0.029 A 
ATOM     46  C   UNL A   1      40.734  28.075  29.007  1.00  0.00     0.049 A 
ATOM     47  H   UNL A   1      40.473  28.956  30.875  1.00  0.00     0.167 HD
ATOM     48  C   UNL A   1      39.950  31.063  34.690  1.00  0.00     0.037 A 
ATOM     49  C   UNL A   1      41.823  27.285  29.095  1.00  0.00     0.037 A 
ATOM     50  C   UNL A   1      41.068  30.182  34.901  1.00  0.00     0.049 A 
ATOM     51  C   UNL A   1      42.586  27.220  30.396  1.00  0.00     0.074 A 
ATOM     52  C   UNL A   1      41.792  29.969  36.060  1.00  0.00     0.029 A 
ATOM     53  N   UNL A   1      41.631  29.374  33.923  1.00  0.00    -0.354 N 
ATOM     54  N   UNL A   1      42.347  27.833  31.532  1.00  0.00    -0.248 NA
ATOM     55  C   UNL A   1      43.771  26.351  30.426  1.00  0.00     0.031 C 
ATOM     56  C   UNL A   1      42.831  29.080  35.769  1.00  0.00     0.029 A 
ATOM     57  C   UNL A   1      42.711  28.682  34.447  1.00  0.00     0.049 A 
ATOM     58  H   UNL A   1      41.310  29.302  32.995  1.00  0.00     0.167 HD
ATOM     59  C   UNL A   1      43.328  27.398  32.416  1.00  0.00     0.074 A 
ATOM     60  C   UNL A   1      44.157  26.461  31.690  1.00  0.00     0.031 C 
ATOM     61  C   UNL A   1      43.522  27.743  33.714  1.00  0.00     0.037 A 
BRANCH  48  62
ATOM     62  C   UNL A   1      39.487  31.918  35.833  1.00  0.00     0.064 A 
ATOM     63  C   UNL A   1      40.034  33.188  36.077  1.00  0.00     0.173 A 
ATOM     64  C   UNL A   1      38.467  31.470  36.685  1.00  0.00     0.173 A 
ATOM     65  F   UNL A   1      41.025  33.657  35.303  1.00  0.00    -0.203 F 
ATOM     66  C   UNL A   1      39.597  33.961  37.150  1.00  0.00     0.198 A 
ATOM     67  C   UNL A   1      38.008  32.261  37.735  1.00  0.00     0.198 A 
ATOM     68  F   UNL A   1      37.909  30.264  36.497  1.00  0.00    -0.203 F 
ATOM     69  F   UNL A   1      40.173  35.146  37.397  1.00  0.00    -0.200 F 
ATOM     70  C   UNL A   1      38.580  33.501  37.971  1.00  0.00     0.200 A 
ATOM     71  F   UNL A   1      37.015  31.820  38.520  1.00  0.00    -0.200 F 
ATOM     72  F   UNL A   1      38.155  34.251  38.999  1.00  0.00    -0.200 F 
ENDBRANCH  48  62
BRANCH  49  73
ATOM     73  C   UNL A   1      42.278  26.509  27.910  1.00  0.00     0.064 A 
ATOM     74  C   UNL A   1      43.212  27.041  27.010  1.00  0.00     0.173 A 
ATOM     75  C   UNL A   1      41.766  25.232  27.639  1.00  0.00     0.173 A 
ATOM     76  F   UNL A   1      43.710  28.270  27.209  1.00  0.00    -0.203 F 
ATOM     77  C   UNL A   1      43.601  26.333  25.874  1.00  0.00     0.198 A 
ATOM     78  C   UNL A   1      42.180  24.511  26.521  1.00  0.00     0.198 A 
ATOM     79  F   UNL A   1      40.866  24.678  28.465  1.00  0.00    -0.203 F 
ATOM     80  F   UNL A   1      44.453  26.888  25.001  1.00  0.00    -0.200 F 
ATOM     81  C   UNL A   1      43.090  25.067  25.633  1.00  0.00     0.200 A 
ATOM     82  F   UNL A   1      41.693  23.282  26.299  1.00  0.00    -0.200 F 
ATOM     83  F   UNL A   1      43.466  24.386  24.543  1.00  0.00    -0.200 F 
ENDBRANCH  49  73
BRANCH  61  84
ATOM     84  C   UNL A   1      44.645  27.068  34.452  1.00  0.00     0.064 A 
ATOM     85  C   UNL A   1      45.946  27.591  34.467  1.00  0.00     0.173 A 
ATOM     86  C   UNL A   1      44.402  25.902  35.197  1.00  0.00     0.173 A 
ATOM     87  F   UNL A   1      46.237  28.697  33.764  1.00  0.00    -0.203 F 
ATOM     88  C   UNL A   1      46.966  26.958  35.172  1.00  0.00     0.198 A 
ATOM     89  C   UNL A   1      45.415  25.292  35.930  1.00  0.00     0.198 A 
ATOM     90  F   UNL A   1      43.174  25.363  35.227  1.00  0.00    -0.203 F 
ATOM     91  F   UNL A   1      48.214  27.448  35.127  1.00  0.00    -0.200 F 
ATOM     92  C   UNL A   1      46.699  25.815  35.910  1.00  0.00     0.200 A 
ATOM     93  F   UNL A   1      45.150  24.198  36.657  1.00  0.00    -0.200 F 
ATOM     94  F   UNL A   1      47.680  25.213  36.596  1.00  0.00    -0.200 F 
ENDBRANCH  61  84
ENDBRANCH  35  36
ENDBRANCH  28  30
ENDBRANCH  27  28
ENDBRANCH  26  27
ENDBRANCH  25  26
ENDBRANCH  24  25
ENDBRANCH   1  24
TORSDOF 20
ENDMDL
MODEL 2
REMARK VINA RESULT:     -10.7      4.405      6.467
REMARK SMILES CC[C@@](O)(C(=O)OCCOCCOCCOC(=O)c1ccc(-c2c3nc(c(-c4c(F)c(F)c(F)c(F)c4F)c4ccc([nH]4)c(-c4c(F)c(F)c(F)c(F)c4F)c4nc(c(-c5c(F)c(F)c(F)c(F)c5F)c5ccc2[nH]5)C=C4)C=C3)cc1)[C@@H]1CCOc2ccccc21
REMARK SMILES IDX 12 1 11 2 10 3 9 4 8 5 7 6 5 7 6 8 3 9 2 10 1 11 4 12 82 14
REMARK SMILES IDX 83 15 91 16 84 17 86 18 90 19 85 20 87 21 89 22 88 23 13 24
REMARK SMILES IDX 14 25 15 26 16 27 17 28 18 29 19 30 20 31 81 32 21 33 80 34
REMARK SMILES IDX 22 35 23 36 24 37 74 38 25 39 79 40 73 41 75 42 26 43 78 44
REMARK SMILES IDX 72 45 71 46 27 48 59 49 39 50 58 51 40 52 43 53 57 54 76 55
REMARK SMILES IDX 41 56 42 57 56 59 77 60 44 61 28 62 29 63 37 64 30 65 31 66
REMARK SMILES IDX 35 67 38 68 32 69 33 70 36 71 34 72 60 73 61 74 69 75 62 76
REMARK SMILES IDX 63 77 67 78 70 79 64 80 65 81 68 82 66 83 45 84 46 85 54 86
REMARK SMILES IDX 47 87 48 88 52 89 55 90 49 91 50 92 53 93 51 94
REMARK H PARENT 4 13 75 47 43 58
REMARK Flexibility Score: inf
ROOT
ATOM      1  C   UNL A   1      33.398  32.300  27.738  1.00  0.00     0.188 C 
ENDROOT
BRANCH   1   2
ATOM      2  C   UNL A   1      34.052  30.941  27.540  1.00  0.00     0.188 C 
BRANCH   2   3
ATOM      3  O   UNL A   1      33.134  29.967  27.130  1.00  0.00    -0.376 OA
BRANCH   3   4
ATOM      4  C   UNL A   1      33.034  29.690  25.746  1.00  0.00     0.202 C 
BRANCH   4   5
ATOM      5  C   UNL A   1      31.753  29.227  24.993  1.00  0.00     0.261 C 
BRANCH   5   6
ATOM      6  O   UNL A   1      31.272  27.868  25.042  1.00  0.00    -0.461 OA
BRANCH   6   7
ATOM      7  C   UNL A   1      31.924  27.006  24.213  1.00  0.00     0.338 C 
ATOM      8  O   UNL A   1      32.032  27.261  23.012  1.00  0.00    -0.249 OA
BRANCH   7   9
ATOM      9  C   UNL A   1      32.542  25.693  24.880  1.00  0.00     0.168 C 
BRANCH   9  10
ATOM     10  C   UNL A   1      33.880  25.212  24.237  1.00  0.00     0.044 C 
ATOM     11  C   UNL A   1      34.957  24.605  25.144  1.00  0.00     0.007 C 
ENDBRANCH   9  10
BRANCH   9  12
ATOM     12  O   UNL A   1      32.851  26.016  26.248  1.00  0.00    -0.378 OA
ATOM     13  H   UNL A   1      32.418  26.850  26.489  1.00  0.00     0.212 HD
ENDBRANCH   9  12
BRANCH   9  14
ATOM     14  C   UNL A   1      31.339  24.646  24.812  1.00  0.00     0.070 C 
ATOM     15  C   UNL A   1      30.514  24.678  26.139  1.00  0.00     0.053 C 
ATOM     16  C   UNL A   1      31.675  23.212  24.455  1.00  0.00     0.001 A 
ATOM     17  C   UNL A   1      30.286  23.322  26.769  1.00  0.00     0.230 C 
ATOM     18  C   UNL A   1      31.811  22.257  25.469  1.00  0.00     0.122 A 
ATOM     19  C   UNL A   1      31.800  22.785  23.125  1.00  0.00     0.008 A 
ATOM     20  O   UNL A   1      31.502  22.569  26.767  1.00  0.00    -0.493 OA
ATOM     21  C   UNL A   1      32.200  20.951  25.196  1.00  0.00     0.047 A 
ATOM     22  C   UNL A   1      32.158  21.464  22.839  1.00  0.00     0.001 A 
ATOM     23  C   UNL A   1      32.382  20.555  23.874  1.00  0.00     0.004 A 
ENDBRANCH   9  14
ENDBRANCH   7   9
ENDBRANCH   6   7
ENDBRANCH   5   6
ENDBRANCH   4   5
ENDBRANCH   3   4
ENDBRANCH   2   3
ENDBRANCH   1   2
BRANCH   1  24
ATOM     24  O   UNL A   1      34.128  33.453  28.116  1.00  0.00    -0.376 OA
BRANCH  24  25
ATOM     25  C   UNL A   1      33.748  34.183  29.274  1.00  0.00     0.202 C 
BRANCH  25  26
ATOM     26  C   UNL A   1      34.403  33.897  30.638  1.00  0.00     0.261 C 
BRANCH  26  27
ATOM     27  O   UNL A   1      34.437  32.527  31.057  1.00  0.00    -0.460 OA
BRANCH  27  28
ATOM     28  C   UNL A   1      35.346  32.243  32.028  1.00  0.00     0.338 C 
ATOM     29  O   UNL A   1      35.235  32.421  33.223  1.00  0.00    -0.246 OA
BRANCH  28  30
ATOM     30  C   UNL A   1      36.444  31.457  31.414  1.00  0.00     0.060 A 
ATOM     31  C   UNL A   1      37.393  30.863  32.264  1.00  0.00     0.016 A 
ATOM     32  C   UNL A   1      36.524  31.283  30.034  1.00  0.00     0.016 A 
ATOM     33  C   UNL A   1      38.430  30.100  31.735  1.00  0.00     0.010 A 
ATOM     34  C   UNL A   1      37.593  30.558  29.502  1.00  0.00     0.010 A 
ATOM     35  C   UNL A   1      38.564  29.989  30.348  1.00  0.00    -0.014 A 
BRANCH  35  36
ATOM     36  C   UNL A   1      39.833  29.483  29.775  1.00  0.00     0.031 A 
ATOM     37  C   UNL A   1      40.982  30.445  29.659  1.00  0.00     0.074 A 
ATOM     38  C   UNL A   1      39.975  28.206  29.384  1.00  0.00     0.049 A 
ATOM     39  N   UNL A   1      42.156  30.280  29.106  1.00  0.00    -0.248 NA
ATOM     40  C   UNL A   1      40.773  31.780  30.243  1.00  0.00     0.031 C 
ATOM     41  C   UNL A   1      38.958  27.165  29.503  1.00  0.00     0.029 A 
ATOM     42  N   UNL A   1      41.039  27.574  28.787  1.00  0.00    -0.354 N 
ATOM     43  C   UNL A   1      42.817  31.490  29.265  1.00  0.00     0.074 A 
ATOM     44  C   UNL A   1      41.905  32.390  29.937  1.00  0.00     0.031 C 
ATOM     45  C   UNL A   1      39.437  26.027  28.969  1.00  0.00     0.029 A 
ATOM     46  C   UNL A   1      40.778  26.273  28.438  1.00  0.00     0.049 A 
ATOM     47  H   UNL A   1      41.904  28.014  28.626  1.00  0.00     0.167 HD
ATOM     48  C   UNL A   1      44.075  31.820  28.889  1.00  0.00     0.037 A 
ATOM     49  C   UNL A   1      41.526  25.398  27.737  1.00  0.00     0.037 A 
ATOM     50  C   UNL A   1      44.974  30.924  28.212  1.00  0.00     0.049 A 
ATOM     51  C   UNL A   1      42.891  25.816  27.247  1.00  0.00     0.074 A 
ATOM     52  C   UNL A   1      46.271  31.159  27.791  1.00  0.00     0.029 A 
ATOM     53  N   UNL A   1      44.665  29.622  27.848  1.00  0.00    -0.354 N 
ATOM     54  N   UNL A   1      43.518  26.958  27.406  1.00  0.00    -0.248 NA
ATOM     55  C   UNL A   1      43.652  24.821  26.477  1.00  0.00     0.031 C 
ATOM     56  C   UNL A   1      46.724  30.020  27.118  1.00  0.00     0.029 A 
ATOM     57  C   UNL A   1      45.737  29.050  27.183  1.00  0.00     0.049 A 
ATOM     58  H   UNL A   1      43.809  29.170  28.035  1.00  0.00     0.167 HD
ATOM     59  C   UNL A   1      44.755  26.806  26.790  1.00  0.00     0.074 A 
ATOM     60  C   UNL A   1      44.795  25.459  26.265  1.00  0.00     0.031 C 
ATOM     61  C   UNL A   1      45.767  27.702  26.673  1.00  0.00     0.037 A 
BRANCH  48  62
ATOM     62  C   UNL A   1      44.535  33.221  29.168  1.00  0.00     0.064 A 
ATOM     63  C   UNL A   1      44.318  34.268  28.257  1.00  0.00     0.173 A 
ATOM     64  C   UNL A   1      45.185  33.527  30.374  1.00  0.00     0.173 A 
ATOM     65  F   UNL A   1      43.718  34.027  27.081  1.00  0.00    -0.203 F 
ATOM     66  C   UNL A   1      44.763  35.559  28.531  1.00  0.00     0.198 A 
ATOM     67  C   UNL A   1      45.596  34.826  30.659  1.00  0.00     0.198 A 
ATOM     68  F   UNL A   1      45.416  32.565  31.280  1.00  0.00    -0.203 F 
ATOM     69  F   UNL A   1      44.595  36.529  27.622  1.00  0.00    -0.200 F 
ATOM     70  C   UNL A   1      45.392  35.838  29.734  1.00  0.00     0.200 A 
ATOM     71  F   UNL A   1      46.192  35.097  31.828  1.00  0.00    -0.200 F 
ATOM     72  F   UNL A   1      45.812  37.084  29.999  1.00  0.00    -0.200 F 
ENDBRANCH  48  62
BRANCH  49  73
ATOM     73  C   UNL A   1      40.993  24.043  27.431  1.00  0.00     0.064 A 
ATOM     74  C   UNL A   1      41.545  22.896  28.020  1.00  0.00     0.173 A 
ATOM     75  C   UNL A   1      39.941  23.865  26.521  1.00  0.00     0.173 A 
ATOM     76  F   UNL A   1      42.571  23.010  28.875  1.00  0.00    -0.203 F 
ATOM     77  C   UNL A   1      41.077  21.623  27.695  1.00  0.00     0.198 A 
ATOM     78  C   UNL A   1      39.453  22.595  26.222  1.00  0.00     0.198 A 
ATOM     79  F   UNL A   1      39.380  24.927  25.924  1.00  0.00    -0.203 F 
ATOM     80  F   UNL A   1      41.659  20.542  28.231  1.00  0.00    -0.200 F 
ATOM     81  C   UNL A   1      40.028  21.474  26.802  1.00  0.00     0.200 A 
ATOM     82  F   UNL A   1      38.429  22.456  25.367  1.00  0.00    -0.200 F 
ATOM     83  F   UNL A   1      39.577  20.251  26.492  1.00  0.00    -0.200 F 
ENDBRANCH  49  73
BRANCH  61  84
ATOM     84  C   UNL A   1      47.027  27.243  25.993  1.00  0.00     0.064 A 
ATOM     85  C   UNL A   1      47.264  27.476  24.630  1.00  0.00     0.173 A 
ATOM     86  C   UNL A   1      48.034  26.599  26.730  1.00  0.00     0.173 A 
ATOM     87  F   UNL A   1      46.331  28.077  23.876  1.00  0.00    -0.203 F 
ATOM     88  C   UNL A   1      48.446  27.057  24.026  1.00  0.00     0.198 A 
ATOM     89  C   UNL A   1      49.230  26.214  26.131  1.00  0.00     0.198 A 
ATOM     90  F   UNL A   1      47.865  26.359  28.039  1.00  0.00    -0.203 F 
ATOM     91  F   UNL A   1      48.627  27.244  22.710  1.00  0.00    -0.200 F 
ATOM     92  C   UNL A   1      49.431  26.434  24.777  1.00  0.00     0.200 A 
ATOM     93  F   UNL A   1      50.188  25.630  26.863  1.00  0.00    -0.200 F 
ATOM     94  F   UNL A   1      50.573  26.041  24.195  1.00  0.00    -0.200 F 
ENDBRANCH  61  84
ENDBRANCH  35  36
ENDBRANCH  28  30
ENDBRANCH  27  28
ENDBRANCH  26  27
ENDBRANCH  25  26
ENDBRANCH  24  25
ENDBRANCH   1  24
TORSDOF 20
ENDMDL
MODEL 3
REMARK VINA RESULT:     -10.7      0.685      2.118
REMARK SMILES CC[C@@](O)(C(=O)OCCOCCOCCOC(=O)c1ccc(-c2c3nc(c(-c4c(F)c(F)c(F)c(F)c4F)c4ccc([nH]4)c(-c4c(F)c(F)c(F)c(F)c4F)c4nc(c(-c5c(F)c(F)c(F)c(F)c5F)c5ccc2[nH]5)C=C4)C=C3)cc1)[C@@H]1CCOc2ccccc21
REMARK SMILES IDX 12 1 11 2 10 3 9 4 8 5 7 6 5 7 6 8 3 9 2 10 1 11 4 12 82 14
REMARK SMILES IDX 83 15 91 16 84 17 86 18 90 19 85 20 87 21 89 22 88 23 13 24
REMARK SMILES IDX 14 25 15 26 16 27 17 28 18 29 19 30 20 31 81 32 21 33 80 34
REMARK SMILES IDX 22 35 23 36 24 37 74 38 25 39 79 40 73 41 75 42 26 43 78 44
REMARK SMILES IDX 72 45 71 46 27 48 59 49 39 50 58 51 40 52 43 53 57 54 76 55
REMARK SMILES IDX 41 56 42 57 56 59 77 60 44 61 28 62 29 63 37 64 30 65 31 66
REMARK SMILES IDX 35 67 38 68 32 69 33 70 36 71 34 72 60 73 61 74 69 75 62 76
REMARK SMILES IDX 63 77 67 78 70 79 64 80 65 81 68 82 66 83 45 84 46 85 54 86
REMARK SMILES IDX 47 87 48 88 52 89 55 90 49 91 50 92 53 93 51 94
REMARK H PARENT 4 13 75 47 43 58
REMARK Flexibility Score: inf
ROOT
ATOM      1  C   UNL A   1      33.035  29.939  25.817  1.00  0.00     0.188 C 
ENDROOT
BRANCH   1   2
ATOM      2  C   UNL A   1      33.693  28.574  25.942  1.00  0.00     0.188 C 
BRANCH   2   3
ATOM      3  O   UNL A   1      34.008  28.023  24.694  1.00  0.00    -0.376 OA
BRANCH   3   4
ATOM      4  C   UNL A   1      32.942  27.727  23.811  1.00  0.00     0.202 C 
BRANCH   4   5
ATOM      5  C   UNL A   1      33.066  27.034  22.423  1.00  0.00     0.261 C 
BRANCH   5   6
ATOM      6  O   UNL A   1      33.202  25.605  22.278  1.00  0.00    -0.461 OA
BRANCH   6   7
ATOM      7  C   UNL A   1      32.851  24.888  23.381  1.00  0.00     0.338 C 
ATOM      8  O   UNL A   1      31.680  24.869  23.764  1.00  0.00    -0.249 OA
BRANCH   7   9
ATOM      9  C   UNL A   1      34.017  24.076  24.114  1.00  0.00     0.168 C 
BRANCH   9  10
ATOM     10  C   UNL A   1      35.034  23.395  23.146  1.00  0.00     0.044 C 
ATOM     11  C   UNL A   1      36.449  23.099  23.655  1.00  0.00     0.007 C 
ENDBRANCH   9  10
BRANCH   9  12
ATOM     12  O   UNL A   1      34.775  25.025  24.886  1.00  0.00    -0.378 OA
ATOM     13  H   UNL A   1      34.572  25.924  24.583  1.00  0.00     0.212 HD
ENDBRANCH   9  12
BRANCH   9  14
ATOM     14  C   UNL A   1      33.222  23.081  25.076  1.00  0.00     0.070 C 
ATOM     15  C   UNL A   1      33.685  23.270  26.557  1.00  0.00     0.053 C 
ATOM     16  C   UNL A   1      33.229  21.607  24.724  1.00  0.00     0.001 A 
ATOM     17  C   UNL A   1      34.068  21.989  27.263  1.00  0.00     0.230 C 
ATOM     18  C   UNL A   1      34.124  20.744  25.367  1.00  0.00     0.122 A 
ATOM     19  C   UNL A   1      32.323  21.056  23.808  1.00  0.00     0.008 A 
ATOM     20  O   UNL A   1      34.891  21.186  26.412  1.00  0.00    -0.493 OA
ATOM     21  C   UNL A   1      34.224  19.403  25.016  1.00  0.00     0.047 A 
ATOM     22  C   UNL A   1      32.394  19.699  23.474  1.00  0.00     0.001 A 
ATOM     23  C   UNL A   1      33.360  18.880  24.060  1.00  0.00     0.004 A 
ENDBRANCH   9  14
ENDBRANCH   7   9
ENDBRANCH   6   7
ENDBRANCH   5   6
ENDBRANCH   4   5
ENDBRANCH   3   4
ENDBRANCH   2   3
ENDBRANCH   1   2
BRANCH   1  24
ATOM     24  O   UNL A   1      32.083  30.418  26.750  1.00  0.00    -0.376 OA
BRANCH  24  25
ATOM     25  C   UNL A   1      31.407  31.644  26.506  1.00  0.00     0.202 C 
BRANCH  25  26
ATOM     26  C   UNL A   1      32.044  32.989  26.904  1.00  0.00     0.261 C 
BRANCH  26  27
ATOM     27  O   UNL A   1      32.925  32.971  28.033  1.00  0.00    -0.460 OA
BRANCH  27  28
ATOM     28  C   UNL A   1      34.039  33.740  27.908  1.00  0.00     0.338 C 
ATOM     29  O   UNL A   1      34.095  34.928  27.664  1.00  0.00    -0.246 OA
BRANCH  28  30
ATOM     30  C   UNL A   1      35.205  32.936  28.344  1.00  0.00     0.060 A 
ATOM     31  C   UNL A   1      34.997  31.587  28.679  1.00  0.00     0.016 A 
ATOM     32  C   UNL A   1      36.484  33.488  28.398  1.00  0.00     0.016 A 
ATOM     33  C   UNL A   1      36.066  30.788  29.075  1.00  0.00     0.010 A 
ATOM     34  C   UNL A   1      37.547  32.698  28.843  1.00  0.00     0.010 A 
ATOM     35  C   UNL A   1      37.336  31.355  29.210  1.00  0.00    -0.014 A 
BRANCH  35  36
ATOM     36  C   UNL A   1      38.389  30.621  29.950  1.00  0.00     0.031 A 
ATOM     37  C   UNL A   1      38.599  30.966  31.397  1.00  0.00     0.074 A 
ATOM     38  C   UNL A   1      39.129  29.663  29.366  1.00  0.00     0.049 A 
ATOM     39  N   UNL A   1      39.514  30.544  32.232  1.00  0.00    -0.248 NA
ATOM     40  C   UNL A   1      37.647  31.925  31.980  1.00  0.00     0.031 C 
ATOM     41  C   UNL A   1      38.978  29.197  27.990  1.00  0.00     0.029 A 
ATOM     42  N   UNL A   1      40.172  28.923  29.864  1.00  0.00    -0.354 N 
ATOM     43  C   UNL A   1      39.255  31.195  33.430  1.00  0.00     0.074 A 
ATOM     44  C   UNL A   1      38.119  32.062  33.208  1.00  0.00     0.031 C 
ATOM     45  C   UNL A   1      39.916  28.265  27.744  1.00  0.00     0.029 A 
ATOM     46  C   UNL A   1      40.755  28.100  28.932  1.00  0.00     0.049 A 
ATOM     47  H   UNL A   1      40.474  28.978  30.799  1.00  0.00     0.167 HD
ATOM     48  C   UNL A   1      39.903  31.075  34.612  1.00  0.00     0.037 A 
ATOM     49  C   UNL A   1      41.859  27.334  29.022  1.00  0.00     0.037 A 
ATOM     50  C   UNL A   1      41.039  30.218  34.824  1.00  0.00     0.049 A 
ATOM     51  C   UNL A   1      42.622  27.285  30.324  1.00  0.00     0.074 A 
ATOM     52  C   UNL A   1      41.766  30.020  35.985  1.00  0.00     0.029 A 
ATOM     53  N   UNL A   1      41.620  29.421  33.848  1.00  0.00    -0.354 N 
ATOM     54  N   UNL A   1      42.370  27.893  31.458  1.00  0.00    -0.248 NA
ATOM     55  C   UNL A   1      43.825  26.441  30.355  1.00  0.00     0.031 C 
ATOM     56  C   UNL A   1      42.824  29.153  35.695  1.00  0.00     0.029 A 
ATOM     57  C   UNL A   1      42.713  28.752  34.374  1.00  0.00     0.049 A 
ATOM     58  H   UNL A   1      41.301  29.342  32.920  1.00  0.00     0.167 HD
ATOM     59  C   UNL A   1      43.359  27.480  32.344  1.00  0.00     0.074 A 
ATOM     60  C   UNL A   1      44.208  26.560  31.619  1.00  0.00     0.031 C 
ATOM     61  C   UNL A   1      43.544  27.829  33.642  1.00  0.00     0.037 A 
BRANCH  48  62
ATOM     62  C   UNL A   1      39.421  31.921  35.754  1.00  0.00     0.064 A 
ATOM     63  C   UNL A   1      38.443  31.466  36.653  1.00  0.00     0.173 A 
ATOM     64  C   UNL A   1      39.959  33.200  35.965  1.00  0.00     0.173 A 
ATOM     65  F   UNL A   1      37.883  30.258  36.486  1.00  0.00    -0.203 F 
ATOM     66  C   UNL A   1      38.002  32.271  37.700  1.00  0.00     0.198 A 
ATOM     67  C   UNL A   1      39.541  33.988  37.034  1.00  0.00     0.198 A 
ATOM     68  F   UNL A   1      40.897  33.684  35.136  1.00  0.00    -0.203 F 
ATOM     69  F   UNL A   1      37.029  31.837  38.511  1.00  0.00    -0.200 F 
ATOM     70  C   UNL A   1      38.557  33.527  37.894  1.00  0.00     0.200 A 
ATOM     71  F   UNL A   1      40.089  35.196  37.228  1.00  0.00    -0.200 F 
ATOM     72  F   UNL A   1      38.137  34.298  38.908  1.00  0.00    -0.200 F 
ENDBRANCH  48  62
BRANCH  49  73
ATOM     73  C   UNL A   1      42.332  26.567  27.838  1.00  0.00     0.064 A 
ATOM     74  C   UNL A   1      43.281  27.104  26.956  1.00  0.00     0.173 A 
ATOM     75  C   UNL A   1      41.823  25.292  27.548  1.00  0.00     0.173 A 
ATOM     76  F   UNL A   1      43.776  28.331  27.173  1.00  0.00    -0.203 F 
ATOM     77  C   UNL A   1      43.686  26.405  25.820  1.00  0.00     0.198 A 
ATOM     78  C   UNL A   1      42.253  24.580  26.431  1.00  0.00     0.198 A 
ATOM     79  F   UNL A   1      40.909  24.733  28.356  1.00  0.00    -0.203 F 
ATOM     80  F   UNL A   1      44.552  26.965  24.966  1.00  0.00    -0.200 F 
ATOM     81  C   UNL A   1      43.177  25.141  25.562  1.00  0.00     0.200 A 
ATOM     82  F   UNL A   1      41.768  23.354  26.192  1.00  0.00    -0.200 F 
ATOM     83  F   UNL A   1      43.569  24.468  24.472  1.00  0.00    -0.200 F 
ENDBRANCH  49  73
BRANCH  61  84
ATOM     84  C   UNL A   1      44.680  27.178  34.382  1.00  0.00     0.064 A 
ATOM     85  C   UNL A   1      44.570  25.892  34.931  1.00  0.00     0.173 A 
ATOM     86  C   UNL A   1      45.916  27.836  34.501  1.00  0.00     0.173 A 
ATOM     87  F   UNL A   1      43.410  25.223  34.855  1.00  0.00    -0.203 F 
ATOM     88  C   UNL A   1      45.642  25.303  35.597  1.00  0.00     0.198 A 
ATOM     89  C   UNL A   1      46.996  27.229  35.135  1.00  0.00     0.198 A 
ATOM     90  F   UNL A   1      46.080  29.064  33.986  1.00  0.00    -0.203 F 
ATOM     91  F   UNL A   1      45.496  24.095  36.160  1.00  0.00    -0.200 F 
ATOM     92  C   UNL A   1      46.855  25.967  35.692  1.00  0.00     0.200 A 
ATOM     93  F   UNL A   1      48.173  27.866  35.208  1.00  0.00    -0.200 F 
ATOM     94  F   UNL A   1      47.888  25.394  36.324  1.00  0.00    -0.200 F 
ENDBRANCH  61  84
ENDBRANCH  35  36
ENDBRANCH  28  30
ENDBRANCH  27  28
ENDBRANCH  26  27
ENDBRANCH  25  26
ENDBRANCH  24  25
ENDBRANCH   1  24
TORSDOF 20
ENDMDL
