MODEL 1
REMARK VINA RESULT:     -11.6      0.000      0.000
REMARK SMILES C[C@@]1(CN2C(=O)c3ccc(C(=O)OCCOCCOCCOC(=O)c4ccc(-c5c6nc(c(-c7c(F)c(F)c(F)c(F)c7F)c7ccc([nH]7)c(-c7c(F)c(F)c(F)c(F)c7F)c7nc(c(-c8c(F)c(F)c(F)c(F)c8F)c8ccc5[nH]8)C=C7)C=C6)cc4)cc3C2=O)CCCO1
REMARK SMILES IDX 17 1 16 2 15 3 14 4 13 5 11 6 12 7 10 8 4 9 5 10 90 11 6 12
REMARK SMILES IDX 7 13 89 14 91 15 8 16 88 17 9 18 3 19 2 20 1 21 92 22 95 23
REMARK SMILES IDX 93 24 94 25 18 26 19 27 20 28 21 29 22 30 23 31 24 32 25 33
REMARK SMILES IDX 26 34 87 35 27 36 86 37 28 38 29 39 30 40 80 41 31 42 85 43
REMARK SMILES IDX 79 44 81 45 32 46 84 47 78 48 77 49 33 51 65 52 45 53 64 54
REMARK SMILES IDX 46 55 49 56 63 57 82 58 47 59 48 60 62 62 83 63 50 64 34 65
REMARK SMILES IDX 35 66 43 67 36 68 37 69 41 70 44 71 38 72 39 73 42 74 40 75
REMARK SMILES IDX 66 76 67 77 75 78 68 79 69 80 73 81 76 82 70 83 71 84 74 85
REMARK SMILES IDX 72 86 51 87 52 88 60 89 53 90 54 91 58 92 61 93 55 94 56 95
REMARK SMILES IDX 59 96 57 97
REMARK H PARENT 81 50 49 61
REMARK Flexibility Score: inf
ROOT
ATOM      1  C   UNL A   1      41.733  19.360  25.969  1.00  0.00     0.188 C 
ENDROOT
BRANCH   1   2
ATOM      2  O   UNL A   1      41.328  20.582  26.565  1.00  0.00    -0.376 OA
BRANCH   2   3
ATOM      3  C   UNL A   1      40.504  21.490  25.849  1.00  0.00     0.202 C 
BRANCH   3   4
ATOM      4  C   UNL A   1      39.005  21.643  26.161  1.00  0.00     0.261 C 
BRANCH   4   5
ATOM      5  O   UNL A   1      38.153  21.910  25.037  1.00  0.00    -0.460 OA
BRANCH   5   6
ATOM      6  C   UNL A   1      37.007  21.186  24.983  1.00  0.00     0.338 C 
ATOM      7  O   UNL A   1      36.907  19.971  24.949  1.00  0.00    -0.246 OA
BRANCH   6   8
ATOM      8  C   UNL A   1      35.834  22.076  25.171  1.00  0.00     0.060 A 
ATOM      9  N   UNL A   1      32.816  25.368  24.105  1.00  0.00    -0.271 N 
ATOM     10  C   UNL A   1      32.608  24.755  25.313  1.00  0.00     0.261 C 
ATOM     11  C   UNL A   1      33.810  24.753  23.395  1.00  0.00     0.261 C 
ATOM     12  O   UNL A   1      31.749  24.955  26.142  1.00  0.00    -0.269 OA
ATOM     13  C   UNL A   1      33.655  23.741  25.449  1.00  0.00     0.053 A 
ATOM     14  C   UNL A   1      34.395  23.748  24.282  1.00  0.00     0.054 A 
ATOM     15  O   UNL A   1      34.156  24.910  22.237  1.00  0.00    -0.269 OA
ATOM     16  C   UNL A   1      33.961  22.905  26.508  1.00  0.00     0.015 A 
ATOM     17  C   UNL A   1      35.487  22.923  24.106  1.00  0.00     0.030 A 
ATOM     18  C   UNL A   1      35.070  22.059  26.362  1.00  0.00     0.016 A 
BRANCH   9  19
ATOM     19  C   UNL A   1      32.055  26.518  23.632  1.00  0.00     0.164 C 
BRANCH  19  20
ATOM     20  C   UNL A   1      32.769  27.880  23.873  1.00  0.00     0.084 C 
ATOM     21  C   UNL A   1      33.724  28.260  22.740  1.00  0.00     0.044 C 
ATOM     22  C   UNL A   1      33.517  27.880  25.213  1.00  0.00     0.039 C 
ATOM     23  O   UNL A   1      31.772  28.921  23.981  1.00  0.00    -0.373 OA
ATOM     24  C   UNL A   1      32.487  28.407  26.182  1.00  0.00     0.031 C 
ATOM     25  C   UNL A   1      31.726  29.399  25.332  1.00  0.00     0.161 C 
ENDBRANCH  19  20
ENDBRANCH   9  19
ENDBRANCH   6   8
ENDBRANCH   5   6
ENDBRANCH   4   5
ENDBRANCH   3   4
ENDBRANCH   2   3
ENDBRANCH   1   2
BRANCH   1  26
ATOM     26  C   UNL A   1      43.233  19.045  25.787  1.00  0.00     0.188 C 
BRANCH  26  27
ATOM     27  O   UNL A   1      43.799  19.521  24.593  1.00  0.00    -0.376 OA
BRANCH  27  28
ATOM     28  C   UNL A   1      44.661  20.648  24.623  1.00  0.00     0.202 C 
BRANCH  28  29
ATOM     29  C   UNL A   1      44.580  21.816  25.631  1.00  0.00     0.261 C 
BRANCH  29  30
ATOM     30  O   UNL A   1      43.602  22.841  25.426  1.00  0.00    -0.460 OA
BRANCH  30  31
ATOM     31  C   UNL A   1      44.074  24.094  25.227  1.00  0.00     0.338 C 
ATOM     32  O   UNL A   1      44.830  24.468  24.350  1.00  0.00    -0.246 OA
BRANCH  31  33
ATOM     33  C   UNL A   1      43.374  25.013  26.147  1.00  0.00     0.060 A 
ATOM     34  C   UNL A   1      43.902  26.296  26.345  1.00  0.00     0.016 A 
ATOM     35  C   UNL A   1      42.231  24.604  26.837  1.00  0.00     0.016 A 
ATOM     36  C   UNL A   1      43.302  27.167  27.254  1.00  0.00     0.010 A 
ATOM     37  C   UNL A   1      41.644  25.472  27.766  1.00  0.00     0.010 A 
ATOM     38  C   UNL A   1      42.195  26.745  28.002  1.00  0.00    -0.014 A 
BRANCH  38  39
ATOM     39  C   UNL A   1      41.731  27.568  29.148  1.00  0.00     0.031 A 
ATOM     40  C   UNL A   1      42.459  27.461  30.460  1.00  0.00     0.074 A 
ATOM     41  C   UNL A   1      40.704  28.428  29.018  1.00  0.00     0.049 A 
ATOM     42  N   UNL A   1      42.226  28.067  31.596  1.00  0.00    -0.248 NA
ATOM     43  C   UNL A   1      43.610  26.543  30.495  1.00  0.00     0.031 C 
ATOM     44  C   UNL A   1      39.943  28.657  27.793  1.00  0.00     0.029 A 
ATOM     45  N   UNL A   1      40.123  29.268  29.938  1.00  0.00    -0.354 N 
ATOM     46  C   UNL A   1      43.190  27.599  32.479  1.00  0.00     0.074 A 
ATOM     47  C   UNL A   1      43.993  26.636  31.758  1.00  0.00     0.031 C 
ATOM     48  C   UNL A   1      38.986  29.569  28.038  1.00  0.00     0.029 A 
ATOM     49  C   UNL A   1      39.046  29.963  29.444  1.00  0.00     0.049 A 
ATOM     50  H   UNL A   1      40.447  29.362  30.862  1.00  0.00     0.167 HD
ATOM     51  C   UNL A   1      43.393  27.948  33.772  1.00  0.00     0.037 A 
ATOM     52  C   UNL A   1      38.195  30.803  30.065  1.00  0.00     0.037 A 
ATOM     53  C   UNL A   1      42.597  28.912  34.485  1.00  0.00     0.049 A 
ATOM     54  C   UNL A   1      38.403  31.123  31.525  1.00  0.00     0.074 A 
ATOM     55  C   UNL A   1      42.748  29.358  35.787  1.00  0.00     0.029 A 
ATOM     56  N   UNL A   1      41.495  29.571  33.963  1.00  0.00    -0.354 N 
ATOM     57  N   UNL A   1      39.341  30.709  32.343  1.00  0.00    -0.248 NA
ATOM     58  C   UNL A   1      37.433  32.035  32.150  1.00  0.00     0.031 C 
ATOM     59  C   UNL A   1      41.696  30.233  36.074  1.00  0.00     0.029 A 
ATOM     60  C   UNL A   1      40.932  30.390  34.929  1.00  0.00     0.049 A 
ATOM     61  H   UNL A   1      41.160  29.470  33.042  1.00  0.00     0.167 HD
ATOM     62  C   UNL A   1      39.095  31.333  33.560  1.00  0.00     0.074 A 
ATOM     63  C   UNL A   1      37.928  32.167  33.371  1.00  0.00     0.031 C 
ATOM     64  C   UNL A   1      39.774  31.223  34.729  1.00  0.00     0.037 A 
BRANCH  51  65
ATOM     65  C   UNL A   1      44.503  27.262  34.514  1.00  0.00     0.064 A 
ATOM     66  C   UNL A   1      44.302  26.056  35.203  1.00  0.00     0.173 A 
ATOM     67  C   UNL A   1      45.802  27.795  34.493  1.00  0.00     0.173 A 
ATOM     68  F   UNL A   1      43.077  25.510  35.266  1.00  0.00    -0.203 F 
ATOM     69  C   UNL A   1      45.352  25.422  35.860  1.00  0.00     0.198 A 
ATOM     70  C   UNL A   1      46.856  27.141  35.122  1.00  0.00     0.198 A 
ATOM     71  F   UNL A   1      46.051  28.943  33.846  1.00  0.00    -0.203 F 
ATOM     72  F   UNL A   1      45.128  24.293  36.548  1.00  0.00    -0.200 F 
ATOM     73  C   UNL A   1      46.631  25.959  35.811  1.00  0.00     0.200 A 
ATOM     74  F   UNL A   1      48.094  27.653  35.061  1.00  0.00    -0.200 F 
ATOM     75  F   UNL A   1      47.644  25.339  36.432  1.00  0.00    -0.200 F 
ENDBRANCH  51  65
BRANCH  52  76
ATOM     76  C   UNL A   1      37.047  31.389  29.321  1.00  0.00     0.064 A 
ATOM     77  C   UNL A   1      37.024  32.745  28.965  1.00  0.00     0.173 A 
ATOM     78  C   UNL A   1      35.927  30.610  28.988  1.00  0.00     0.173 A 
ATOM     79  F   UNL A   1      38.053  33.541  29.288  1.00  0.00    -0.203 F 
ATOM     80  C   UNL A   1      35.914  33.305  28.332  1.00  0.00     0.198 A 
ATOM     81  C   UNL A   1      34.835  31.163  28.323  1.00  0.00     0.198 A 
ATOM     82  F   UNL A   1      35.893  29.309  29.313  1.00  0.00    -0.203 F 
ATOM     83  F   UNL A   1      35.891  34.618  28.064  1.00  0.00    -0.200 F 
ATOM     84  C   UNL A   1      34.824  32.513  28.007  1.00  0.00     0.200 A 
ATOM     85  F   UNL A   1      33.787  30.392  28.005  1.00  0.00    -0.200 F 
ATOM     86  F   UNL A   1      33.756  33.053  27.404  1.00  0.00    -0.200 F 
ENDBRANCH  52  76
BRANCH  64  87
ATOM     87  C   UNL A   1      39.301  32.056  35.889  1.00  0.00     0.064 A 
ATOM     88  C   UNL A   1      39.735  33.375  36.082  1.00  0.00     0.173 A 
ATOM     89  C   UNL A   1      38.364  31.536  36.799  1.00  0.00     0.173 A 
ATOM     90  F   UNL A   1      40.638  33.916  35.250  1.00  0.00    -0.203 F 
ATOM     91  C   UNL A   1      39.277  34.131  37.158  1.00  0.00     0.198 A 
ATOM     92  C   UNL A   1      37.880  32.308  37.851  1.00  0.00     0.198 A 
ATOM     93  F   UNL A   1      37.905  30.285  36.657  1.00  0.00    -0.203 F 
ATOM     94  F   UNL A   1      39.750  35.371  37.353  1.00  0.00    -0.200 F 
ATOM     95  C   UNL A   1      38.344  33.601  38.036  1.00  0.00     0.200 A 
ATOM     96  F   UNL A   1      36.963  31.800  38.686  1.00  0.00    -0.200 F 
ATOM     97  F   UNL A   1      37.897  34.335  39.065  1.00  0.00    -0.200 F 
ENDBRANCH  64  87
ENDBRANCH  38  39
ENDBRANCH  31  33
ENDBRANCH  30  31
ENDBRANCH  29  30
ENDBRANCH  28  29
ENDBRANCH  27  28
ENDBRANCH  26  27
ENDBRANCH   1  26
TORSDOF 19
ENDMDL
MODEL 2
REMARK VINA RESULT:     -11.5      4.954     10.814
REMARK SMILES C[C@@]1(CN2C(=O)c3ccc(C(=O)OCCOCCOCCOC(=O)c4ccc(-c5c6nc(c(-c7c(F)c(F)c(F)c(F)c7F)c7ccc([nH]7)c(-c7c(F)c(F)c(F)c(F)c7F)c7nc(c(-c8c(F)c(F)c(F)c(F)c8F)c8ccc5[nH]8)C=C7)C=C6)cc4)cc3C2=O)CCCO1
REMARK SMILES IDX 17 1 16 2 15 3 14 4 13 5 11 6 12 7 10 8 4 9 5 10 90 11 6 12
REMARK SMILES IDX 7 13 89 14 91 15 8 16 88 17 9 18 3 19 2 20 1 21 92 22 95 23
REMARK SMILES IDX 93 24 94 25 18 26 19 27 20 28 21 29 22 30 23 31 24 32 25 33
REMARK SMILES IDX 26 34 87 35 27 36 86 37 28 38 29 39 30 40 80 41 31 42 85 43
REMARK SMILES IDX 79 44 81 45 32 46 84 47 78 48 77 49 33 51 65 52 45 53 64 54
REMARK SMILES IDX 46 55 49 56 63 57 82 58 47 59 48 60 62 62 83 63 50 64 34 65
REMARK SMILES IDX 35 66 43 67 36 68 37 69 41 70 44 71 38 72 39 73 42 74 40 75
REMARK SMILES IDX 66 76 67 77 75 78 68 79 69 80 73 81 76 82 70 83 71 84 74 85
REMARK SMILES IDX 72 86 51 87 52 88 60 89 53 90 54 91 58 92 61 93 55 94 56 95
REMARK SMILES IDX 59 96 57 97
REMARK H PARENT 81 50 49 61
REMARK Flexibility Score: inf
ROOT
ATOM      1  C   UNL A   1      35.271  33.220  27.954  1.00  0.00     0.188 C 
ENDROOT
BRANCH   1   2
ATOM      2  O   UNL A   1      34.996  31.828  27.956  1.00  0.00    -0.376 OA
BRANCH   2   3
ATOM      3  C   UNL A   1      33.717  31.351  27.566  1.00  0.00     0.202 C 
BRANCH   3   4
ATOM      4  C   UNL A   1      33.443  29.852  27.346  1.00  0.00     0.261 C 
BRANCH   4   5
ATOM      5  O   UNL A   1      32.067  29.484  27.170  1.00  0.00    -0.460 OA
BRANCH   5   6
ATOM      6  C   UNL A   1      31.628  29.448  25.887  1.00  0.00     0.338 C 
ATOM      7  O   UNL A   1      31.229  30.389  25.221  1.00  0.00    -0.246 OA
BRANCH   6   8
ATOM      8  C   UNL A   1      31.881  28.109  25.300  1.00  0.00     0.060 A 
ATOM      9  N   UNL A   1      32.267  23.535  25.228  1.00  0.00    -0.271 N 
ATOM     10  C   UNL A   1      32.504  24.158  24.031  1.00  0.00     0.261 C 
ATOM     11  C   UNL A   1      31.812  24.413  26.171  1.00  0.00     0.261 C 
ATOM     12  O   UNL A   1      32.804  23.683  22.959  1.00  0.00    -0.269 OA
ATOM     13  C   UNL A   1      32.315  25.591  24.266  1.00  0.00     0.053 A 
ATOM     14  C   UNL A   1      31.902  25.746  25.576  1.00  0.00     0.054 A 
ATOM     15  O   UNL A   1      31.349  24.202  27.279  1.00  0.00    -0.269 OA
ATOM     16  C   UNL A   1      32.514  26.671  23.426  1.00  0.00     0.015 A 
ATOM     17  C   UNL A   1      31.669  26.991  26.124  1.00  0.00     0.030 A 
ATOM     18  C   UNL A   1      32.292  27.950  23.955  1.00  0.00     0.016 A 
BRANCH   9  19
ATOM     19  C   UNL A   1      32.458  22.107  25.455  1.00  0.00     0.164 C 
BRANCH  19  20
ATOM     20  C   UNL A   1      33.810  21.761  26.146  1.00  0.00     0.084 C 
ATOM     21  C   UNL A   1      33.722  21.784  27.673  1.00  0.00     0.044 C 
ATOM     22  C   UNL A   1      34.928  22.699  25.669  1.00  0.00     0.039 C 
ATOM     23  O   UNL A   1      34.216  20.433  25.745  1.00  0.00    -0.373 OA
ATOM     24  C   UNL A   1      35.506  21.969  24.483  1.00  0.00     0.031 C 
ATOM     25  C   UNL A   1      35.370  20.522  24.898  1.00  0.00     0.161 C 
ENDBRANCH  19  20
ENDBRANCH   9  19
ENDBRANCH   6   8
ENDBRANCH   5   6
ENDBRANCH   4   5
ENDBRANCH   3   4
ENDBRANCH   2   3
ENDBRANCH   1   2
BRANCH   1  26
ATOM     26  C   UNL A   1      34.121  34.239  28.096  1.00  0.00     0.188 C 
BRANCH  26  27
ATOM     27  O   UNL A   1      33.729  34.510  29.418  1.00  0.00    -0.376 OA
BRANCH  27  28
ATOM     28  C   UNL A   1      34.670  34.388  30.471  1.00  0.00     0.202 C 
BRANCH  28  29
ATOM     29  C   UNL A   1      34.411  33.711  31.836  1.00  0.00     0.261 C 
BRANCH  29  30
ATOM     30  O   UNL A   1      34.841  32.360  32.031  1.00  0.00    -0.460 OA
BRANCH  30  31
ATOM     31  C   UNL A   1      35.903  32.177  32.852  1.00  0.00     0.338 C 
ATOM     32  O   UNL A   1      35.971  32.436  34.040  1.00  0.00    -0.246 OA
BRANCH  31  33
ATOM     33  C   UNL A   1      36.942  31.425  32.120  1.00  0.00     0.060 A 
ATOM     34  C   UNL A   1      38.081  31.000  32.818  1.00  0.00     0.016 A 
ATOM     35  C   UNL A   1      36.814  31.173  30.754  1.00  0.00     0.016 A 
ATOM     36  C   UNL A   1      39.109  30.342  32.145  1.00  0.00     0.010 A 
ATOM     37  C   UNL A   1      37.858  30.532  30.075  1.00  0.00     0.010 A 
ATOM     38  C   UNL A   1      39.024  30.143  30.760  1.00  0.00    -0.014 A 
BRANCH  38  39
ATOM     39  C   UNL A   1      40.225  29.689  30.013  1.00  0.00     0.031 A 
ATOM     40  C   UNL A   1      41.346  30.665  29.781  1.00  0.00     0.074 A 
ATOM     41  C   UNL A   1      40.338  28.421  29.578  1.00  0.00     0.049 A 
ATOM     42  N   UNL A   1      42.478  30.501  29.146  1.00  0.00    -0.248 NA
ATOM     43  C   UNL A   1      41.165  32.013  30.345  1.00  0.00     0.031 C 
ATOM     44  C   UNL A   1      39.343  27.369  29.774  1.00  0.00     0.029 A 
ATOM     45  N   UNL A   1      41.347  27.806  28.876  1.00  0.00    -0.354 N 
ATOM     46  C   UNL A   1      43.137  31.720  29.225  1.00  0.00     0.074 A 
ATOM     47  C   UNL A   1      42.268  32.626  29.943  1.00  0.00     0.031 C 
ATOM     48  C   UNL A   1      39.786  26.239  29.194  1.00  0.00     0.029 A 
ATOM     49  C   UNL A   1      41.078  26.496  28.561  1.00  0.00     0.049 A 
ATOM     50  H   UNL A   1      42.182  28.261  28.624  1.00  0.00     0.167 HD
ATOM     51  C   UNL A   1      44.362  32.052  28.750  1.00  0.00     0.037 A 
ATOM     52  C   UNL A   1      41.784  25.617  27.825  1.00  0.00     0.037 A 
ATOM     53  C   UNL A   1      45.228  31.147  28.042  1.00  0.00     0.049 A 
ATOM     54  C   UNL A   1      43.115  26.033  27.249  1.00  0.00     0.074 A 
ATOM     55  C   UNL A   1      46.502  31.381  27.553  1.00  0.00     0.029 A 
ATOM     56  N   UNL A   1      44.908  29.839  27.712  1.00  0.00    -0.354 N 
ATOM     57  N   UNL A   1      43.751  27.175  27.363  1.00  0.00    -0.248 NA
ATOM     58  C   UNL A   1      43.833  25.033  26.443  1.00  0.00     0.031 C 
ATOM     59  C   UNL A   1      46.923  30.238  26.866  1.00  0.00     0.029 A 
ATOM     60  C   UNL A   1      45.944  29.266  26.991  1.00  0.00     0.049 A 
ATOM     61  H   UNL A   1      44.068  29.385  27.953  1.00  0.00     0.167 HD
ATOM     62  C   UNL A   1      44.950  27.019  26.676  1.00  0.00     0.074 A 
ATOM     63  C   UNL A   1      44.961  25.666  26.162  1.00  0.00     0.031 C 
ATOM     64  C   UNL A   1      45.949  27.916  26.489  1.00  0.00     0.037 A 
BRANCH  51  65
ATOM     65  C   UNL A   1      44.829  33.464  28.951  1.00  0.00     0.064 A 
ATOM     66  C   UNL A   1      45.508  33.864  30.112  1.00  0.00     0.173 A 
ATOM     67  C   UNL A   1      44.640  34.421  27.941  1.00  0.00     0.173 A 
ATOM     68  F   UNL A   1      45.705  32.992  31.114  1.00  0.00    -0.203 F 
ATOM     69  C   UNL A   1      45.960  35.172  30.264  1.00  0.00     0.198 A 
ATOM     70  C   UNL A   1      45.122  35.718  28.082  1.00  0.00     0.198 A 
ATOM     71  F   UNL A   1      44.001  34.091  26.809  1.00  0.00    -0.203 F 
ATOM     72  F   UNL A   1      46.568  35.543  31.400  1.00  0.00    -0.200 F 
ATOM     73  C   UNL A   1      45.775  36.096  29.245  1.00  0.00     0.200 A 
ATOM     74  F   UNL A   1      44.956  36.605  27.090  1.00  0.00    -0.200 F 
ATOM     75  F   UNL A   1      46.224  37.350  29.387  1.00  0.00    -0.200 F 
ENDBRANCH  51  65
BRANCH  52  76
ATOM     76  C   UNL A   1      41.242  24.255  27.564  1.00  0.00     0.064 A 
ATOM     77  C   UNL A   1      41.818  23.117  28.146  1.00  0.00     0.173 A 
ATOM     78  C   UNL A   1      40.161  24.061  26.689  1.00  0.00     0.173 A 
ATOM     79  F   UNL A   1      42.874  23.243  28.963  1.00  0.00    -0.203 F 
ATOM     80  C   UNL A   1      41.353  21.838  27.842  1.00  0.00     0.198 A 
ATOM     81  C   UNL A   1      39.675  22.785  26.414  1.00  0.00     0.198 A 
ATOM     82  F   UNL A   1      39.579  25.115  26.098  1.00  0.00    -0.203 F 
ATOM     83  F   UNL A   1      41.965  20.764  28.360  1.00  0.00    -0.200 F 
ATOM     84  C   UNL A   1      40.279  21.674  26.981  1.00  0.00     0.200 A 
ATOM     85  F   UNL A   1      38.632  22.633  25.587  1.00  0.00    -0.200 F 
ATOM     86  F   UNL A   1      39.836  20.444  26.684  1.00  0.00    -0.200 F 
ENDBRANCH  52  76
BRANCH  64  87
ATOM     87  C   UNL A   1      47.163  27.456  25.729  1.00  0.00     0.064 A 
ATOM     88  C   UNL A   1      47.270  27.607  24.339  1.00  0.00     0.173 A 
ATOM     89  C   UNL A   1      48.255  26.893  26.411  1.00  0.00     0.173 A 
ATOM     90  F   UNL A   1      46.252  28.128  23.637  1.00  0.00    -0.203 F 
ATOM     91  C   UNL A   1      48.407  27.183  23.656  1.00  0.00     0.198 A 
ATOM     92  C   UNL A   1      49.405  26.504  25.730  1.00  0.00     0.198 A 
ATOM     93  F   UNL A   1      48.213  26.735  27.742  1.00  0.00    -0.203 F 
ATOM     94  F   UNL A   1      48.463  27.286  22.321  1.00  0.00    -0.200 F 
ATOM     95  C   UNL A   1      49.477  26.640  24.353  1.00  0.00     0.200 A 
ATOM     96  F   UNL A   1      50.445  25.999  26.408  1.00  0.00    -0.200 F 
ATOM     97  F   UNL A   1      50.575  26.242  23.694  1.00  0.00    -0.200 F 
ENDBRANCH  64  87
ENDBRANCH  38  39
ENDBRANCH  31  33
ENDBRANCH  30  31
ENDBRANCH  29  30
ENDBRANCH  28  29
ENDBRANCH  27  28
ENDBRANCH  26  27
ENDBRANCH   1  26
TORSDOF 19
ENDMDL
MODEL 3
REMARK VINA RESULT:     -11.3      3.752      9.516
REMARK SMILES C[C@@]1(CN2C(=O)c3ccc(C(=O)OCCOCCOCCOC(=O)c4ccc(-c5c6nc(c(-c7c(F)c(F)c(F)c(F)c7F)c7ccc([nH]7)c(-c7c(F)c(F)c(F)c(F)c7F)c7nc(c(-c8c(F)c(F)c(F)c(F)c8F)c8ccc5[nH]8)C=C7)C=C6)cc4)cc3C2=O)CCCO1
REMARK SMILES IDX 17 1 16 2 15 3 14 4 13 5 11 6 12 7 10 8 4 9 5 10 90 11 6 12
REMARK SMILES IDX 7 13 89 14 91 15 8 16 88 17 9 18 3 19 2 20 1 21 92 22 95 23
REMARK SMILES IDX 93 24 94 25 18 26 19 27 20 28 21 29 22 30 23 31 24 32 25 33
REMARK SMILES IDX 26 34 87 35 27 36 86 37 28 38 29 39 30 40 80 41 31 42 85 43
REMARK SMILES IDX 79 44 81 45 32 46 84 47 78 48 77 49 33 51 65 52 45 53 64 54
REMARK SMILES IDX 46 55 49 56 63 57 82 58 47 59 48 60 62 62 83 63 50 64 34 65
REMARK SMILES IDX 35 66 43 67 36 68 37 69 41 70 44 71 38 72 39 73 42 74 40 75
REMARK SMILES IDX 66 76 67 77 75 78 68 79 69 80 73 81 76 82 70 83 71 84 74 85
REMARK SMILES IDX 72 86 51 87 52 88 60 89 53 90 54 91 58 92 61 93 55 94 56 95
REMARK SMILES IDX 59 96 57 97
REMARK H PARENT 81 50 49 61
REMARK Flexibility Score: inf
ROOT
ATOM      1  C   UNL A   1      34.471  32.634  29.457  1.00  0.00     0.188 C 
ENDROOT
BRANCH   1   2
ATOM      2  O   UNL A   1      34.035  31.776  28.416  1.00  0.00    -0.376 OA
BRANCH   2   3
ATOM      3  C   UNL A   1      34.923  30.816  27.860  1.00  0.00     0.202 C 
BRANCH   3   4
ATOM      4  C   UNL A   1      34.409  29.541  27.169  1.00  0.00     0.261 C 
BRANCH   4   5
ATOM      5  O   UNL A   1      33.071  29.141  27.503  1.00  0.00    -0.460 OA
BRANCH   5   6
ATOM      6  C   UNL A   1      32.125  29.416  26.571  1.00  0.00     0.338 C 
ATOM      7  O   UNL A   1      31.739  30.519  26.220  1.00  0.00    -0.246 OA
BRANCH   6   8
ATOM      8  C   UNL A   1      31.735  28.173  25.860  1.00  0.00     0.060 A 
ATOM      9  N   UNL A   1      31.162  23.659  25.252  1.00  0.00    -0.271 N 
ATOM     10  C   UNL A   1      30.760  24.444  24.203  1.00  0.00     0.261 C 
ATOM     11  C   UNL A   1      31.517  24.412  26.336  1.00  0.00     0.261 C 
ATOM     12  O   UNL A   1      30.280  24.123  23.139  1.00  0.00    -0.269 OA
ATOM     13  C   UNL A   1      31.011  25.830  24.603  1.00  0.00     0.053 A 
ATOM     14  C   UNL A   1      31.482  25.808  25.902  1.00  0.00     0.054 A 
ATOM     15  O   UNL A   1      31.764  24.070  27.480  1.00  0.00    -0.269 OA
ATOM     16  C   UNL A   1      30.871  27.007  23.891  1.00  0.00     0.015 A 
ATOM     17  C   UNL A   1      31.847  26.963  26.564  1.00  0.00     0.030 A 
ATOM     18  C   UNL A   1      31.240  28.197  24.534  1.00  0.00     0.016 A 
BRANCH   9  19
ATOM     19  C   UNL A   1      31.186  22.201  25.217  1.00  0.00     0.164 C 
BRANCH  19  20
ATOM     20  C   UNL A   1      32.459  21.614  24.539  1.00  0.00     0.084 C 
ATOM     21  C   UNL A   1      32.212  21.163  23.098  1.00  0.00     0.044 C 
ATOM     22  C   UNL A   1      33.035  20.453  25.363  1.00  0.00     0.039 C 
ATOM     23  O   UNL A   1      33.489  22.628  24.518  1.00  0.00    -0.373 OA
ATOM     24  C   UNL A   1      34.011  21.138  26.286  1.00  0.00     0.031 C 
ATOM     25  C   UNL A   1      34.541  22.258  25.420  1.00  0.00     0.161 C 
ENDBRANCH  19  20
ENDBRANCH   9  19
ENDBRANCH   6   8
ENDBRANCH   5   6
ENDBRANCH   4   5
ENDBRANCH   3   4
ENDBRANCH   2   3
ENDBRANCH   1   2
BRANCH   1  26
ATOM     26  C   UNL A   1      35.452  33.786  29.155  1.00  0.00     0.188 C 
BRANCH  26  27
ATOM     27  O   UNL A   1      34.853  34.969  28.689  1.00  0.00    -0.376 OA
BRANCH  27  28
ATOM     28  C   UNL A   1      33.455  35.156  28.836  1.00  0.00     0.202 C 
BRANCH  28  29
ATOM     29  C   UNL A   1      32.778  36.298  29.627  1.00  0.00     0.261 C 
BRANCH  29  30
ATOM     30  O   UNL A   1      33.188  36.543  30.976  1.00  0.00    -0.460 OA
BRANCH  30  31
ATOM     31  C   UNL A   1      32.761  35.656  31.907  1.00  0.00     0.338 C 
ATOM     32  O   UNL A   1      31.613  35.333  32.147  1.00  0.00    -0.246 OA
BRANCH  31  33
ATOM     33  C   UNL A   1      33.938  34.976  32.485  1.00  0.00     0.060 A 
ATOM     34  C   UNL A   1      35.194  35.587  32.362  1.00  0.00     0.016 A 
ATOM     35  C   UNL A   1      33.813  33.734  33.109  1.00  0.00     0.016 A 
ATOM     36  C   UNL A   1      36.334  34.944  32.842  1.00  0.00     0.010 A 
ATOM     37  C   UNL A   1      34.962  33.080  33.569  1.00  0.00     0.010 A 
ATOM     38  C   UNL A   1      36.232  33.667  33.408  1.00  0.00    -0.014 A 
BRANCH  38  39
ATOM     39  C   UNL A   1      37.465  32.882  33.669  1.00  0.00     0.031 A 
ATOM     40  C   UNL A   1      38.232  33.136  34.938  1.00  0.00     0.074 A 
ATOM     41  C   UNL A   1      37.880  31.930  32.813  1.00  0.00     0.049 A 
ATOM     42  N   UNL A   1      39.339  32.587  35.369  1.00  0.00    -0.248 NA
ATOM     43  C   UNL A   1      37.672  34.150  35.846  1.00  0.00     0.031 C 
ATOM     44  C   UNL A   1      37.206  31.557  31.572  1.00  0.00     0.029 A 
ATOM     45  N   UNL A   1      38.978  31.104  32.862  1.00  0.00    -0.354 N 
ATOM     46  C   UNL A   1      39.611  33.192  36.588  1.00  0.00     0.074 A 
ATOM     47  C   UNL A   1      38.573  34.173  36.816  1.00  0.00     0.031 C 
ATOM     48  C   UNL A   1      37.911  30.584  30.969  1.00  0.00     0.029 A 
ATOM     49  C   UNL A   1      39.101  30.287  31.764  1.00  0.00     0.049 A 
ATOM     50  H   UNL A   1      39.615  31.098  33.612  1.00  0.00     0.167 HD
ATOM     51  C   UNL A   1      40.631  32.946  37.445  1.00  0.00     0.037 A 
ATOM     52  C   UNL A   1      40.076  29.419  31.432  1.00  0.00     0.037 A 
ATOM     53  C   UNL A   1      41.660  31.965  37.220  1.00  0.00     0.049 A 
ATOM     54  C   UNL A   1      41.237  29.213  32.373  1.00  0.00     0.074 A 
ATOM     55  C   UNL A   1      42.715  31.619  38.046  1.00  0.00     0.029 A 
ATOM     56  N   UNL A   1      41.771  31.181  36.081  1.00  0.00    -0.354 N 
ATOM     57  N   UNL A   1      41.467  29.758  33.543  1.00  0.00    -0.248 NA
ATOM     58  C   UNL A   1      42.276  28.262  31.948  1.00  0.00     0.031 C 
ATOM     59  C   UNL A   1      43.503  30.676  37.378  1.00  0.00     0.029 A 
ATOM     60  C   UNL A   1      42.899  30.380  36.167  1.00  0.00     0.049 A 
ATOM     61  H   UNL A   1      41.142  31.193  35.323  1.00  0.00     0.167 HD
ATOM     62  C   UNL A   1      42.651  29.196  34.005  1.00  0.00     0.074 A 
ATOM     63  C   UNL A   1      43.084  28.253  32.996  1.00  0.00     0.031 C 
ATOM     64  C   UNL A   1      43.318  29.439  35.160  1.00  0.00     0.037 A 
BRANCH  51  65
ATOM     65  C   UNL A   1      40.707  33.772  38.696  1.00  0.00     0.064 A 
ATOM     66  C   UNL A   1      41.490  34.934  38.773  1.00  0.00     0.173 A 
ATOM     67  C   UNL A   1      39.942  33.423  39.820  1.00  0.00     0.173 A 
ATOM     68  F   UNL A   1      42.252  35.306  37.732  1.00  0.00    -0.203 F 
ATOM     69  C   UNL A   1      41.523  35.701  39.934  1.00  0.00     0.198 A 
ATOM     70  C   UNL A   1      39.950  34.211  40.967  1.00  0.00     0.198 A 
ATOM     71  F   UNL A   1      39.172  32.325  39.799  1.00  0.00    -0.203 F 
ATOM     72  F   UNL A   1      42.312  36.783  40.001  1.00  0.00    -0.200 F 
ATOM     73  C   UNL A   1      40.745  35.345  41.027  1.00  0.00     0.200 A 
ATOM     74  F   UNL A   1      39.186  33.873  42.016  1.00  0.00    -0.200 F 
ATOM     75  F   UNL A   1      40.765  36.093  42.138  1.00  0.00    -0.200 F 
ENDBRANCH  51  65
BRANCH  52  76
ATOM     76  C   UNL A   1      40.016  28.689  30.135  1.00  0.00     0.064 A 
ATOM     77  C   UNL A   1      39.425  27.422  30.039  1.00  0.00     0.173 A 
ATOM     78  C   UNL A   1      40.591  29.229  28.974  1.00  0.00     0.173 A 
ATOM     79  F   UNL A   1      38.891  26.846  31.125  1.00  0.00    -0.203 F 
ATOM     80  C   UNL A   1      39.436  26.711  28.839  1.00  0.00     0.198 A 
ATOM     81  C   UNL A   1      40.570  28.533  27.768  1.00  0.00     0.198 A 
ATOM     82  F   UNL A   1      41.178  30.434  29.013  1.00  0.00    -0.203 F 
ATOM     83  F   UNL A   1      38.924  25.473  28.791  1.00  0.00    -0.200 F 
ATOM     84  C   UNL A   1      40.004  27.269  27.704  1.00  0.00     0.200 A 
ATOM     85  F   UNL A   1      41.113  29.080  26.672  1.00  0.00    -0.200 F 
ATOM     86  F   UNL A   1      40.019  26.583  26.552  1.00  0.00    -0.200 F 
ENDBRANCH  52  76
BRANCH  64  87
ATOM     87  C   UNL A   1      44.569  28.645  35.421  1.00  0.00     0.064 A 
ATOM     88  C   UNL A   1      45.839  29.125  35.069  1.00  0.00     0.173 A 
ATOM     89  C   UNL A   1      44.497  27.402  36.073  1.00  0.00     0.173 A 
ATOM     90  F   UNL A   1      45.965  30.300  34.434  1.00  0.00    -0.203 F 
ATOM     91  C   UNL A   1      46.986  28.377  35.329  1.00  0.00     0.198 A 
ATOM     92  C   UNL A   1      45.648  26.676  36.364  1.00  0.00     0.198 A 
ATOM     93  F   UNL A   1      43.310  26.900  36.442  1.00  0.00    -0.203 F 
ATOM     94  F   UNL A   1      48.183  28.831  34.932  1.00  0.00    -0.200 F 
ATOM     95  C   UNL A   1      46.890  27.159  35.983  1.00  0.00     0.200 A 
ATOM     96  F   UNL A   1      45.555  25.508  37.015  1.00  0.00    -0.200 F 
ATOM     97  F   UNL A   1      47.996  26.446  36.241  1.00  0.00    -0.200 F 
ENDBRANCH  64  87
ENDBRANCH  38  39
ENDBRANCH  31  33
ENDBRANCH  30  31
ENDBRANCH  29  30
ENDBRANCH  28  29
ENDBRANCH  27  28
ENDBRANCH  26  27
ENDBRANCH   1  26
TORSDOF 19
ENDMDL
