MODEL 1
REMARK VINA RESULT:     -12.7      0.000      0.000
REMARK SMILES Cc1ccc(S(=O)(=O)n2cc(C(=O)C(=O)NCC(=O)N[C@H](Cc3c[nH]c4ccccc34)C(=O)OCCOCCOCCOC(=O)c3ccc(-c4c5nc(c(-c6c(F)c(F)c(F)c(F)c6F)c6ccc([nH]6)c(-c6c(F)c(F)c(F)c(F)c6F)c6nc(c(-c7c(F)c(F)c(F)c(F)c7F)c7ccc4[nH]7)C=C6)C=C5)cc3)c3ccccc32)cc1
REMARK SMILES IDX 36 1 35 2 34 3 32 4 33 5 21 6 20 7 18 8 19 9 17 11 16 12
REMARK SMILES IDX 14 13 15 14 12 16 13 17 11 18 9 19 10 20 114 21 109 22
REMARK SMILES IDX 113 23 110 24 112 25 111 26 6 27 7 28 8 29 5 30 1 31 2 32
REMARK SMILES IDX 3 33 116 34 4 35 115 36 22 37 23 38 24 39 31 40 25 41 26 42
REMARK SMILES IDX 30 43 27 45 29 46 28 47 37 48 38 49 39 50 40 51 41 52 42 53
REMARK SMILES IDX 43 54 44 55 45 56 46 57 47 58 108 59 48 60 107 61 49 62
REMARK SMILES IDX 50 63 51 64 101 65 52 66 106 67 100 68 102 69 53 70 105 71
REMARK SMILES IDX 99 72 98 73 54 75 86 76 66 77 85 78 67 79 70 80 84 81 103 82
REMARK SMILES IDX 68 83 69 84 83 86 104 87 71 88 55 89 56 90 64 91 57 92 58 93
REMARK SMILES IDX 62 94 65 95 59 96 60 97 63 98 61 99 87 100 88 101 96 102
REMARK SMILES IDX 89 103 90 104 94 105 97 106 91 107 92 108 95 109 93 110
REMARK SMILES IDX 72 111 73 112 81 113 74 114 75 115 79 116 82 117 76 118
REMARK SMILES IDX 77 119 80 120 78 121
REMARK H PARENT 20 10 16 15 25 44 102 74 70 85
REMARK Flexibility Score: inf
ROOT
ATOM      1  C   UNL A   1      33.007  34.728  29.575  1.00  0.00     0.202 C 
ENDROOT
BRANCH   1   2
ATOM      2  C   UNL A   1      33.397  34.317  28.154  1.00  0.00     0.261 C 
BRANCH   2   3
ATOM      3  O   UNL A   1      32.962  33.151  27.396  1.00  0.00    -0.462 OA
BRANCH   3   4
ATOM      4  C   UNL A   1      32.880  31.830  27.189  1.00  0.00     0.329 C 
ATOM      5  O   UNL A   1      31.817  31.248  27.066  1.00  0.00    -0.250 OA
BRANCH   4   6
ATOM      6  C   UNL A   1      34.350  30.861  27.295  1.00  0.00     0.196 C 
BRANCH   6   7
ATOM      7  N   UNL A   1      33.742  29.350  26.342  1.00  0.00    -0.341 N 
ATOM      8  C   UNL A   1      33.220  28.886  25.102  1.00  0.00     0.240 C 
ATOM      9  O   UNL A   1      33.234  29.550  24.053  1.00  0.00    -0.273 OA
ATOM     10  H   UNL A   1      33.816  28.572  26.941  1.00  0.00     0.164 HD
BRANCH   8  11
ATOM     11  C   UNL A   1      32.912  27.369  24.813  1.00  0.00     0.216 C 
BRANCH  11  12
ATOM     12  N   UNL A   1      31.844  26.815  24.000  1.00  0.00    -0.340 N 
ATOM     13  C   UNL A   1      31.871  25.662  23.231  1.00  0.00     0.292 C 
ATOM     14  O   UNL A   1      30.872  25.236  22.662  1.00  0.00    -0.265 OA
ATOM     15  H   UNL A   1      30.999  27.321  23.994  1.00  0.00     0.164 HD
BRANCH  13  16
ATOM     16  C   UNL A   1      33.211  24.976  23.041  1.00  0.00     0.252 C 
ATOM     17  O   UNL A   1      33.949  25.531  22.222  1.00  0.00    -0.283 OA
BRANCH  16  18
ATOM     18  C   UNL A   1      33.626  23.692  23.618  1.00  0.00     0.054 A 
ATOM     19  N   UNL A   1      34.257  21.560  23.961  1.00  0.00    -0.240 N 
ATOM     20  C   UNL A   1      33.141  22.378  23.700  1.00  0.00     0.117 A 
ATOM     21  C   UNL A   1      35.334  22.410  24.275  1.00  0.00     0.065 A 
ATOM     22  C   UNL A   1      34.776  23.661  24.440  1.00  0.00     0.012 A 
ATOM     23  C   UNL A   1      36.635  22.131  24.733  1.00  0.00     0.028 A 
ATOM     24  C   UNL A   1      35.423  24.605  25.254  1.00  0.00     0.011 A 
ATOM     25  C   UNL A   1      37.164  23.003  25.682  1.00  0.00     0.002 A 
ATOM     26  C   UNL A   1      36.545  24.210  25.971  1.00  0.00     0.001 A 
BRANCH  19  27
ATOM     27  S   UNL A   1      34.391  20.080  24.813  1.00  0.00     0.268 S 
ATOM     28  O   UNL A   1      33.678  20.448  26.032  1.00  0.00    -0.201 OA
ATOM     29  O   UNL A   1      35.831  19.859  24.818  1.00  0.00    -0.201 OA
BRANCH  27  30
ATOM     30  C   UNL A   1      33.828  18.441  24.541  1.00  0.00     0.088 A 
ATOM     31  C   UNL A   1      32.555  14.433  25.568  1.00  0.00     0.044 C 
ATOM     32  C   UNL A   1      32.994  15.801  25.140  1.00  0.00    -0.051 A 
ATOM     33  C   UNL A   1      32.457  16.865  25.843  1.00  0.00     0.005 A 
ATOM     34  C   UNL A   1      33.942  16.065  24.127  1.00  0.00     0.005 A 
ATOM     35  C   UNL A   1      32.861  18.145  25.537  1.00  0.00     0.022 A 
ATOM     36  C   UNL A   1      34.375  17.387  23.827  1.00  0.00     0.022 A 
ENDBRANCH  27  30
ENDBRANCH  19  27
ENDBRANCH  16  18
ENDBRANCH  13  16
ENDBRANCH  11  12
ENDBRANCH   8  11
ENDBRANCH   6   7
BRANCH   6  37
ATOM     37  C   UNL A   1      35.908  30.839  28.842  1.00  0.00     0.074 C 
BRANCH  37  38
ATOM     38  C   UNL A   1      37.436  29.959  29.027  1.00  0.00    -0.020 A 
ATOM     39  C   UNL A   1      38.293  29.516  28.028  1.00  0.00     0.087 A 
ATOM     40  C   UNL A   1      37.929  29.381  30.249  1.00  0.00     0.003 A 
ATOM     41  N   UNL A   1      38.885  28.373  28.513  1.00  0.00    -0.361 N 
ATOM     42  C   UNL A   1      38.606  28.228  29.851  1.00  0.00     0.046 A 
ATOM     43  C   UNL A   1      37.642  29.559  31.615  1.00  0.00     0.010 A 
ATOM     44  H   UNL A   1      39.429  27.749  27.979  1.00  0.00     0.166 HD
ATOM     45  C   UNL A   1      38.838  27.156  30.715  1.00  0.00     0.026 A 
ATOM     46  C   UNL A   1      37.902  28.510  32.503  1.00  0.00     0.001 A 
ATOM     47  C   UNL A   1      38.443  27.310  32.047  1.00  0.00     0.002 A 
ENDBRANCH  37  38
ENDBRANCH   6  37
ENDBRANCH   4   6
ENDBRANCH   3   4
ENDBRANCH   2   3
ENDBRANCH   1   2
BRANCH   1  48
ATOM     48  O   UNL A   1      33.348  35.980  30.151  1.00  0.00    -0.376 OA
BRANCH  48  49
ATOM     49  C   UNL A   1      32.610  36.313  31.307  1.00  0.00     0.188 C 
BRANCH  49  50
ATOM     50  C   UNL A   1      33.356  35.900  32.572  1.00  0.00     0.188 C 
BRANCH  50  51
ATOM     51  O   UNL A   1      32.929  34.615  32.999  1.00  0.00    -0.376 OA
BRANCH  51  52
ATOM     52  C   UNL A   1      33.884  33.579  32.835  1.00  0.00     0.202 C 
BRANCH  52  53
ATOM     53  C   UNL A   1      35.279  33.938  33.397  1.00  0.00     0.261 C 
BRANCH  53  54
ATOM     54  O   UNL A   1      35.761  32.845  34.224  1.00  0.00    -0.460 OA
BRANCH  54  55
ATOM     55  C   UNL A   1      36.786  32.867  35.116  1.00  0.00     0.338 C 
ATOM     56  O   UNL A   1      36.869  33.512  36.138  1.00  0.00    -0.246 OA
BRANCH  55  57
ATOM     57  C   UNL A   1      37.906  32.140  34.418  1.00  0.00     0.060 A 
ATOM     58  C   UNL A   1      39.131  30.984  35.047  1.00  0.00     0.016 A 
ATOM     59  C   UNL A   1      38.165  32.880  32.850  1.00  0.00     0.016 A 
ATOM     60  C   UNL A   1      40.605  30.653  34.037  1.00  0.00     0.010 A 
ATOM     61  C   UNL A   1      39.603  32.594  31.863  1.00  0.00     0.010 A 
ATOM     62  C   UNL A   1      40.895  31.609  32.470  1.00  0.00    -0.014 A 
BRANCH  62  63
ATOM     63  C   UNL A   1      42.066  32.449  31.853  1.00  0.00     0.031 A 
ATOM     64  C   UNL A   1      42.050  33.735  32.530  1.00  0.00     0.074 A 
ATOM     65  C   UNL A   1      43.174  31.996  31.081  1.00  0.00     0.049 A 
ATOM     66  N   UNL A   1      42.382  34.842  31.967  1.00  0.00    -0.248 NA
ATOM     67  C   UNL A   1      41.452  33.931  33.863  1.00  0.00     0.031 C 
ATOM     68  C   UNL A   1      44.600  32.366  31.198  1.00  0.00     0.029 A 
ATOM     69  N   UNL A   1      43.314  31.008  30.053  1.00  0.00    -0.354 N 
ATOM     70  C   UNL A   1      42.671  35.609  33.061  1.00  0.00     0.074 A 
ATOM     71  C   UNL A   1      41.679  35.235  34.026  1.00  0.00     0.031 C 
ATOM     72  C   UNL A   1      45.385  31.725  30.289  1.00  0.00     0.029 A 
ATOM     73  C   UNL A   1      44.583  30.828  29.469  1.00  0.00     0.049 A 
ATOM     74  H   UNL A   1      42.544  30.470  29.762  1.00  0.00     0.167 HD
ATOM     75  C   UNL A   1      43.980  35.953  33.248  1.00  0.00     0.037 A 
ATOM     76  C   UNL A   1      44.769  30.572  28.124  1.00  0.00     0.037 A 
ATOM     77  C   UNL A   1      44.837  35.661  32.060  1.00  0.00     0.049 A 
ATOM     78  C   UNL A   1      44.680  31.960  27.496  1.00  0.00     0.074 A 
ATOM     79  C   UNL A   1      46.133  35.218  31.842  1.00  0.00     0.029 A 
ATOM     80  N   UNL A   1      44.254  35.640  30.784  1.00  0.00    -0.354 N 
ATOM     81  N   UNL A   1      44.377  32.975  28.263  1.00  0.00    -0.248 NA
ATOM     82  C   UNL A   1      44.972  32.411  26.136  1.00  0.00     0.031 C 
ATOM     83  C   UNL A   1      46.294  34.950  30.435  1.00  0.00     0.029 A 
ATOM     84  C   UNL A   1      45.098  35.219  29.786  1.00  0.00     0.049 A 
ATOM     85  H   UNL A   1      43.320  35.905  30.619  1.00  0.00     0.167 HD
ATOM     86  C   UNL A   1      44.645  34.144  27.657  1.00  0.00     0.074 A 
ATOM     87  C   UNL A   1      44.893  33.756  26.280  1.00  0.00     0.031 C 
ATOM     88  C   UNL A   1      44.661  35.298  28.382  1.00  0.00     0.037 A 
BRANCH  75  89
ATOM     89  C   UNL A   1      44.478  36.450  34.592  1.00  0.00     0.064 A 
ATOM     90  C   UNL A   1      44.441  37.828  34.847  1.00  0.00     0.173 A 
ATOM     91  C   UNL A   1      44.937  35.662  35.681  1.00  0.00     0.173 A 
ATOM     92  F   UNL A   1      44.111  38.697  33.882  1.00  0.00    -0.203 F 
ATOM     93  C   UNL A   1      44.723  38.362  36.107  1.00  0.00     0.198 A 
ATOM     94  C   UNL A   1      45.142  36.187  36.959  1.00  0.00     0.198 A 
ATOM     95  F   UNL A   1      45.267  34.371  35.556  1.00  0.00    -0.203 F 
ATOM     96  F   UNL A   1      44.684  39.689  36.282  1.00  0.00    -0.200 F 
ATOM     97  C   UNL A   1      45.023  37.539  37.174  1.00  0.00     0.200 A 
ATOM     98  F   UNL A   1      45.463  35.367  37.972  1.00  0.00    -0.200 F 
ATOM     99  F   UNL A   1      45.221  38.049  38.396  1.00  0.00    -0.200 F 
ENDBRANCH  75  89
BRANCH  76 100
ATOM    100  C   UNL A   1      44.254  29.251  27.561  1.00  0.00     0.064 A 
ATOM    101  C   UNL A   1      44.514  27.991  28.151  1.00  0.00     0.173 A 
ATOM    102  C   UNL A   1      43.122  29.263  26.751  1.00  0.00     0.173 A 
ATOM    103  F   UNL A   1      45.585  27.824  28.939  1.00  0.00    -0.203 F 
ATOM    104  C   UNL A   1      43.615  26.897  28.036  1.00  0.00     0.198 A 
ATOM    105  C   UNL A   1      42.194  28.218  26.711  1.00  0.00     0.198 A 
ATOM    106  F   UNL A   1      42.709  30.422  26.249  1.00  0.00    -0.203 F 
ATOM    107  F   UNL A   1      43.828  25.755  28.707  1.00  0.00    -0.200 F 
ATOM    108  C   UNL A   1      42.421  27.044  27.369  1.00  0.00     0.200 A 
ATOM    109  F   UNL A   1      40.958  28.466  26.252  1.00  0.00    -0.200 F 
ATOM    110  F   UNL A   1      41.429  26.150  27.484  1.00  0.00    -0.200 F 
ENDBRANCH  76 100
BRANCH  88 111
ATOM    111  C   UNL A   1      44.313  36.643  27.816  1.00  0.00     0.064 A 
ATOM    112  C   UNL A   1      45.270  37.565  27.372  1.00  0.00     0.173 A 
ATOM    113  C   UNL A   1      42.965  36.980  27.538  1.00  0.00     0.173 A 
ATOM    114  F   UNL A   1      46.581  37.288  27.396  1.00  0.00    -0.203 F 
ATOM    115  C   UNL A   1      44.901  38.794  26.832  1.00  0.00     0.198 A 
ATOM    116  C   UNL A   1      42.606  38.160  26.908  1.00  0.00     0.198 A 
ATOM    117  F   UNL A   1      41.940  36.173  27.844  1.00  0.00    -0.203 F 
ATOM    118  F   UNL A   1      45.848  39.689  26.523  1.00  0.00    -0.200 F 
ATOM    119  C   UNL A   1      43.570  39.090  26.599  1.00  0.00     0.200 A 
ATOM    120  F   UNL A   1      41.321  38.379  26.602  1.00  0.00    -0.200 F 
ATOM    121  F   UNL A   1      43.219  40.266  26.067  1.00  0.00    -0.200 F 
ENDBRANCH  88 111
ENDBRANCH  62  63
ENDBRANCH  55  57
ENDBRANCH  54  55
ENDBRANCH  53  54
ENDBRANCH  52  53
ENDBRANCH  51  52
ENDBRANCH  50  51
ENDBRANCH  49  50
ENDBRANCH  48  49
ENDBRANCH   1  48
TORSDOF 26
ENDMDL
MODEL 2
REMARK VINA RESULT:     -12.6      2.402      7.485
REMARK SMILES Cc1ccc(S(=O)(=O)n2cc(C(=O)C(=O)NCC(=O)N[C@H](Cc3c[nH]c4ccccc34)C(=O)OCCOCCOCCOC(=O)c3ccc(-c4c5nc(c(-c6c(F)c(F)c(F)c(F)c6F)c6ccc([nH]6)c(-c6c(F)c(F)c(F)c(F)c6F)c6nc(c(-c7c(F)c(F)c(F)c(F)c7F)c7ccc4[nH]7)C=C6)C=C5)cc3)c3ccccc32)cc1
REMARK SMILES IDX 36 1 35 2 34 3 32 4 33 5 21 6 20 7 18 8 19 9 17 11 16 12
REMARK SMILES IDX 14 13 15 14 12 16 13 17 11 18 9 19 10 20 114 21 109 22
REMARK SMILES IDX 113 23 110 24 112 25 111 26 6 27 7 28 8 29 5 30 1 31 2 32
REMARK SMILES IDX 3 33 116 34 4 35 115 36 22 37 23 38 24 39 31 40 25 41 26 42
REMARK SMILES IDX 30 43 27 45 29 46 28 47 37 48 38 49 39 50 40 51 41 52 42 53
REMARK SMILES IDX 43 54 44 55 45 56 46 57 47 58 108 59 48 60 107 61 49 62
REMARK SMILES IDX 50 63 51 64 101 65 52 66 106 67 100 68 102 69 53 70 105 71
REMARK SMILES IDX 99 72 98 73 54 75 86 76 66 77 85 78 67 79 70 80 84 81 103 82
REMARK SMILES IDX 68 83 69 84 83 86 104 87 71 88 55 89 56 90 64 91 57 92 58 93
REMARK SMILES IDX 62 94 65 95 59 96 60 97 63 98 61 99 87 100 88 101 96 102
REMARK SMILES IDX 89 103 90 104 94 105 97 106 91 107 92 108 95 109 93 110
REMARK SMILES IDX 72 111 73 112 81 113 74 114 75 115 79 116 82 117 76 118
REMARK SMILES IDX 77 119 80 120 78 121
REMARK H PARENT 20 10 16 15 25 44 102 74 70 85
REMARK Flexibility Score: inf
ROOT
ATOM      1  C   UNL A   1      33.034  34.685  29.535  1.00  0.00     0.202 C 
ENDROOT
BRANCH   1   2
ATOM      2  C   UNL A   1      33.314  34.179  28.120  1.00  0.00     0.261 C 
BRANCH   2   3
ATOM      3  O   UNL A   1      32.697  33.061  27.417  1.00  0.00    -0.462 OA
BRANCH   3   4
ATOM      4  C   UNL A   1      32.632  31.773  27.058  1.00  0.00     0.329 C 
ATOM      5  O   UNL A   1      31.588  31.227  26.746  1.00  0.00    -0.250 OA
BRANCH   4   6
ATOM      6  C   UNL A   1      34.073  30.770  27.232  1.00  0.00     0.196 C 
BRANCH   6   7
ATOM      7  N   UNL A   1      33.455  29.252  26.298  1.00  0.00    -0.341 N 
ATOM      8  C   UNL A   1      33.154  28.715  25.014  1.00  0.00     0.240 C 
ATOM      9  O   UNL A   1      33.510  29.236  23.944  1.00  0.00    -0.273 OA
ATOM     10  H   UNL A   1      33.266  28.551  26.962  1.00  0.00     0.164 HD
BRANCH   8  11
ATOM     11  C   UNL A   1      32.676  27.232  24.794  1.00  0.00     0.216 C 
BRANCH  11  12
ATOM     12  N   UNL A   1      31.708  26.740  23.829  1.00  0.00    -0.340 N 
ATOM     13  C   UNL A   1      31.841  25.667  22.962  1.00  0.00     0.292 C 
ATOM     14  O   UNL A   1      30.915  25.281  22.258  1.00  0.00    -0.265 OA
ATOM     15  H   UNL A   1      30.856  27.231  23.783  1.00  0.00     0.164 HD
BRANCH  13  16
ATOM     16  C   UNL A   1      33.210  25.022  22.847  1.00  0.00     0.252 C 
ATOM     17  O   UNL A   1      33.961  25.576  22.039  1.00  0.00    -0.283 OA
BRANCH  16  18
ATOM     18  C   UNL A   1      33.646  23.773  23.482  1.00  0.00     0.054 A 
ATOM     19  N   UNL A   1      34.363  21.685  23.920  1.00  0.00    -0.240 N 
ATOM     20  C   UNL A   1      33.230  22.435  23.551  1.00  0.00     0.117 A 
ATOM     21  C   UNL A   1      35.361  22.600  24.306  1.00  0.00     0.065 A 
ATOM     22  C   UNL A   1      34.722  23.820  24.398  1.00  0.00     0.012 A 
ATOM     23  C   UNL A   1      36.632  22.403  24.876  1.00  0.00     0.028 A 
ATOM     24  C   UNL A   1      35.245  24.812  25.245  1.00  0.00     0.011 A 
ATOM     25  C   UNL A   1      37.029  23.318  25.849  1.00  0.00     0.002 A 
ATOM     26  C   UNL A   1      36.322  24.493  26.060  1.00  0.00     0.001 A 
BRANCH  19  27
ATOM     27  S   UNL A   1      34.506  20.229  24.810  1.00  0.00     0.268 S 
ATOM     28  O   UNL A   1      33.703  20.588  25.974  1.00  0.00    -0.201 OA
ATOM     29  O   UNL A   1      35.951  20.072  24.909  1.00  0.00    -0.201 OA
BRANCH  27  30
ATOM     30  C   UNL A   1      34.032  18.562  24.539  1.00  0.00     0.088 A 
ATOM     31  C   UNL A   1      32.488  14.639  25.518  1.00  0.00     0.044 C 
ATOM     32  C   UNL A   1      33.042  15.971  25.111  1.00  0.00    -0.051 A 
ATOM     33  C   UNL A   1      32.334  17.083  25.532  1.00  0.00     0.005 A 
ATOM     34  C   UNL A   1      34.241  16.161  24.392  1.00  0.00     0.005 A 
ATOM     35  C   UNL A   1      32.819  18.338  25.240  1.00  0.00     0.022 A 
ATOM     36  C   UNL A   1      34.752  17.459  24.109  1.00  0.00     0.022 A 
ENDBRANCH  27  30
ENDBRANCH  19  27
ENDBRANCH  16  18
ENDBRANCH  13  16
ENDBRANCH  11  12
ENDBRANCH   8  11
ENDBRANCH   6   7
BRANCH   6  37
ATOM     37  C   UNL A   1      35.583  30.747  28.826  1.00  0.00     0.074 C 
BRANCH  37  38
ATOM     38  C   UNL A   1      37.171  29.977  28.996  1.00  0.00    -0.020 A 
ATOM     39  C   UNL A   1      38.030  29.559  27.987  1.00  0.00     0.087 A 
ATOM     40  C   UNL A   1      37.732  29.473  30.221  1.00  0.00     0.003 A 
ATOM     41  N   UNL A   1      38.709  28.474  28.491  1.00  0.00    -0.361 N 
ATOM     42  C   UNL A   1      38.474  28.355  29.840  1.00  0.00     0.046 A 
ATOM     43  C   UNL A   1      37.468  29.676  31.588  1.00  0.00     0.010 A 
ATOM     44  H   UNL A   1      39.280  27.870  27.962  1.00  0.00     0.166 HD
ATOM     45  C   UNL A   1      38.799  27.329  30.730  1.00  0.00     0.026 A 
ATOM     46  C   UNL A   1      37.820  28.676  32.501  1.00  0.00     0.001 A 
ATOM     47  C   UNL A   1      38.428  27.499  32.067  1.00  0.00     0.002 A 
ENDBRANCH  37  38
ENDBRANCH   6  37
ENDBRANCH   4   6
ENDBRANCH   3   4
ENDBRANCH   2   3
ENDBRANCH   1   2
BRANCH   1  48
ATOM     48  O   UNL A   1      33.648  35.839  30.092  1.00  0.00    -0.376 OA
BRANCH  48  49
ATOM     49  C   UNL A   1      33.435  36.004  31.478  1.00  0.00     0.188 C 
BRANCH  49  50
ATOM     50  C   UNL A   1      34.615  35.468  32.282  1.00  0.00     0.188 C 
BRANCH  50  51
ATOM     51  O   UNL A   1      34.253  34.265  32.946  1.00  0.00    -0.376 OA
BRANCH  51  52
ATOM     52  C   UNL A   1      34.719  33.076  32.331  1.00  0.00     0.202 C 
BRANCH  52  53
ATOM     53  C   UNL A   1      36.181  33.174  31.837  1.00  0.00     0.261 C 
BRANCH  53  54
ATOM     54  O   UNL A   1      37.056  33.414  32.972  1.00  0.00    -0.460 OA
BRANCH  54  55
ATOM     55  C   UNL A   1      38.350  33.830  32.950  1.00  0.00     0.338 C 
ATOM     56  O   UNL A   1      38.764  34.969  32.940  1.00  0.00    -0.246 OA
BRANCH  55  57
ATOM     57  C   UNL A   1      39.141  32.582  32.655  1.00  0.00     0.060 A 
ATOM     58  C   UNL A   1      40.033  31.468  33.749  1.00  0.00     0.016 A 
ATOM     59  C   UNL A   1      39.455  32.511  30.932  1.00  0.00     0.016 A 
ATOM     60  C   UNL A   1      41.247  30.329  33.019  1.00  0.00     0.010 A 
ATOM     61  C   UNL A   1      40.651  31.431  30.203  1.00  0.00     0.010 A 
ATOM     62  C   UNL A   1      41.653  30.435  31.208  1.00  0.00    -0.014 A 
BRANCH  62  63
ATOM     63  C   UNL A   1      42.954  30.559  30.343  1.00  0.00     0.031 A 
ATOM     64  C   UNL A   1      43.362  29.203  30.018  1.00  0.00     0.074 A 
ATOM     65  C   UNL A   1      43.464  31.703  29.664  1.00  0.00     0.049 A 
ATOM     66  N   UNL A   1      44.588  28.839  29.884  1.00  0.00    -0.248 NA
ATOM     67  C   UNL A   1      42.427  28.063  30.017  1.00  0.00     0.031 C 
ATOM     68  C   UNL A   1      44.010  31.803  28.294  1.00  0.00     0.029 A 
ATOM     69  N   UNL A   1      43.531  33.094  30.001  1.00  0.00    -0.354 N 
ATOM     70  C   UNL A   1      44.437  27.703  29.140  1.00  0.00     0.074 A 
ATOM     71  C   UNL A   1      43.263  27.081  29.676  1.00  0.00     0.031 C 
ATOM     72  C   UNL A   1      44.402  33.067  27.976  1.00  0.00     0.029 A 
ATOM     73  C   UNL A   1      44.141  33.973  29.086  1.00  0.00     0.049 A 
ATOM     74  H   UNL A   1      43.162  33.426  30.850  1.00  0.00     0.167 HD
ATOM     75  C   UNL A   1      44.888  27.743  27.850  1.00  0.00     0.037 A 
ATOM     76  C   UNL A   1      44.935  35.037  29.470  1.00  0.00     0.037 A 
ATOM     77  C   UNL A   1      45.726  28.943  27.560  1.00  0.00     0.049 A 
ATOM     78  C   UNL A   1      46.287  34.377  29.733  1.00  0.00     0.074 A 
ATOM     79  C   UNL A   1      45.915  29.801  26.486  1.00  0.00     0.029 A 
ATOM     80  N   UNL A   1      46.432  29.555  28.608  1.00  0.00    -0.354 N 
ATOM     81  N   UNL A   1      46.373  33.075  29.649  1.00  0.00    -0.248 NA
ATOM     82  C   UNL A   1      47.600  34.965  29.990  1.00  0.00     0.031 C 
ATOM     83  C   UNL A   1      46.736  30.903  26.920  1.00  0.00     0.029 A 
ATOM     84  C   UNL A   1      47.049  30.732  28.260  1.00  0.00     0.049 A 
ATOM     85  H   UNL A   1      46.480  29.173  29.514  1.00  0.00     0.167 HD
ATOM     86  C   UNL A   1      47.654  32.672  29.587  1.00  0.00     0.074 A 
ATOM     87  C   UNL A   1      48.397  33.871  29.935  1.00  0.00     0.031 C 
ATOM     88  C   UNL A   1      47.948  31.392  29.221  1.00  0.00     0.037 A 
BRANCH  75  89
ATOM     89  C   UNL A   1      44.438  26.716  26.828  1.00  0.00     0.064 A 
ATOM     90  C   UNL A   1      45.250  25.593  26.611  1.00  0.00     0.173 A 
ATOM     91  C   UNL A   1      43.229  26.721  26.083  1.00  0.00     0.173 A 
ATOM     92  F   UNL A   1      46.457  25.498  27.182  1.00  0.00    -0.203 F 
ATOM     93  C   UNL A   1      44.842  24.520  25.815  1.00  0.00     0.198 A 
ATOM     94  C   UNL A   1      42.788  25.615  25.352  1.00  0.00     0.198 A 
ATOM     95  F   UNL A   1      42.447  27.802  25.971  1.00  0.00    -0.203 F 
ATOM     96  F   UNL A   1      45.670  23.483  25.636  1.00  0.00    -0.200 F 
ATOM     97  C   UNL A   1      43.592  24.508  25.228  1.00  0.00     0.200 A 
ATOM     98  F   UNL A   1      41.581  25.643  24.766  1.00  0.00    -0.200 F 
ATOM     99  F   UNL A   1      43.177  23.446  24.526  1.00  0.00    -0.200 F 
ENDBRANCH  75  89
BRANCH  76 100
ATOM    100  C   UNL A   1      44.286  36.184  30.237  1.00  0.00     0.064 A 
ATOM    101  C   UNL A   1      44.582  36.494  31.586  1.00  0.00     0.173 A 
ATOM    102  C   UNL A   1      43.762  37.257  29.523  1.00  0.00     0.173 A 
ATOM    103  F   UNL A   1      45.073  35.551  32.402  1.00  0.00    -0.203 F 
ATOM    104  C   UNL A   1      44.487  37.814  32.103  1.00  0.00     0.198 A 
ATOM    105  C   UNL A   1      43.752  38.570  30.003  1.00  0.00     0.198 A 
ATOM    106  F   UNL A   1      43.566  37.119  28.216  1.00  0.00    -0.203 F 
ATOM    107  F   UNL A   1      44.891  38.099  33.350  1.00  0.00    -0.200 F 
ATOM    108  C   UNL A   1      44.136  38.860  31.280  1.00  0.00     0.200 A 
ATOM    109  F   UNL A   1      43.628  39.580  29.127  1.00  0.00    -0.200 F 
ATOM    110  F   UNL A   1      44.316  40.138  31.641  1.00  0.00    -0.200 F 
ENDBRANCH  76 100
BRANCH  88 111
ATOM    111  C   UNL A   1      49.160  30.647  29.697  1.00  0.00     0.064 A 
ATOM    112  C   UNL A   1      49.420  30.377  31.047  1.00  0.00     0.173 A 
ATOM    113  C   UNL A   1      50.029  30.021  28.770  1.00  0.00     0.173 A 
ATOM    114  F   UNL A   1      48.570  30.745  32.017  1.00  0.00    -0.203 F 
ATOM    115  C   UNL A   1      50.547  29.663  31.442  1.00  0.00     0.198 A 
ATOM    116  C   UNL A   1      51.092  29.225  29.165  1.00  0.00     0.198 A 
ATOM    117  F   UNL A   1      49.874  30.131  27.444  1.00  0.00    -0.203 F 
ATOM    118  F   UNL A   1      50.814  29.522  32.747  1.00  0.00    -0.200 F 
ATOM    119  C   UNL A   1      51.381  29.086  30.502  1.00  0.00     0.200 A 
ATOM    120  F   UNL A   1      51.825  28.597  28.237  1.00  0.00    -0.200 F 
ATOM    121  F   UNL A   1      52.457  28.388  30.884  1.00  0.00    -0.200 F 
ENDBRANCH  88 111
ENDBRANCH  62  63
ENDBRANCH  55  57
ENDBRANCH  54  55
ENDBRANCH  53  54
ENDBRANCH  52  53
ENDBRANCH  51  52
ENDBRANCH  50  51
ENDBRANCH  49  50
ENDBRANCH  48  49
ENDBRANCH   1  48
TORSDOF 26
ENDMDL
MODEL 3
REMARK VINA RESULT:     -12.4      3.183      5.522
REMARK SMILES Cc1ccc(S(=O)(=O)n2cc(C(=O)C(=O)NCC(=O)N[C@H](Cc3c[nH]c4ccccc34)C(=O)OCCOCCOCCOC(=O)c3ccc(-c4c5nc(c(-c6c(F)c(F)c(F)c(F)c6F)c6ccc([nH]6)c(-c6c(F)c(F)c(F)c(F)c6F)c6nc(c(-c7c(F)c(F)c(F)c(F)c7F)c7ccc4[nH]7)C=C6)C=C5)cc3)c3ccccc32)cc1
REMARK SMILES IDX 36 1 35 2 34 3 32 4 33 5 21 6 20 7 18 8 19 9 17 11 16 12
REMARK SMILES IDX 14 13 15 14 12 16 13 17 11 18 9 19 10 20 114 21 109 22
REMARK SMILES IDX 113 23 110 24 112 25 111 26 6 27 7 28 8 29 5 30 1 31 2 32
REMARK SMILES IDX 3 33 116 34 4 35 115 36 22 37 23 38 24 39 31 40 25 41 26 42
REMARK SMILES IDX 30 43 27 45 29 46 28 47 37 48 38 49 39 50 40 51 41 52 42 53
REMARK SMILES IDX 43 54 44 55 45 56 46 57 47 58 108 59 48 60 107 61 49 62
REMARK SMILES IDX 50 63 51 64 101 65 52 66 106 67 100 68 102 69 53 70 105 71
REMARK SMILES IDX 99 72 98 73 54 75 86 76 66 77 85 78 67 79 70 80 84 81 103 82
REMARK SMILES IDX 68 83 69 84 83 86 104 87 71 88 55 89 56 90 64 91 57 92 58 93
REMARK SMILES IDX 62 94 65 95 59 96 60 97 63 98 61 99 87 100 88 101 96 102
REMARK SMILES IDX 89 103 90 104 94 105 97 106 91 107 92 108 95 109 93 110
REMARK SMILES IDX 72 111 73 112 81 113 74 114 75 115 79 116 82 117 76 118
REMARK SMILES IDX 77 119 80 120 78 121
REMARK H PARENT 20 10 16 15 25 44 102 74 70 85
REMARK Flexibility Score: inf
ROOT
ATOM      1  C   UNL A   1      38.294  31.797  30.790  1.00  0.00     0.202 C 
ENDROOT
BRANCH   1   2
ATOM      2  C   UNL A   1      36.898  32.366  30.535  1.00  0.00     0.261 C 
BRANCH   2   3
ATOM      3  O   UNL A   1      35.983  32.072  29.440  1.00  0.00    -0.462 OA
BRANCH   3   4
ATOM      4  C   UNL A   1      35.717  31.760  28.165  1.00  0.00     0.329 C 
ATOM      5  O   UNL A   1      34.970  32.422  27.466  1.00  0.00    -0.250 OA
BRANCH   4   6
ATOM      6  C   UNL A   1      36.308  30.224  27.526  1.00  0.00     0.196 C 
BRANCH   6   7
ATOM      7  N   UNL A   1      34.834  29.811  26.424  1.00  0.00    -0.341 N 
ATOM      8  C   UNL A   1      33.415  29.712  26.362  1.00  0.00     0.240 C 
ATOM      9  O   UNL A   1      32.649  30.186  27.217  1.00  0.00    -0.273 OA
ATOM     10  H   UNL A   1      35.185  29.565  25.538  1.00  0.00     0.164 HD
BRANCH   8  11
ATOM     11  C   UNL A   1      32.637  29.338  25.045  1.00  0.00     0.216 C 
BRANCH  11  12
ATOM     12  N   UNL A   1      31.203  29.183  24.870  1.00  0.00    -0.340 N 
ATOM     13  C   UNL A   1      30.538  28.271  24.066  1.00  0.00     0.292 C 
ATOM     14  O   UNL A   1      29.316  28.167  24.073  1.00  0.00    -0.265 OA
ATOM     15  H   UNL A   1      30.635  29.802  25.384  1.00  0.00     0.164 HD
BRANCH  13  16
ATOM     16  C   UNL A   1      31.370  27.449  23.099  1.00  0.00     0.252 C 
ATOM     17  O   UNL A   1      31.141  27.689  21.909  1.00  0.00    -0.283 OA
BRANCH  16  18
ATOM     18  C   UNL A   1      32.278  26.349  23.442  1.00  0.00     0.054 A 
ATOM     19  N   UNL A   1      34.040  25.084  24.038  1.00  0.00    -0.240 N 
ATOM     20  C   UNL A   1      33.473  25.792  22.962  1.00  0.00     0.117 A 
ATOM     21  C   UNL A   1      33.069  25.019  25.054  1.00  0.00     0.065 A 
ATOM     22  C   UNL A   1      31.898  25.454  24.468  1.00  0.00     0.012 A 
ATOM     23  C   UNL A   1      33.053  24.332  26.282  1.00  0.00     0.028 A 
ATOM     24  C   UNL A   1      30.664  25.029  24.989  1.00  0.00     0.011 A 
ATOM     25  C   UNL A   1      31.838  23.770  26.668  1.00  0.00     0.002 A 
ATOM     26  C   UNL A   1      30.660  24.082  26.004  1.00  0.00     0.001 A 
BRANCH  19  27
ATOM     27  S   UNL A   1      35.034  23.689  24.066  1.00  0.00     0.268 S 
ATOM     28  O   UNL A   1      35.844  24.003  25.238  1.00  0.00    -0.201 OA
ATOM     29  O   UNL A   1      35.608  23.696  22.727  1.00  0.00    -0.201 OA
BRANCH  27  30
ATOM     30  C   UNL A   1      34.748  21.970  24.270  1.00  0.00     0.088 A 
ATOM     31  C   UNL A   1      32.551  18.378  25.274  1.00  0.00     0.044 C 
ATOM     32  C   UNL A   1      33.373  19.580  24.917  1.00  0.00    -0.051 A 
ATOM     33  C   UNL A   1      32.748  20.541  24.142  1.00  0.00     0.005 A 
ATOM     34  C   UNL A   1      34.694  19.814  25.356  1.00  0.00     0.005 A 
ATOM     35  C   UNL A   1      33.428  21.695  23.826  1.00  0.00     0.022 A 
ATOM     36  C   UNL A   1      35.388  21.017  25.045  1.00  0.00     0.022 A 
ENDBRANCH  27  30
ENDBRANCH  19  27
ENDBRANCH  16  18
ENDBRANCH  13  16
ENDBRANCH  11  12
ENDBRANCH   8  11
ENDBRANCH   6   7
BRANCH   6  37
ATOM     37  C   UNL A   1      37.661  28.754  28.435  1.00  0.00     0.074 C 
BRANCH  37  38
ATOM     38  C   UNL A   1      39.392  28.412  28.261  1.00  0.00    -0.020 A 
ATOM     39  C   UNL A   1      40.455  29.296  28.400  1.00  0.00     0.087 A 
ATOM     40  C   UNL A   1      39.959  27.197  27.740  1.00  0.00     0.003 A 
ATOM     41  N   UNL A   1      41.436  28.848  27.546  1.00  0.00    -0.361 N 
ATOM     42  C   UNL A   1      41.112  27.601  27.067  1.00  0.00     0.046 A 
ATOM     43  C   UNL A   1      39.483  25.888  27.540  1.00  0.00     0.010 A 
ATOM     44  H   UNL A   1      42.251  29.348  27.311  1.00  0.00     0.166 HD
ATOM     45  C   UNL A   1      41.701  26.835  26.059  1.00  0.00     0.026 A 
ATOM     46  C   UNL A   1      40.084  25.091  26.561  1.00  0.00     0.001 A 
ATOM     47  C   UNL A   1      41.143  25.581  25.798  1.00  0.00     0.002 A 
ENDBRANCH  37  38
ENDBRANCH   6  37
ENDBRANCH   4   6
ENDBRANCH   3   4
ENDBRANCH   2   3
ENDBRANCH   1   2
BRANCH   1  48
ATOM     48  O   UNL A   1      38.941  31.840  32.054  1.00  0.00    -0.376 OA
BRANCH  48  49
ATOM     49  C   UNL A   1      38.553  30.816  32.945  1.00  0.00     0.188 C 
BRANCH  49  50
ATOM     50  C   UNL A   1      38.201  31.387  34.316  1.00  0.00     0.188 C 
BRANCH  50  51
ATOM     51  O   UNL A   1      39.207  32.296  34.743  1.00  0.00    -0.376 OA
BRANCH  51  52
ATOM     52  C   UNL A   1      39.392  32.369  36.147  1.00  0.00     0.202 C 
BRANCH  52  53
ATOM     53  C   UNL A   1      39.030  33.750  36.741  1.00  0.00     0.261 C 
BRANCH  53  54
ATOM     54  O   UNL A   1      40.232  34.559  36.844  1.00  0.00    -0.460 OA
BRANCH  54  55
ATOM     55  C   UNL A   1      40.471  35.769  36.274  1.00  0.00     0.338 C 
ATOM     56  O   UNL A   1      39.678  36.660  36.062  1.00  0.00    -0.246 OA
BRANCH  55  57
ATOM     57  C   UNL A   1      41.863  35.652  35.710  1.00  0.00     0.060 A 
ATOM     58  C   UNL A   1      43.469  35.924  36.472  1.00  0.00     0.016 A 
ATOM     59  C   UNL A   1      41.756  35.574  33.962  1.00  0.00     0.016 A 
ATOM     60  C   UNL A   1      44.914  36.136  35.390  1.00  0.00     0.010 A 
ATOM     61  C   UNL A   1      43.142  35.805  32.890  1.00  0.00     0.010 A 
ATOM     62  C   UNL A   1      44.692  36.219  33.546  1.00  0.00    -0.014 A 
BRANCH  62  63
ATOM     63  C   UNL A   1      45.120  37.193  32.394  1.00  0.00     0.031 A 
ATOM     64  C   UNL A   1      44.427  38.446  32.637  1.00  0.00     0.074 A 
ATOM     65  C   UNL A   1      46.223  37.080  31.500  1.00  0.00     0.049 A 
ATOM     66  N   UNL A   1      44.022  39.230  31.703  1.00  0.00    -0.248 NA
ATOM     67  C   UNL A   1      43.933  38.844  33.968  1.00  0.00     0.031 C 
ATOM     68  C   UNL A   1      47.186  38.119  31.078  1.00  0.00     0.029 A 
ATOM     69  N   UNL A   1      46.820  35.973  30.813  1.00  0.00    -0.354 N 
ATOM     70  C   UNL A   1      43.907  40.407  32.388  1.00  0.00     0.074 A 
ATOM     71  C   UNL A   1      43.387  40.023  33.667  1.00  0.00     0.031 C 
ATOM     72  C   UNL A   1      48.121  37.646  30.208  1.00  0.00     0.029 A 
ATOM     73  C   UNL A   1      47.913  36.226  29.962  1.00  0.00     0.049 A 
ATOM     74  H   UNL A   1      46.474  35.059  30.932  1.00  0.00     0.167 HD
ATOM     75  C   UNL A   1      44.795  41.397  32.072  1.00  0.00     0.037 A 
ATOM     76  C   UNL A   1      48.104  35.574  28.759  1.00  0.00     0.037 A 
ATOM     77  C   UNL A   1      45.567  41.114  30.826  1.00  0.00     0.049 A 
ATOM     78  C   UNL A   1      47.188  36.338  27.806  1.00  0.00     0.074 A 
ATOM     79  C   UNL A   1      46.861  41.328  30.376  1.00  0.00     0.029 A 
ATOM     80  N   UNL A   1      45.001  40.289  29.842  1.00  0.00    -0.354 N 
ATOM     81  N   UNL A   1      46.422  37.278  28.295  1.00  0.00    -0.248 NA
ATOM     82  C   UNL A   1      47.061  36.274  26.351  1.00  0.00     0.031 C 
ATOM     83  C   UNL A   1      47.034  40.629  29.128  1.00  0.00     0.029 A 
ATOM     84  C   UNL A   1      45.852  39.977  28.810  1.00  0.00     0.049 A 
ATOM     85  H   UNL A   1      44.073  39.961  29.888  1.00  0.00     0.167 HD
ATOM     86  C   UNL A   1      45.926  38.061  27.322  1.00  0.00     0.074 A 
ATOM     87  C   UNL A   1      46.240  37.325  26.110  1.00  0.00     0.031 C 
ATOM     88  C   UNL A   1      45.337  39.249  27.638  1.00  0.00     0.037 A 
BRANCH  75  89
ATOM     89  C   UNL A   1      45.025  42.573  33.002  1.00  0.00     0.064 A 
ATOM     90  C   UNL A   1      46.027  42.463  33.977  1.00  0.00     0.173 A 
ATOM     91  C   UNL A   1      44.371  43.832  32.970  1.00  0.00     0.173 A 
ATOM     92  F   UNL A   1      46.667  41.304  34.177  1.00  0.00    -0.203 F 
ATOM     93  C   UNL A   1      46.421  43.546  34.768  1.00  0.00     0.198 A 
ATOM     94  C   UNL A   1      44.817  44.934  33.703  1.00  0.00     0.198 A 
ATOM     95  F   UNL A   1      43.242  44.049  32.283  1.00  0.00    -0.203 F 
ATOM     96  F   UNL A   1      47.375  43.372  35.691  1.00  0.00    -0.200 F 
ATOM     97  C   UNL A   1      45.853  44.792  34.595  1.00  0.00     0.200 A 
ATOM     98  F   UNL A   1      44.226  46.128  33.539  1.00  0.00    -0.200 F 
ATOM     99  F   UNL A   1      46.283  45.844  35.304  1.00  0.00    -0.200 F 
ENDBRANCH  75  89
BRANCH  76 100
ATOM    100  C   UNL A   1      48.391  34.076  28.786  1.00  0.00     0.064 A 
ATOM    101  C   UNL A   1      47.424  33.086  28.492  1.00  0.00     0.173 A 
ATOM    102  C   UNL A   1      49.702  33.641  28.615  1.00  0.00     0.173 A 
ATOM    103  F   UNL A   1      46.119  33.355  28.634  1.00  0.00    -0.203 F 
ATOM    104  C   UNL A   1      47.770  31.825  27.937  1.00  0.00     0.198 A 
ATOM    105  C   UNL A   1      50.038  32.438  27.987  1.00  0.00     0.198 A 
ATOM    106  F   UNL A   1      50.688  34.523  28.738  1.00  0.00    -0.203 F 
ATOM    107  F   UNL A   1      46.823  30.955  27.554  1.00  0.00    -0.200 F 
ATOM    108  C   UNL A   1      49.079  31.538  27.623  1.00  0.00     0.200 A 
ATOM    109  F   UNL A   1      51.277  32.287  27.494  1.00  0.00    -0.200 F 
ATOM    110  F   UNL A   1      49.410  30.501  26.841  1.00  0.00    -0.200 F 
ENDBRANCH  76 100
BRANCH  88 111
ATOM    111  C   UNL A   1      44.240  39.876  26.830  1.00  0.00     0.064 A 
ATOM    112  C   UNL A   1      42.927  39.388  26.799  1.00  0.00     0.173 A 
ATOM    113  C   UNL A   1      44.446  41.119  26.181  1.00  0.00     0.173 A 
ATOM    114  F   UNL A   1      42.551  38.328  27.528  1.00  0.00    -0.203 F 
ATOM    115  C   UNL A   1      41.935  40.016  26.051  1.00  0.00     0.198 A 
ATOM    116  C   UNL A   1      43.430  41.793  25.522  1.00  0.00     0.198 A 
ATOM    117  F   UNL A   1      45.630  41.745  26.176  1.00  0.00    -0.203 F 
ATOM    118  F   UNL A   1      40.722  39.454  25.962  1.00  0.00    -0.200 F 
ATOM    119  C   UNL A   1      42.186  41.218  25.414  1.00  0.00     0.200 A 
ATOM    120  F   UNL A   1      43.673  43.002  25.000  1.00  0.00    -0.200 F 
ATOM    121  F   UNL A   1      41.227  41.827  24.708  1.00  0.00    -0.200 F 
ENDBRANCH  88 111
ENDBRANCH  62  63
ENDBRANCH  55  57
ENDBRANCH  54  55
ENDBRANCH  53  54
ENDBRANCH  52  53
ENDBRANCH  51  52
ENDBRANCH  50  51
ENDBRANCH  49  50
ENDBRANCH  48  49
ENDBRANCH   1  48
TORSDOF 26
ENDMDL
