MODEL 1
REMARK VINA RESULT:      -9.7      0.000      0.000
REMARK SMILES C[C@@H](C(=O)N(C)C)[N@@H+](CC(=O)OCCOCCOCCOC(=O)c1ccc(-c2c3nc(c(-c4c(F)c(F)c(F)c(F)c4F)c4ccc([nH]4)c(-c4c(F)c(F)c(F)c(F)c4F)c4nc(c(-c5c(F)c(F)c(F)c(F)c5F)c5ccc2[nH]5)C=C4)C=C3)cc1)CC(F)(F)F
REMARK SMILES IDX 16 1 15 2 14 3 13 4 12 5 10 6 11 7 9 8 8 9 2 11 1 12 3 13
REMARK SMILES IDX 4 14 5 15 6 16 7 17 87 18 88 19 89 20 90 21 91 22 17 23
REMARK SMILES IDX 18 24 19 25 20 26 21 27 22 28 23 29 24 30 25 31 86 32 26 33
REMARK SMILES IDX 85 34 27 35 28 36 29 37 79 38 30 39 84 40 78 41 80 42 31 43
REMARK SMILES IDX 83 44 77 45 76 46 32 48 64 49 44 50 63 51 45 52 48 53 62 54
REMARK SMILES IDX 81 55 46 56 47 57 61 59 82 60 49 61 33 62 34 63 42 64 35 65
REMARK SMILES IDX 36 66 40 67 43 68 37 69 38 70 41 71 39 72 65 73 66 74 74 75
REMARK SMILES IDX 67 76 68 77 72 78 75 79 69 80 70 81 73 82 71 83 50 84 51 85
REMARK SMILES IDX 59 86 52 87 53 88 57 89 60 90 54 91 55 92 58 93 56 94
REMARK H PARENT 8 10 80 47 48 58
REMARK Flexibility Score: inf
ROOT
ATOM      1  C   UNL A   1      39.818  21.971  26.597  1.00  0.00     0.188 C 
ENDROOT
BRANCH   1   2
ATOM      2  O   UNL A   1      38.474  21.555  26.334  1.00  0.00    -0.376 OA
BRANCH   2   3
ATOM      3  C   UNL A   1      38.011  21.860  25.017  1.00  0.00     0.202 C 
BRANCH   3   4
ATOM      4  C   UNL A   1      36.722  22.688  25.037  1.00  0.00     0.261 C 
BRANCH   4   5
ATOM      5  O   UNL A   1      36.269  23.089  23.729  1.00  0.00    -0.459 OA
BRANCH   5   6
ATOM      6  C   UNL A   1      35.005  23.573  23.619  1.00  0.00     0.361 C 
ATOM      7  O   UNL A   1      34.432  23.808  22.560  1.00  0.00    -0.245 OA
BRANCH   6   8
ATOM      8  C   UNL A   1      34.441  23.999  24.973  1.00  0.00     0.387 C 
BRANCH   8   9
ATOM      9  N   UNL A   1      33.047  24.439  25.035  1.00  0.00    -0.308 N 
ATOM     10  H   UNL A   1      32.882  24.679  24.057  1.00  0.00     0.349 HD
BRANCH   9  11
ATOM     11  C   UNL A   1      32.731  25.863  25.254  1.00  0.00     0.271 C 
ATOM     12  C   UNL A   1      33.836  26.592  26.033  1.00  0.00     0.086 C 
BRANCH  11  13
ATOM     13  C   UNL A   1      32.417  26.619  23.941  1.00  0.00     0.280 C 
ATOM     14  O   UNL A   1      33.325  27.005  23.202  1.00  0.00    -0.268 OA
ATOM     15  N   UNL A   1      31.089  26.831  23.583  1.00  0.00    -0.344 N 
ATOM     16  C   UNL A   1      29.919  26.549  24.395  1.00  0.00     0.146 C 
ATOM     17  C   UNL A   1      30.839  27.403  22.270  1.00  0.00     0.146 C 
ENDBRANCH  11  13
ENDBRANCH   9  11
BRANCH   9  18
ATOM     18  C   UNL A   1      32.000  23.414  25.090  1.00  0.00     0.380 C 
BRANCH  18  19
ATOM     19  C   UNL A   1      31.165  23.152  26.351  1.00  0.00     0.438 C 
ATOM     20  F   UNL A   1      30.335  24.157  26.678  1.00  0.00    -0.165 F 
ATOM     21  F   UNL A   1      30.380  22.066  26.110  1.00  0.00    -0.165 F 
ATOM     22  F   UNL A   1      31.960  22.845  27.393  1.00  0.00    -0.165 F 
ENDBRANCH  18  19
ENDBRANCH   9  18
ENDBRANCH   8   9
ENDBRANCH   6   8
ENDBRANCH   5   6
ENDBRANCH   4   5
ENDBRANCH   3   4
ENDBRANCH   2   3
ENDBRANCH   1   2
BRANCH   1  23
ATOM     23  C   UNL A   1      40.743  20.779  26.860  1.00  0.00     0.188 C 
BRANCH  23  24
ATOM     24  O   UNL A   1      41.645  20.671  25.767  1.00  0.00    -0.376 OA
BRANCH  24  25
ATOM     25  C   UNL A   1      43.015  20.943  26.021  1.00  0.00     0.202 C 
BRANCH  25  26
ATOM     26  C   UNL A   1      43.661  22.010  25.127  1.00  0.00     0.261 C 
BRANCH  26  27
ATOM     27  O   UNL A   1      42.947  23.249  25.100  1.00  0.00    -0.460 OA
BRANCH  27  28
ATOM     28  C   UNL A   1      43.706  24.364  25.221  1.00  0.00     0.338 C 
ATOM     29  O   UNL A   1      44.682  24.665  24.556  1.00  0.00    -0.246 OA
BRANCH  28  30
ATOM     30  C   UNL A   1      43.055  25.242  26.222  1.00  0.00     0.060 A 
ATOM     31  C   UNL A   1      43.368  26.603  26.208  1.00  0.00     0.016 A 
ATOM     32  C   UNL A   1      42.115  24.757  27.136  1.00  0.00     0.016 A 
ATOM     33  C   UNL A   1      42.751  27.489  27.084  1.00  0.00     0.010 A 
ATOM     34  C   UNL A   1      41.511  25.634  28.037  1.00  0.00     0.010 A 
ATOM     35  C   UNL A   1      41.843  27.000  28.026  1.00  0.00    -0.014 A 
BRANCH  35  36
ATOM     36  C   UNL A   1      41.432  27.868  29.148  1.00  0.00     0.031 A 
ATOM     37  C   UNL A   1      42.236  27.795  30.412  1.00  0.00     0.074 A 
ATOM     38  C   UNL A   1      40.405  28.726  29.035  1.00  0.00     0.049 A 
ATOM     39  N   UNL A   1      42.020  28.356  31.573  1.00  0.00    -0.248 NA
ATOM     40  C   UNL A   1      43.455  26.970  30.356  1.00  0.00     0.031 C 
ATOM     41  C   UNL A   1      39.616  28.951  27.825  1.00  0.00     0.029 A 
ATOM     42  N   UNL A   1      39.848  29.568  29.964  1.00  0.00    -0.354 N 
ATOM     43  C   UNL A   1      43.061  27.933  32.388  1.00  0.00     0.074 A 
ATOM     44  C   UNL A   1      43.900  27.058  31.600  1.00  0.00     0.031 C 
ATOM     45  C   UNL A   1      38.662  29.862  28.092  1.00  0.00     0.029 A 
ATOM     46  C   UNL A   1      38.748  30.244  29.500  1.00  0.00     0.049 A 
ATOM     47  H   UNL A   1      40.203  29.676  30.876  1.00  0.00     0.167 HD
ATOM     48  C   UNL A   1      43.294  28.252  33.681  1.00  0.00     0.037 A 
ATOM     49  C   UNL A   1      37.893  31.052  30.157  1.00  0.00     0.037 A 
ATOM     50  C   UNL A   1      42.458  29.129  34.453  1.00  0.00     0.049 A 
ATOM     51  C   UNL A   1      38.121  31.317  31.625  1.00  0.00     0.074 A 
ATOM     52  C   UNL A   1      42.593  29.510  35.774  1.00  0.00     0.029 A 
ATOM     53  N   UNL A   1      41.324  29.762  33.963  1.00  0.00    -0.354 N 
ATOM     54  N   UNL A   1      39.088  30.897  32.405  1.00  0.00    -0.248 NA
ATOM     55  C   UNL A   1      37.130  32.164  32.306  1.00  0.00     0.031 C 
ATOM     56  C   UNL A   1      41.512  30.337  36.099  1.00  0.00     0.029 A 
ATOM     57  C   UNL A   1      40.736  30.516  34.965  1.00  0.00     0.049 A 
ATOM     58  H   UNL A   1      40.988  29.687  33.041  1.00  0.00     0.167 HD
ATOM     59  C   UNL A   1      38.841  31.449  33.656  1.00  0.00     0.074 A 
ATOM     60  C   UNL A   1      37.638  32.245  33.528  1.00  0.00     0.031 C 
ATOM     61  C   UNL A   1      39.546  31.312  34.807  1.00  0.00     0.037 A 
BRANCH  48  62
ATOM     62  C   UNL A   1      44.471  27.604  34.346  1.00  0.00     0.064 A 
ATOM     63  C   UNL A   1      44.369  26.362  34.991  1.00  0.00     0.173 A 
ATOM     64  C   UNL A   1      45.722  28.239  34.338  1.00  0.00     0.173 A 
ATOM     65  F   UNL A   1      43.190  25.726  35.050  1.00  0.00    -0.203 F 
ATOM     66  C   UNL A   1      45.471  25.793  35.625  1.00  0.00     0.198 A 
ATOM     67  C   UNL A   1      46.827  27.653  34.945  1.00  0.00     0.198 A 
ATOM     68  F   UNL A   1      45.872  29.430  33.738  1.00  0.00    -0.203 F 
ATOM     69  F   UNL A   1      45.339  24.632  36.281  1.00  0.00    -0.200 F 
ATOM     70  C   UNL A   1      46.700  26.435  35.595  1.00  0.00     0.200 A 
ATOM     71  F   UNL A   1      48.016  28.271  34.908  1.00  0.00    -0.200 F 
ATOM     72  F   UNL A   1      47.760  25.884  36.202  1.00  0.00    -0.200 F 
ENDBRANCH  48  62
BRANCH  49  73
ATOM     73  C   UNL A   1      36.722  31.638  29.452  1.00  0.00     0.064 A 
ATOM     74  C   UNL A   1      35.656  30.835  29.025  1.00  0.00     0.173 A 
ATOM     75  C   UNL A   1      36.662  33.008  29.157  1.00  0.00     0.173 A 
ATOM     76  F   UNL A   1      35.680  29.513  29.253  1.00  0.00    -0.203 F 
ATOM     77  C   UNL A   1      34.585  31.376  28.314  1.00  0.00     0.198 A 
ATOM     78  C   UNL A   1      35.578  33.553  28.473  1.00  0.00     0.198 A 
ATOM     79  F   UNL A   1      37.661  33.822  29.532  1.00  0.00    -0.203 F 
ATOM     80  F   UNL A   1      33.607  30.575  27.869  1.00  0.00    -0.200 F 
ATOM     81  C   UNL A   1      34.544  32.735  28.044  1.00  0.00     0.200 A 
ATOM     82  F   UNL A   1      35.540  34.868  28.218  1.00  0.00    -0.200 F 
ATOM     83  F   UNL A   1      33.517  33.253  27.357  1.00  0.00    -0.200 F 
ENDBRANCH  49  73
BRANCH  61  84
ATOM     84  C   UNL A   1      39.061  32.073  36.008  1.00  0.00     0.064 A 
ATOM     85  C   UNL A   1      39.405  33.416  36.219  1.00  0.00     0.173 A 
ATOM     86  C   UNL A   1      38.195  31.462  36.928  1.00  0.00     0.173 A 
ATOM     87  F   UNL A   1      40.239  34.041  35.374  1.00  0.00    -0.203 F 
ATOM     88  C   UNL A   1      38.918  34.112  37.322  1.00  0.00     0.198 A 
ATOM     89  C   UNL A   1      37.685  32.172  38.011  1.00  0.00     0.198 A 
ATOM     90  F   UNL A   1      37.827  30.182  36.765  1.00  0.00    -0.203 F 
ATOM     91  F   UNL A   1      39.295  35.382  37.529  1.00  0.00    -0.200 F 
ATOM     92  C   UNL A   1      38.053  33.493  38.211  1.00  0.00     0.200 A 
ATOM     93  F   UNL A   1      36.835  31.576  38.860  1.00  0.00    -0.200 F 
ATOM     94  F   UNL A   1      37.576  34.169  39.265  1.00  0.00    -0.200 F 
ENDBRANCH  61  84
ENDBRANCH  35  36
ENDBRANCH  28  30
ENDBRANCH  27  28
ENDBRANCH  26  27
ENDBRANCH  25  26
ENDBRANCH  24  25
ENDBRANCH  23  24
ENDBRANCH   1  23
TORSDOF 22
ENDMDL
MODEL 2
REMARK VINA RESULT:      -9.7      4.610      8.840
REMARK SMILES C[C@@H](C(=O)N(C)C)[N@@H+](CC(=O)OCCOCCOCCOC(=O)c1ccc(-c2c3nc(c(-c4c(F)c(F)c(F)c(F)c4F)c4ccc([nH]4)c(-c4c(F)c(F)c(F)c(F)c4F)c4nc(c(-c5c(F)c(F)c(F)c(F)c5F)c5ccc2[nH]5)C=C4)C=C3)cc1)CC(F)(F)F
REMARK SMILES IDX 16 1 15 2 14 3 13 4 12 5 10 6 11 7 9 8 8 9 2 11 1 12 3 13
REMARK SMILES IDX 4 14 5 15 6 16 7 17 87 18 88 19 89 20 90 21 91 22 17 23
REMARK SMILES IDX 18 24 19 25 20 26 21 27 22 28 23 29 24 30 25 31 86 32 26 33
REMARK SMILES IDX 85 34 27 35 28 36 29 37 79 38 30 39 84 40 78 41 80 42 31 43
REMARK SMILES IDX 83 44 77 45 76 46 32 48 64 49 44 50 63 51 45 52 48 53 62 54
REMARK SMILES IDX 81 55 46 56 47 57 61 59 82 60 49 61 33 62 34 63 42 64 35 65
REMARK SMILES IDX 36 66 40 67 43 68 37 69 38 70 41 71 39 72 65 73 66 74 74 75
REMARK SMILES IDX 67 76 68 77 72 78 75 79 69 80 70 81 73 82 71 83 50 84 51 85
REMARK SMILES IDX 59 86 52 87 53 88 57 89 60 90 54 91 55 92 58 93 56 94
REMARK H PARENT 8 10 80 47 48 58
REMARK Flexibility Score: inf
ROOT
ATOM      1  C   UNL A   1      33.368  22.263  24.856  1.00  0.00     0.188 C 
ENDROOT
BRANCH   1   2
ATOM      2  O   UNL A   1      33.180  22.271  23.437  1.00  0.00    -0.376 OA
BRANCH   2   3
ATOM      3  C   UNL A   1      34.073  23.135  22.730  1.00  0.00     0.202 C 
BRANCH   3   4
ATOM      4  C   UNL A   1      33.705  24.612  22.907  1.00  0.00     0.261 C 
BRANCH   4   5
ATOM      5  O   UNL A   1      33.398  25.285  21.670  1.00  0.00    -0.459 OA
BRANCH   5   6
ATOM      6  C   UNL A   1      32.955  26.566  21.741  1.00  0.00     0.361 C 
ATOM      7  O   UNL A   1      33.675  27.558  21.792  1.00  0.00    -0.245 OA
BRANCH   6   8
ATOM      8  C   UNL A   1      31.446  26.632  21.967  1.00  0.00     0.387 C 
BRANCH   8   9
ATOM      9  N   UNL A   1      30.945  27.458  23.066  1.00  0.00    -0.308 N 
ATOM     10  H   UNL A   1      31.604  28.237  23.032  1.00  0.00     0.349 HD
BRANCH   9  11
ATOM     11  C   UNL A   1      31.490  27.288  24.426  1.00  0.00     0.271 C 
ATOM     12  C   UNL A   1      31.451  28.592  25.237  1.00  0.00     0.086 C 
BRANCH  11  13
ATOM     13  C   UNL A   1      30.801  26.150  25.214  1.00  0.00     0.280 C 
ATOM     14  O   UNL A   1      29.590  25.946  25.100  1.00  0.00    -0.268 OA
ATOM     15  N   UNL A   1      31.571  25.330  26.034  1.00  0.00    -0.344 N 
ATOM     16  C   UNL A   1      32.972  25.513  26.367  1.00  0.00     0.146 C 
ATOM     17  C   UNL A   1      30.912  24.179  26.630  1.00  0.00     0.146 C 
ENDBRANCH  11  13
ENDBRANCH   9  11
BRANCH   9  18
ATOM     18  C   UNL A   1      29.760  28.287  22.825  1.00  0.00     0.380 C 
BRANCH  18  19
ATOM     19  C   UNL A   1      29.845  29.694  22.218  1.00  0.00     0.438 C 
ATOM     20  F   UNL A   1      29.625  30.685  23.099  1.00  0.00    -0.165 F 
ATOM     21  F   UNL A   1      31.113  29.869  21.750  1.00  0.00    -0.165 F 
ATOM     22  F   UNL A   1      29.014  29.810  21.166  1.00  0.00    -0.165 F 
ENDBRANCH  18  19
ENDBRANCH   9  18
ENDBRANCH   8   9
ENDBRANCH   6   8
ENDBRANCH   5   6
ENDBRANCH   4   5
ENDBRANCH   3   4
ENDBRANCH   2   3
ENDBRANCH   1   2
BRANCH   1  23
ATOM     23  C   UNL A   1      33.731  20.868  25.375  1.00  0.00     0.188 C 
BRANCH  23  24
ATOM     24  O   UNL A   1      35.081  20.901  25.817  1.00  0.00    -0.376 OA
BRANCH  24  25
ATOM     25  C   UNL A   1      36.069  20.385  24.937  1.00  0.00     0.202 C 
BRANCH  25  26
ATOM     26  C   UNL A   1      37.265  21.307  24.662  1.00  0.00     0.261 C 
BRANCH  26  27
ATOM     27  O   UNL A   1      37.773  21.957  25.831  1.00  0.00    -0.460 OA
BRANCH  27  28
ATOM     28  C   UNL A   1      39.036  21.625  26.183  1.00  0.00     0.338 C 
ATOM     29  O   UNL A   1      39.591  20.553  26.009  1.00  0.00    -0.246 OA
BRANCH  28  30
ATOM     30  C   UNL A   1      39.695  22.849  26.698  1.00  0.00     0.060 A 
ATOM     31  C   UNL A   1      39.264  24.084  26.210  1.00  0.00     0.016 A 
ATOM     32  C   UNL A   1      40.689  22.800  27.679  1.00  0.00     0.016 A 
ATOM     33  C   UNL A   1      39.803  25.272  26.692  1.00  0.00     0.010 A 
ATOM     34  C   UNL A   1      41.254  23.986  28.150  1.00  0.00     0.010 A 
ATOM     35  C   UNL A   1      40.826  25.225  27.642  1.00  0.00    -0.014 A 
BRANCH  35  36
ATOM     36  C   UNL A   1      41.608  26.446  27.919  1.00  0.00     0.031 A 
ATOM     37  C   UNL A   1      40.940  27.533  28.708  1.00  0.00     0.074 A 
ATOM     38  C   UNL A   1      42.885  26.570  27.521  1.00  0.00     0.049 A 
ATOM     39  N   UNL A   1      41.356  28.740  28.985  1.00  0.00    -0.248 NA
ATOM     40  C   UNL A   1      39.614  27.208  29.261  1.00  0.00     0.031 C 
ATOM     41  C   UNL A   1      43.664  25.542  26.834  1.00  0.00     0.029 A 
ATOM     42  N   UNL A   1      43.749  27.629  27.639  1.00  0.00    -0.354 N 
ATOM     43  C   UNL A   1      40.335  29.324  29.723  1.00  0.00     0.074 A 
ATOM     44  C   UNL A   1      39.273  28.350  29.838  1.00  0.00     0.031 C 
ATOM     45  C   UNL A   1      44.891  26.028  26.576  1.00  0.00     0.029 A 
ATOM     46  C   UNL A   1      44.963  27.414  27.037  1.00  0.00     0.049 A 
ATOM     47  H   UNL A   1      43.521  28.463  28.110  1.00  0.00     0.167 HD
ATOM     48  C   UNL A   1      40.292  30.566  30.256  1.00  0.00     0.037 A 
ATOM     49  C   UNL A   1      45.996  28.259  26.853  1.00  0.00     0.037 A 
ATOM     50  C   UNL A   1      41.356  31.524  30.141  1.00  0.00     0.049 A 
ATOM     51  C   UNL A   1      45.886  29.671  27.376  1.00  0.00     0.074 A 
ATOM     52  C   UNL A   1      41.413  32.815  30.631  1.00  0.00     0.029 A 
ATOM     53  N   UNL A   1      42.556  31.288  29.484  1.00  0.00    -0.354 N 
ATOM     54  N   UNL A   1      44.911  30.234  28.049  1.00  0.00    -0.248 NA
ATOM     55  C   UNL A   1      47.020  30.567  27.105  1.00  0.00     0.031 C 
ATOM     56  C   UNL A   1      42.629  33.378  30.228  1.00  0.00     0.029 A 
ATOM     57  C   UNL A   1      43.352  32.418  29.536  1.00  0.00     0.049 A 
ATOM     58  H   UNL A   1      42.804  30.442  29.045  1.00  0.00     0.167 HD
ATOM     59  C   UNL A   1      45.323  31.536  28.307  1.00  0.00     0.074 A 
ATOM     60  C   UNL A   1      46.643  31.675  27.728  1.00  0.00     0.031 C 
ATOM     61  C   UNL A   1      44.671  32.527  28.964  1.00  0.00     0.037 A 
BRANCH  48  62
ATOM     62  C   UNL A   1      39.032  30.966  30.964  1.00  0.00     0.064 A 
ATOM     63  C   UNL A   1      37.952  31.550  30.285  1.00  0.00     0.173 A 
ATOM     64  C   UNL A   1      38.906  30.760  32.346  1.00  0.00     0.173 A 
ATOM     65  F   UNL A   1      38.033  31.791  28.967  1.00  0.00    -0.203 F 
ATOM     66  C   UNL A   1      36.803  31.937  30.969  1.00  0.00     0.198 A 
ATOM     67  C   UNL A   1      37.744  31.120  33.020  1.00  0.00     0.198 A 
ATOM     68  F   UNL A   1      39.912  30.209  33.042  1.00  0.00    -0.203 F 
ATOM     69  F   UNL A   1      35.805  32.543  30.310  1.00  0.00    -0.200 F 
ATOM     70  C   UNL A   1      36.697  31.715  32.334  1.00  0.00     0.200 A 
ATOM     71  F   UNL A   1      37.640  30.897  34.338  1.00  0.00    -0.200 F 
ATOM     72  F   UNL A   1      35.589  32.085  32.990  1.00  0.00    -0.200 F 
ENDBRANCH  48  62
BRANCH  49  73
ATOM     73  C   UNL A   1      47.206  27.816  26.112  1.00  0.00     0.064 A 
ATOM     74  C   UNL A   1      47.238  27.810  24.711  1.00  0.00     0.173 A 
ATOM     75  C   UNL A   1      48.345  27.353  26.789  1.00  0.00     0.173 A 
ATOM     76  F   UNL A   1      46.163  28.212  24.015  1.00  0.00    -0.203 F 
ATOM     77  C   UNL A   1      48.352  27.341  24.016  1.00  0.00     0.198 A 
ATOM     78  C   UNL A   1      49.469  26.912  26.095  1.00  0.00     0.198 A 
ATOM     79  F   UNL A   1      48.365  27.326  28.131  1.00  0.00    -0.203 F 
ATOM     80  F   UNL A   1      48.333  27.295  22.677  1.00  0.00    -0.200 F 
ATOM     81  C   UNL A   1      49.469  26.898  24.708  1.00  0.00     0.200 A 
ATOM     82  F   UNL A   1      50.548  26.490  26.768  1.00  0.00    -0.200 F 
ATOM     83  F   UNL A   1      50.537  26.443  24.040  1.00  0.00    -0.200 F 
ENDBRANCH  49  73
BRANCH  61  84
ATOM     84  C   UNL A   1      45.390  33.834  29.133  1.00  0.00     0.064 A 
ATOM     85  C   UNL A   1      45.246  34.880  28.211  1.00  0.00     0.173 A 
ATOM     86  C   UNL A   1      46.189  34.059  30.265  1.00  0.00     0.173 A 
ATOM     87  F   UNL A   1      44.502  34.710  27.106  1.00  0.00    -0.203 F 
ATOM     88  C   UNL A   1      45.896  36.097  28.403  1.00  0.00     0.198 A 
ATOM     89  C   UNL A   1      46.810  35.287  30.470  1.00  0.00     0.198 A 
ATOM     90  F   UNL A   1      46.350  33.094  31.182  1.00  0.00    -0.203 F 
ATOM     91  F   UNL A   1      45.780  37.068  27.486  1.00  0.00    -0.200 F 
ATOM     92  C   UNL A   1      46.670  36.302  29.535  1.00  0.00     0.200 A 
ATOM     93  F   UNL A   1      47.544  35.490  31.573  1.00  0.00    -0.200 F 
ATOM     94  F   UNL A   1      47.284  37.477  29.724  1.00  0.00    -0.200 F 
ENDBRANCH  61  84
ENDBRANCH  35  36
ENDBRANCH  28  30
ENDBRANCH  27  28
ENDBRANCH  26  27
ENDBRANCH  25  26
ENDBRANCH  24  25
ENDBRANCH  23  24
ENDBRANCH   1  23
TORSDOF 22
ENDMDL
MODEL 3
REMARK VINA RESULT:      -9.6      1.381      2.339
REMARK SMILES C[C@@H](C(=O)N(C)C)[N@@H+](CC(=O)OCCOCCOCCOC(=O)c1ccc(-c2c3nc(c(-c4c(F)c(F)c(F)c(F)c4F)c4ccc([nH]4)c(-c4c(F)c(F)c(F)c(F)c4F)c4nc(c(-c5c(F)c(F)c(F)c(F)c5F)c5ccc2[nH]5)C=C4)C=C3)cc1)CC(F)(F)F
REMARK SMILES IDX 16 1 15 2 14 3 13 4 12 5 10 6 11 7 9 8 8 9 2 11 1 12 3 13
REMARK SMILES IDX 4 14 5 15 6 16 7 17 87 18 88 19 89 20 90 21 91 22 17 23
REMARK SMILES IDX 18 24 19 25 20 26 21 27 22 28 23 29 24 30 25 31 86 32 26 33
REMARK SMILES IDX 85 34 27 35 28 36 29 37 79 38 30 39 84 40 78 41 80 42 31 43
REMARK SMILES IDX 83 44 77 45 76 46 32 48 64 49 44 50 63 51 45 52 48 53 62 54
REMARK SMILES IDX 81 55 46 56 47 57 61 59 82 60 49 61 33 62 34 63 42 64 35 65
REMARK SMILES IDX 36 66 40 67 43 68 37 69 38 70 41 71 39 72 65 73 66 74 74 75
REMARK SMILES IDX 67 76 68 77 72 78 75 79 69 80 70 81 73 82 71 83 50 84 51 85
REMARK SMILES IDX 59 86 52 87 53 88 57 89 60 90 54 91 55 92 58 93 56 94
REMARK H PARENT 8 10 80 47 48 58
REMARK Flexibility Score: inf
ROOT
ATOM      1  C   UNL A   1      40.386  19.929  26.169  1.00  0.00     0.188 C 
ENDROOT
BRANCH   1   2
ATOM      2  O   UNL A   1      40.211  21.235  25.609  1.00  0.00    -0.376 OA
BRANCH   2   3
ATOM      3  C   UNL A   1      39.145  21.987  26.192  1.00  0.00     0.202 C 
BRANCH   3   4
ATOM      4  C   UNL A   1      37.864  21.912  25.354  1.00  0.00     0.261 C 
BRANCH   4   5
ATOM      5  O   UNL A   1      36.655  21.952  26.138  1.00  0.00    -0.459 OA
BRANCH   5   6
ATOM      6  C   UNL A   1      35.635  21.135  25.769  1.00  0.00     0.361 C 
ATOM      7  O   UNL A   1      35.745  20.165  25.026  1.00  0.00    -0.245 OA
BRANCH   6   8
ATOM      8  C   UNL A   1      34.280  21.684  26.211  1.00  0.00     0.387 C 
BRANCH   8   9
ATOM      9  N   UNL A   1      33.511  22.483  25.256  1.00  0.00    -0.308 N 
ATOM     10  H   UNL A   1      33.875  23.416  25.455  1.00  0.00     0.349 HD
BRANCH   9  11
ATOM     11  C   UNL A   1      32.230  23.089  25.663  1.00  0.00     0.271 C 
ATOM     12  C   UNL A   1      31.864  22.757  27.117  1.00  0.00     0.086 C 
BRANCH  11  13
ATOM     13  C   UNL A   1      32.190  24.620  25.440  1.00  0.00     0.280 C 
ATOM     14  O   UNL A   1      32.808  25.383  26.185  1.00  0.00    -0.268 OA
ATOM     15  N   UNL A   1      31.471  25.129  24.363  1.00  0.00    -0.344 N 
ATOM     16  C   UNL A   1      30.599  24.381  23.475  1.00  0.00     0.146 C 
ATOM     17  C   UNL A   1      31.590  26.553  24.099  1.00  0.00     0.146 C 
ENDBRANCH  11  13
ENDBRANCH   9  11
BRANCH   9  18
ATOM     18  C   UNL A   1      33.935  22.480  23.853  1.00  0.00     0.380 C 
BRANCH  18  19
ATOM     19  C   UNL A   1      34.788  23.601  23.244  1.00  0.00     0.438 C 
ATOM     20  F   UNL A   1      35.435  24.351  24.152  1.00  0.00    -0.165 F 
ATOM     21  F   UNL A   1      35.745  23.020  22.469  1.00  0.00    -0.165 F 
ATOM     22  F   UNL A   1      34.044  24.381  22.438  1.00  0.00    -0.165 F 
ENDBRANCH  18  19
ENDBRANCH   9  18
ENDBRANCH   8   9
ENDBRANCH   6   8
ENDBRANCH   5   6
ENDBRANCH   4   5
ENDBRANCH   3   4
ENDBRANCH   2   3
ENDBRANCH   1   2
BRANCH   1  23
ATOM     23  C   UNL A   1      41.839  19.673  26.579  1.00  0.00     0.188 C 
BRANCH  23  24
ATOM     24  O   UNL A   1      42.635  19.670  25.402  1.00  0.00    -0.376 OA
BRANCH  24  25
ATOM     25  C   UNL A   1      43.767  20.526  25.376  1.00  0.00     0.202 C 
BRANCH  25  26
ATOM     26  C   UNL A   1      43.489  21.990  25.010  1.00  0.00     0.261 C 
BRANCH  26  27
ATOM     27  O   UNL A   1      44.029  22.930  25.944  1.00  0.00    -0.460 OA
BRANCH  27  28
ATOM     28  C   UNL A   1      44.163  24.197  25.488  1.00  0.00     0.338 C 
ATOM     29  O   UNL A   1      44.657  24.550  24.431  1.00  0.00    -0.246 OA
BRANCH  28  30
ATOM     30  C   UNL A   1      43.468  25.093  26.442  1.00  0.00     0.060 A 
ATOM     31  C   UNL A   1      43.800  26.450  26.435  1.00  0.00     0.016 A 
ATOM     32  C   UNL A   1      42.471  24.629  27.305  1.00  0.00     0.016 A 
ATOM     33  C   UNL A   1      43.146  27.352  27.267  1.00  0.00     0.010 A 
ATOM     34  C   UNL A   1      41.828  25.523  28.162  1.00  0.00     0.010 A 
ATOM     35  C   UNL A   1      42.179  26.884  28.159  1.00  0.00    -0.014 A 
BRANCH  35  36
ATOM     36  C   UNL A   1      41.716  27.768  29.247  1.00  0.00     0.031 A 
ATOM     37  C   UNL A   1      42.483  27.741  30.536  1.00  0.00     0.074 A 
ATOM     38  C   UNL A   1      40.675  28.601  29.084  1.00  0.00     0.049 A 
ATOM     39  N   UNL A   1      42.221  28.323  31.677  1.00  0.00    -0.248 NA
ATOM     40  C   UNL A   1      43.720  26.942  30.536  1.00  0.00     0.031 C 
ATOM     41  C   UNL A   1      39.918  28.780  27.846  1.00  0.00     0.029 A 
ATOM     42  N   UNL A   1      40.073  29.451  29.977  1.00  0.00    -0.354 N 
ATOM     43  C   UNL A   1      43.246  27.942  32.532  1.00  0.00     0.074 A 
ATOM     44  C   UNL A   1      44.125  27.067  31.789  1.00  0.00     0.031 C 
ATOM     45  C   UNL A   1      38.938  29.676  28.064  1.00  0.00     0.029 A 
ATOM     46  C   UNL A   1      38.973  30.093  29.465  1.00  0.00     0.049 A 
ATOM     47  H   UNL A   1      40.398  29.588  30.895  1.00  0.00     0.167 HD
ATOM     48  C   UNL A   1      43.432  28.294  33.824  1.00  0.00     0.037 A 
ATOM     49  C   UNL A   1      38.081  30.896  30.077  1.00  0.00     0.037 A 
ATOM     50  C   UNL A   1      42.555  29.170  34.549  1.00  0.00     0.049 A 
ATOM     51  C   UNL A   1      38.260  31.199  31.545  1.00  0.00     0.074 A 
ATOM     52  C   UNL A   1      42.642  29.584  35.865  1.00  0.00     0.029 A 
ATOM     53  N   UNL A   1      41.424  29.767  34.012  1.00  0.00    -0.354 N 
ATOM     54  N   UNL A   1      39.212  30.818  32.363  1.00  0.00    -0.248 NA
ATOM     55  C   UNL A   1      37.232  32.039  32.177  1.00  0.00     0.031 C 
ATOM     56  C   UNL A   1      41.535  30.394  36.139  1.00  0.00     0.029 A 
ATOM     57  C   UNL A   1      40.790  30.530  34.978  1.00  0.00     0.049 A 
ATOM     58  H   UNL A   1      41.117  29.664  33.082  1.00  0.00     0.167 HD
ATOM     59  C   UNL A   1      38.916  31.393  33.592  1.00  0.00     0.074 A 
ATOM     60  C   UNL A   1      37.701  32.159  33.410  1.00  0.00     0.031 C 
ATOM     61  C   UNL A   1      39.588  31.297  34.767  1.00  0.00     0.037 A 
BRANCH  48  62
ATOM     62  C   UNL A   1      44.603  27.688  34.538  1.00  0.00     0.064 A 
ATOM     63  C   UNL A   1      44.535  26.416  35.127  1.00  0.00     0.173 A 
ATOM     64  C   UNL A   1      45.811  28.393  34.635  1.00  0.00     0.173 A 
ATOM     65  F   UNL A   1      43.395  25.711  35.084  1.00  0.00    -0.203 F 
ATOM     66  C   UNL A   1      45.627  25.885  35.808  1.00  0.00     0.198 A 
ATOM     67  C   UNL A   1      46.910  27.846  35.290  1.00  0.00     0.198 A 
ATOM     68  F   UNL A   1      45.926  29.615  34.093  1.00  0.00    -0.203 F 
ATOM     69  F   UNL A   1      45.524  24.691  36.409  1.00  0.00    -0.200 F 
ATOM     70  C   UNL A   1      46.815  26.597  35.882  1.00  0.00     0.200 A 
ATOM     71  F   UNL A   1      48.059  28.532  35.353  1.00  0.00    -0.200 F 
ATOM     72  F   UNL A   1      47.866  26.082  36.535  1.00  0.00    -0.200 F 
ENDBRANCH  48  62
BRANCH  49  73
ATOM     73  C   UNL A   1      36.921  31.440  29.324  1.00  0.00     0.064 A 
ATOM     74  C   UNL A   1      36.853  32.795  28.973  1.00  0.00     0.173 A 
ATOM     75  C   UNL A   1      35.836  30.623  28.970  1.00  0.00     0.173 A 
ATOM     76  F   UNL A   1      37.850  33.626  29.317  1.00  0.00    -0.203 F 
ATOM     77  C   UNL A   1      35.740  33.316  28.317  1.00  0.00     0.198 A 
ATOM     78  C   UNL A   1      34.737  31.137  28.287  1.00  0.00     0.198 A 
ATOM     79  F   UNL A   1      35.843  29.319  29.290  1.00  0.00    -0.203 F 
ATOM     80  F   UNL A   1      35.678  34.626  28.044  1.00  0.00    -0.200 F 
ATOM     81  C   UNL A   1      34.685  32.486  27.969  1.00  0.00     0.200 A 
ATOM     82  F   UNL A   1      33.722  30.330  27.948  1.00  0.00    -0.200 F 
ATOM     83  F   UNL A   1      33.613  32.988  27.342  1.00  0.00    -0.200 F 
ENDBRANCH  49  73
BRANCH  61  84
ATOM     84  C   UNL A   1      39.052  32.074  35.935  1.00  0.00     0.064 A 
ATOM     85  C   UNL A   1      38.200  31.489  36.882  1.00  0.00     0.173 A 
ATOM     86  C   UNL A   1      39.445  33.406  36.136  1.00  0.00     0.173 A 
ATOM     87  F   UNL A   1      37.787  30.221  36.728  1.00  0.00    -0.203 F 
ATOM     88  C   UNL A   1      37.741  32.218  37.976  1.00  0.00     0.198 A 
ATOM     89  C   UNL A   1      39.010  34.121  37.248  1.00  0.00     0.198 A 
ATOM     90  F   UNL A   1      40.268  34.009  35.264  1.00  0.00    -0.203 F 
ATOM     91  F   UNL A   1      36.892  31.652  38.846  1.00  0.00    -0.200 F 
ATOM     92  C   UNL A   1      38.152  33.529  38.163  1.00  0.00     0.200 A 
ATOM     93  F   UNL A   1      39.422  35.383  37.436  1.00  0.00    -0.200 F 
ATOM     94  F   UNL A   1      37.719  34.224  39.222  1.00  0.00    -0.200 F 
ENDBRANCH  61  84
ENDBRANCH  35  36
ENDBRANCH  28  30
ENDBRANCH  27  28
ENDBRANCH  26  27
ENDBRANCH  25  26
ENDBRANCH  24  25
ENDBRANCH  23  24
ENDBRANCH   1  23
TORSDOF 22
ENDMDL
