MODEL 1
REMARK VINA RESULT:     -10.3      0.000      0.000
REMARK SMILES C[C@H](Cc1cccs1)N(C)C(=O)N1CC[C@@H](CC(=O)OCCOCCOCCOC(=O)c2ccc(-c3c4nc(c(-c5c(F)c(F)c(F)c(F)c5F)c5ccc([nH]5)c(-c5c(F)c(F)c(F)c(F)c5F)c5nc(c(-c6c(F)c(F)c(F)c(F)c6F)c6ccc3[nH]6)C=C5)C=C4)cc2)C1
REMARK SMILES IDX 22 1 21 2 20 3 18 4 19 5 17 6 16 7 13 8 14 9 95 10 15 11
REMARK SMILES IDX 11 12 12 13 9 14 10 15 2 16 1 17 3 18 4 19 5 20 8 21 6 22
REMARK SMILES IDX 7 23 23 24 24 25 25 26 26 27 27 28 28 29 29 30 30 31 31 32
REMARK SMILES IDX 32 33 33 34 94 35 34 36 93 37 35 38 36 39 37 40 87 41 38 42
REMARK SMILES IDX 92 43 86 44 88 45 39 46 91 47 85 48 84 49 40 51 72 52 52 53
REMARK SMILES IDX 71 54 53 55 56 56 70 57 89 58 54 59 55 60 69 62 90 63 57 64
REMARK SMILES IDX 41 65 42 66 50 67 43 68 44 69 48 70 51 71 45 72 46 73 49 74
REMARK SMILES IDX 47 75 73 76 74 77 82 78 75 79 76 80 80 81 83 82 77 83 78 84
REMARK SMILES IDX 81 85 79 86 58 87 59 88 67 89 60 90 61 91 65 92 68 93 62 94
REMARK SMILES IDX 63 95 66 96 64 97
REMARK H PARENT 88 50 56 61
REMARK Flexibility Score: inf
ROOT
ATOM      1  C   UNL A   1      41.580  20.493  26.394  1.00  0.00     0.202 C 
ENDROOT
BRANCH   1   2
ATOM      2  C   UNL A   1      40.077  20.434  26.683  1.00  0.00     0.261 C 
BRANCH   2   3
ATOM      3  O   UNL A   1      39.362  21.371  25.855  1.00  0.00    -0.463 OA
BRANCH   3   4
ATOM      4  C   UNL A   1      38.327  20.880  25.132  1.00  0.00     0.306 C 
ATOM      5  O   UNL A   1      38.152  19.692  24.894  1.00  0.00    -0.252 OA
BRANCH   4   6
ATOM      6  C   UNL A   1      37.286  21.953  24.853  1.00  0.00     0.128 C 
BRANCH   6   7
ATOM      7  C   UNL A   1      35.904  21.952  25.534  1.00  0.00     0.021 C 
ATOM      8  N   UNL A   1      33.993  23.308  24.851  1.00  0.00    -0.324 N 
ATOM      9  C   UNL A   1      33.693  21.951  24.454  1.00  0.00     0.122 C 
ATOM     10  C   UNL A   1      35.295  23.369  25.505  1.00  0.00     0.125 C 
ATOM     11  C   UNL A   1      34.791  21.050  25.010  1.00  0.00     0.027 C 
BRANCH   8  12
ATOM     12  C   UNL A   1      33.358  24.500  24.538  1.00  0.00     0.320 C 
ATOM     13  O   UNL A   1      33.821  25.175  23.613  1.00  0.00    -0.248 OA
BRANCH  12  14
ATOM     14  N   UNL A   1      32.233  24.939  25.222  1.00  0.00    -0.325 N 
ATOM     15  C   UNL A   1      31.637  24.269  26.369  1.00  0.00     0.149 C 
BRANCH  14  16
ATOM     16  C   UNL A   1      31.581  26.239  24.834  1.00  0.00     0.088 C 
ATOM     17  C   UNL A   1      31.273  27.129  26.037  1.00  0.00     0.031 C 
BRANCH  16  18
ATOM     18  C   UNL A   1      30.440  26.094  23.788  1.00  0.00     0.071 C 
BRANCH  18  19
ATOM     19  C   UNL A   1      29.721  27.357  23.374  1.00  0.00     0.007 A 
ATOM     20  C   UNL A   1      28.369  27.646  23.423  1.00  0.00     0.015 A 
ATOM     21  S   UNL A   1      30.598  28.658  22.672  1.00  0.00    -0.149 S 
ATOM     22  C   UNL A   1      28.054  28.918  22.868  1.00  0.00     0.012 A 
ATOM     23  C   UNL A   1      29.175  29.563  22.399  1.00  0.00     0.065 A 
ENDBRANCH  18  19
ENDBRANCH  16  18
ENDBRANCH  14  16
ENDBRANCH  12  14
ENDBRANCH   8  12
ENDBRANCH   6   7
ENDBRANCH   4   6
ENDBRANCH   3   4
ENDBRANCH   2   3
ENDBRANCH   1   2
BRANCH   1  24
ATOM     24  O   UNL A   1      42.072  19.504  25.490  1.00  0.00    -0.376 OA
BRANCH  24  25
ATOM     25  C   UNL A   1      43.459  19.184  25.504  1.00  0.00     0.188 C 
BRANCH  25  26
ATOM     26  C   UNL A   1      44.347  19.708  24.371  1.00  0.00     0.188 C 
BRANCH  26  27
ATOM     27  O   UNL A   1      45.686  19.924  24.780  1.00  0.00    -0.376 OA
BRANCH  27  28
ATOM     28  C   UNL A   1      45.946  21.170  25.408  1.00  0.00     0.202 C 
BRANCH  28  29
ATOM     29  C   UNL A   1      45.373  22.316  24.571  1.00  0.00     0.261 C 
BRANCH  29  30
ATOM     30  O   UNL A   1      44.730  23.338  25.357  1.00  0.00    -0.460 OA
BRANCH  30  31
ATOM     31  C   UNL A   1      43.410  23.513  25.109  1.00  0.00     0.338 C 
ATOM     32  O   UNL A   1      42.697  22.793  24.438  1.00  0.00    -0.246 OA
BRANCH  31  33
ATOM     33  C   UNL A   1      42.934  24.641  25.937  1.00  0.00     0.060 A 
ATOM     34  C   UNL A   1      43.347  25.947  25.641  1.00  0.00     0.016 A 
ATOM     35  C   UNL A   1      42.117  24.390  27.035  1.00  0.00     0.016 A 
ATOM     36  C   UNL A   1      42.981  27.009  26.474  1.00  0.00     0.010 A 
ATOM     37  C   UNL A   1      41.749  25.449  27.862  1.00  0.00     0.010 A 
ATOM     38  C   UNL A   1      42.199  26.758  27.605  1.00  0.00    -0.014 A 
BRANCH  38  39
ATOM     39  C   UNL A   1      41.908  27.808  28.608  1.00  0.00     0.031 A 
ATOM     40  C   UNL A   1      42.729  27.854  29.862  1.00  0.00     0.074 A 
ATOM     41  C   UNL A   1      40.856  28.632  28.452  1.00  0.00     0.049 A 
ATOM     42  N   UNL A   1      42.492  28.475  30.989  1.00  0.00    -0.248 NA
ATOM     43  C   UNL A   1      43.986  27.089  29.847  1.00  0.00     0.031 C 
ATOM     44  C   UNL A   1      40.025  28.726  27.255  1.00  0.00     0.029 A 
ATOM     45  N   UNL A   1      40.278  29.508  29.337  1.00  0.00    -0.354 N 
ATOM     46  C   UNL A   1      43.556  28.158  31.821  1.00  0.00     0.074 A 
ATOM     47  C   UNL A   1      44.443  27.292  31.075  1.00  0.00     0.031 C 
ATOM     48  C   UNL A   1      39.005  29.567  27.500  1.00  0.00     0.029 A 
ATOM     49  C   UNL A   1      39.084  30.019  28.887  1.00  0.00     0.049 A 
ATOM     50  H   UNL A   1      40.677  29.746  30.205  1.00  0.00     0.167 HD
ATOM     51  C   UNL A   1      43.764  28.550  33.099  1.00  0.00     0.037 A 
ATOM     52  C   UNL A   1      38.131  30.709  29.545  1.00  0.00     0.037 A 
ATOM     53  C   UNL A   1      42.876  29.406  33.836  1.00  0.00     0.049 A 
ATOM     54  C   UNL A   1      38.328  31.032  31.005  1.00  0.00     0.074 A 
ATOM     55  C   UNL A   1      43.011  29.882  35.128  1.00  0.00     0.029 A 
ATOM     56  N   UNL A   1      41.680  29.904  33.346  1.00  0.00    -0.354 N 
ATOM     57  N   UNL A   1      39.344  30.754  31.785  1.00  0.00    -0.248 NA
ATOM     58  C   UNL A   1      37.238  31.751  31.681  1.00  0.00     0.031 C 
ATOM     59  C   UNL A   1      41.868  30.625  35.438  1.00  0.00     0.029 A 
ATOM     60  C   UNL A   1      41.047  30.650  34.323  1.00  0.00     0.049 A 
ATOM     61  H   UNL A   1      41.332  29.748  32.437  1.00  0.00     0.167 HD
ATOM     62  C   UNL A   1      39.036  31.299  33.026  1.00  0.00     0.074 A 
ATOM     63  C   UNL A   1      37.734  31.919  32.899  1.00  0.00     0.031 C 
ATOM     64  C   UNL A   1      39.767  31.291  34.166  1.00  0.00     0.037 A 
BRANCH  51  65
ATOM     65  C   UNL A   1      44.980  28.032  33.800  1.00  0.00     0.064 A 
ATOM     66  C   UNL A   1      46.178  28.756  33.820  1.00  0.00     0.173 A 
ATOM     67  C   UNL A   1      44.920  26.830  34.519  1.00  0.00     0.173 A 
ATOM     68  F   UNL A   1      46.278  29.913  33.149  1.00  0.00    -0.203 F 
ATOM     69  C   UNL A   1      47.283  28.288  34.526  1.00  0.00     0.198 A 
ATOM     70  C   UNL A   1      46.019  26.374  35.242  1.00  0.00     0.198 A 
ATOM     71  F   UNL A   1      43.790  26.107  34.535  1.00  0.00    -0.203 F 
ATOM     72  F   UNL A   1      48.428  28.984  34.514  1.00  0.00    -0.200 F 
ATOM     73  C   UNL A   1      47.200  27.102  35.243  1.00  0.00     0.200 A 
ATOM     74  F   UNL A   1      45.933  25.236  35.945  1.00  0.00    -0.200 F 
ATOM     75  F   UNL A   1      48.258  26.660  35.936  1.00  0.00    -0.200 F 
ENDBRANCH  51  65
BRANCH  52  76
ATOM     76  C   UNL A   1      36.868  31.084  28.855  1.00  0.00     0.064 A 
ATOM     77  C   UNL A   1      36.622  32.407  28.465  1.00  0.00     0.173 A 
ATOM     78  C   UNL A   1      35.863  30.135  28.611  1.00  0.00     0.173 A 
ATOM     79  F   UNL A   1      37.539  33.356  28.706  1.00  0.00    -0.203 F 
ATOM     80  C   UNL A   1      35.412  32.771  27.878  1.00  0.00     0.198 A 
ATOM     81  C   UNL A   1      34.666  30.495  27.998  1.00  0.00     0.198 A 
ATOM     82  F   UNL A   1      36.044  28.856  28.973  1.00  0.00    -0.203 F 
ATOM     83  F   UNL A   1      35.180  34.054  27.568  1.00  0.00    -0.200 F 
ATOM     84  C   UNL A   1      34.437  31.814  27.641  1.00  0.00     0.200 A 
ATOM     85  F   UNL A   1      33.729  29.565  27.764  1.00  0.00    -0.200 F 
ATOM     86  F   UNL A   1      33.271  32.166  27.082  1.00  0.00    -0.200 F 
ENDBRANCH  52  76
BRANCH  64  87
ATOM     87  C   UNL A   1      39.221  32.026  35.353  1.00  0.00     0.064 A 
ATOM     88  C   UNL A   1      38.442  31.382  36.323  1.00  0.00     0.173 A 
ATOM     89  C   UNL A   1      39.556  33.373  35.559  1.00  0.00     0.173 A 
ATOM     90  F   UNL A   1      38.085  30.100  36.161  1.00  0.00    -0.203 F 
ATOM     91  C   UNL A   1      38.013  32.064  37.458  1.00  0.00     0.198 A 
ATOM     92  C   UNL A   1      39.147  34.044  36.708  1.00  0.00     0.198 A 
ATOM     93  F   UNL A   1      40.306  34.029  34.662  1.00  0.00    -0.203 F 
ATOM     94  F   UNL A   1      37.247  31.438  38.363  1.00  0.00    -0.200 F 
ATOM     95  C   UNL A   1      38.373  33.389  37.655  1.00  0.00     0.200 A 
ATOM     96  F   UNL A   1      39.508  35.318  36.903  1.00  0.00    -0.200 F 
ATOM     97  F   UNL A   1      37.975  34.037  38.759  1.00  0.00    -0.200 F 
ENDBRANCH  64  87
ENDBRANCH  38  39
ENDBRANCH  31  33
ENDBRANCH  30  31
ENDBRANCH  29  30
ENDBRANCH  28  29
ENDBRANCH  27  28
ENDBRANCH  26  27
ENDBRANCH  25  26
ENDBRANCH  24  25
ENDBRANCH   1  24
TORSDOF 23
ENDMDL
MODEL 2
REMARK VINA RESULT:      -9.2      1.838      7.472
REMARK SMILES C[C@H](Cc1cccs1)N(C)C(=O)N1CC[C@@H](CC(=O)OCCOCCOCCOC(=O)c2ccc(-c3c4nc(c(-c5c(F)c(F)c(F)c(F)c5F)c5ccc([nH]5)c(-c5c(F)c(F)c(F)c(F)c5F)c5nc(c(-c6c(F)c(F)c(F)c(F)c6F)c6ccc3[nH]6)C=C5)C=C4)cc2)C1
REMARK SMILES IDX 22 1 21 2 20 3 18 4 19 5 17 6 16 7 13 8 14 9 95 10 15 11
REMARK SMILES IDX 11 12 12 13 9 14 10 15 2 16 1 17 3 18 4 19 5 20 8 21 6 22
REMARK SMILES IDX 7 23 23 24 24 25 25 26 26 27 27 28 28 29 29 30 30 31 31 32
REMARK SMILES IDX 32 33 33 34 94 35 34 36 93 37 35 38 36 39 37 40 87 41 38 42
REMARK SMILES IDX 92 43 86 44 88 45 39 46 91 47 85 48 84 49 40 51 72 52 52 53
REMARK SMILES IDX 71 54 53 55 56 56 70 57 89 58 54 59 55 60 69 62 90 63 57 64
REMARK SMILES IDX 41 65 42 66 50 67 43 68 44 69 48 70 51 71 45 72 46 73 49 74
REMARK SMILES IDX 47 75 73 76 74 77 82 78 75 79 76 80 80 81 83 82 77 83 78 84
REMARK SMILES IDX 81 85 79 86 58 87 59 88 67 89 60 90 61 91 65 92 68 93 62 94
REMARK SMILES IDX 63 95 66 96 64 97
REMARK H PARENT 88 50 56 61
REMARK Flexibility Score: inf
ROOT
ATOM      1  C   UNL A   1      40.518  22.447  27.788  1.00  0.00     0.202 C 
ENDROOT
BRANCH   1   2
ATOM      2  C   UNL A   1      39.802  22.828  26.488  1.00  0.00     0.261 C 
BRANCH   2   3
ATOM      3  O   UNL A   1      38.479  22.259  26.451  1.00  0.00    -0.463 OA
BRANCH   3   4
ATOM      4  C   UNL A   1      38.231  21.359  25.469  1.00  0.00     0.306 C 
ATOM      5  O   UNL A   1      38.794  20.276  25.366  1.00  0.00    -0.252 OA
BRANCH   4   6
ATOM      6  C   UNL A   1      37.009  21.751  24.652  1.00  0.00     0.128 C 
BRANCH   6   7
ATOM      7  C   UNL A   1      36.350  23.137  24.778  1.00  0.00     0.021 C 
ATOM      8  N   UNL A   1      34.167  23.749  23.874  1.00  0.00    -0.324 N 
ATOM      9  C   UNL A   1      34.001  23.646  25.306  1.00  0.00     0.122 C 
ATOM     10  C   UNL A   1      35.547  23.463  23.501  1.00  0.00     0.125 C 
ATOM     11  C   UNL A   1      35.380  23.426  25.919  1.00  0.00     0.027 C 
BRANCH   8  12
ATOM     12  C   UNL A   1      33.224  23.870  22.864  1.00  0.00     0.320 C 
ATOM     13  O   UNL A   1      32.947  22.860  22.209  1.00  0.00    -0.248 OA
BRANCH  12  14
ATOM     14  N   UNL A   1      32.594  25.074  22.583  1.00  0.00    -0.325 N 
ATOM     15  C   UNL A   1      32.885  25.922  21.437  1.00  0.00     0.149 C 
BRANCH  14  16
ATOM     16  C   UNL A   1      31.467  25.551  23.459  1.00  0.00     0.088 C 
ATOM     17  C   UNL A   1      30.271  24.599  23.457  1.00  0.00     0.031 C 
BRANCH  16  18
ATOM     18  C   UNL A   1      31.131  27.061  23.302  1.00  0.00     0.071 C 
BRANCH  18  19
ATOM     19  C   UNL A   1      31.385  27.952  24.495  1.00  0.00     0.007 A 
ATOM     20  C   UNL A   1      31.423  29.332  24.559  1.00  0.00     0.015 A 
ATOM     21  S   UNL A   1      31.751  27.260  26.025  1.00  0.00    -0.149 S 
ATOM     22  C   UNL A   1      31.772  29.818  25.851  1.00  0.00     0.012 A 
ATOM     23  C   UNL A   1      32.003  28.792  26.737  1.00  0.00     0.065 A 
ENDBRANCH  18  19
ENDBRANCH  16  18
ENDBRANCH  14  16
ENDBRANCH  12  14
ENDBRANCH   8  12
ENDBRANCH   6   7
ENDBRANCH   4   6
ENDBRANCH   3   4
ENDBRANCH   2   3
ENDBRANCH   1   2
BRANCH   1  24
ATOM     24  O   UNL A   1      41.810  21.862  27.629  1.00  0.00    -0.376 OA
BRANCH  24  25
ATOM     25  C   UNL A   1      42.290  21.594  26.315  1.00  0.00     0.188 C 
BRANCH  25  26
ATOM     26  C   UNL A   1      42.743  22.769  25.443  1.00  0.00     0.188 C 
BRANCH  26  27
ATOM     27  O   UNL A   1      43.678  22.385  24.451  1.00  0.00    -0.376 OA
BRANCH  27  28
ATOM     28  C   UNL A   1      44.810  23.230  24.310  1.00  0.00     0.202 C 
BRANCH  28  29
ATOM     29  C   UNL A   1      44.503  24.625  24.859  1.00  0.00     0.261 C 
BRANCH  29  30
ATOM     30  O   UNL A   1      45.584  25.196  25.622  1.00  0.00    -0.460 OA
BRANCH  30  31
ATOM     31  C   UNL A   1      45.758  24.673  26.859  1.00  0.00     0.338 C 
ATOM     32  O   UNL A   1      46.582  23.841  27.184  1.00  0.00    -0.246 OA
BRANCH  31  33
ATOM     33  C   UNL A   1      44.888  25.413  27.796  1.00  0.00     0.060 A 
ATOM     34  C   UNL A   1      45.046  26.798  27.950  1.00  0.00     0.016 A 
ATOM     35  C   UNL A   1      43.949  24.721  28.554  1.00  0.00     0.016 A 
ATOM     36  C   UNL A   1      44.294  27.492  28.903  1.00  0.00     0.010 A 
ATOM     37  C   UNL A   1      43.196  25.413  29.501  1.00  0.00     0.010 A 
ATOM     38  C   UNL A   1      43.382  26.795  29.701  1.00  0.00    -0.014 A 
BRANCH  38  39
ATOM     39  C   UNL A   1      42.671  27.439  30.828  1.00  0.00     0.031 A 
ATOM     40  C   UNL A   1      41.409  28.200  30.545  1.00  0.00     0.074 A 
ATOM     41  C   UNL A   1      43.203  27.441  32.064  1.00  0.00     0.049 A 
ATOM     42  N   UNL A   1      40.776  29.068  31.290  1.00  0.00    -0.248 NA
ATOM     43  C   UNL A   1      40.779  27.952  29.238  1.00  0.00     0.031 C 
ATOM     44  C   UNL A   1      44.387  26.690  32.476  1.00  0.00     0.029 A 
ATOM     45  N   UNL A   1      42.842  28.149  33.184  1.00  0.00    -0.354 N 
ATOM     46  C   UNL A   1      39.688  29.485  30.536  1.00  0.00     0.074 A 
ATOM     47  C   UNL A   1      39.742  28.777  29.276  1.00  0.00     0.031 C 
ATOM     48  C   UNL A   1      44.691  27.022  33.743  1.00  0.00     0.029 A 
ATOM     49  C   UNL A   1      43.760  28.050  34.203  1.00  0.00     0.049 A 
ATOM     50  H   UNL A   1      42.012  28.673  33.251  1.00  0.00     0.167 HD
ATOM     51  C   UNL A   1      38.737  30.388  30.869  1.00  0.00     0.037 A 
ATOM     52  C   UNL A   1      43.873  28.763  35.341  1.00  0.00     0.037 A 
ATOM     53  C   UNL A   1      38.693  31.091  32.121  1.00  0.00     0.049 A 
ATOM     54  C   UNL A   1      42.871  29.850  35.635  1.00  0.00     0.074 A 
ATOM     55  C   UNL A   1      37.756  32.008  32.563  1.00  0.00     0.029 A 
ATOM     56  N   UNL A   1      39.638  30.963  33.126  1.00  0.00    -0.354 N 
ATOM     57  N   UNL A   1      41.829  30.228  34.935  1.00  0.00    -0.248 NA
ATOM     58  C   UNL A   1      43.069  30.622  36.872  1.00  0.00     0.031 C 
ATOM     59  C   UNL A   1      38.164  32.475  33.816  1.00  0.00     0.029 A 
ATOM     60  C   UNL A   1      39.328  31.813  34.172  1.00  0.00     0.049 A 
ATOM     61  H   UNL A   1      40.415  30.358  33.099  1.00  0.00     0.167 HD
ATOM     62  C   UNL A   1      41.227  31.247  35.663  1.00  0.00     0.074 A 
ATOM     63  C   UNL A   1      42.022  31.435  36.857  1.00  0.00     0.031 C 
ATOM     64  C   UNL A   1      40.112  31.959  35.371  1.00  0.00     0.037 A 
BRANCH  51  65
ATOM     65  C   UNL A   1      37.683  30.698  29.854  1.00  0.00     0.064 A 
ATOM     66  C   UNL A   1      36.660  29.789  29.559  1.00  0.00     0.173 A 
ATOM     67  C   UNL A   1      37.659  31.950  29.222  1.00  0.00     0.173 A 
ATOM     68  F   UNL A   1      36.642  28.581  30.143  1.00  0.00    -0.203 F 
ATOM     69  C   UNL A   1      35.654  30.116  28.654  1.00  0.00     0.198 A 
ATOM     70  C   UNL A   1      36.640  32.283  28.335  1.00  0.00     0.198 A 
ATOM     71  F   UNL A   1      38.614  32.856  29.480  1.00  0.00    -0.203 F 
ATOM     72  F   UNL A   1      34.696  29.224  28.368  1.00  0.00    -0.200 F 
ATOM     73  C   UNL A   1      35.640  31.365  28.050  1.00  0.00     0.200 A 
ATOM     74  F   UNL A   1      36.620  33.495  27.763  1.00  0.00    -0.200 F 
ATOM     75  F   UNL A   1      34.661  31.686  27.193  1.00  0.00    -0.200 F 
ENDBRANCH  51  65
BRANCH  52  76
ATOM     76  C   UNL A   1      45.018  28.526  36.260  1.00  0.00     0.064 A 
ATOM     77  C   UNL A   1      44.922  27.610  37.316  1.00  0.00     0.173 A 
ATOM     78  C   UNL A   1      46.218  29.243  36.128  1.00  0.00     0.173 A 
ATOM     79  F   UNL A   1      43.784  26.924  37.503  1.00  0.00    -0.203 F 
ATOM     80  C   UNL A   1      45.970  27.436  38.216  1.00  0.00     0.198 A 
ATOM     81  C   UNL A   1      47.276  29.047  37.011  1.00  0.00     0.198 A 
ATOM     82  F   UNL A   1      46.360  30.139  35.139  1.00  0.00    -0.203 F 
ATOM     83  F   UNL A   1      45.829  26.596  39.251  1.00  0.00    -0.200 F 
ATOM     84  C   UNL A   1      47.149  28.151  38.061  1.00  0.00     0.200 A 
ATOM     85  F   UNL A   1      48.416  29.735  36.853  1.00  0.00    -0.200 F 
ATOM     86  F   UNL A   1      48.154  27.988  38.931  1.00  0.00    -0.200 F 
ENDBRANCH  52  76
BRANCH  64  87
ATOM     87  C   UNL A   1      39.637  32.961  36.380  1.00  0.00     0.064 A 
ATOM     88  C   UNL A   1      38.701  32.625  37.367  1.00  0.00     0.173 A 
ATOM     89  C   UNL A   1      40.195  34.248  36.408  1.00  0.00     0.173 A 
ATOM     90  F   UNL A   1      38.130  31.411  37.371  1.00  0.00    -0.203 F 
ATOM     91  C   UNL A   1      38.335  33.546  38.344  1.00  0.00     0.198 A 
ATOM     92  C   UNL A   1      39.846  35.157  37.401  1.00  0.00     0.198 A 
ATOM     93  F   UNL A   1      41.101  34.613  35.489  1.00  0.00    -0.203 F 
ATOM     94  F   UNL A   1      37.418  33.215  39.264  1.00  0.00    -0.200 F 
ATOM     95  C   UNL A   1      38.914  34.807  38.367  1.00  0.00     0.200 A 
ATOM     96  F   UNL A   1      40.417  36.369  37.431  1.00  0.00    -0.200 F 
ATOM     97  F   UNL A   1      38.574  35.685  39.321  1.00  0.00    -0.200 F 
ENDBRANCH  64  87
ENDBRANCH  38  39
ENDBRANCH  31  33
ENDBRANCH  30  31
ENDBRANCH  29  30
ENDBRANCH  28  29
ENDBRANCH  27  28
ENDBRANCH  26  27
ENDBRANCH  25  26
ENDBRANCH  24  25
ENDBRANCH   1  24
TORSDOF 23
ENDMDL
MODEL 3
REMARK VINA RESULT:      -8.7      6.287     11.098
REMARK SMILES C[C@H](Cc1cccs1)N(C)C(=O)N1CC[C@@H](CC(=O)OCCOCCOCCOC(=O)c2ccc(-c3c4nc(c(-c5c(F)c(F)c(F)c(F)c5F)c5ccc([nH]5)c(-c5c(F)c(F)c(F)c(F)c5F)c5nc(c(-c6c(F)c(F)c(F)c(F)c6F)c6ccc3[nH]6)C=C5)C=C4)cc2)C1
REMARK SMILES IDX 22 1 21 2 20 3 18 4 19 5 17 6 16 7 13 8 14 9 95 10 15 11
REMARK SMILES IDX 11 12 12 13 9 14 10 15 2 16 1 17 3 18 4 19 5 20 8 21 6 22
REMARK SMILES IDX 7 23 23 24 24 25 25 26 26 27 27 28 28 29 29 30 30 31 31 32
REMARK SMILES IDX 32 33 33 34 94 35 34 36 93 37 35 38 36 39 37 40 87 41 38 42
REMARK SMILES IDX 92 43 86 44 88 45 39 46 91 47 85 48 84 49 40 51 72 52 52 53
REMARK SMILES IDX 71 54 53 55 56 56 70 57 89 58 54 59 55 60 69 62 90 63 57 64
REMARK SMILES IDX 41 65 42 66 50 67 43 68 44 69 48 70 51 71 45 72 46 73 49 74
REMARK SMILES IDX 47 75 73 76 74 77 82 78 75 79 76 80 80 81 83 82 77 83 78 84
REMARK SMILES IDX 81 85 79 86 58 87 59 88 67 89 60 90 61 91 65 92 68 93 62 94
REMARK SMILES IDX 63 95 66 96 64 97
REMARK H PARENT 88 50 56 61
REMARK Flexibility Score: inf
ROOT
ATOM      1  C   UNL A   1      34.057  32.128  28.380  1.00  0.00     0.202 C 
ENDROOT
BRANCH   1   2
ATOM      2  C   UNL A   1      34.098  31.128  27.220  1.00  0.00     0.261 C 
BRANCH   2   3
ATOM      3  O   UNL A   1      33.210  30.023  27.470  1.00  0.00    -0.463 OA
BRANCH   3   4
ATOM      4  C   UNL A   1      32.342  29.703  26.480  1.00  0.00     0.306 C 
ATOM      5  O   UNL A   1      31.551  30.488  25.973  1.00  0.00    -0.252 OA
BRANCH   4   6
ATOM      6  C   UNL A   1      32.630  28.321  25.914  1.00  0.00     0.128 C 
BRANCH   6   7
ATOM      7  C   UNL A   1      33.710  28.083  24.841  1.00  0.00     0.021 C 
ATOM      8  N   UNL A   1      33.409  26.780  22.800  1.00  0.00    -0.324 N 
ATOM      9  C   UNL A   1      33.449  28.167  22.396  1.00  0.00     0.122 C 
ATOM     10  C   UNL A   1      33.566  26.667  24.245  1.00  0.00     0.125 C 
ATOM     11  C   UNL A   1      33.800  28.999  23.625  1.00  0.00     0.027 C 
BRANCH   8  12
ATOM     12  C   UNL A   1      33.063  25.643  22.085  1.00  0.00     0.320 C 
ATOM     13  O   UNL A   1      33.404  25.580  20.900  1.00  0.00    -0.248 OA
BRANCH  12  14
ATOM     14  N   UNL A   1      32.363  24.593  22.662  1.00  0.00    -0.325 N 
ATOM     15  C   UNL A   1      31.001  24.676  23.171  1.00  0.00     0.149 C 
BRANCH  14  16
ATOM     16  C   UNL A   1      32.984  23.224  22.726  1.00  0.00     0.088 C 
ATOM     17  C   UNL A   1      31.956  22.117  22.953  1.00  0.00     0.031 C 
BRANCH  16  18
ATOM     18  C   UNL A   1      34.268  23.145  23.598  1.00  0.00     0.071 C 
BRANCH  18  19
ATOM     19  C   UNL A   1      34.096  22.748  25.045  1.00  0.00     0.007 A 
ATOM     20  C   UNL A   1      33.440  23.420  26.060  1.00  0.00     0.015 A 
ATOM     21  S   UNL A   1      34.827  21.311  25.638  1.00  0.00    -0.149 S 
ATOM     22  C   UNL A   1      33.556  22.769  27.321  1.00  0.00     0.012 A 
ATOM     23  C   UNL A   1      34.310  21.622  27.236  1.00  0.00     0.065 A 
ENDBRANCH  18  19
ENDBRANCH  16  18
ENDBRANCH  14  16
ENDBRANCH  12  14
ENDBRANCH   8  12
ENDBRANCH   6   7
ENDBRANCH   4   6
ENDBRANCH   3   4
ENDBRANCH   2   3
ENDBRANCH   1   2
BRANCH   1  24
ATOM     24  O   UNL A   1      34.860  31.793  29.510  1.00  0.00    -0.376 OA
BRANCH  24  25
ATOM     25  C   UNL A   1      34.853  32.656  30.643  1.00  0.00     0.188 C 
BRANCH  25  26
ATOM     26  C   UNL A   1      34.477  34.128  30.445  1.00  0.00     0.188 C 
BRANCH  26  27
ATOM     27  O   UNL A   1      33.622  34.616  31.464  1.00  0.00    -0.376 OA
BRANCH  27  28
ATOM     28  C   UNL A   1      34.021  35.835  32.073  1.00  0.00     0.202 C 
BRANCH  28  29
ATOM     29  C   UNL A   1      34.561  35.573  33.481  1.00  0.00     0.261 C 
BRANCH  29  30
ATOM     30  O   UNL A   1      35.963  35.241  33.508  1.00  0.00    -0.460 OA
BRANCH  30  31
ATOM     31  C   UNL A   1      36.247  33.961  33.848  1.00  0.00     0.338 C 
ATOM     32  O   UNL A   1      35.496  33.171  34.386  1.00  0.00    -0.246 OA
BRANCH  31  33
ATOM     33  C   UNL A   1      37.576  33.625  33.298  1.00  0.00     0.060 A 
ATOM     34  C   UNL A   1      38.479  32.872  34.062  1.00  0.00     0.016 A 
ATOM     35  C   UNL A   1      37.940  34.101  32.042  1.00  0.00     0.016 A 
ATOM     36  C   UNL A   1      39.773  32.630  33.590  1.00  0.00     0.010 A 
ATOM     37  C   UNL A   1      39.228  33.857  31.570  1.00  0.00     0.010 A 
ATOM     38  C   UNL A   1      40.160  33.145  32.350  1.00  0.00    -0.014 A 
BRANCH  38  39
ATOM     39  C   UNL A   1      41.556  33.059  31.864  1.00  0.00     0.031 A 
ATOM     40  C   UNL A   1      42.464  34.237  32.064  1.00  0.00     0.074 A 
ATOM     41  C   UNL A   1      41.971  31.992  31.157  1.00  0.00     0.049 A 
ATOM     42  N   UNL A   1      43.607  34.512  31.493  1.00  0.00    -0.248 NA
ATOM     43  C   UNL A   1      42.016  35.245  33.038  1.00  0.00     0.031 C 
ATOM     44  C   UNL A   1      41.207  30.765  30.949  1.00  0.00     0.029 A 
ATOM     45  N   UNL A   1      43.123  31.802  30.434  1.00  0.00    -0.354 N 
ATOM     46  C   UNL A   1      44.004  35.733  32.019  1.00  0.00     0.074 A 
ATOM     47  C   UNL A   1      42.984  36.148  32.957  1.00  0.00     0.031 C 
ATOM     48  C   UNL A   1      41.884  29.970  30.102  1.00  0.00     0.029 A 
ATOM     49  C   UNL A   1      43.096  30.661  29.667  1.00  0.00     0.049 A 
ATOM     50  H   UNL A   1      43.890  32.418  30.462  1.00  0.00     0.167 HD
ATOM     51  C   UNL A   1      45.118  36.445  31.733  1.00  0.00     0.037 A 
ATOM     52  C   UNL A   1      43.916  30.262  28.675  1.00  0.00     0.037 A 
ATOM     53  C   UNL A   1      46.125  36.028  30.796  1.00  0.00     0.049 A 
ATOM     54  C   UNL A   1      45.086  31.131  28.289  1.00  0.00     0.074 A 
ATOM     55  C   UNL A   1      47.303  36.667  30.455  1.00  0.00     0.029 A 
ATOM     56  N   UNL A   1      46.061  34.868  30.042  1.00  0.00    -0.354 N 
ATOM     57  N   UNL A   1      45.475  32.273  28.802  1.00  0.00    -0.248 NA
ATOM     58  C   UNL A   1      45.923  30.665  27.173  1.00  0.00     0.031 C 
ATOM     59  C   UNL A   1      47.928  35.919  29.453  1.00  0.00     0.029 A 
ATOM     60  C   UNL A   1      47.162  34.791  29.207  1.00  0.00     0.049 A 
ATOM     61  H   UNL A   1      45.340  34.199  30.091  1.00  0.00     0.167 HD
ATOM     62  C   UNL A   1      46.620  32.637  28.104  1.00  0.00     0.074 A 
ATOM     63  C   UNL A   1      46.861  31.600  27.125  1.00  0.00     0.031 C 
ATOM     64  C   UNL A   1      47.404  33.730  28.264  1.00  0.00     0.037 A 
BRANCH  51  65
ATOM     65  C   UNL A   1      45.296  37.766  32.411  1.00  0.00     0.064 A 
ATOM     66  C   UNL A   1      44.738  38.938  31.889  1.00  0.00     0.173 A 
ATOM     67  C   UNL A   1      45.974  37.844  33.636  1.00  0.00     0.173 A 
ATOM     68  F   UNL A   1      44.077  38.909  30.721  1.00  0.00    -0.203 F 
ATOM     69  C   UNL A   1      44.863  40.151  32.563  1.00  0.00     0.198 A 
ATOM     70  C   UNL A   1      46.079  39.052  34.319  1.00  0.00     0.198 A 
ATOM     71  F   UNL A   1      46.519  36.744  34.179  1.00  0.00    -0.203 F 
ATOM     72  F   UNL A   1      44.341  41.266  32.035  1.00  0.00    -0.200 F 
ATOM     73  C   UNL A   1      45.526  40.204  33.781  1.00  0.00     0.200 A 
ATOM     74  F   UNL A   1      46.708  39.100  35.502  1.00  0.00    -0.200 F 
ATOM     75  F   UNL A   1      45.631  41.368  34.437  1.00  0.00    -0.200 F 
ENDBRANCH  51  65
BRANCH  52  76
ATOM     76  C   UNL A   1      43.627  29.011  27.923  1.00  0.00     0.064 A 
ATOM     77  C   UNL A   1      44.030  27.763  28.413  1.00  0.00     0.173 A 
ATOM     78  C   UNL A   1      42.980  29.045  26.678  1.00  0.00     0.173 A 
ATOM     79  F   UNL A   1      44.680  27.683  29.584  1.00  0.00    -0.203 F 
ATOM     80  C   UNL A   1      43.818  26.598  27.678  1.00  0.00     0.198 A 
ATOM     81  C   UNL A   1      42.742  27.877  25.958  1.00  0.00     0.198 A 
ATOM     82  F   UNL A   1      42.581  30.216  26.159  1.00  0.00    -0.203 F 
ATOM     83  F   UNL A   1      44.266  25.424  28.144  1.00  0.00    -0.200 F 
ATOM     84  C   UNL A   1      43.169  26.655  26.454  1.00  0.00     0.200 A 
ATOM     85  F   UNL A   1      42.109  27.936  24.778  1.00  0.00    -0.200 F 
ATOM     86  F   UNL A   1      42.971  25.536  25.745  1.00  0.00    -0.200 F 
ENDBRANCH  52  76
BRANCH  64  87
ATOM     87  C   UNL A   1      48.635  33.839  27.414  1.00  0.00     0.064 A 
ATOM     88  C   UNL A   1      48.643  34.572  26.220  1.00  0.00     0.173 A 
ATOM     89  C   UNL A   1      49.841  33.271  27.851  1.00  0.00     0.173 A 
ATOM     90  F   UNL A   1      47.510  35.120  25.757  1.00  0.00    -0.203 F 
ATOM     91  C   UNL A   1      49.817  34.727  25.488  1.00  0.00     0.198 A 
ATOM     92  C   UNL A   1      51.018  33.450  27.130  1.00  0.00     0.198 A 
ATOM     93  F   UNL A   1      49.884  32.567  28.991  1.00  0.00    -0.203 F 
ATOM     94  F   UNL A   1      49.799  35.410  24.336  1.00  0.00    -0.200 F 
ATOM     95  C   UNL A   1      51.004  34.175  25.948  1.00  0.00     0.200 A 
ATOM     96  F   UNL A   1      52.166  32.929  27.583  1.00  0.00    -0.200 F 
ATOM     97  F   UNL A   1      52.137  34.344  25.251  1.00  0.00    -0.200 F 
ENDBRANCH  64  87
ENDBRANCH  38  39
ENDBRANCH  31  33
ENDBRANCH  30  31
ENDBRANCH  29  30
ENDBRANCH  28  29
ENDBRANCH  27  28
ENDBRANCH  26  27
ENDBRANCH  25  26
ENDBRANCH  24  25
ENDBRANCH   1  24
TORSDOF 23
ENDMDL
