MODEL 1
REMARK VINA RESULT:     -11.2      0.000      0.000
REMARK SMILES O=C(OCCOCCOCCOC(=O)[C@@H]1CCCCN1c1ccccc1[N+](=O)[O-])c1ccc(-c2c3nc(c(-c4c(F)c(F)c(F)c(F)c4F)c4ccc([nH]4)c(-c4c(F)c(F)c(F)c(F)c4F)c4nc(c(-c5c(F)c(F)c(F)c(F)c5F)c5ccc2[nH]5)C=C4)C=C3)cc1
REMARK SMILES IDX 7 1 6 2 5 3 4 4 3 5 2 6 1 7 30 8 31 9 92 10 32 11 91 12
REMARK SMILES IDX 33 13 34 14 35 15 85 16 36 17 90 18 84 19 86 20 37 21 89 22
REMARK SMILES IDX 83 23 82 24 38 26 70 27 50 28 69 29 51 30 54 31 68 32 87 33
REMARK SMILES IDX 52 34 53 35 67 37 88 38 55 39 39 40 40 41 48 42 41 43 42 44
REMARK SMILES IDX 46 45 49 46 43 47 44 48 47 49 45 50 71 51 72 52 80 53 73 54
REMARK SMILES IDX 74 55 78 56 81 57 75 58 76 59 79 60 77 61 56 62 57 63 65 64
REMARK SMILES IDX 58 65 59 66 63 67 66 68 60 69 61 70 64 71 62 72 8 73 9 74
REMARK SMILES IDX 10 75 11 76 12 77 13 78 14 79 15 80 16 81 20 82 17 83 19 84
REMARK SMILES IDX 18 85 21 86 22 87 26 88 23 89 25 90 24 91 27 92 28 93 29 94
REMARK H PARENT 86 25 54 36
REMARK Flexibility Score: inf
ROOT
ATOM      1  C   UNL A   1      40.107  20.590  26.288  1.00  0.00     0.188 C 
ENDROOT
BRANCH   1   2
ATOM      2  O   UNL A   1      41.312  21.232  26.716  1.00  0.00    -0.376 OA
BRANCH   2   3
ATOM      3  C   UNL A   1      42.509  20.775  26.095  1.00  0.00     0.202 C 
BRANCH   3   4
ATOM      4  C   UNL A   1      43.555  21.878  25.899  1.00  0.00     0.261 C 
BRANCH   4   5
ATOM      5  O   UNL A   1      43.130  22.800  24.883  1.00  0.00    -0.460 OA
BRANCH   5   6
ATOM      6  C   UNL A   1      43.641  24.052  24.826  1.00  0.00     0.338 C 
ATOM      7  O   UNL A   1      44.767  24.255  24.382  1.00  0.00    -0.246 OA
BRANCH   6   8
ATOM      8  C   UNL A   1      42.955  25.124  25.614  1.00  0.00     0.060 A 
ATOM      9  C   UNL A   1      43.526  26.359  25.928  1.00  0.00     0.016 A 
ATOM     10  C   UNL A   1      41.684  24.823  26.137  1.00  0.00     0.016 A 
ATOM     11  C   UNL A   1      42.893  27.238  26.805  1.00  0.00     0.010 A 
ATOM     12  C   UNL A   1      41.030  25.713  26.996  1.00  0.00     0.010 A 
ATOM     13  C   UNL A   1      41.670  26.897  27.386  1.00  0.00    -0.014 A 
BRANCH  13  14
ATOM     14  C   UNL A   1      41.221  27.662  28.571  1.00  0.00     0.031 A 
ATOM     15  C   UNL A   1      42.011  27.524  29.839  1.00  0.00     0.074 A 
ATOM     16  C   UNL A   1      40.231  28.568  28.492  1.00  0.00     0.049 A 
ATOM     17  N   UNL A   1      41.901  28.190  30.959  1.00  0.00    -0.248 NA
ATOM     18  C   UNL A   1      43.108  26.541  29.827  1.00  0.00     0.031 C 
ATOM     19  C   UNL A   1      39.483  28.882  27.282  1.00  0.00     0.029 A 
ATOM     20  N   UNL A   1      39.688  29.391  29.444  1.00  0.00    -0.354 N 
ATOM     21  C   UNL A   1      42.956  27.761  31.750  1.00  0.00     0.074 A 
ATOM     22  C   UNL A   1      43.642  26.715  31.025  1.00  0.00     0.031 C 
ATOM     23  C   UNL A   1      38.532  29.785  27.575  1.00  0.00     0.029 A 
ATOM     24  C   UNL A   1      38.604  30.103  28.995  1.00  0.00     0.049 A 
ATOM     25  H   UNL A   1      40.042  29.463  30.361  1.00  0.00     0.167 HD
ATOM     26  C   UNL A   1      43.347  28.232  32.955  1.00  0.00     0.037 A 
ATOM     27  C   UNL A   1      37.753  30.903  29.666  1.00  0.00     0.037 A 
ATOM     28  C   UNL A   1      42.629  29.230  33.697  1.00  0.00     0.049 A 
ATOM     29  C   UNL A   1      38.063  31.236  31.098  1.00  0.00     0.074 A 
ATOM     30  C   UNL A   1      42.912  29.755  34.944  1.00  0.00     0.029 A 
ATOM     31  N   UNL A   1      41.461  29.838  33.258  1.00  0.00    -0.354 N 
ATOM     32  N   UNL A   1      39.083  30.856  31.827  1.00  0.00    -0.248 NA
ATOM     33  C   UNL A   1      37.132  32.137  31.790  1.00  0.00     0.031 C 
ATOM     34  C   UNL A   1      41.885  30.645  35.281  1.00  0.00     0.029 A 
ATOM     35  C   UNL A   1      40.986  30.706  34.227  1.00  0.00     0.049 A 
ATOM     36  H   UNL A   1      41.032  29.674  32.387  1.00  0.00     0.167 HD
ATOM     37  C   UNL A   1      38.955  31.514  33.041  1.00  0.00     0.074 A 
ATOM     38  C   UNL A   1      37.741  32.302  32.957  1.00  0.00     0.031 C 
ATOM     39  C   UNL A   1      39.780  31.487  34.116  1.00  0.00     0.037 A 
BRANCH  26  40
ATOM     40  C   UNL A   1      44.601  27.646  33.526  1.00  0.00     0.064 A 
ATOM     41  C   UNL A   1      45.855  28.224  33.266  1.00  0.00     0.173 A 
ATOM     42  C   UNL A   1      44.561  26.474  34.291  1.00  0.00     0.173 A 
ATOM     43  F   UNL A   1      45.945  29.332  32.513  1.00  0.00    -0.203 F 
ATOM     44  C   UNL A   1      47.026  27.630  33.729  1.00  0.00     0.198 A 
ATOM     45  C   UNL A   1      45.735  25.895  34.769  1.00  0.00     0.198 A 
ATOM     46  F   UNL A   1      43.390  25.879  34.555  1.00  0.00    -0.203 F 
ATOM     47  F   UNL A   1      48.216  28.168  33.421  1.00  0.00    -0.200 F 
ATOM     48  C   UNL A   1      46.965  26.468  34.480  1.00  0.00     0.200 A 
ATOM     49  F   UNL A   1      45.676  24.768  35.493  1.00  0.00    -0.200 F 
ATOM     50  F   UNL A   1      48.094  25.888  34.912  1.00  0.00    -0.200 F 
ENDBRANCH  26  40
BRANCH  27  51
ATOM     51  C   UNL A   1      36.534  31.416  28.991  1.00  0.00     0.064 A 
ATOM     52  C   UNL A   1      36.397  32.762  28.629  1.00  0.00     0.173 A 
ATOM     53  C   UNL A   1      35.468  30.551  28.698  1.00  0.00     0.173 A 
ATOM     54  F   UNL A   1      37.380  33.632  28.902  1.00  0.00    -0.203 F 
ATOM     55  C   UNL A   1      35.235  33.226  28.013  1.00  0.00     0.198 A 
ATOM     56  C   UNL A   1      34.316  31.011  28.064  1.00  0.00     0.198 A 
ATOM     57  F   UNL A   1      35.549  29.251  29.022  1.00  0.00    -0.203 F 
ATOM     58  F   UNL A   1      35.115  34.525  27.706  1.00  0.00    -0.200 F 
ATOM     59  C   UNL A   1      34.197  32.350  27.727  1.00  0.00     0.200 A 
ATOM     60  F   UNL A   1      33.321  30.158  27.782  1.00  0.00    -0.200 F 
ATOM     61  F   UNL A   1      33.082  32.797  27.133  1.00  0.00    -0.200 F 
ENDBRANCH  27  51
BRANCH  39  62
ATOM     62  C   UNL A   1      39.427  32.379  35.266  1.00  0.00     0.064 A 
ATOM     63  C   UNL A   1      38.645  31.924  36.336  1.00  0.00     0.173 A 
ATOM     64  C   UNL A   1      39.913  33.693  35.311  1.00  0.00     0.173 A 
ATOM     65  F   UNL A   1      38.144  30.680  36.325  1.00  0.00    -0.203 F 
ATOM     66  C   UNL A   1      38.346  32.764  37.405  1.00  0.00     0.198 A 
ATOM     67  C   UNL A   1      39.633  34.521  36.393  1.00  0.00     0.198 A 
ATOM     68  F   UNL A   1      40.667  34.171  34.309  1.00  0.00    -0.203 F 
ATOM     69  F   UNL A   1      37.563  32.325  38.400  1.00  0.00    -0.200 F 
ATOM     70  C   UNL A   1      38.847  34.058  37.436  1.00  0.00     0.200 A 
ATOM     71  F   UNL A   1      40.125  35.768  36.425  1.00  0.00    -0.200 F 
ATOM     72  F   UNL A   1      38.563  34.862  38.469  1.00  0.00    -0.200 F 
ENDBRANCH  39  62
ENDBRANCH  13  14
ENDBRANCH   6   8
ENDBRANCH   5   6
ENDBRANCH   4   5
ENDBRANCH   3   4
ENDBRANCH   2   3
ENDBRANCH   1   2
BRANCH   1  73
ATOM     73  C   UNL A   1      38.997  21.505  25.758  1.00  0.00     0.188 C 
BRANCH  73  74
ATOM     74  O   UNL A   1      38.542  22.538  26.622  1.00  0.00    -0.376 OA
BRANCH  74  75
ATOM     75  C   UNL A   1      38.037  23.728  26.028  1.00  0.00     0.202 C 
BRANCH  75  76
ATOM     76  C   UNL A   1      36.631  23.641  25.430  1.00  0.00     0.261 C 
BRANCH  76  77
ATOM     77  O   UNL A   1      35.936  22.411  25.719  1.00  0.00    -0.462 OA
BRANCH  77  78
ATOM     78  C   UNL A   1      34.712  22.518  26.318  1.00  0.00     0.328 C 
ATOM     79  O   UNL A   1      34.559  22.840  27.493  1.00  0.00    -0.250 OA
BRANCH  78  80
ATOM     80  C   UNL A   1      33.549  22.127  25.376  1.00  0.00     0.192 C 
ATOM     81  C   UNL A   1      33.955  21.033  24.369  1.00  0.00     0.037 C 
ATOM     82  N   UNL A   1      32.925  23.235  24.596  1.00  0.00    -0.353 N 
ATOM     83  C   UNL A   1      32.751  20.586  23.538  1.00  0.00     0.005 C 
ATOM     84  C   UNL A   1      31.748  22.873  23.796  1.00  0.00     0.118 C 
ATOM     85  C   UNL A   1      32.128  21.773  22.810  1.00  0.00     0.022 C 
BRANCH  82  86
ATOM     86  C   UNL A   1      32.998  24.566  24.974  1.00  0.00     0.116 A 
ATOM     87  C   UNL A   1      33.826  25.375  24.174  1.00  0.00     0.033 A 
ATOM     88  C   UNL A   1      32.274  25.222  25.983  1.00  0.00     0.292 A 
ATOM     89  C   UNL A   1      33.988  26.745  24.395  1.00  0.00     0.003 A 
ATOM     90  C   UNL A   1      32.441  26.603  26.226  1.00  0.00     0.088 A 
ATOM     91  C   UNL A   1      33.308  27.358  25.438  1.00  0.00     0.007 A 
BRANCH  88  92
ATOM     92  N   UNL A   1      31.215  24.554  26.736  1.00  0.00     0.064 N 
ATOM     93  O   UNL A   1      30.047  24.840  26.429  1.00  0.00    -0.258 OA
ATOM     94  O   UNL A   1      31.521  23.748  27.625  1.00  0.00    -0.258 OA
ENDBRANCH  88  92
ENDBRANCH  82  86
ENDBRANCH  78  80
ENDBRANCH  77  78
ENDBRANCH  76  77
ENDBRANCH  75  76
ENDBRANCH  74  75
ENDBRANCH  73  74
ENDBRANCH   1  73
TORSDOF 19
ENDMDL
MODEL 2
REMARK VINA RESULT:     -11.1      1.125      2.382
REMARK SMILES O=C(OCCOCCOCCOC(=O)[C@@H]1CCCCN1c1ccccc1[N+](=O)[O-])c1ccc(-c2c3nc(c(-c4c(F)c(F)c(F)c(F)c4F)c4ccc([nH]4)c(-c4c(F)c(F)c(F)c(F)c4F)c4nc(c(-c5c(F)c(F)c(F)c(F)c5F)c5ccc2[nH]5)C=C4)C=C3)cc1
REMARK SMILES IDX 7 1 6 2 5 3 4 4 3 5 2 6 1 7 30 8 31 9 92 10 32 11 91 12
REMARK SMILES IDX 33 13 34 14 35 15 85 16 36 17 90 18 84 19 86 20 37 21 89 22
REMARK SMILES IDX 83 23 82 24 38 26 70 27 50 28 69 29 51 30 54 31 68 32 87 33
REMARK SMILES IDX 52 34 53 35 67 37 88 38 55 39 39 40 40 41 48 42 41 43 42 44
REMARK SMILES IDX 46 45 49 46 43 47 44 48 47 49 45 50 71 51 72 52 80 53 73 54
REMARK SMILES IDX 74 55 78 56 81 57 75 58 76 59 79 60 77 61 56 62 57 63 65 64
REMARK SMILES IDX 58 65 59 66 63 67 66 68 60 69 61 70 64 71 62 72 8 73 9 74
REMARK SMILES IDX 10 75 11 76 12 77 13 78 14 79 15 80 16 81 20 82 17 83 19 84
REMARK SMILES IDX 18 85 21 86 22 87 26 88 23 89 25 90 24 91 27 92 28 93 29 94
REMARK H PARENT 86 25 54 36
REMARK Flexibility Score: inf
ROOT
ATOM      1  C   UNL A   1      41.172  21.201  27.393  1.00  0.00     0.188 C 
ENDROOT
BRANCH   1   2
ATOM      2  O   UNL A   1      42.396  20.508  27.138  1.00  0.00    -0.376 OA
BRANCH   2   3
ATOM      3  C   UNL A   1      42.839  20.514  25.784  1.00  0.00     0.202 C 
BRANCH   3   4
ATOM      4  C   UNL A   1      43.803  21.661  25.463  1.00  0.00     0.261 C 
BRANCH   4   5
ATOM      5  O   UNL A   1      43.107  22.738  24.816  1.00  0.00    -0.460 OA
BRANCH   5   6
ATOM      6  C   UNL A   1      43.632  23.985  24.792  1.00  0.00     0.338 C 
ATOM      7  O   UNL A   1      44.769  24.185  24.376  1.00  0.00    -0.246 OA
BRANCH   6   8
ATOM      8  C   UNL A   1      42.939  25.052  25.582  1.00  0.00     0.060 A 
ATOM      9  C   UNL A   1      43.468  26.321  25.827  1.00  0.00     0.016 A 
ATOM     10  C   UNL A   1      41.713  24.711  26.182  1.00  0.00     0.016 A 
ATOM     11  C   UNL A   1      42.841  27.199  26.710  1.00  0.00     0.010 A 
ATOM     12  C   UNL A   1      41.065  25.599  27.048  1.00  0.00     0.010 A 
ATOM     13  C   UNL A   1      41.668  26.823  27.366  1.00  0.00    -0.014 A 
BRANCH  13  14
ATOM     14  C   UNL A   1      41.247  27.606  28.549  1.00  0.00     0.031 A 
ATOM     15  C   UNL A   1      42.059  27.476  29.805  1.00  0.00     0.074 A 
ATOM     16  C   UNL A   1      40.265  28.521  28.477  1.00  0.00     0.049 A 
ATOM     17  N   UNL A   1      41.974  28.155  30.919  1.00  0.00    -0.248 NA
ATOM     18  C   UNL A   1      43.146  26.482  29.786  1.00  0.00     0.031 C 
ATOM     19  C   UNL A   1      39.498  28.827  27.277  1.00  0.00     0.029 A 
ATOM     20  N   UNL A   1      39.746  29.360  29.429  1.00  0.00    -0.354 N 
ATOM     21  C   UNL A   1      43.039  27.725  31.696  1.00  0.00     0.074 A 
ATOM     22  C   UNL A   1      43.703  26.665  30.972  1.00  0.00     0.031 C 
ATOM     23  C   UNL A   1      38.561  29.743  27.576  1.00  0.00     0.029 A 
ATOM     24  C   UNL A   1      38.661  30.076  28.991  1.00  0.00     0.049 A 
ATOM     25  H   UNL A   1      40.117  29.439  30.338  1.00  0.00     0.167 HD
ATOM     26  C   UNL A   1      43.455  28.207  32.889  1.00  0.00     0.037 A 
ATOM     27  C   UNL A   1      37.830  30.892  29.666  1.00  0.00     0.037 A 
ATOM     28  C   UNL A   1      42.760  29.221  33.631  1.00  0.00     0.049 A 
ATOM     29  C   UNL A   1      38.168  31.240  31.089  1.00  0.00     0.074 A 
ATOM     30  C   UNL A   1      43.070  29.757  34.866  1.00  0.00     0.029 A 
ATOM     31  N   UNL A   1      41.590  29.834  33.205  1.00  0.00    -0.354 N 
ATOM     32  N   UNL A   1      39.197  30.858  31.804  1.00  0.00    -0.248 NA
ATOM     33  C   UNL A   1      37.258  32.157  31.786  1.00  0.00     0.031 C 
ATOM     34  C   UNL A   1      42.057  30.661  35.211  1.00  0.00     0.029 A 
ATOM     35  C   UNL A   1      41.141  30.718  34.172  1.00  0.00     0.049 A 
ATOM     36  H   UNL A   1      41.144  29.664  32.344  1.00  0.00     0.167 HD
ATOM     37  C   UNL A   1      39.096  31.531  33.012  1.00  0.00     0.074 A 
ATOM     38  C   UNL A   1      37.888  32.330  32.940  1.00  0.00     0.031 C 
ATOM     39  C   UNL A   1      39.940  31.509  34.073  1.00  0.00     0.037 A 
BRANCH  26  40
ATOM     40  C   UNL A   1      44.714  27.616  33.444  1.00  0.00     0.064 A 
ATOM     41  C   UNL A   1      44.679  26.479  34.268  1.00  0.00     0.173 A 
ATOM     42  C   UNL A   1      45.956  28.214  33.198  1.00  0.00     0.173 A 
ATOM     43  F   UNL A   1      43.509  25.888  34.555  1.00  0.00    -0.203 F 
ATOM     44  C   UNL A   1      45.842  25.981  34.849  1.00  0.00     0.198 A 
ATOM     45  C   UNL A   1      47.120  27.700  33.765  1.00  0.00     0.198 A 
ATOM     46  F   UNL A   1      46.038  29.309  32.428  1.00  0.00    -0.203 F 
ATOM     47  F   UNL A   1      45.779  24.929  35.678  1.00  0.00    -0.200 F 
ATOM     48  C   UNL A   1      47.061  26.591  34.597  1.00  0.00     0.200 A 
ATOM     49  F   UNL A   1      48.298  28.293  33.524  1.00  0.00    -0.200 F 
ATOM     50  F   UNL A   1      48.178  26.121  35.169  1.00  0.00    -0.200 F 
ENDBRANCH  26  40
BRANCH  27  51
ATOM     51  C   UNL A   1      36.604  31.410  29.007  1.00  0.00     0.064 A 
ATOM     52  C   UNL A   1      35.505  30.586  28.732  1.00  0.00     0.173 A 
ATOM     53  C   UNL A   1      36.516  32.760  28.633  1.00  0.00     0.173 A 
ATOM     54  F   UNL A   1      35.547  29.285  29.055  1.00  0.00    -0.203 F 
ATOM     55  C   UNL A   1      34.371  31.089  28.095  1.00  0.00     0.198 A 
ATOM     56  C   UNL A   1      35.374  33.266  28.015  1.00  0.00     0.198 A 
ATOM     57  F   UNL A   1      37.539  33.593  28.875  1.00  0.00    -0.203 F 
ATOM     58  F   UNL A   1      33.346  30.274  27.814  1.00  0.00    -0.200 F 
ATOM     59  C   UNL A   1      34.304  32.429  27.740  1.00  0.00     0.200 A 
ATOM     60  F   UNL A   1      35.313  34.564  27.684  1.00  0.00    -0.200 F 
ATOM     61  F   UNL A   1      33.213  32.912  27.131  1.00  0.00    -0.200 F 
ENDBRANCH  27  51
BRANCH  39  62
ATOM     62  C   UNL A   1      39.615  32.418  35.218  1.00  0.00     0.064 A 
ATOM     63  C   UNL A   1      40.090  33.735  35.270  1.00  0.00     0.173 A 
ATOM     64  C   UNL A   1      38.784  31.971  36.256  1.00  0.00     0.173 A 
ATOM     65  F   UNL A   1      40.903  34.197  34.308  1.00  0.00    -0.203 F 
ATOM     66  C   UNL A   1      39.759  34.569  36.333  1.00  0.00     0.198 A 
ATOM     67  C   UNL A   1      38.434  32.816  37.304  1.00  0.00     0.198 A 
ATOM     68  F   UNL A   1      38.304  30.718  36.247  1.00  0.00    -0.203 F 
ATOM     69  F   UNL A   1      40.256  35.812  36.387  1.00  0.00    -0.200 F 
ATOM     70  C   UNL A   1      38.925  34.112  37.344  1.00  0.00     0.200 A 
ATOM     71  F   UNL A   1      37.622  32.375  38.274  1.00  0.00    -0.200 F 
ATOM     72  F   UNL A   1      38.602  34.919  38.364  1.00  0.00    -0.200 F 
ENDBRANCH  39  62
ENDBRANCH  13  14
ENDBRANCH   6   8
ENDBRANCH   5   6
ENDBRANCH   4   5
ENDBRANCH   3   4
ENDBRANCH   2   3
ENDBRANCH   1   2
BRANCH   1  73
ATOM     73  C   UNL A   1      40.250  21.424  26.188  1.00  0.00     0.188 C 
BRANCH  73  74
ATOM     74  O   UNL A   1      39.121  22.265  26.383  1.00  0.00    -0.376 OA
BRANCH  74  75
ATOM     75  C   UNL A   1      37.937  21.970  25.653  1.00  0.00     0.202 C 
BRANCH  75  76
ATOM     76  C   UNL A   1      37.422  23.072  24.724  1.00  0.00     0.261 C 
BRANCH  76  77
ATOM     77  O   UNL A   1      36.180  23.673  25.144  1.00  0.00    -0.462 OA
BRANCH  77  78
ATOM     78  C   UNL A   1      35.140  23.627  24.259  1.00  0.00     0.328 C 
ATOM     79  O   UNL A   1      35.260  23.863  23.060  1.00  0.00    -0.250 OA
BRANCH  78  80
ATOM     80  C   UNL A   1      33.788  23.310  24.941  1.00  0.00     0.192 C 
ATOM     81  C   UNL A   1      33.113  22.059  24.347  1.00  0.00     0.037 C 
ATOM     82  N   UNL A   1      32.772  24.402  24.942  1.00  0.00    -0.353 N 
ATOM     83  C   UNL A   1      31.843  21.706  25.125  1.00  0.00     0.005 C 
ATOM     84  C   UNL A   1      31.541  24.132  25.694  1.00  0.00     0.118 C 
ATOM     85  C   UNL A   1      30.871  22.882  25.133  1.00  0.00     0.022 C 
BRANCH  82  86
ATOM     86  C   UNL A   1      33.096  25.741  24.795  1.00  0.00     0.116 A 
ATOM     87  C   UNL A   1      33.682  26.347  25.922  1.00  0.00     0.033 A 
ATOM     88  C   UNL A   1      33.008  26.533  23.638  1.00  0.00     0.292 A 
ATOM     89  C   UNL A   1      34.099  27.681  25.934  1.00  0.00     0.003 A 
ATOM     90  C   UNL A   1      33.411  27.886  23.643  1.00  0.00     0.088 A 
ATOM     91  C   UNL A   1      33.944  28.459  24.797  1.00  0.00     0.007 A 
BRANCH  88  92
ATOM     92  N   UNL A   1      32.634  25.972  22.342  1.00  0.00     0.064 N 
ATOM     93  O   UNL A   1      31.466  25.570  22.224  1.00  0.00    -0.258 OA
ATOM     94  O   UNL A   1      33.478  25.928  21.437  1.00  0.00    -0.258 OA
ENDBRANCH  88  92
ENDBRANCH  82  86
ENDBRANCH  78  80
ENDBRANCH  77  78
ENDBRANCH  76  77
ENDBRANCH  75  76
ENDBRANCH  74  75
ENDBRANCH  73  74
ENDBRANCH   1  73
TORSDOF 19
ENDMDL
MODEL 3
REMARK VINA RESULT:     -10.9      0.602      7.136
REMARK SMILES O=C(OCCOCCOCCOC(=O)[C@@H]1CCCCN1c1ccccc1[N+](=O)[O-])c1ccc(-c2c3nc(c(-c4c(F)c(F)c(F)c(F)c4F)c4ccc([nH]4)c(-c4c(F)c(F)c(F)c(F)c4F)c4nc(c(-c5c(F)c(F)c(F)c(F)c5F)c5ccc2[nH]5)C=C4)C=C3)cc1
REMARK SMILES IDX 7 1 6 2 5 3 4 4 3 5 2 6 1 7 30 8 31 9 92 10 32 11 91 12
REMARK SMILES IDX 33 13 34 14 35 15 85 16 36 17 90 18 84 19 86 20 37 21 89 22
REMARK SMILES IDX 83 23 82 24 38 26 70 27 50 28 69 29 51 30 54 31 68 32 87 33
REMARK SMILES IDX 52 34 53 35 67 37 88 38 55 39 39 40 40 41 48 42 41 43 42 44
REMARK SMILES IDX 46 45 49 46 43 47 44 48 47 49 45 50 71 51 72 52 80 53 73 54
REMARK SMILES IDX 74 55 78 56 81 57 75 58 76 59 79 60 77 61 56 62 57 63 65 64
REMARK SMILES IDX 58 65 59 66 63 67 66 68 60 69 61 70 64 71 62 72 8 73 9 74
REMARK SMILES IDX 10 75 11 76 12 77 13 78 14 79 15 80 16 81 20 82 17 83 19 84
REMARK SMILES IDX 18 85 21 86 22 87 26 88 23 89 25 90 24 91 27 92 28 93 29 94
REMARK H PARENT 86 25 54 36
REMARK Flexibility Score: inf
ROOT
ATOM      1  C   UNL A   1      40.360  20.528  26.109  1.00  0.00     0.188 C 
ENDROOT
BRANCH   1   2
ATOM      2  O   UNL A   1      41.448  20.456  27.035  1.00  0.00    -0.376 OA
BRANCH   2   3
ATOM      3  C   UNL A   1      42.284  21.607  27.095  1.00  0.00     0.202 C 
BRANCH   3   4
ATOM      4  C   UNL A   1      43.128  21.815  25.832  1.00  0.00     0.261 C 
BRANCH   4   5
ATOM      5  O   UNL A   1      42.595  22.890  25.042  1.00  0.00    -0.460 OA
BRANCH   5   6
ATOM      6  C   UNL A   1      43.237  24.080  24.971  1.00  0.00     0.338 C 
ATOM      7  O   UNL A   1      44.362  24.163  24.489  1.00  0.00    -0.246 OA
BRANCH   6   8
ATOM      8  C   UNL A   1      42.697  25.215  25.783  1.00  0.00     0.060 A 
ATOM      9  C   UNL A   1      43.336  26.447  25.939  1.00  0.00     0.016 A 
ATOM     10  C   UNL A   1      41.509  24.984  26.500  1.00  0.00     0.016 A 
ATOM     11  C   UNL A   1      42.857  27.393  26.844  1.00  0.00     0.010 A 
ATOM     12  C   UNL A   1      41.007  25.940  27.390  1.00  0.00     0.010 A 
ATOM     13  C   UNL A   1      41.723  27.123  27.613  1.00  0.00    -0.014 A 
BRANCH  13  14
ATOM     14  C   UNL A   1      41.468  27.967  28.802  1.00  0.00     0.031 A 
ATOM     15  C   UNL A   1      40.295  28.901  28.764  1.00  0.00     0.074 A 
ATOM     16  C   UNL A   1      42.162  27.806  29.942  1.00  0.00     0.049 A 
ATOM     17  N   UNL A   1      39.789  29.634  29.722  1.00  0.00    -0.248 NA
ATOM     18  C   UNL A   1      39.561  28.984  27.490  1.00  0.00     0.031 C 
ATOM     19  C   UNL A   1      43.233  26.838  30.138  1.00  0.00     0.029 A 
ATOM     20  N   UNL A   1      42.069  28.451  31.149  1.00  0.00    -0.354 N 
ATOM     21  C   UNL A   1      38.640  30.199  29.188  1.00  0.00     0.074 A 
ATOM     22  C   UNL A   1      38.569  29.803  27.800  1.00  0.00     0.031 C 
ATOM     23  C   UNL A   1      43.745  26.992  31.370  1.00  0.00     0.029 A 
ATOM     24  C   UNL A   1      43.040  28.075  32.043  1.00  0.00     0.049 A 
ATOM     25  H   UNL A   1      41.373  29.117  31.353  1.00  0.00     0.167 HD
ATOM     26  C   UNL A   1      37.703  30.943  29.816  1.00  0.00     0.037 A 
ATOM     27  C   UNL A   1      43.337  28.570  33.260  1.00  0.00     0.037 A 
ATOM     28  C   UNL A   1      37.807  31.382  31.179  1.00  0.00     0.049 A 
ATOM     29  C   UNL A   1      42.414  29.591  33.862  1.00  0.00     0.074 A 
ATOM     30  C   UNL A   1      36.935  32.171  31.905  1.00  0.00     0.029 A 
ATOM     31  N   UNL A   1      38.874  31.081  32.015  1.00  0.00    -0.354 N 
ATOM     32  N   UNL A   1      41.309  30.092  33.366  1.00  0.00    -0.248 NA
ATOM     33  C   UNL A   1      42.750  30.085  35.203  1.00  0.00     0.031 C 
ATOM     34  C   UNL A   1      37.501  32.390  33.168  1.00  0.00     0.029 A 
ATOM     35  C   UNL A   1      38.702  31.702  33.241  1.00  0.00     0.049 A 
ATOM     36  H   UNL A   1      39.639  30.512  31.772  1.00  0.00     0.167 HD
ATOM     37  C   UNL A   1      40.784  30.914  34.351  1.00  0.00     0.074 A 
ATOM     38  C   UNL A   1      41.706  30.861  35.469  1.00  0.00     0.031 C 
ATOM     39  C   UNL A   1      39.630  31.626  34.341  1.00  0.00     0.037 A 
BRANCH  26  40
ATOM     40  C   UNL A   1      36.502  31.325  29.006  1.00  0.00     0.064 A 
ATOM     41  C   UNL A   1      36.305  32.649  28.582  1.00  0.00     0.173 A 
ATOM     42  C   UNL A   1      35.518  30.379  28.694  1.00  0.00     0.173 A 
ATOM     43  F   UNL A   1      37.207  33.597  28.882  1.00  0.00    -0.203 F 
ATOM     44  C   UNL A   1      35.148  33.017  27.900  1.00  0.00     0.198 A 
ATOM     45  C   UNL A   1      34.371  30.747  27.994  1.00  0.00     0.198 A 
ATOM     46  F   UNL A   1      35.656  29.105  29.088  1.00  0.00    -0.203 F 
ATOM     47  F   UNL A   1      34.953  34.298  27.555  1.00  0.00    -0.200 F 
ATOM     48  C   UNL A   1      34.183  32.066  27.606  1.00  0.00     0.200 A 
ATOM     49  F   UNL A   1      33.437  29.829  27.713  1.00  0.00    -0.200 F 
ATOM     50  F   UNL A   1      33.063  32.424  26.964  1.00  0.00    -0.200 F 
ENDBRANCH  26  40
BRANCH  27  51
ATOM     51  C   UNL A   1      44.565  28.118  33.962  1.00  0.00     0.064 A 
ATOM     52  C   UNL A   1      45.787  28.788  33.827  1.00  0.00     0.173 A 
ATOM     53  C   UNL A   1      44.531  26.984  34.791  1.00  0.00     0.173 A 
ATOM     54  F   UNL A   1      45.875  29.866  33.035  1.00  0.00    -0.203 F 
ATOM     55  C   UNL A   1      46.932  28.334  34.482  1.00  0.00     0.198 A 
ATOM     56  C   UNL A   1      45.670  26.544  35.460  1.00  0.00     0.198 A 
ATOM     57  F   UNL A   1      43.385  26.307  34.956  1.00  0.00    -0.203 F 
ATOM     58  F   UNL A   1      48.097  28.974  34.311  1.00  0.00    -0.200 F 
ATOM     59  C   UNL A   1      46.873  27.215  35.301  1.00  0.00     0.200 A 
ATOM     60  F   UNL A   1      45.604  25.467  36.257  1.00  0.00    -0.200 F 
ATOM     61  F   UNL A   1      47.972  26.782  35.931  1.00  0.00    -0.200 F 
ENDBRANCH  27  51
BRANCH  39  62
ATOM     62  C   UNL A   1      39.274  32.360  35.597  1.00  0.00     0.064 A 
ATOM     63  C   UNL A   1      38.538  31.751  36.622  1.00  0.00     0.173 A 
ATOM     64  C   UNL A   1      39.712  33.679  35.789  1.00  0.00     0.173 A 
ATOM     65  F   UNL A   1      38.084  30.498  36.473  1.00  0.00    -0.203 F 
ATOM     66  C   UNL A   1      38.237  32.445  37.790  1.00  0.00     0.198 A 
ATOM     67  C   UNL A   1      39.431  34.360  36.968  1.00  0.00     0.198 A 
ATOM     68  F   UNL A   1      40.422  34.302  34.835  1.00  0.00    -0.203 F 
ATOM     69  F   UNL A   1      37.497  31.860  38.742  1.00  0.00    -0.200 F 
ATOM     70  C   UNL A   1      38.690  33.745  37.965  1.00  0.00     0.200 A 
ATOM     71  F   UNL A   1      39.877  35.612  37.139  1.00  0.00    -0.200 F 
ATOM     72  F   UNL A   1      38.404  34.409  39.093  1.00  0.00    -0.200 F 
ENDBRANCH  39  62
ENDBRANCH  13  14
ENDBRANCH   6   8
ENDBRANCH   5   6
ENDBRANCH   4   5
ENDBRANCH   3   4
ENDBRANCH   2   3
ENDBRANCH   1   2
BRANCH   1  73
ATOM     73  C   UNL A   1      39.546  21.826  26.112  1.00  0.00     0.188 C 
BRANCH  73  74
ATOM     74  O   UNL A   1      38.262  21.787  25.503  1.00  0.00    -0.376 OA
BRANCH  74  75
ATOM     75  C   UNL A   1      37.489  22.981  25.501  1.00  0.00     0.202 C 
BRANCH  75  76
ATOM     76  C   UNL A   1      36.219  22.967  26.355  1.00  0.00     0.261 C 
BRANCH  76  77
ATOM     77  O   UNL A   1      35.415  21.779  26.206  1.00  0.00    -0.462 OA
BRANCH  77  78
ATOM     78  C   UNL A   1      34.111  21.860  26.608  1.00  0.00     0.328 C 
ATOM     79  O   UNL A   1      33.772  22.026  27.776  1.00  0.00    -0.250 OA
BRANCH  78  80
ATOM     80  C   UNL A   1      33.113  21.653  25.445  1.00  0.00     0.192 C 
ATOM     81  C   UNL A   1      33.563  20.539  24.480  1.00  0.00     0.037 C 
ATOM     82  N   UNL A   1      32.800  22.854  24.617  1.00  0.00    -0.353 N 
ATOM     83  C   UNL A   1      32.496  20.280  23.414  1.00  0.00     0.005 C 
ATOM     84  C   UNL A   1      31.764  22.674  23.592  1.00  0.00     0.118 C 
ATOM     85  C   UNL A   1      32.184  21.557  22.642  1.00  0.00     0.022 C 
BRANCH  82  86
ATOM     86  C   UNL A   1      32.969  24.153  25.068  1.00  0.00     0.116 A 
ATOM     87  C   UNL A   1      33.979  24.889  24.422  1.00  0.00     0.033 A 
ATOM     88  C   UNL A   1      32.195  24.851  26.010  1.00  0.00     0.292 A 
ATOM     89  C   UNL A   1      34.260  26.222  24.731  1.00  0.00     0.003 A 
ATOM     90  C   UNL A   1      32.480  26.194  26.341  1.00  0.00     0.088 A 
ATOM     91  C   UNL A   1      33.521  26.871  25.709  1.00  0.00     0.007 A 
BRANCH  88  92
ATOM     92  N   UNL A   1      30.979  24.284  26.588  1.00  0.00     0.064 N 
ATOM     93  O   UNL A   1      31.122  23.556  27.583  1.00  0.00    -0.258 OA
ATOM     94  O   UNL A   1      29.885  24.552  26.075  1.00  0.00    -0.258 OA
ENDBRANCH  88  92
ENDBRANCH  82  86
ENDBRANCH  78  80
ENDBRANCH  77  78
ENDBRANCH  76  77
ENDBRANCH  75  76
ENDBRANCH  74  75
ENDBRANCH  73  74
ENDBRANCH   1  73
TORSDOF 19
ENDMDL
