MODEL 1
REMARK VINA RESULT:     -10.8      0.000      0.000
REMARK SMILES O=C(OCCOCCOCCOC(=O)c1ccc(-c2c3nc(c(-c4c(F)c(F)c(F)c(F)c4F)c4ccc([nH]4)c(-c4c(F)c(F)c(F)c(F)c4F)c4nc(c(-c5c(F)c(F)c(F)c(F)c5F)c5ccc2[nH]5)C=C4)C=C3)cc1)c1ccc(NC(=O)[C@H]2CCS(=O)(=O)C2)cc1
REMARK SMILES IDX 7 1 6 2 5 3 4 4 3 5 2 6 1 7 78 8 79 9 93 10 80 11 92 12
REMARK SMILES IDX 81 13 82 14 83 15 84 17 85 18 86 19 91 20 87 21 88 22 89 23
REMARK SMILES IDX 90 24 8 25 9 26 10 27 11 28 12 29 13 30 14 31 15 32 16 33
REMARK SMILES IDX 77 34 17 35 76 36 18 37 19 38 20 39 70 40 21 41 75 42 69 43
REMARK SMILES IDX 71 44 22 45 74 46 68 47 67 48 23 50 55 51 35 52 54 53 36 54
REMARK SMILES IDX 39 55 53 56 72 57 37 58 38 59 52 61 73 62 40 63 24 64 25 65
REMARK SMILES IDX 33 66 26 67 27 68 31 69 34 70 28 71 29 72 32 73 30 74 56 75
REMARK SMILES IDX 57 76 65 77 58 78 59 79 63 80 66 81 60 82 61 83 64 84 62 85
REMARK SMILES IDX 41 86 42 87 50 88 43 89 44 90 48 91 51 92 45 93 46 94 49 95
REMARK SMILES IDX 47 96
REMARK H PARENT 82 16 71 49 39 60
REMARK Flexibility Score: inf
ROOT
ATOM      1  C   UNL A   1      46.143  19.912  35.386  1.00  0.00     0.188 C 
ENDROOT
BRANCH   1   2
ATOM      2  O   UNL A   1      44.950  20.585  34.991  1.00  0.00    -0.376 OA
BRANCH   2   3
ATOM      3  C   UNL A   1      45.104  21.905  34.471  1.00  0.00     0.202 C 
BRANCH   3   4
ATOM      4  C   UNL A   1      43.841  22.739  34.159  1.00  0.00     0.261 C 
BRANCH   4   5
ATOM      5  O   UNL A   1      43.761  23.313  32.833  1.00  0.00    -0.460 OA
BRANCH   5   6
ATOM      6  C   UNL A   1      44.675  24.095  32.202  1.00  0.00     0.338 C 
ATOM      7  O   UNL A   1      45.408  24.841  32.840  1.00  0.00    -0.246 OA
BRANCH   6   8
ATOM      8  C   UNL A   1      44.745  24.123  30.720  1.00  0.00     0.060 A 
ATOM      9  C   UNL A   1      43.910  23.321  29.969  1.00  0.00     0.018 A 
ATOM     10  C   UNL A   1      45.488  25.083  30.033  1.00  0.00     0.018 A 
ATOM     11  C   UNL A   1      43.913  23.336  28.587  1.00  0.00     0.027 A 
ATOM     12  C   UNL A   1      45.501  25.087  28.620  1.00  0.00     0.027 A 
ATOM     13  C   UNL A   1      44.752  24.151  27.884  1.00  0.00     0.041 A 
BRANCH  13  14
ATOM     14  N   UNL A   1      44.812  24.132  26.491  1.00  0.00    -0.326 N 
ATOM     15  C   UNL A   1      45.013  23.226  25.505  1.00  0.00     0.228 C 
ATOM     16  H   UNL A   1      44.666  25.032  26.119  1.00  0.00     0.169 HD
ATOM     17  O   UNL A   1      44.900  23.742  24.376  1.00  0.00    -0.274 OA
BRANCH  15  18
ATOM     18  C   UNL A   1      45.294  21.702  25.531  1.00  0.00     0.095 C 
ATOM     19  C   UNL A   1      43.914  21.008  25.313  1.00  0.00     0.030 C 
ATOM     20  C   UNL A   1      46.198  20.923  24.582  1.00  0.00     0.150 C 
ATOM     21  C   UNL A   1      44.101  19.501  25.368  1.00  0.00     0.138 C 
ATOM     22  S   UNL A   1      45.718  19.208  24.707  1.00  0.00     0.151 S 
ATOM     23  O   UNL A   1      46.528  18.590  25.744  1.00  0.00    -0.229 OA
ATOM     24  O   UNL A   1      45.616  18.659  23.378  1.00  0.00    -0.229 OA
ENDBRANCH  15  18
ENDBRANCH  13  14
ENDBRANCH   6   8
ENDBRANCH   5   6
ENDBRANCH   4   5
ENDBRANCH   3   4
ENDBRANCH   2   3
ENDBRANCH   1   2
BRANCH   1  25
ATOM     25  C   UNL A   1      46.227  19.725  36.902  1.00  0.00     0.188 C 
BRANCH  25  26
ATOM     26  O   UNL A   1      46.254  20.915  37.683  1.00  0.00    -0.376 OA
BRANCH  26  27
ATOM     27  C   UNL A   1      47.279  21.857  37.385  1.00  0.00     0.202 C 
BRANCH  27  28
ATOM     28  C   UNL A   1      47.037  23.329  37.764  1.00  0.00     0.261 C 
BRANCH  28  29
ATOM     29  O   UNL A   1      46.406  24.155  36.762  1.00  0.00    -0.460 OA
BRANCH  29  30
ATOM     30  C   UNL A   1      45.908  25.330  37.222  1.00  0.00     0.338 C 
ATOM     31  O   UNL A   1      46.030  25.803  38.340  1.00  0.00    -0.246 OA
BRANCH  30  32
ATOM     32  C   UNL A   1      45.119  26.024  36.184  1.00  0.00     0.060 A 
ATOM     33  C   UNL A   1      45.606  27.182  35.572  1.00  0.00     0.016 A 
ATOM     34  C   UNL A   1      43.793  25.629  35.983  1.00  0.00     0.016 A 
ATOM     35  C   UNL A   1      44.756  27.962  34.772  1.00  0.00     0.010 A 
ATOM     36  C   UNL A   1      42.954  26.401  35.170  1.00  0.00     0.010 A 
ATOM     37  C   UNL A   1      43.416  27.588  34.574  1.00  0.00    -0.014 A 
BRANCH  37  38
ATOM     38  C   UNL A   1      42.478  28.420  33.765  1.00  0.00     0.031 A 
ATOM     39  C   UNL A   1      41.568  29.419  34.430  1.00  0.00     0.074 A 
ATOM     40  C   UNL A   1      42.389  28.239  32.433  1.00  0.00     0.049 A 
ATOM     41  N   UNL A   1      40.576  30.105  33.915  1.00  0.00    -0.248 NA
ATOM     42  C   UNL A   1      41.806  29.686  35.856  1.00  0.00     0.031 C 
ATOM     43  C   UNL A   1      43.238  27.347  31.651  1.00  0.00     0.029 A 
ATOM     44  N   UNL A   1      41.521  28.770  31.507  1.00  0.00    -0.354 N 
ATOM     45  C   UNL A   1      40.063  30.873  34.954  1.00  0.00     0.074 A 
ATOM     46  C   UNL A   1      40.844  30.558  36.133  1.00  0.00     0.031 C 
ATOM     47  C   UNL A   1      42.829  27.363  30.373  1.00  0.00     0.029 A 
ATOM     48  C   UNL A   1      41.656  28.221  30.254  1.00  0.00     0.049 A 
ATOM     49  H   UNL A   1      40.869  29.476  31.720  1.00  0.00     0.167 HD
ATOM     50  C   UNL A   1      39.037  31.759  34.923  1.00  0.00     0.037 A 
ATOM     51  C   UNL A   1      40.898  28.347  29.146  1.00  0.00     0.037 A 
ATOM     52  C   UNL A   1      38.268  32.085  33.747  1.00  0.00     0.049 A 
ATOM     53  C   UNL A   1      39.699  29.260  29.170  1.00  0.00     0.074 A 
ATOM     54  C   UNL A   1      37.250  33.016  33.615  1.00  0.00     0.029 A 
ATOM     55  N   UNL A   1      38.416  31.482  32.508  1.00  0.00    -0.354 N 
ATOM     56  N   UNL A   1      39.258  30.019  30.141  1.00  0.00    -0.248 NA
ATOM     57  C   UNL A   1      38.894  29.333  27.942  1.00  0.00     0.031 C 
ATOM     58  C   UNL A   1      36.735  32.925  32.318  1.00  0.00     0.029 A 
ATOM     59  C   UNL A   1      37.474  31.985  31.621  1.00  0.00     0.049 A 
ATOM     60  H   UNL A   1      39.089  30.799  32.288  1.00  0.00     0.167 HD
ATOM     61  C   UNL A   1      38.148  30.681  29.633  1.00  0.00     0.074 A 
ATOM     62  C   UNL A   1      37.995  30.252  28.260  1.00  0.00     0.031 C 
ATOM     63  C   UNL A   1      37.326  31.562  30.254  1.00  0.00     0.037 A 
BRANCH  50  64
ATOM     64  C   UNL A   1      38.646  32.441  36.203  1.00  0.00     0.064 A 
ATOM     65  C   UNL A   1      37.917  31.780  37.201  1.00  0.00     0.173 A 
ATOM     66  C   UNL A   1      39.112  33.737  36.480  1.00  0.00     0.173 A 
ATOM     67  F   UNL A   1      37.449  30.541  36.987  1.00  0.00    -0.203 F 
ATOM     68  C   UNL A   1      37.661  32.394  38.425  1.00  0.00     0.198 A 
ATOM     69  C   UNL A   1      38.878  34.336  37.714  1.00  0.00     0.198 A 
ATOM     70  F   UNL A   1      39.827  34.408  35.564  1.00  0.00    -0.203 F 
ATOM     71  F   UNL A   1      36.945  31.751  39.359  1.00  0.00    -0.200 F 
ATOM     72  C   UNL A   1      38.151  33.666  38.685  1.00  0.00     0.200 A 
ATOM     73  F   UNL A   1      39.371  35.556  37.969  1.00  0.00    -0.200 F 
ATOM     74  F   UNL A   1      37.926  34.244  39.873  1.00  0.00    -0.200 F 
ENDBRANCH  50  64
BRANCH  51  75
ATOM     75  C   UNL A   1      41.206  27.548  27.926  1.00  0.00     0.064 A 
ATOM     76  C   UNL A   1      40.825  26.203  27.819  1.00  0.00     0.173 A 
ATOM     77  C   UNL A   1      41.941  28.099  26.865  1.00  0.00     0.173 A 
ATOM     78  F   UNL A   1      40.136  25.623  28.812  1.00  0.00    -0.203 F 
ATOM     79  C   UNL A   1      41.200  25.433  26.719  1.00  0.00     0.198 A 
ATOM     80  C   UNL A   1      42.282  27.339  25.749  1.00  0.00     0.198 A 
ATOM     81  F   UNL A   1      42.318  29.384  26.906  1.00  0.00    -0.203 F 
ATOM     82  F   UNL A   1      40.879  24.133  26.675  1.00  0.00    -0.200 F 
ATOM     83  C   UNL A   1      41.926  26.002  25.685  1.00  0.00     0.200 A 
ATOM     84  F   UNL A   1      42.955  27.903  24.736  1.00  0.00    -0.200 F 
ATOM     85  F   UNL A   1      42.286  25.261  24.628  1.00  0.00    -0.200 F 
ENDBRANCH  51  75
BRANCH  63  86
ATOM     86  C   UNL A   1      36.201  32.147  29.447  1.00  0.00     0.064 A 
ATOM     87  C   UNL A   1      35.118  31.365  29.020  1.00  0.00     0.173 A 
ATOM     88  C   UNL A   1      36.187  33.515  29.129  1.00  0.00     0.173 A 
ATOM     89  F   UNL A   1      35.091  30.049  29.280  1.00  0.00    -0.203 F 
ATOM     90  C   UNL A   1      34.076  31.925  28.283  1.00  0.00     0.198 A 
ATOM     91  C   UNL A   1      35.128  34.077  28.422  1.00  0.00     0.198 A 
ATOM     92  F   UNL A   1      37.197  34.309  29.516  1.00  0.00    -0.203 F 
ATOM     93  F   UNL A   1      33.079  31.146  27.840  1.00  0.00    -0.200 F 
ATOM     94  C   UNL A   1      34.077  33.280  27.993  1.00  0.00     0.200 A 
ATOM     95  F   UNL A   1      35.124  35.390  28.157  1.00  0.00    -0.200 F 
ATOM     96  F   UNL A   1      33.070  33.818  27.293  1.00  0.00    -0.200 F 
ENDBRANCH  63  86
ENDBRANCH  37  38
ENDBRANCH  30  32
ENDBRANCH  29  30
ENDBRANCH  28  29
ENDBRANCH  27  28
ENDBRANCH  26  27
ENDBRANCH  25  26
ENDBRANCH   1  25
TORSDOF 19
ENDMDL
MODEL 2
REMARK VINA RESULT:     -10.6      7.244     12.684
REMARK SMILES O=C(OCCOCCOCCOC(=O)c1ccc(-c2c3nc(c(-c4c(F)c(F)c(F)c(F)c4F)c4ccc([nH]4)c(-c4c(F)c(F)c(F)c(F)c4F)c4nc(c(-c5c(F)c(F)c(F)c(F)c5F)c5ccc2[nH]5)C=C4)C=C3)cc1)c1ccc(NC(=O)[C@H]2CCS(=O)(=O)C2)cc1
REMARK SMILES IDX 7 1 6 2 5 3 4 4 3 5 2 6 1 7 78 8 79 9 93 10 80 11 92 12
REMARK SMILES IDX 81 13 82 14 83 15 84 17 85 18 86 19 91 20 87 21 88 22 89 23
REMARK SMILES IDX 90 24 8 25 9 26 10 27 11 28 12 29 13 30 14 31 15 32 16 33
REMARK SMILES IDX 77 34 17 35 76 36 18 37 19 38 20 39 70 40 21 41 75 42 69 43
REMARK SMILES IDX 71 44 22 45 74 46 68 47 67 48 23 50 55 51 35 52 54 53 36 54
REMARK SMILES IDX 39 55 53 56 72 57 37 58 38 59 52 61 73 62 40 63 24 64 25 65
REMARK SMILES IDX 33 66 26 67 27 68 31 69 34 70 28 71 29 72 32 73 30 74 56 75
REMARK SMILES IDX 57 76 65 77 58 78 59 79 63 80 66 81 60 82 61 83 64 84 62 85
REMARK SMILES IDX 41 86 42 87 50 88 43 89 44 90 48 91 51 92 45 93 46 94 49 95
REMARK SMILES IDX 47 96
REMARK H PARENT 82 16 71 49 39 60
REMARK Flexibility Score: inf
ROOT
ATOM      1  C   UNL A   1      33.284  35.091  29.448  1.00  0.00     0.188 C 
ENDROOT
BRANCH   1   2
ATOM      2  O   UNL A   1      34.157  35.065  28.321  1.00  0.00    -0.376 OA
BRANCH   2   3
ATOM      3  C   UNL A   1      34.724  33.800  27.982  1.00  0.00     0.202 C 
BRANCH   3   4
ATOM      4  C   UNL A   1      33.816  32.551  27.970  1.00  0.00     0.261 C 
BRANCH   4   5
ATOM      5  O   UNL A   1      34.346  31.364  28.604  1.00  0.00    -0.460 OA
BRANCH   5   6
ATOM      6  C   UNL A   1      34.630  30.165  28.032  1.00  0.00     0.338 C 
ATOM      7  O   UNL A   1      35.620  29.526  28.373  1.00  0.00    -0.246 OA
BRANCH   6   8
ATOM      8  C   UNL A   1      33.793  29.643  26.923  1.00  0.00     0.060 A 
ATOM      9  C   UNL A   1      34.385  29.119  25.792  1.00  0.00     0.018 A 
ATOM     10  C   UNL A   1      32.415  29.471  27.055  1.00  0.00     0.018 A 
ATOM     11  C   UNL A   1      33.650  28.589  24.748  1.00  0.00     0.027 A 
ATOM     12  C   UNL A   1      31.664  28.944  25.981  1.00  0.00     0.027 A 
ATOM     13  C   UNL A   1      32.286  28.559  24.779  1.00  0.00     0.041 A 
BRANCH  13  14
ATOM     14  N   UNL A   1      31.529  28.087  23.707  1.00  0.00    -0.326 N 
ATOM     15  C   UNL A   1      30.596  28.561  22.849  1.00  0.00     0.228 C 
ATOM     16  H   UNL A   1      31.731  27.141  23.523  1.00  0.00     0.169 HD
ATOM     17  O   UNL A   1      30.274  27.706  22.001  1.00  0.00    -0.274 OA
BRANCH  15  18
ATOM     18  C   UNL A   1      29.922  29.950  22.703  1.00  0.00     0.095 C 
ATOM     19  C   UNL A   1      28.768  29.760  21.671  1.00  0.00     0.030 C 
ATOM     20  C   UNL A   1      29.241  30.755  23.803  1.00  0.00     0.150 C 
ATOM     21  C   UNL A   1      28.082  31.096  21.442  1.00  0.00     0.138 C 
ATOM     22  S   UNL A   1      28.190  31.947  22.990  1.00  0.00     0.151 S 
ATOM     23  O   UNL A   1      28.962  33.163  22.789  1.00  0.00    -0.229 OA
ATOM     24  O   UNL A   1      26.905  31.951  23.643  1.00  0.00    -0.229 OA
ENDBRANCH  15  18
ENDBRANCH  13  14
ENDBRANCH   6   8
ENDBRANCH   5   6
ENDBRANCH   4   5
ENDBRANCH   3   4
ENDBRANCH   2   3
ENDBRANCH   1   2
BRANCH   1  25
ATOM     25  C   UNL A   1      33.133  36.497  30.031  1.00  0.00     0.188 C 
BRANCH  25  26
ATOM     26  O   UNL A   1      33.433  36.641  31.414  1.00  0.00    -0.376 OA
BRANCH  26  27
ATOM     27  C   UNL A   1      33.553  35.443  32.175  1.00  0.00     0.202 C 
BRANCH  27  28
ATOM     28  C   UNL A   1      34.961  35.013  32.625  1.00  0.00     0.261 C 
BRANCH  28  29
ATOM     29  O   UNL A   1      35.710  34.199  31.698  1.00  0.00    -0.460 OA
BRANCH  29  30
ATOM     30  C   UNL A   1      35.448  32.870  31.765  1.00  0.00     0.338 C 
ATOM     31  O   UNL A   1      34.438  32.332  32.188  1.00  0.00    -0.246 OA
BRANCH  30  32
ATOM     32  C   UNL A   1      36.588  32.070  31.275  1.00  0.00     0.060 A 
ATOM     33  C   UNL A   1      37.351  31.299  32.157  1.00  0.00     0.016 A 
ATOM     34  C   UNL A   1      37.022  32.266  29.960  1.00  0.00     0.016 A 
ATOM     35  C   UNL A   1      38.566  30.740  31.728  1.00  0.00     0.010 A 
ATOM     36  C   UNL A   1      38.225  31.692  29.532  1.00  0.00     0.010 A 
ATOM     37  C   UNL A   1      39.023  30.942  30.415  1.00  0.00    -0.014 A 
BRANCH  37  38
ATOM     38  C   UNL A   1      40.330  30.398  29.944  1.00  0.00     0.031 A 
ATOM     39  C   UNL A   1      41.516  31.306  29.748  1.00  0.00     0.074 A 
ATOM     40  C   UNL A   1      40.445  29.094  29.626  1.00  0.00     0.049 A 
ATOM     41  N   UNL A   1      42.674  31.046  29.191  1.00  0.00    -0.248 NA
ATOM     42  C   UNL A   1      41.386  32.682  30.247  1.00  0.00     0.031 C 
ATOM     43  C   UNL A   1      39.401  28.093  29.811  1.00  0.00     0.029 A 
ATOM     44  N   UNL A   1      41.480  28.394  29.050  1.00  0.00    -0.354 N 
ATOM     45  C   UNL A   1      43.404  32.226  29.259  1.00  0.00     0.074 A 
ATOM     46  C   UNL A   1      42.554  33.208  29.900  1.00  0.00     0.031 C 
ATOM     47  C   UNL A   1      39.831  26.918  29.326  1.00  0.00     0.029 A 
ATOM     48  C   UNL A   1      41.157  27.093  28.744  1.00  0.00     0.049 A 
ATOM     49  H   UNL A   1      42.366  28.786  28.874  1.00  0.00     0.167 HD
ATOM     50  C   UNL A   1      44.668  32.464  28.828  1.00  0.00     0.037 A 
ATOM     51  C   UNL A   1      41.822  26.159  28.036  1.00  0.00     0.037 A 
ATOM     52  C   UNL A   1      45.522  31.483  28.204  1.00  0.00     0.049 A 
ATOM     53  C   UNL A   1      43.184  26.484  27.478  1.00  0.00     0.074 A 
ATOM     54  C   UNL A   1      46.837  31.624  27.792  1.00  0.00     0.029 A 
ATOM     55  N   UNL A   1      45.144  30.188  27.885  1.00  0.00    -0.354 N 
ATOM     56  N   UNL A   1      43.884  27.585  27.596  1.00  0.00    -0.248 NA
ATOM     57  C   UNL A   1      43.848  25.436  26.688  1.00  0.00     0.031 C 
ATOM     58  C   UNL A   1      47.231  30.441  27.159  1.00  0.00     0.029 A 
ATOM     59  C   UNL A   1      46.184  29.538  27.235  1.00  0.00     0.049 A 
ATOM     60  H   UNL A   1      44.268  29.788  28.089  1.00  0.00     0.167 HD
ATOM     61  C   UNL A   1      45.077  27.351  26.925  1.00  0.00     0.074 A 
ATOM     62  C   UNL A   1      45.018  25.996  26.422  1.00  0.00     0.031 C 
ATOM     63  C   UNL A   1      46.126  28.188  26.740  1.00  0.00     0.037 A 
BRANCH  50  64
ATOM     64  C   UNL A   1      45.224  33.850  28.984  1.00  0.00     0.064 A 
ATOM     65  C   UNL A   1      45.966  34.228  30.112  1.00  0.00     0.173 A 
ATOM     66  C   UNL A   1      45.112  34.776  27.933  1.00  0.00     0.173 A 
ATOM     67  F   UNL A   1      46.104  33.381  31.144  1.00  0.00    -0.203 F 
ATOM     68  C   UNL A   1      46.566  35.483  30.187  1.00  0.00     0.198 A 
ATOM     69  C   UNL A   1      45.735  36.018  28.000  1.00  0.00     0.198 A 
ATOM     70  F   UNL A   1      44.426  34.459  26.825  1.00  0.00    -0.203 F 
ATOM     71  F   UNL A   1      47.254  35.831  31.284  1.00  0.00    -0.200 F 
ATOM     72  C   UNL A   1      46.460  36.372  29.127  1.00  0.00     0.200 A 
ATOM     73  F   UNL A   1      45.649  36.866  26.965  1.00  0.00    -0.200 F 
ATOM     74  F   UNL A   1      47.060  37.568  29.190  1.00  0.00    -0.200 F 
ENDBRANCH  50  64
BRANCH  51  75
ATOM     75  C   UNL A   1      41.196  24.836  27.756  1.00  0.00     0.064 A 
ATOM     76  C   UNL A   1      41.686  23.659  28.339  1.00  0.00     0.173 A 
ATOM     77  C   UNL A   1      40.130  24.716  26.852  1.00  0.00     0.173 A 
ATOM     78  F   UNL A   1      42.715  23.715  29.197  1.00  0.00    -0.203 F 
ATOM     79  C   UNL A   1      41.161  22.413  27.998  1.00  0.00     0.198 A 
ATOM     80  C   UNL A   1      39.580  23.474  26.541  1.00  0.00     0.198 A 
ATOM     81  F   UNL A   1      39.611  25.809  26.277  1.00  0.00    -0.203 F 
ATOM     82  F   UNL A   1      41.693  21.300  28.521  1.00  0.00    -0.200 F 
ATOM     83  C   UNL A   1      40.108  22.322  27.102  1.00  0.00     0.200 A 
ATOM     84  F   UNL A   1      38.540  23.395  25.700  1.00  0.00    -0.200 F 
ATOM     85  F   UNL A   1      39.603  21.125  26.775  1.00  0.00    -0.200 F 
ENDBRANCH  51  75
BRANCH  63  86
ATOM     86  C   UNL A   1      47.312  27.657  25.984  1.00  0.00     0.064 A 
ATOM     87  C   UNL A   1      47.378  27.714  24.584  1.00  0.00     0.173 A 
ATOM     88  C   UNL A   1      48.413  27.119  26.671  1.00  0.00     0.173 A 
ATOM     89  F   UNL A   1      46.346  28.201  23.879  1.00  0.00    -0.203 F 
ATOM     90  C   UNL A   1      48.490  27.229  23.899  1.00  0.00     0.198 A 
ATOM     91  C   UNL A   1      49.536  26.667  25.984  1.00  0.00     0.198 A 
ATOM     92  F   UNL A   1      48.404  27.044  28.011  1.00  0.00    -0.203 F 
ATOM     93  F   UNL A   1      48.507  27.245  22.558  1.00  0.00    -0.200 F 
ATOM     94  C   UNL A   1      49.570  26.715  24.599  1.00  0.00     0.200 A 
ATOM     95  F   UNL A   1      50.586  26.185  26.664  1.00  0.00    -0.200 F 
ATOM     96  F   UNL A   1      50.643  26.258  23.938  1.00  0.00    -0.200 F 
ENDBRANCH  63  86
ENDBRANCH  37  38
ENDBRANCH  30  32
ENDBRANCH  29  30
ENDBRANCH  28  29
ENDBRANCH  27  28
ENDBRANCH  26  27
ENDBRANCH  25  26
ENDBRANCH   1  25
TORSDOF 19
ENDMDL
MODEL 3
REMARK VINA RESULT:     -10.2      5.096      9.790
REMARK SMILES O=C(OCCOCCOCCOC(=O)c1ccc(-c2c3nc(c(-c4c(F)c(F)c(F)c(F)c4F)c4ccc([nH]4)c(-c4c(F)c(F)c(F)c(F)c4F)c4nc(c(-c5c(F)c(F)c(F)c(F)c5F)c5ccc2[nH]5)C=C4)C=C3)cc1)c1ccc(NC(=O)[C@H]2CCS(=O)(=O)C2)cc1
REMARK SMILES IDX 7 1 6 2 5 3 4 4 3 5 2 6 1 7 78 8 79 9 93 10 80 11 92 12
REMARK SMILES IDX 81 13 82 14 83 15 84 17 85 18 86 19 91 20 87 21 88 22 89 23
REMARK SMILES IDX 90 24 8 25 9 26 10 27 11 28 12 29 13 30 14 31 15 32 16 33
REMARK SMILES IDX 77 34 17 35 76 36 18 37 19 38 20 39 70 40 21 41 75 42 69 43
REMARK SMILES IDX 71 44 22 45 74 46 68 47 67 48 23 50 55 51 35 52 54 53 36 54
REMARK SMILES IDX 39 55 53 56 72 57 37 58 38 59 52 61 73 62 40 63 24 64 25 65
REMARK SMILES IDX 33 66 26 67 27 68 31 69 34 70 28 71 29 72 32 73 30 74 56 75
REMARK SMILES IDX 57 76 65 77 58 78 59 79 63 80 66 81 60 82 61 83 64 84 62 85
REMARK SMILES IDX 41 86 42 87 50 88 43 89 44 90 48 91 51 92 45 93 46 94 49 95
REMARK SMILES IDX 47 96
REMARK H PARENT 82 16 71 49 39 60
REMARK Flexibility Score: inf
ROOT
ATOM      1  C   UNL A   1      41.418  19.111  25.791  1.00  0.00     0.188 C 
ENDROOT
BRANCH   1   2
ATOM      2  O   UNL A   1      40.656  20.007  26.597  1.00  0.00    -0.376 OA
BRANCH   2   3
ATOM      3  C   UNL A   1      40.513  21.340  26.108  1.00  0.00     0.202 C 
BRANCH   3   4
ATOM      4  C   UNL A   1      39.369  22.220  26.657  1.00  0.00     0.261 C 
BRANCH   4   5
ATOM      5  O   UNL A   1      38.300  22.536  25.734  1.00  0.00    -0.460 OA
BRANCH   5   6
ATOM      6  C   UNL A   1      37.200  21.795  25.441  1.00  0.00     0.338 C 
ATOM      7  O   UNL A   1      37.302  20.727  24.848  1.00  0.00    -0.246 OA
BRANCH   6   8
ATOM      8  C   UNL A   1      35.844  22.306  25.759  1.00  0.00     0.060 A 
ATOM      9  C   UNL A   1      34.881  21.456  26.264  1.00  0.00     0.018 A 
ATOM     10  C   UNL A   1      35.548  23.669  25.760  1.00  0.00     0.018 A 
ATOM     11  C   UNL A   1      33.615  21.890  26.608  1.00  0.00     0.027 A 
ATOM     12  C   UNL A   1      34.249  24.109  26.098  1.00  0.00     0.027 A 
ATOM     13  C   UNL A   1      33.244  23.195  26.463  1.00  0.00     0.041 A 
BRANCH  13  14
ATOM     14  N   UNL A   1      31.951  23.636  26.746  1.00  0.00    -0.326 N 
ATOM     15  C   UNL A   1      31.086  24.573  26.291  1.00  0.00     0.228 C 
ATOM     16  H   UNL A   1      31.557  23.120  27.486  1.00  0.00     0.169 HD
ATOM     17  O   UNL A   1      29.987  24.506  26.875  1.00  0.00    -0.274 OA
BRANCH  15  18
ATOM     18  C   UNL A   1      31.197  25.639  25.171  1.00  0.00     0.095 C 
ATOM     19  C   UNL A   1      29.735  26.071  24.844  1.00  0.00     0.030 C 
ATOM     20  C   UNL A   1      31.917  26.981  25.254  1.00  0.00     0.150 C 
ATOM     21  C   UNL A   1      29.757  27.092  23.719  1.00  0.00     0.138 C 
ATOM     22  S   UNL A   1      31.263  27.997  23.941  1.00  0.00     0.151 S 
ATOM     23  O   UNL A   1      32.092  27.797  22.764  1.00  0.00    -0.229 OA
ATOM     24  O   UNL A   1      30.977  29.307  24.469  1.00  0.00    -0.229 OA
ENDBRANCH  15  18
ENDBRANCH  13  14
ENDBRANCH   6   8
ENDBRANCH   5   6
ENDBRANCH   4   5
ENDBRANCH   3   4
ENDBRANCH   2   3
ENDBRANCH   1   2
BRANCH   1  25
ATOM     25  C   UNL A   1      42.675  18.615  26.508  1.00  0.00     0.188 C 
BRANCH  25  26
ATOM     26  O   UNL A   1      43.917  18.916  25.881  1.00  0.00    -0.376 OA
BRANCH  26  27
ATOM     27  C   UNL A   1      43.921  19.988  24.943  1.00  0.00     0.202 C 
BRANCH  27  28
ATOM     28  C   UNL A   1      44.453  21.354  25.412  1.00  0.00     0.261 C 
BRANCH  28  29
ATOM     29  O   UNL A   1      43.468  22.391  25.611  1.00  0.00    -0.460 OA
BRANCH  29  30
ATOM     30  C   UNL A   1      43.843  23.622  25.184  1.00  0.00     0.338 C 
ATOM     31  O   UNL A   1      44.572  23.893  24.243  1.00  0.00    -0.246 OA
BRANCH  30  32
ATOM     32  C   UNL A   1      43.278  24.686  26.039  1.00  0.00     0.060 A 
ATOM     33  C   UNL A   1      43.699  26.012  25.902  1.00  0.00     0.016 A 
ATOM     34  C   UNL A   1      42.480  24.312  27.124  1.00  0.00     0.016 A 
ATOM     35  C   UNL A   1      43.339  26.964  26.869  1.00  0.00     0.010 A 
ATOM     36  C   UNL A   1      42.110  25.269  28.077  1.00  0.00     0.010 A 
ATOM     37  C   UNL A   1      42.553  26.600  27.975  1.00  0.00    -0.014 A 
BRANCH  37  38
ATOM     38  C   UNL A   1      42.192  27.580  29.040  1.00  0.00     0.031 A 
ATOM     39  C   UNL A   1      42.972  27.638  30.327  1.00  0.00     0.074 A 
ATOM     40  C   UNL A   1      41.120  28.381  28.889  1.00  0.00     0.049 A 
ATOM     41  N   UNL A   1      42.706  28.301  31.427  1.00  0.00    -0.248 NA
ATOM     42  C   UNL A   1      44.215  26.855  30.386  1.00  0.00     0.031 C 
ATOM     43  C   UNL A   1      40.305  28.469  27.682  1.00  0.00     0.029 A 
ATOM     44  N   UNL A   1      40.512  29.250  29.765  1.00  0.00    -0.354 N 
ATOM     45  C   UNL A   1      43.737  28.005  32.311  1.00  0.00     0.074 A 
ATOM     46  C   UNL A   1      44.627  27.092  31.625  1.00  0.00     0.031 C 
ATOM     47  C   UNL A   1      39.285  29.312  27.903  1.00  0.00     0.029 A 
ATOM     48  C   UNL A   1      39.340  29.782  29.283  1.00  0.00     0.049 A 
ATOM     49  H   UNL A   1      40.881  29.471  30.651  1.00  0.00     0.167 HD
ATOM     50  C   UNL A   1      43.921  28.458  33.576  1.00  0.00     0.037 A 
ATOM     51  C   UNL A   1      38.388  30.520  29.888  1.00  0.00     0.037 A 
ATOM     52  C   UNL A   1      43.043  29.379  34.255  1.00  0.00     0.049 A 
ATOM     53  C   UNL A   1      38.568  30.922  31.329  1.00  0.00     0.074 A 
ATOM     54  C   UNL A   1      43.189  29.936  35.516  1.00  0.00     0.029 A 
ATOM     55  N   UNL A   1      41.852  29.867  33.743  1.00  0.00    -0.354 N 
ATOM     56  N   UNL A   1      39.572  30.681  32.135  1.00  0.00    -0.248 NA
ATOM     57  C   UNL A   1      37.482  31.701  31.944  1.00  0.00     0.031 C 
ATOM     58  C   UNL A   1      42.052  30.700  35.795  1.00  0.00     0.029 A 
ATOM     59  C   UNL A   1      41.228  30.675  34.683  1.00  0.00     0.049 A 
ATOM     60  H   UNL A   1      41.499  29.669  32.845  1.00  0.00     0.167 HD
ATOM     61  C   UNL A   1      39.254  31.301  33.336  1.00  0.00     0.074 A 
ATOM     62  C   UNL A   1      37.975  31.951  33.148  1.00  0.00     0.031 C 
ATOM     63  C   UNL A   1      39.959  31.326  34.492  1.00  0.00     0.037 A 
BRANCH  50  64
ATOM     64  C   UNL A   1      45.108  27.954  34.346  1.00  0.00     0.064 A 
ATOM     65  C   UNL A   1      46.306  28.677  34.418  1.00  0.00     0.173 A 
ATOM     66  C   UNL A   1      45.000  26.785  35.119  1.00  0.00     0.173 A 
ATOM     67  F   UNL A   1      46.461  29.800  33.700  1.00  0.00    -0.203 F 
ATOM     68  C   UNL A   1      47.355  28.246  35.227  1.00  0.00     0.198 A 
ATOM     69  C   UNL A   1      46.040  26.373  35.947  1.00  0.00     0.198 A 
ATOM     70  F   UNL A   1      43.869  26.063  35.098  1.00  0.00    -0.203 F 
ATOM     71  F   UNL A   1      48.500  28.943  35.266  1.00  0.00    -0.200 F 
ATOM     72  C   UNL A   1      47.217  27.101  35.999  1.00  0.00     0.200 A 
ATOM     73  F   UNL A   1      45.895  25.278  36.708  1.00  0.00    -0.200 F 
ATOM     74  F   UNL A   1      48.218  26.704  36.797  1.00  0.00    -0.200 F 
ENDBRANCH  50  64
BRANCH  51  75
ATOM     75  C   UNL A   1      37.140  30.887  29.159  1.00  0.00     0.064 A 
ATOM     76  C   UNL A   1      36.151  29.934  28.879  1.00  0.00     0.173 A 
ATOM     77  C   UNL A   1      36.940  32.189  28.676  1.00  0.00     0.173 A 
ATOM     78  F   UNL A   1      36.301  28.671  29.303  1.00  0.00    -0.203 F 
ATOM     79  C   UNL A   1      35.033  30.259  28.113  1.00  0.00     0.198 A 
ATOM     80  C   UNL A   1      35.803  32.523  27.943  1.00  0.00     0.198 A 
ATOM     81  F   UNL A   1      37.845  33.145  28.927  1.00  0.00    -0.203 F 
ATOM     82  F   UNL A   1      34.137  29.311  27.805  1.00  0.00    -0.200 F 
ATOM     83  C   UNL A   1      34.859  31.553  27.647  1.00  0.00     0.200 A 
ATOM     84  F   UNL A   1      35.623  33.783  27.525  1.00  0.00    -0.200 F 
ATOM     85  F   UNL A   1      33.784  31.865  26.912  1.00  0.00    -0.200 F 
ENDBRANCH  51  75
BRANCH  63  86
ATOM     86  C   UNL A   1      39.379  32.103  35.641  1.00  0.00     0.064 A 
ATOM     87  C   UNL A   1      38.542  31.498  36.591  1.00  0.00     0.173 A 
ATOM     88  C   UNL A   1      39.696  33.459  35.817  1.00  0.00     0.173 A 
ATOM     89  F   UNL A   1      38.193  30.209  36.459  1.00  0.00    -0.203 F 
ATOM     90  C   UNL A   1      38.022  32.229  37.657  1.00  0.00     0.198 A 
ATOM     91  C   UNL A   1      39.202  34.177  36.902  1.00  0.00     0.198 A 
ATOM     92  F   UNL A   1      40.495  34.086  34.940  1.00  0.00    -0.203 F 
ATOM     93  F   UNL A   1      37.182  31.642  38.521  1.00  0.00    -0.200 F 
ATOM     94  C   UNL A   1      38.360  33.563  37.817  1.00  0.00     0.200 A 
ATOM     95  F   UNL A   1      39.542  35.463  37.064  1.00  0.00    -0.200 F 
ATOM     96  F   UNL A   1      37.867  34.261  38.849  1.00  0.00    -0.200 F 
ENDBRANCH  63  86
ENDBRANCH  37  38
ENDBRANCH  30  32
ENDBRANCH  29  30
ENDBRANCH  28  29
ENDBRANCH  27  28
ENDBRANCH  26  27
ENDBRANCH  25  26
ENDBRANCH   1  25
TORSDOF 19
ENDMDL
