MODEL 1
REMARK VINA RESULT:     -10.9      0.000      0.000
REMARK SMILES O=C(CSc1nnc(-c2ccncc2)s1)Nc1cccc(C(=O)OCCOCCOCCOC(=O)c2ccc(-c3c4nc(c(-c5c(F)c(F)c(F)c(F)c5F)c5ccc([nH]5)c(-c5c(F)c(F)c(F)c(F)c5F)c5nc(c(-c6c(F)c(F)c(F)c(F)c6F)c6ccc3[nH]6)C=C5)C=C4)cc2)c1
REMARK SMILES IDX 27 1 26 2 25 3 24 4 22 5 23 6 21 7 17 8 18 9 99 10 19 11
REMARK SMILES IDX 20 12 16 13 1 14 2 15 3 17 4 18 5 19 6 20 15 21 7 22 8 23
REMARK SMILES IDX 9 24 10 25 14 26 11 27 13 28 12 29 28 30 29 31 30 32 31 33
REMARK SMILES IDX 32 34 33 35 34 36 35 37 36 38 37 39 98 40 38 41 97 42 39 43
REMARK SMILES IDX 40 44 41 45 91 46 42 47 96 48 90 49 92 50 43 51 95 52 89 53
REMARK SMILES IDX 88 54 44 56 76 57 56 58 75 59 57 60 60 61 74 62 93 63 58 64
REMARK SMILES IDX 59 65 73 67 94 68 61 69 45 70 46 71 54 72 47 73 48 74 52 75
REMARK SMILES IDX 55 76 49 77 50 78 53 79 51 80 77 81 78 82 86 83 79 84 80 85
REMARK SMILES IDX 84 86 87 87 81 88 82 89 85 90 83 91 62 92 63 93 71 94 64 95
REMARK SMILES IDX 65 96 69 97 72 98 66 99 67 100 70 101 68 102
REMARK H PARENT 16 16 92 55 60 66
REMARK Flexibility Score: inf
ROOT
ATOM      1  O   UNL A   1      43.778  18.091  25.762  1.00  0.00    -0.376 OA
ENDROOT
BRANCH   1   2
ATOM      2  C   UNL A   1      42.623  18.249  26.572  1.00  0.00     0.202 C 
BRANCH   2   3
ATOM      3  C   UNL A   1      42.290  19.545  27.328  1.00  0.00     0.261 C 
BRANCH   3   4
ATOM      4  O   UNL A   1      41.082  20.202  26.937  1.00  0.00    -0.460 OA
BRANCH   4   5
ATOM      5  C   UNL A   1      41.235  21.331  26.197  1.00  0.00     0.338 C 
ATOM      6  O   UNL A   1      42.153  21.604  25.445  1.00  0.00    -0.246 OA
BRANCH   5   7
ATOM      7  C   UNL A   1      39.980  22.110  26.261  1.00  0.00     0.062 A 
ATOM      8  C   UNL A   1      37.672  22.446  25.620  1.00  0.00     0.042 A 
ATOM      9  C   UNL A   1      37.694  23.692  26.264  1.00  0.00     0.026 A 
ATOM     10  C   UNL A   1      38.833  21.674  25.592  1.00  0.00     0.041 A 
ATOM     11  C   UNL A   1      38.842  24.129  26.931  1.00  0.00     0.003 A 
ATOM     12  C   UNL A   1      39.981  23.328  26.948  1.00  0.00     0.016 A 
BRANCH   8  13
ATOM     13  N   UNL A   1      36.445  22.016  25.078  1.00  0.00    -0.325 N 
ATOM     14  O   UNL A   1      34.971  22.573  26.796  1.00  0.00    -0.274 OA
ATOM     15  C   UNL A   1      35.193  22.171  25.656  1.00  0.00     0.234 C 
ATOM     16  H   UNL A   1      36.479  21.561  24.205  1.00  0.00     0.169 HD
BRANCH  15  17
ATOM     17  C   UNL A   1      34.031  21.800  24.752  1.00  0.00     0.177 C 
BRANCH  17  18
ATOM     18  S   UNL A   1      32.422  21.879  25.585  1.00  0.00    -0.084 SA
BRANCH  18  19
ATOM     19  C   UNL A   1      31.702  23.345  24.948  1.00  0.00     0.175 A 
ATOM     20  N   UNL A   1      31.034  23.320  23.816  1.00  0.00    -0.131 NA
ATOM     21  S   UNL A   1      31.916  24.918  25.589  1.00  0.00    -0.086 S 
ATOM     22  N   UNL A   1      30.645  24.584  23.408  1.00  0.00    -0.137 NA
ATOM     23  C   UNL A   1      31.076  25.529  24.220  1.00  0.00     0.148 A 
BRANCH  23  24
ATOM     24  C   UNL A   1      30.856  26.965  24.036  1.00  0.00     0.015 A 
ATOM     25  C   UNL A   1      30.191  27.477  22.916  1.00  0.00     0.031 A 
ATOM     26  C   UNL A   1      31.291  27.861  25.017  1.00  0.00     0.031 A 
ATOM     27  C   UNL A   1      30.005  28.846  22.823  1.00  0.00     0.111 A 
ATOM     28  C   UNL A   1      31.064  29.214  24.829  1.00  0.00     0.111 A 
ATOM     29  N   UNL A   1      30.432  29.725  23.753  1.00  0.00    -0.265 NA
ENDBRANCH  23  24
ENDBRANCH  18  19
ENDBRANCH  17  18
ENDBRANCH  15  17
ENDBRANCH   8  13
ENDBRANCH   5   7
ENDBRANCH   4   5
ENDBRANCH   3   4
ENDBRANCH   2   3
ENDBRANCH   1   2
BRANCH   1  30
ATOM     30  C   UNL A   1      44.254  19.157  24.970  1.00  0.00     0.188 C 
BRANCH  30  31
ATOM     31  C   UNL A   1      45.730  19.600  25.049  1.00  0.00     0.188 C 
BRANCH  31  32
ATOM     32  O   UNL A   1      46.041  20.925  25.402  1.00  0.00    -0.376 OA
BRANCH  32  33
ATOM     33  C   UNL A   1      45.595  22.007  24.604  1.00  0.00     0.202 C 
BRANCH  33  34
ATOM     34  C   UNL A   1      45.956  23.489  24.826  1.00  0.00     0.261 C 
BRANCH  34  35
ATOM     35  O   UNL A   1      44.897  24.396  25.147  1.00  0.00    -0.460 OA
BRANCH  35  36
ATOM     36  C   UNL A   1      45.260  25.697  25.277  1.00  0.00     0.338 C 
ATOM     37  O   UNL A   1      46.001  26.339  24.560  1.00  0.00    -0.246 OA
BRANCH  36  38
ATOM     38  C   UNL A   1      44.467  26.302  26.364  1.00  0.00     0.060 A 
ATOM     39  C   UNL A   1      44.571  27.681  26.594  1.00  0.00     0.016 A 
ATOM     40  C   UNL A   1      43.647  25.509  27.164  1.00  0.00     0.016 A 
ATOM     41  C   UNL A   1      43.846  28.275  27.627  1.00  0.00     0.010 A 
ATOM     42  C   UNL A   1      42.942  26.100  28.216  1.00  0.00     0.010 A 
ATOM     43  C   UNL A   1      43.049  27.481  28.463  1.00  0.00    -0.014 A 
BRANCH  43  44
ATOM     44  C   UNL A   1      42.434  28.059  29.683  1.00  0.00     0.031 A 
ATOM     45  C   UNL A   1      41.099  28.738  29.566  1.00  0.00     0.074 A 
ATOM     46  C   UNL A   1      43.058  27.998  30.872  1.00  0.00     0.049 A 
ATOM     47  N   UNL A   1      40.426  29.413  30.462  1.00  0.00    -0.248 NA
ATOM     48  C   UNL A   1      40.437  28.649  28.255  1.00  0.00     0.031 C 
ATOM     49  C   UNL A   1      44.332  27.329  31.124  1.00  0.00     0.029 A 
ATOM     50  N   UNL A   1      42.709  28.532  32.088  1.00  0.00    -0.354 N 
ATOM     51  C   UNL A   1      39.270  29.838  29.822  1.00  0.00     0.074 A 
ATOM     52  C   UNL A   1      39.343  29.368  28.455  1.00  0.00     0.031 C 
ATOM     53  C   UNL A   1      44.670  27.512  32.413  1.00  0.00     0.029 A 
ATOM     54  C   UNL A   1      43.660  28.347  33.062  1.00  0.00     0.049 A 
ATOM     55  H   UNL A   1      41.858  29.002  32.247  1.00  0.00     0.167 HD
ATOM     56  C   UNL A   1      38.239  30.556  30.329  1.00  0.00     0.037 A 
ATOM     57  C   UNL A   1      43.722  28.831  34.318  1.00  0.00     0.037 A 
ATOM     58  C   UNL A   1      38.174  31.029  31.688  1.00  0.00     0.049 A 
ATOM     59  C   UNL A   1      42.605  29.705  34.834  1.00  0.00     0.074 A 
ATOM     60  C   UNL A   1      37.162  31.745  32.304  1.00  0.00     0.029 A 
ATOM     61  N   UNL A   1      39.170  30.847  32.637  1.00  0.00    -0.354 N 
ATOM     62  N   UNL A   1      41.501  30.080  34.235  1.00  0.00    -0.248 NA
ATOM     63  C   UNL A   1      42.746  30.224  36.202  1.00  0.00     0.031 C 
ATOM     64  C   UNL A   1      37.573  32.053  33.605  1.00  0.00     0.029 A 
ATOM     65  C   UNL A   1      38.810  31.468  33.823  1.00  0.00     0.049 A 
ATOM     66  H   UNL A   1      40.007  30.351  32.490  1.00  0.00     0.167 HD
ATOM     67  C   UNL A   1      40.805  30.850  35.160  1.00  0.00     0.074 A 
ATOM     68  C   UNL A   1      41.603  30.875  36.367  1.00  0.00     0.031 C 
ATOM     69  C   UNL A   1      39.611  31.480  35.022  1.00  0.00     0.037 A 
BRANCH  56  70
ATOM     70  C   UNL A   1      37.112  30.905  29.402  1.00  0.00     0.064 A 
ATOM     71  C   UNL A   1      36.125  29.970  29.050  1.00  0.00     0.173 A 
ATOM     72  C   UNL A   1      36.998  32.204  28.883  1.00  0.00     0.173 A 
ATOM     73  F   UNL A   1      36.194  28.711  29.507  1.00  0.00    -0.203 F 
ATOM     74  C   UNL A   1      35.084  30.317  28.192  1.00  0.00     0.198 A 
ATOM     75  C   UNL A   1      35.938  32.555  28.052  1.00  0.00     0.198 A 
ATOM     76  F   UNL A   1      37.912  33.137  29.190  1.00  0.00    -0.203 F 
ATOM     77  F   UNL A   1      34.182  29.394  27.829  1.00  0.00    -0.200 F 
ATOM     78  C   UNL A   1      34.987  31.610  27.701  1.00  0.00     0.200 A 
ATOM     79  F   UNL A   1      35.837  33.810  27.591  1.00  0.00    -0.200 F 
ATOM     80  F   UNL A   1      33.980  31.944  26.883  1.00  0.00    -0.200 F 
ENDBRANCH  56  70
BRANCH  57  81
ATOM     81  C   UNL A   1      44.898  28.524  35.178  1.00  0.00     0.064 A 
ATOM     82  C   UNL A   1      45.965  29.425  35.293  1.00  0.00     0.173 A 
ATOM     83  C   UNL A   1      44.994  27.309  35.873  1.00  0.00     0.173 A 
ATOM     84  F   UNL A   1      45.935  30.587  34.624  1.00  0.00    -0.203 F 
ATOM     85  C   UNL A   1      47.092  29.115  36.052  1.00  0.00     0.198 A 
ATOM     86  C   UNL A   1      46.107  27.014  36.659  1.00  0.00     0.198 A 
ATOM     87  F   UNL A   1      44.005  26.407  35.793  1.00  0.00    -0.203 F 
ATOM     88  F   UNL A   1      48.122  29.971  36.097  1.00  0.00    -0.200 F 
ATOM     89  C   UNL A   1      47.160  27.913  36.739  1.00  0.00     0.200 A 
ATOM     90  F   UNL A   1      46.162  25.855  37.329  1.00  0.00    -0.200 F 
ATOM     91  F   UNL A   1      48.243  27.614  37.469  1.00  0.00    -0.200 F 
ENDBRANCH  57  81
BRANCH  69  92
ATOM     92  C   UNL A   1      39.069  32.215  36.218  1.00  0.00     0.064 A 
ATOM     93  C   UNL A   1      38.228  31.593  37.152  1.00  0.00     0.173 A 
ATOM     94  C   UNL A   1      39.440  33.549  36.457  1.00  0.00     0.173 A 
ATOM     95  F   UNL A   1      37.833  30.325  36.966  1.00  0.00    -0.203 F 
ATOM     96  C   UNL A   1      37.757  32.287  38.265  1.00  0.00     0.198 A 
ATOM     97  C   UNL A   1      38.995  34.227  37.589  1.00  0.00     0.198 A 
ATOM     98  F   UNL A   1      40.250  34.190  35.600  1.00  0.00    -0.203 F 
ATOM     99  F   UNL A   1      36.914  31.687  39.117  1.00  0.00    -0.200 F 
ATOM    100  C   UNL A   1      38.148  33.598  38.487  1.00  0.00     0.200 A 
ATOM    101  F   UNL A   1      39.390  35.488  37.811  1.00  0.00    -0.200 F 
ATOM    102  F   UNL A   1      37.703  34.259  39.565  1.00  0.00    -0.200 F 
ENDBRANCH  69  92
ENDBRANCH  43  44
ENDBRANCH  36  38
ENDBRANCH  35  36
ENDBRANCH  34  35
ENDBRANCH  33  34
ENDBRANCH  32  33
ENDBRANCH  31  32
ENDBRANCH  30  31
ENDBRANCH   1  30
TORSDOF 22
ENDMDL
MODEL 2
REMARK VINA RESULT:     -10.9      4.669      9.211
REMARK SMILES O=C(CSc1nnc(-c2ccncc2)s1)Nc1cccc(C(=O)OCCOCCOCCOC(=O)c2ccc(-c3c4nc(c(-c5c(F)c(F)c(F)c(F)c5F)c5ccc([nH]5)c(-c5c(F)c(F)c(F)c(F)c5F)c5nc(c(-c6c(F)c(F)c(F)c(F)c6F)c6ccc3[nH]6)C=C5)C=C4)cc2)c1
REMARK SMILES IDX 27 1 26 2 25 3 24 4 22 5 23 6 21 7 17 8 18 9 99 10 19 11
REMARK SMILES IDX 20 12 16 13 1 14 2 15 3 17 4 18 5 19 6 20 15 21 7 22 8 23
REMARK SMILES IDX 9 24 10 25 14 26 11 27 13 28 12 29 28 30 29 31 30 32 31 33
REMARK SMILES IDX 32 34 33 35 34 36 35 37 36 38 37 39 98 40 38 41 97 42 39 43
REMARK SMILES IDX 40 44 41 45 91 46 42 47 96 48 90 49 92 50 43 51 95 52 89 53
REMARK SMILES IDX 88 54 44 56 76 57 56 58 75 59 57 60 60 61 74 62 93 63 58 64
REMARK SMILES IDX 59 65 73 67 94 68 61 69 45 70 46 71 54 72 47 73 48 74 52 75
REMARK SMILES IDX 55 76 49 77 50 78 53 79 51 80 77 81 78 82 86 83 79 84 80 85
REMARK SMILES IDX 84 86 87 87 81 88 82 89 85 90 83 91 62 92 63 93 71 94 64 95
REMARK SMILES IDX 65 96 69 97 72 98 66 99 67 100 70 101 68 102
REMARK H PARENT 16 16 92 55 60 66
REMARK Flexibility Score: inf
ROOT
ATOM      1  O   UNL A   1      36.061  24.121  25.253  1.00  0.00    -0.376 OA
ENDROOT
BRANCH   1   2
ATOM      2  C   UNL A   1      34.833  23.891  24.580  1.00  0.00     0.202 C 
BRANCH   2   3
ATOM      3  C   UNL A   1      33.488  23.729  25.305  1.00  0.00     0.261 C 
BRANCH   3   4
ATOM      4  O   UNL A   1      33.233  24.656  26.364  1.00  0.00    -0.460 OA
BRANCH   4   5
ATOM      5  C   UNL A   1      31.985  25.192  26.394  1.00  0.00     0.338 C 
ATOM      6  O   UNL A   1      30.999  24.739  26.944  1.00  0.00    -0.246 OA
BRANCH   5   7
ATOM      7  C   UNL A   1      32.047  26.562  25.840  1.00  0.00     0.062 A 
ATOM      8  C   UNL A   1      32.806  28.855  25.965  1.00  0.00     0.042 A 
ATOM      9  C   UNL A   1      31.996  29.163  24.862  1.00  0.00     0.026 A 
ATOM     10  C   UNL A   1      32.799  27.556  26.472  1.00  0.00     0.041 A 
ATOM     11  C   UNL A   1      31.243  28.169  24.231  1.00  0.00     0.003 A 
ATOM     12  C   UNL A   1      31.284  26.862  24.707  1.00  0.00     0.016 A 
BRANCH   8  13
ATOM     13  N   UNL A   1      33.633  29.877  26.472  1.00  0.00    -0.325 N 
ATOM     14  O   UNL A   1      32.055  31.505  27.019  1.00  0.00    -0.274 OA
ATOM     15  C   UNL A   1      33.208  31.078  27.022  1.00  0.00     0.234 C 
ATOM     16  H   UNL A   1      34.604  29.726  26.431  1.00  0.00     0.169 HD
BRANCH  15  17
ATOM     17  C   UNL A   1      34.308  31.895  27.676  1.00  0.00     0.177 C 
BRANCH  17  18
ATOM     18  S   UNL A   1      33.765  33.552  28.181  1.00  0.00    -0.084 SA
BRANCH  18  19
ATOM     19  C   UNL A   1      34.175  33.615  29.884  1.00  0.00     0.175 A 
ATOM     20  N   UNL A   1      33.734  34.597  30.638  1.00  0.00    -0.131 NA
ATOM     21  S   UNL A   1      35.270  32.569  30.683  1.00  0.00    -0.086 S 
ATOM     22  N   UNL A   1      34.254  34.551  31.919  1.00  0.00    -0.137 NA
ATOM     23  C   UNL A   1      35.112  33.562  32.077  1.00  0.00     0.148 A 
BRANCH  23  24
ATOM     24  C   UNL A   1      35.853  33.276  33.307  1.00  0.00     0.015 A 
ATOM     25  C   UNL A   1      35.674  34.027  34.475  1.00  0.00     0.031 A 
ATOM     26  C   UNL A   1      36.748  32.202  33.340  1.00  0.00     0.031 A 
ATOM     27  C   UNL A   1      36.398  33.683  35.604  1.00  0.00     0.111 A 
ATOM     28  C   UNL A   1      37.431  31.942  34.517  1.00  0.00     0.111 A 
ATOM     29  N   UNL A   1      37.276  32.660  35.647  1.00  0.00    -0.265 NA
ENDBRANCH  23  24
ENDBRANCH  18  19
ENDBRANCH  17  18
ENDBRANCH  15  17
ENDBRANCH   8  13
ENDBRANCH   5   7
ENDBRANCH   4   5
ENDBRANCH   3   4
ENDBRANCH   2   3
ENDBRANCH   1   2
BRANCH   1  30
ATOM     30  C   UNL A   1      37.020  23.093  25.375  1.00  0.00     0.188 C 
BRANCH  30  31
ATOM     31  C   UNL A   1      36.646  21.625  25.077  1.00  0.00     0.188 C 
BRANCH  31  32
ATOM     32  O   UNL A   1      37.663  20.676  24.873  1.00  0.00    -0.376 OA
BRANCH  32  33
ATOM     33  C   UNL A   1      38.871  20.744  25.609  1.00  0.00     0.202 C 
BRANCH  33  34
ATOM     34  C   UNL A   1      39.676  19.532  26.118  1.00  0.00     0.261 C 
BRANCH  34  35
ATOM     35  O   UNL A   1      40.860  19.165  25.403  1.00  0.00    -0.460 OA
BRANCH  35  36
ATOM     36  C   UNL A   1      42.010  19.192  26.123  1.00  0.00     0.338 C 
ATOM     37  O   UNL A   1      42.772  18.272  26.344  1.00  0.00    -0.246 OA
BRANCH  36  38
ATOM     38  C   UNL A   1      42.311  20.592  26.479  1.00  0.00     0.060 A 
ATOM     39  C   UNL A   1      42.556  21.516  25.454  1.00  0.00     0.016 A 
ATOM     40  C   UNL A   1      42.374  20.981  27.816  1.00  0.00     0.016 A 
ATOM     41  C   UNL A   1      42.860  22.841  25.765  1.00  0.00     0.010 A 
ATOM     42  C   UNL A   1      42.706  22.302  28.127  1.00  0.00     0.010 A 
ATOM     43  C   UNL A   1      42.966  23.235  27.105  1.00  0.00    -0.014 A 
BRANCH  43  44
ATOM     44  C   UNL A   1      43.484  24.580  27.453  1.00  0.00     0.031 A 
ATOM     45  C   UNL A   1      42.532  25.597  28.016  1.00  0.00     0.074 A 
ATOM     46  C   UNL A   1      44.774  24.902  27.256  1.00  0.00     0.049 A 
ATOM     47  N   UNL A   1      42.726  26.863  28.284  1.00  0.00    -0.248 NA
ATOM     48  C   UNL A   1      41.172  25.119  28.312  1.00  0.00     0.031 C 
ATOM     49  C   UNL A   1      45.805  23.993  26.759  1.00  0.00     0.029 A 
ATOM     50  N   UNL A   1      45.430  26.095  27.429  1.00  0.00    -0.354 N 
ATOM     51  C   UNL A   1      41.513  27.335  28.766  1.00  0.00     0.074 A 
ATOM     52  C   UNL A   1      40.582  26.229  28.732  1.00  0.00     0.031 C 
ATOM     53  C   UNL A   1      46.961  24.669  26.645  1.00  0.00     0.029 A 
ATOM     54  C   UNL A   1      46.741  26.066  27.018  1.00  0.00     0.049 A 
ATOM     55  H   UNL A   1      45.002  26.896  27.811  1.00  0.00     0.167 HD
ATOM     56  C   UNL A   1      41.205  28.581  29.200  1.00  0.00     0.037 A 
ATOM     57  C   UNL A   1      47.643  27.063  26.920  1.00  0.00     0.037 A 
ATOM     58  C   UNL A   1      42.133  29.682  29.225  1.00  0.00     0.049 A 
ATOM     59  C   UNL A   1      47.250  28.463  27.323  1.00  0.00     0.074 A 
ATOM     60  C   UNL A   1      41.923  30.977  29.667  1.00  0.00     0.029 A 
ATOM     61  N   UNL A   1      43.444  29.622  28.773  1.00  0.00    -0.354 N 
ATOM     62  N   UNL A   1      46.111  28.899  27.806  1.00  0.00    -0.248 NA
ATOM     63  C   UNL A   1      48.270  29.510  27.166  1.00  0.00     0.031 C 
ATOM     64  C   UNL A   1      43.084  31.716  29.423  1.00  0.00     0.029 A 
ATOM     65  C   UNL A   1      44.042  30.866  28.894  1.00  0.00     0.049 A 
ATOM     66  H   UNL A   1      43.883  28.815  28.420  1.00  0.00     0.167 HD
ATOM     67  C   UNL A   1      46.288  30.259  28.037  1.00  0.00     0.074 A 
ATOM     68  C   UNL A   1      47.649  30.572  27.657  1.00  0.00     0.031 C 
ATOM     69  C   UNL A   1      45.402  31.165  28.520  1.00  0.00     0.037 A 
BRANCH  56  70
ATOM     70  C   UNL A   1      39.795  28.831  29.650  1.00  0.00     0.064 A 
ATOM     71  C   UNL A   1      38.775  29.161  28.744  1.00  0.00     0.173 A 
ATOM     72  C   UNL A   1      39.452  28.704  31.005  1.00  0.00     0.173 A 
ATOM     73  F   UNL A   1      39.052  29.307  27.439  1.00  0.00    -0.203 F 
ATOM     74  C   UNL A   1      37.472  29.382  29.182  1.00  0.00     0.198 A 
ATOM     75  C   UNL A   1      38.141  28.893  31.434  1.00  0.00     0.198 A 
ATOM     76  F   UNL A   1      40.387  28.386  31.913  1.00  0.00    -0.203 F 
ATOM     77  F   UNL A   1      36.526  29.747  28.305  1.00  0.00    -0.200 F 
ATOM     78  C   UNL A   1      37.154  29.240  30.524  1.00  0.00     0.200 A 
ATOM     79  F   UNL A   1      37.833  28.741  32.730  1.00  0.00    -0.200 F 
ATOM     80  F   UNL A   1      35.898  29.445  30.943  1.00  0.00    -0.200 F 
ENDBRANCH  56  70
BRANCH  57  81
ATOM     81  C   UNL A   1      49.007  26.784  26.393  1.00  0.00     0.064 A 
ATOM     82  C   UNL A   1      49.303  26.944  25.032  1.00  0.00     0.173 A 
ATOM     83  C   UNL A   1      50.031  26.320  27.232  1.00  0.00     0.173 A 
ATOM     84  F   UNL A   1      48.350  27.356  24.184  1.00  0.00    -0.203 F 
ATOM     85  C   UNL A   1      50.563  26.629  24.527  1.00  0.00     0.198 A 
ATOM     86  C   UNL A   1      51.301  26.037  26.731  1.00  0.00     0.198 A 
ATOM     87  F   UNL A   1      49.800  26.143  28.541  1.00  0.00    -0.203 F 
ATOM     88  F   UNL A   1      50.801  26.736  23.213  1.00  0.00    -0.200 F 
ATOM     89  C   UNL A   1      51.563  26.182  25.377  1.00  0.00     0.200 A 
ATOM     90  F   UNL A   1      52.266  25.616  27.559  1.00  0.00    -0.200 F 
ATOM     91  F   UNL A   1      52.775  25.880  24.892  1.00  0.00    -0.200 F 
ENDBRANCH  57  81
BRANCH  69  92
ATOM     92  C   UNL A   1      45.885  32.578  28.710  1.00  0.00     0.064 A 
ATOM     93  C   UNL A   1      46.432  33.017  29.924  1.00  0.00     0.173 A 
ATOM     94  C   UNL A   1      45.843  33.490  27.643  1.00  0.00     0.173 A 
ATOM     95  F   UNL A   1      46.485  32.191  30.980  1.00  0.00    -0.203 F 
ATOM     96  C   UNL A   1      46.895  34.324  30.070  1.00  0.00     0.198 A 
ATOM     97  C   UNL A   1      46.339  34.783  27.782  1.00  0.00     0.198 A 
ATOM     98  F   UNL A   1      45.338  33.120  26.456  1.00  0.00    -0.203 F 
ATOM     99  F   UNL A   1      47.368  34.735  31.254  1.00  0.00    -0.200 F 
ATOM    100  C   UNL A   1      46.857  35.201  28.997  1.00  0.00     0.200 A 
ATOM    101  F   UNL A   1      46.318  35.624  26.738  1.00  0.00    -0.200 F 
ATOM    102  F   UNL A   1      47.314  36.454  29.138  1.00  0.00    -0.200 F 
ENDBRANCH  69  92
ENDBRANCH  43  44
ENDBRANCH  36  38
ENDBRANCH  35  36
ENDBRANCH  34  35
ENDBRANCH  33  34
ENDBRANCH  32  33
ENDBRANCH  31  32
ENDBRANCH  30  31
ENDBRANCH   1  30
TORSDOF 22
ENDMDL
MODEL 3
REMARK VINA RESULT:     -10.7      4.870      6.881
REMARK SMILES O=C(CSc1nnc(-c2ccncc2)s1)Nc1cccc(C(=O)OCCOCCOCCOC(=O)c2ccc(-c3c4nc(c(-c5c(F)c(F)c(F)c(F)c5F)c5ccc([nH]5)c(-c5c(F)c(F)c(F)c(F)c5F)c5nc(c(-c6c(F)c(F)c(F)c(F)c6F)c6ccc3[nH]6)C=C5)C=C4)cc2)c1
REMARK SMILES IDX 27 1 26 2 25 3 24 4 22 5 23 6 21 7 17 8 18 9 99 10 19 11
REMARK SMILES IDX 20 12 16 13 1 14 2 15 3 17 4 18 5 19 6 20 15 21 7 22 8 23
REMARK SMILES IDX 9 24 10 25 14 26 11 27 13 28 12 29 28 30 29 31 30 32 31 33
REMARK SMILES IDX 32 34 33 35 34 36 35 37 36 38 37 39 98 40 38 41 97 42 39 43
REMARK SMILES IDX 40 44 41 45 91 46 42 47 96 48 90 49 92 50 43 51 95 52 89 53
REMARK SMILES IDX 88 54 44 56 76 57 56 58 75 59 57 60 60 61 74 62 93 63 58 64
REMARK SMILES IDX 59 65 73 67 94 68 61 69 45 70 46 71 54 72 47 73 48 74 52 75
REMARK SMILES IDX 55 76 49 77 50 78 53 79 51 80 77 81 78 82 86 83 79 84 80 85
REMARK SMILES IDX 84 86 87 87 81 88 82 89 85 90 83 91 62 92 63 93 71 94 64 95
REMARK SMILES IDX 65 96 69 97 72 98 66 99 67 100 70 101 68 102
REMARK H PARENT 16 16 92 55 60 66
REMARK Flexibility Score: inf
ROOT
ATOM      1  O   UNL A   1      44.617  18.456  25.663  1.00  0.00    -0.376 OA
ENDROOT
BRANCH   1   2
ATOM      2  C   UNL A   1      43.212  18.486  25.469  1.00  0.00     0.202 C 
BRANCH   2   3
ATOM      3  C   UNL A   1      42.247  19.260  26.380  1.00  0.00     0.261 C 
BRANCH   3   4
ATOM      4  O   UNL A   1      42.474  20.669  26.475  1.00  0.00    -0.460 OA
BRANCH   4   5
ATOM      5  C   UNL A   1      41.589  21.361  27.239  1.00  0.00     0.338 C 
ATOM      6  O   UNL A   1      40.501  20.985  27.634  1.00  0.00    -0.246 OA
BRANCH   5   7
ATOM      7  C   UNL A   1      42.249  22.591  27.728  1.00  0.00     0.062 A 
ATOM      8  C   UNL A   1      42.144  24.901  28.436  1.00  0.00     0.042 A 
ATOM      9  C   UNL A   1      43.547  24.932  28.478  1.00  0.00     0.026 A 
ATOM     10  C   UNL A   1      41.502  23.734  28.025  1.00  0.00     0.041 A 
ATOM     11  C   UNL A   1      44.294  23.789  28.179  1.00  0.00     0.003 A 
ATOM     12  C   UNL A   1      43.644  22.610  27.824  1.00  0.00     0.016 A 
BRANCH   8  13
ATOM     13  N   UNL A   1      41.455  26.051  28.870  1.00  0.00    -0.325 N 
ATOM     14  O   UNL A   1      40.418  26.728  26.895  1.00  0.00    -0.274 OA
ATOM     15  C   UNL A   1      40.597  26.829  28.107  1.00  0.00     0.234 C 
ATOM     16  H   UNL A   1      41.596  26.329  29.804  1.00  0.00     0.169 HD
BRANCH  15  17
ATOM     17  C   UNL A   1      39.834  27.881  28.892  1.00  0.00     0.177 C 
BRANCH  17  18
ATOM     18  S   UNL A   1      40.418  29.570  28.580  1.00  0.00    -0.084 SA
BRANCH  18  19
ATOM     19  C   UNL A   1      40.054  30.411  30.075  1.00  0.00     0.175 A 
ATOM     20  N   UNL A   1      40.836  31.378  30.502  1.00  0.00    -0.131 NA
ATOM     21  S   UNL A   1      38.816  29.987  31.179  1.00  0.00    -0.086 S 
ATOM     22  N   UNL A   1      40.466  31.841  31.752  1.00  0.00    -0.137 NA
ATOM     23  C   UNL A   1      39.445  31.173  32.252  1.00  0.00     0.148 A 
BRANCH  23  24
ATOM     24  C   UNL A   1      38.848  31.406  33.569  1.00  0.00     0.015 A 
ATOM     25  C   UNL A   1      37.928  32.436  33.797  1.00  0.00     0.031 A 
ATOM     26  C   UNL A   1      39.173  30.560  34.633  1.00  0.00     0.031 A 
ATOM     27  C   UNL A   1      37.392  32.580  35.065  1.00  0.00     0.111 A 
ATOM     28  C   UNL A   1      38.589  30.790  35.868  1.00  0.00     0.111 A 
ATOM     29  N   UNL A   1      37.708  31.783  36.106  1.00  0.00    -0.265 NA
ENDBRANCH  23  24
ENDBRANCH  18  19
ENDBRANCH  17  18
ENDBRANCH  15  17
ENDBRANCH   8  13
ENDBRANCH   5   7
ENDBRANCH   4   5
ENDBRANCH   3   4
ENDBRANCH   2   3
ENDBRANCH   1   2
BRANCH   1  30
ATOM     30  C   UNL A   1      45.483  19.125  24.772  1.00  0.00     0.188 C 
BRANCH  30  31
ATOM     31  C   UNL A   1      45.523  20.667  24.720  1.00  0.00     0.188 C 
BRANCH  31  32
ATOM     32  O   UNL A   1      44.591  21.361  23.928  1.00  0.00    -0.376 OA
BRANCH  32  33
ATOM     33  C   UNL A   1      44.316  22.730  24.170  1.00  0.00     0.202 C 
BRANCH  33  34
ATOM     34  C   UNL A   1      45.347  23.779  24.631  1.00  0.00     0.261 C 
BRANCH  34  35
ATOM     35  O   UNL A   1      44.880  25.104  24.900  1.00  0.00    -0.460 OA
BRANCH  35  36
ATOM     36  C   UNL A   1      45.845  26.053  25.007  1.00  0.00     0.338 C 
ATOM     37  O   UNL A   1      46.837  26.188  24.319  1.00  0.00    -0.246 OA
BRANCH  36  38
ATOM     38  C   UNL A   1      45.421  27.045  26.014  1.00  0.00     0.060 A 
ATOM     39  C   UNL A   1      46.355  27.500  26.954  1.00  0.00     0.016 A 
ATOM     40  C   UNL A   1      44.104  27.502  26.043  1.00  0.00     0.016 A 
ATOM     41  C   UNL A   1      45.975  28.423  27.928  1.00  0.00     0.010 A 
ATOM     42  C   UNL A   1      43.718  28.406  27.035  1.00  0.00     0.010 A 
ATOM     43  C   UNL A   1      44.645  28.860  27.991  1.00  0.00    -0.014 A 
BRANCH  43  44
ATOM     44  C   UNL A   1      44.178  29.680  29.136  1.00  0.00     0.031 A 
ATOM     45  C   UNL A   1      44.118  31.173  28.977  1.00  0.00     0.074 A 
ATOM     46  C   UNL A   1      43.830  29.111  30.303  1.00  0.00     0.049 A 
ATOM     47  N   UNL A   1      43.857  32.095  29.867  1.00  0.00    -0.248 NA
ATOM     48  C   UNL A   1      44.399  31.694  27.631  1.00  0.00     0.031 C 
ATOM     49  C   UNL A   1      43.802  27.674  30.568  1.00  0.00     0.029 A 
ATOM     50  N   UNL A   1      43.456  29.682  31.494  1.00  0.00    -0.354 N 
ATOM     51  C   UNL A   1      43.953  33.305  29.193  1.00  0.00     0.074 A 
ATOM     52  C   UNL A   1      44.322  33.002  27.827  1.00  0.00     0.031 C 
ATOM     53  C   UNL A   1      43.452  27.477  31.851  1.00  0.00     0.029 A 
ATOM     54  C   UNL A   1      43.276  28.772  32.507  1.00  0.00     0.049 A 
ATOM     55  H   UNL A   1      43.329  30.652  31.612  1.00  0.00     0.167 HD
ATOM     56  C   UNL A   1      43.751  34.556  29.671  1.00  0.00     0.037 A 
ATOM     57  C   UNL A   1      43.035  28.967  33.819  1.00  0.00     0.037 A 
ATOM     58  C   UNL A   1      43.393  34.854  31.034  1.00  0.00     0.049 A 
ATOM     59  C   UNL A   1      42.904  30.374  34.348  1.00  0.00     0.074 A 
ATOM     60  C   UNL A   1      43.145  36.087  31.611  1.00  0.00     0.029 A 
ATOM     61  N   UNL A   1      43.248  33.907  32.038  1.00  0.00    -0.354 N 
ATOM     62  N   UNL A   1      42.967  31.514  33.702  1.00  0.00    -0.248 NA
ATOM     63  C   UNL A   1      42.669  30.521  35.792  1.00  0.00     0.031 C 
ATOM     64  C   UNL A   1      42.914  35.894  32.976  1.00  0.00     0.029 A 
ATOM     65  C   UNL A   1      42.947  34.533  33.238  1.00  0.00     0.049 A 
ATOM     66  H   UNL A   1      43.343  32.935  31.917  1.00  0.00     0.167 HD
ATOM     67  C   UNL A   1      42.750  32.506  34.652  1.00  0.00     0.074 A 
ATOM     68  C   UNL A   1      42.537  31.834  35.915  1.00  0.00     0.031 C 
ATOM     69  C   UNL A   1      42.729  33.853  34.490  1.00  0.00     0.037 A 
BRANCH  56  70
ATOM     70  C   UNL A   1      43.949  35.703  28.723  1.00  0.00     0.064 A 
ATOM     71  C   UNL A   1      42.873  36.292  28.039  1.00  0.00     0.173 A 
ATOM     72  C   UNL A   1      45.228  36.243  28.522  1.00  0.00     0.173 A 
ATOM     73  F   UNL A   1      41.632  35.806  28.185  1.00  0.00    -0.203 F 
ATOM     74  C   UNL A   1      43.078  37.359  27.168  1.00  0.00     0.198 A 
ATOM     75  C   UNL A   1      45.423  37.331  27.676  1.00  0.00     0.198 A 
ATOM     76  F   UNL A   1      46.290  35.721  29.154  1.00  0.00    -0.203 F 
ATOM     77  F   UNL A   1      42.044  37.872  26.486  1.00  0.00    -0.200 F 
ATOM     78  C   UNL A   1      44.350  37.883  26.994  1.00  0.00     0.200 A 
ATOM     79  F   UNL A   1      46.651  37.846  27.521  1.00  0.00    -0.200 F 
ATOM     80  F   UNL A   1      44.543  38.916  26.162  1.00  0.00    -0.200 F 
ENDBRANCH  56  70
BRANCH  57  81
ATOM     81  C   UNL A   1      42.925  27.802  34.739  1.00  0.00     0.064 A 
ATOM     82  C   UNL A   1      43.991  27.433  35.570  1.00  0.00     0.173 A 
ATOM     83  C   UNL A   1      41.765  27.012  34.779  1.00  0.00     0.173 A 
ATOM     84  F   UNL A   1      45.132  28.137  35.546  1.00  0.00    -0.203 F 
ATOM     85  C   UNL A   1      43.911  26.309  36.390  1.00  0.00     0.198 A 
ATOM     86  C   UNL A   1      41.674  25.908  35.624  1.00  0.00     0.198 A 
ATOM     87  F   UNL A   1      40.717  27.316  33.999  1.00  0.00    -0.203 F 
ATOM     88  F   UNL A   1      44.967  25.948  37.131  1.00  0.00    -0.200 F 
ATOM     89  C   UNL A   1      42.751  25.551  36.421  1.00  0.00     0.200 A 
ATOM     90  F   UNL A   1      40.546  25.185  35.658  1.00  0.00    -0.200 F 
ATOM     91  F   UNL A   1      42.674  24.470  37.209  1.00  0.00    -0.200 F 
ENDBRANCH  57  81
BRANCH  69  92
ATOM     92  C   UNL A   1      42.424  34.695  35.699  1.00  0.00     0.064 A 
ATOM     93  C   UNL A   1      43.440  35.219  36.513  1.00  0.00     0.173 A 
ATOM     94  C   UNL A   1      41.097  35.023  36.018  1.00  0.00     0.173 A 
ATOM     95  F   UNL A   1      44.725  34.927  36.261  1.00  0.00    -0.203 F 
ATOM     96  C   UNL A   1      43.136  36.016  37.614  1.00  0.00     0.198 A 
ATOM     97  C   UNL A   1      40.799  35.848  37.098  1.00  0.00     0.198 A 
ATOM     98  F   UNL A   1      40.086  34.556  35.268  1.00  0.00    -0.203 F 
ATOM     99  F   UNL A   1      44.120  36.463  38.406  1.00  0.00    -0.200 F 
ATOM    100  C   UNL A   1      41.818  36.338  37.900  1.00  0.00     0.200 A 
ATOM    101  F   UNL A   1      39.525  36.173  37.361  1.00  0.00    -0.200 F 
ATOM    102  F   UNL A   1      41.529  37.114  38.954  1.00  0.00    -0.200 F 
ENDBRANCH  69  92
ENDBRANCH  43  44
ENDBRANCH  36  38
ENDBRANCH  35  36
ENDBRANCH  34  35
ENDBRANCH  33  34
ENDBRANCH  32  33
ENDBRANCH  31  32
ENDBRANCH  30  31
ENDBRANCH   1  30
TORSDOF 22
ENDMDL
