MODEL 1
REMARK VINA RESULT:     -10.0      0.000      0.000
REMARK SMILES CSCc1ccc(C(=O)N[C@](C)(C(=O)OCCOCCOCCOC(=O)c2ccc(-c3c4nc(c(-c5c(F)c(F)c(F)c(F)c5F)c5ccc([nH]5)c(-c5c(F)c(F)c(F)c(F)c5F)c5nc(c(-c6c(F)c(F)c(F)c(F)c6F)c6ccc3[nH]6)C=C5)C=C4)cc2)C(F)(F)F)o1
REMARK SMILES IDX 19 1 18 2 17 3 16 4 15 5 13 6 14 7 11 8 12 9 10 10 8 11 9 12
REMARK SMILES IDX 7 14 4 15 5 16 94 17 6 18 3 19 2 20 1 21 90 22 91 23 92 24
REMARK SMILES IDX 93 25 20 26 21 27 22 28 23 29 24 30 25 31 26 32 27 33 28 34
REMARK SMILES IDX 89 35 29 36 88 37 30 38 31 39 32 40 82 41 33 42 87 43 81 44
REMARK SMILES IDX 83 45 34 46 86 47 80 48 79 49 35 51 67 52 47 53 66 54 48 55
REMARK SMILES IDX 51 56 65 57 84 58 49 59 50 60 64 62 85 63 52 64 36 65 37 66
REMARK SMILES IDX 45 67 38 68 39 69 43 70 46 71 40 72 41 73 44 74 42 75 68 76
REMARK SMILES IDX 69 77 77 78 70 79 71 80 75 81 78 82 72 83 73 84 76 85 74 86
REMARK SMILES IDX 53 87 54 88 62 89 55 90 56 91 60 92 63 93 57 94 58 95 61 96
REMARK SMILES IDX 59 97
REMARK H PARENT 10 13 83 50 51 61
REMARK Flexibility Score: inf
ROOT
ATOM      1  C   UNL A   1      33.122  27.536  22.592  1.00  0.00     0.188 C 
ENDROOT
BRANCH   1   2
ATOM      2  O   UNL A   1      31.995  26.732  22.249  1.00  0.00    -0.376 OA
BRANCH   2   3
ATOM      3  C   UNL A   1      30.687  27.286  22.374  1.00  0.00     0.202 C 
BRANCH   3   4
ATOM      4  C   UNL A   1      29.860  26.768  23.554  1.00  0.00     0.261 C 
BRANCH   4   5
ATOM      5  O   UNL A   1      30.721  26.440  24.655  1.00  0.00    -0.461 OA
BRANCH   5   6
ATOM      6  C   UNL A   1      30.367  25.384  25.430  1.00  0.00     0.341 C 
ATOM      7  O   UNL A   1      29.322  25.308  26.065  1.00  0.00    -0.249 OA
BRANCH   6   8
ATOM      8  C   UNL A   1      31.431  24.273  25.369  1.00  0.00     0.231 C 
ATOM      9  C   UNL A   1      30.814  22.987  25.963  1.00  0.00     0.058 C 
BRANCH   8  10
ATOM     10  N   UNL A   1      31.716  24.030  23.927  1.00  0.00    -0.326 N 
ATOM     11  C   UNL A   1      32.547  23.151  23.269  1.00  0.00     0.288 C 
ATOM     12  O   UNL A   1      32.566  23.282  22.043  1.00  0.00    -0.266 OA
ATOM     13  H   UNL A   1      31.207  24.618  23.322  1.00  0.00     0.165 HD
BRANCH  11  14
ATOM     14  C   UNL A   1      33.365  22.161  23.957  1.00  0.00     0.191 A 
ATOM     15  C   UNL A   1      35.181  21.594  25.116  1.00  0.00     0.114 A 
ATOM     16  C   UNL A   1      34.429  20.450  24.986  1.00  0.00     0.047 A 
ATOM     17  O   UNL A   1      34.551  22.623  24.482  1.00  0.00    -0.455 OA
ATOM     18  C   UNL A   1      33.277  20.810  24.246  1.00  0.00     0.056 A 
BRANCH  15  19
ATOM     19  C   UNL A   1      36.482  21.933  25.751  1.00  0.00     0.144 C 
BRANCH  19  20
ATOM     20  S   UNL A   1      36.915  23.701  25.662  1.00  0.00    -0.157 SA
ATOM     21  C   UNL A   1      38.528  23.655  26.486  1.00  0.00     0.085 C 
ENDBRANCH  19  20
ENDBRANCH  15  19
ENDBRANCH  11  14
ENDBRANCH   8  10
BRANCH   8  22
ATOM     22  C   UNL A   1      32.612  24.886  26.168  1.00  0.00     0.422 C 
ATOM     23  F   UNL A   1      32.189  25.825  27.049  1.00  0.00    -0.168 F 
ATOM     24  F   UNL A   1      33.289  23.968  26.892  1.00  0.00    -0.168 F 
ATOM     25  F   UNL A   1      33.542  25.478  25.380  1.00  0.00    -0.168 F 
ENDBRANCH   8  22
ENDBRANCH   6   8
ENDBRANCH   5   6
ENDBRANCH   4   5
ENDBRANCH   3   4
ENDBRANCH   2   3
ENDBRANCH   1   2
BRANCH   1  26
ATOM     26  C   UNL A   1      32.886  28.961  23.121  1.00  0.00     0.188 C 
BRANCH  26  27
ATOM     27  O   UNL A   1      33.090  29.068  24.523  1.00  0.00    -0.376 OA
BRANCH  27  28
ATOM     28  C   UNL A   1      31.909  29.258  25.288  1.00  0.00     0.202 C 
BRANCH  28  29
ATOM     29  C   UNL A   1      31.874  30.667  25.884  1.00  0.00     0.261 C 
BRANCH  29  30
ATOM     30  O   UNL A   1      32.542  30.775  27.155  1.00  0.00    -0.460 OA
BRANCH  30  31
ATOM     31  C   UNL A   1      33.269  31.896  27.361  1.00  0.00     0.338 C 
ATOM     32  O   UNL A   1      32.890  33.050  27.256  1.00  0.00    -0.246 OA
BRANCH  31  33
ATOM     33  C   UNL A   1      34.571  31.500  27.936  1.00  0.00     0.060 A 
ATOM     34  C   UNL A   1      34.769  30.163  28.302  1.00  0.00     0.016 A 
ATOM     35  C   UNL A   1      35.587  32.442  28.115  1.00  0.00     0.016 A 
ATOM     36  C   UNL A   1      35.979  29.768  28.878  1.00  0.00     0.010 A 
ATOM     37  C   UNL A   1      36.790  32.050  28.706  1.00  0.00     0.010 A 
ATOM     38  C   UNL A   1      36.983  30.717  29.114  1.00  0.00    -0.014 A 
BRANCH  38  39
ATOM     39  C   UNL A   1      38.172  30.375  29.931  1.00  0.00     0.031 A 
ATOM     40  C   UNL A   1      39.180  29.415  29.362  1.00  0.00     0.074 A 
ATOM     41  C   UNL A   1      38.341  30.877  31.167  1.00  0.00     0.049 A 
ATOM     42  N   UNL A   1      40.230  28.879  29.930  1.00  0.00    -0.248 NA
ATOM     43  C   UNL A   1      38.974  29.005  27.964  1.00  0.00     0.031 C 
ATOM     44  C   UNL A   1      37.462  31.844  31.817  1.00  0.00     0.029 A 
ATOM     45  N   UNL A   1      39.311  30.616  32.104  1.00  0.00    -0.354 N 
ATOM     46  C   UNL A   1      40.802  28.062  28.966  1.00  0.00     0.074 A 
ATOM     47  C   UNL A   1      39.979  28.161  27.779  1.00  0.00     0.031 C 
ATOM     48  C   UNL A   1      37.919  32.079  33.061  1.00  0.00     0.029 A 
ATOM     49  C   UNL A   1      39.100  31.250  33.304  1.00  0.00     0.049 A 
ATOM     50  H   UNL A   1      40.084  30.031  31.932  1.00  0.00     0.167 HD
ATOM     51  C   UNL A   1      41.913  27.295  29.060  1.00  0.00     0.037 A 
ATOM     52  C   UNL A   1      39.765  31.143  34.472  1.00  0.00     0.037 A 
ATOM     53  C   UNL A   1      42.735  27.193  30.234  1.00  0.00     0.049 A 
ATOM     54  C   UNL A   1      40.951  30.216  34.573  1.00  0.00     0.074 A 
ATOM     55  C   UNL A   1      43.898  26.463  30.412  1.00  0.00     0.029 A 
ATOM     56  N   UNL A   1      42.475  27.831  31.437  1.00  0.00    -0.354 N 
ATOM     57  N   UNL A   1      41.506  29.472  33.647  1.00  0.00    -0.248 NA
ATOM     58  C   UNL A   1      41.601  30.110  35.890  1.00  0.00     0.031 C 
ATOM     59  C   UNL A   1      44.317  26.623  31.736  1.00  0.00     0.029 A 
ATOM     60  C   UNL A   1      43.441  27.489  32.369  1.00  0.00     0.049 A 
ATOM     61  H   UNL A   1      41.718  28.437  31.604  1.00  0.00     0.167 HD
ATOM     62  C   UNL A   1      42.583  28.840  34.258  1.00  0.00     0.074 A 
ATOM     63  C   UNL A   1      42.612  29.294  35.632  1.00  0.00     0.031 C 
ATOM     64  C   UNL A   1      43.470  27.963  33.728  1.00  0.00     0.037 A 
BRANCH  51  65
ATOM     65  C   UNL A   1      42.299  26.481  27.864  1.00  0.00     0.064 A 
ATOM     66  C   UNL A   1      43.188  26.971  26.898  1.00  0.00     0.173 A 
ATOM     67  C   UNL A   1      41.817  25.172  27.715  1.00  0.00     0.173 A 
ATOM     68  F   UNL A   1      43.662  28.223  26.990  1.00  0.00    -0.203 F 
ATOM     69  C   UNL A   1      43.576  26.182  25.819  1.00  0.00     0.198 A 
ATOM     70  C   UNL A   1      42.223  24.378  26.647  1.00  0.00     0.198 A 
ATOM     71  F   UNL A   1      40.963  24.660  28.614  1.00  0.00    -0.203 F 
ATOM     72  F   UNL A   1      44.405  26.678  24.891  1.00  0.00    -0.200 F 
ATOM     73  C   UNL A   1      43.100  24.884  25.700  1.00  0.00     0.200 A 
ATOM     74  F   UNL A   1      41.770  23.122  26.538  1.00  0.00    -0.200 F 
ATOM     75  F   UNL A   1      43.485  24.120  24.667  1.00  0.00    -0.200 F 
ENDBRANCH  51  65
BRANCH  52  76
ATOM     76  C   UNL A   1      39.314  31.904  35.668  1.00  0.00     0.064 A 
ATOM     77  C   UNL A   1      38.422  31.339  36.589  1.00  0.00     0.173 A 
ATOM     78  C   UNL A   1      39.711  33.233  35.874  1.00  0.00     0.173 A 
ATOM     79  F   UNL A   1      37.987  30.082  36.414  1.00  0.00    -0.203 F 
ATOM     80  C   UNL A   1      37.920  32.083  37.655  1.00  0.00     0.198 A 
ATOM     81  C   UNL A   1      39.231  33.967  36.957  1.00  0.00     0.198 A 
ATOM     82  F   UNL A   1      40.556  33.824  35.016  1.00  0.00    -0.203 F 
ATOM     83  F   UNL A   1      37.018  31.539  38.482  1.00  0.00    -0.200 F 
ATOM     84  C   UNL A   1      38.327  33.396  37.839  1.00  0.00     0.200 A 
ATOM     85  F   UNL A   1      39.629  35.234  37.134  1.00  0.00    -0.200 F 
ATOM     86  F   UNL A   1      37.834  34.115  38.857  1.00  0.00    -0.200 F 
ENDBRANCH  52  76
BRANCH  64  87
ATOM     87  C   UNL A   1      44.575  27.468  34.616  1.00  0.00     0.064 A 
ATOM     88  C   UNL A   1      45.781  28.172  34.753  1.00  0.00     0.173 A 
ATOM     89  C   UNL A   1      44.404  26.301  35.376  1.00  0.00     0.173 A 
ATOM     90  F   UNL A   1      45.997  29.285  34.037  1.00  0.00    -0.203 F 
ATOM     91  C   UNL A   1      46.782  27.713  35.605  1.00  0.00     0.198 A 
ATOM     92  C   UNL A   1      45.396  25.861  36.248  1.00  0.00     0.198 A 
ATOM     93  F   UNL A   1      43.266  25.597  35.287  1.00  0.00    -0.203 F 
ATOM     94  F   UNL A   1      47.942  28.378  35.691  1.00  0.00    -0.200 F 
ATOM     95  C   UNL A   1      46.586  26.564  36.357  1.00  0.00     0.200 A 
ATOM     96  F   UNL A   1      45.199  24.758  36.983  1.00  0.00    -0.200 F 
ATOM     97  F   UNL A   1      47.548  26.129  37.183  1.00  0.00    -0.200 F 
ENDBRANCH  64  87
ENDBRANCH  38  39
ENDBRANCH  31  33
ENDBRANCH  30  31
ENDBRANCH  29  30
ENDBRANCH  28  29
ENDBRANCH  27  28
ENDBRANCH  26  27
ENDBRANCH   1  26
TORSDOF 22
ENDMDL
MODEL 2
REMARK VINA RESULT:     -10.0      1.605      7.551
REMARK SMILES CSCc1ccc(C(=O)N[C@](C)(C(=O)OCCOCCOCCOC(=O)c2ccc(-c3c4nc(c(-c5c(F)c(F)c(F)c(F)c5F)c5ccc([nH]5)c(-c5c(F)c(F)c(F)c(F)c5F)c5nc(c(-c6c(F)c(F)c(F)c(F)c6F)c6ccc3[nH]6)C=C5)C=C4)cc2)C(F)(F)F)o1
REMARK SMILES IDX 19 1 18 2 17 3 16 4 15 5 13 6 14 7 11 8 12 9 10 10 8 11 9 12
REMARK SMILES IDX 7 14 4 15 5 16 94 17 6 18 3 19 2 20 1 21 90 22 91 23 92 24
REMARK SMILES IDX 93 25 20 26 21 27 22 28 23 29 24 30 25 31 26 32 27 33 28 34
REMARK SMILES IDX 89 35 29 36 88 37 30 38 31 39 32 40 82 41 33 42 87 43 81 44
REMARK SMILES IDX 83 45 34 46 86 47 80 48 79 49 35 51 67 52 47 53 66 54 48 55
REMARK SMILES IDX 51 56 65 57 84 58 49 59 50 60 64 62 85 63 52 64 36 65 37 66
REMARK SMILES IDX 45 67 38 68 39 69 43 70 46 71 40 72 41 73 44 74 42 75 68 76
REMARK SMILES IDX 69 77 77 78 70 79 71 80 75 81 78 82 72 83 73 84 76 85 74 86
REMARK SMILES IDX 53 87 54 88 62 89 55 90 56 91 60 92 63 93 57 94 58 95 61 96
REMARK SMILES IDX 59 97
REMARK H PARENT 10 13 83 50 51 61
REMARK Flexibility Score: inf
ROOT
ATOM      1  C   UNL A   1      32.893  29.656  25.134  1.00  0.00     0.188 C 
ENDROOT
BRANCH   1   2
ATOM      2  O   UNL A   1      33.677  29.193  26.232  1.00  0.00    -0.376 OA
BRANCH   2   3
ATOM      3  C   UNL A   1      33.383  27.920  26.803  1.00  0.00     0.202 C 
BRANCH   3   4
ATOM      4  C   UNL A   1      33.667  26.712  25.906  1.00  0.00     0.261 C 
BRANCH   4   5
ATOM      5  O   UNL A   1      32.541  25.821  25.904  1.00  0.00    -0.461 OA
BRANCH   5   6
ATOM      6  C   UNL A   1      32.315  25.105  24.773  1.00  0.00     0.341 C 
ATOM      7  O   UNL A   1      33.193  24.683  24.032  1.00  0.00    -0.249 OA
BRANCH   6   8
ATOM      8  C   UNL A   1      30.810  24.855  24.570  1.00  0.00     0.231 C 
ATOM      9  C   UNL A   1      30.647  23.795  23.457  1.00  0.00     0.058 C 
BRANCH   8  10
ATOM     10  N   UNL A   1      30.295  24.276  25.842  1.00  0.00    -0.326 N 
ATOM     11  C   UNL A   1      30.659  23.180  26.591  1.00  0.00     0.288 C 
ATOM     12  O   UNL A   1      29.949  22.971  27.578  1.00  0.00    -0.266 OA
ATOM     13  H   UNL A   1      29.540  24.780  26.226  1.00  0.00     0.165 HD
BRANCH  11  14
ATOM     14  C   UNL A   1      31.774  22.310  26.239  1.00  0.00     0.191 A 
ATOM     15  C   UNL A   1      32.632  20.604  25.092  1.00  0.00     0.114 A 
ATOM     16  C   UNL A   1      33.660  21.126  25.842  1.00  0.00     0.047 A 
ATOM     17  O   UNL A   1      31.490  21.303  25.342  1.00  0.00    -0.455 OA
ATOM     18  C   UNL A   1      33.113  22.208  26.573  1.00  0.00     0.056 A 
BRANCH  15  19
ATOM     19  C   UNL A   1      32.497  19.480  24.128  1.00  0.00     0.144 C 
BRANCH  19  20
ATOM     20  S   UNL A   1      32.652  17.828  24.884  1.00  0.00    -0.157 SA
ATOM     21  C   UNL A   1      34.346  17.430  24.384  1.00  0.00     0.085 C 
ENDBRANCH  19  20
ENDBRANCH  15  19
ENDBRANCH  11  14
ENDBRANCH   8  10
BRANCH   8  22
ATOM     22  C   UNL A   1      30.268  26.271  24.238  1.00  0.00     0.422 C 
ATOM     23  F   UNL A   1      31.151  26.985  23.496  1.00  0.00    -0.168 F 
ATOM     24  F   UNL A   1      29.119  26.241  23.529  1.00  0.00    -0.168 F 
ATOM     25  F   UNL A   1      29.993  27.011  25.338  1.00  0.00    -0.168 F 
ENDBRANCH   8  22
ENDBRANCH   6   8
ENDBRANCH   5   6
ENDBRANCH   4   5
ENDBRANCH   3   4
ENDBRANCH   2   3
ENDBRANCH   1   2
BRANCH   1  26
ATOM     26  C   UNL A   1      31.400  29.952  25.358  1.00  0.00     0.188 C 
BRANCH  26  27
ATOM     27  O   UNL A   1      31.147  31.323  25.632  1.00  0.00    -0.376 OA
BRANCH  27  28
ATOM     28  C   UNL A   1      31.539  31.759  26.925  1.00  0.00     0.202 C 
BRANCH  28  29
ATOM     29  C   UNL A   1      32.090  33.186  26.868  1.00  0.00     0.261 C 
BRANCH  29  30
ATOM     30  O   UNL A   1      32.720  33.613  28.091  1.00  0.00    -0.460 OA
BRANCH  30  31
ATOM     31  C   UNL A   1      33.896  34.266  27.966  1.00  0.00     0.338 C 
ATOM     32  O   UNL A   1      34.061  35.437  27.666  1.00  0.00    -0.246 OA
BRANCH  31  33
ATOM     33  C   UNL A   1      34.970  33.377  28.453  1.00  0.00     0.060 A 
ATOM     34  C   UNL A   1      34.622  32.141  29.012  1.00  0.00     0.016 A 
ATOM     35  C   UNL A   1      36.310  33.759  28.360  1.00  0.00     0.016 A 
ATOM     36  C   UNL A   1      35.615  31.294  29.509  1.00  0.00     0.010 A 
ATOM     37  C   UNL A   1      37.301  32.919  28.873  1.00  0.00     0.010 A 
ATOM     38  C   UNL A   1      36.957  31.694  29.473  1.00  0.00    -0.014 A 
BRANCH  38  39
ATOM     39  C   UNL A   1      37.997  30.927  30.200  1.00  0.00     0.031 A 
ATOM     40  C   UNL A   1      38.246  31.250  31.646  1.00  0.00     0.074 A 
ATOM     41  C   UNL A   1      38.732  29.984  29.583  1.00  0.00     0.049 A 
ATOM     42  N   UNL A   1      39.175  30.800  32.451  1.00  0.00    -0.248 NA
ATOM     43  C   UNL A   1      37.323  32.213  32.268  1.00  0.00     0.031 C 
ATOM     44  C   UNL A   1      38.564  29.548  28.200  1.00  0.00     0.029 A 
ATOM     45  N   UNL A   1      39.788  29.239  30.048  1.00  0.00    -0.354 N 
ATOM     46  C   UNL A   1      38.955  31.431  33.667  1.00  0.00     0.074 A 
ATOM     47  C   UNL A   1      37.814  32.305  33.496  1.00  0.00     0.031 C 
ATOM     48  C   UNL A   1      39.503  28.626  27.918  1.00  0.00     0.029 A 
ATOM     49  C   UNL A   1      40.357  28.437  29.090  1.00  0.00     0.049 A 
ATOM     50  H   UNL A   1      40.105  29.275  30.979  1.00  0.00     0.167 HD
ATOM     51  C   UNL A   1      39.643  31.295  34.825  1.00  0.00     0.037 A 
ATOM     52  C   UNL A   1      41.463  27.668  29.147  1.00  0.00     0.037 A 
ATOM     53  C   UNL A   1      40.777  30.429  35.002  1.00  0.00     0.049 A 
ATOM     54  C   UNL A   1      42.261  27.601  30.427  1.00  0.00     0.074 A 
ATOM     55  C   UNL A   1      41.519  30.204  36.149  1.00  0.00     0.029 A 
ATOM     56  N   UNL A   1      41.339  29.652  34.002  1.00  0.00    -0.354 N 
ATOM     57  N   UNL A   1      42.028  28.173  31.582  1.00  0.00    -0.248 NA
ATOM     58  C   UNL A   1      43.484  26.781  30.405  1.00  0.00     0.031 C 
ATOM     59  C   UNL A   1      42.560  29.326  35.831  1.00  0.00     0.029 A 
ATOM     60  C   UNL A   1      42.436  28.968  34.499  1.00  0.00     0.049 A 
ATOM     61  H   UNL A   1      41.008  29.593  33.077  1.00  0.00     0.167 HD
ATOM     62  C   UNL A   1      43.050  27.759  32.429  1.00  0.00     0.074 A 
ATOM     63  C   UNL A   1      43.901  26.878  31.658  1.00  0.00     0.031 C 
ATOM     64  C   UNL A   1      43.264  28.078  33.728  1.00  0.00     0.037 A 
BRANCH  51  65
ATOM     65  C   UNL A   1      39.206  32.123  35.993  1.00  0.00     0.064 A 
ATOM     66  C   UNL A   1      38.291  31.636  36.936  1.00  0.00     0.173 A 
ATOM     67  C   UNL A   1      39.757  33.396  36.203  1.00  0.00     0.173 A 
ATOM     68  F   UNL A   1      37.726  30.431  36.769  1.00  0.00    -0.203 F 
ATOM     69  C   UNL A   1      37.935  32.399  38.045  1.00  0.00     0.198 A 
ATOM     70  C   UNL A   1      39.415  34.147  37.323  1.00  0.00     0.198 A 
ATOM     71  F   UNL A   1      40.637  33.904  35.327  1.00  0.00    -0.203 F 
ATOM     72  F   UNL A   1      37.036  31.928  38.920  1.00  0.00    -0.200 F 
ATOM     73  C   UNL A   1      38.504  33.649  38.241  1.00  0.00     0.200 A 
ATOM     74  F   UNL A   1      39.972  35.351  37.516  1.00  0.00    -0.200 F 
ATOM     75  F   UNL A   1      38.169  34.378  39.316  1.00  0.00    -0.200 F 
ENDBRANCH  51  65
BRANCH  52  76
ATOM     76  C   UNL A   1      41.920  26.915  27.948  1.00  0.00     0.064 A 
ATOM     77  C   UNL A   1      42.739  27.521  26.985  1.00  0.00     0.173 A 
ATOM     78  C   UNL A   1      41.491  25.602  27.707  1.00  0.00     0.173 A 
ATOM     79  F   UNL A   1      43.147  28.788  27.155  1.00  0.00    -0.203 F 
ATOM     80  C   UNL A   1      43.086  26.853  25.812  1.00  0.00     0.198 A 
ATOM     81  C   UNL A   1      41.862  24.925  26.548  1.00  0.00     0.198 A 
ATOM     82  F   UNL A   1      40.697  24.981  28.593  1.00  0.00    -0.203 F 
ATOM     83  F   UNL A   1      43.815  27.478  24.879  1.00  0.00    -0.200 F 
ATOM     84  C   UNL A   1      42.650  25.555  25.596  1.00  0.00     0.200 A 
ATOM     85  F   UNL A   1      41.441  23.669  26.344  1.00  0.00    -0.200 F 
ATOM     86  F   UNL A   1      42.973  24.917  24.462  1.00  0.00    -0.200 F 
ENDBRANCH  52  76
BRANCH  64  87
ATOM     87  C   UNL A   1      44.435  27.441  34.418  1.00  0.00     0.064 A 
ATOM     88  C   UNL A   1      45.684  28.075  34.488  1.00  0.00     0.173 A 
ATOM     89  C   UNL A   1      44.289  26.201  35.060  1.00  0.00     0.173 A 
ATOM     90  F   UNL A   1      45.876  29.254  33.879  1.00  0.00    -0.203 F 
ATOM     91  C   UNL A   1      46.750  27.481  35.159  1.00  0.00     0.198 A 
ATOM     92  C   UNL A   1      45.350  25.624  35.753  1.00  0.00     0.198 A 
ATOM     93  F   UNL A   1      43.113  25.558  35.029  1.00  0.00    -0.203 F 
ATOM     94  F   UNL A   1      47.946  28.085  35.180  1.00  0.00    -0.200 F 
ATOM     95  C   UNL A   1      46.580  26.261  35.797  1.00  0.00     0.200 A 
ATOM     96  F   UNL A   1      45.179  24.452  36.380  1.00  0.00    -0.200 F 
ATOM     97  F   UNL A   1      47.605  25.696  36.450  1.00  0.00    -0.200 F 
ENDBRANCH  64  87
ENDBRANCH  38  39
ENDBRANCH  31  33
ENDBRANCH  30  31
ENDBRANCH  29  30
ENDBRANCH  28  29
ENDBRANCH  27  28
ENDBRANCH  26  27
ENDBRANCH   1  26
TORSDOF 22
ENDMDL
MODEL 3
REMARK VINA RESULT:      -9.9      3.451      8.772
REMARK SMILES CSCc1ccc(C(=O)N[C@](C)(C(=O)OCCOCCOCCOC(=O)c2ccc(-c3c4nc(c(-c5c(F)c(F)c(F)c(F)c5F)c5ccc([nH]5)c(-c5c(F)c(F)c(F)c(F)c5F)c5nc(c(-c6c(F)c(F)c(F)c(F)c6F)c6ccc3[nH]6)C=C5)C=C4)cc2)C(F)(F)F)o1
REMARK SMILES IDX 19 1 18 2 17 3 16 4 15 5 13 6 14 7 11 8 12 9 10 10 8 11 9 12
REMARK SMILES IDX 7 14 4 15 5 16 94 17 6 18 3 19 2 20 1 21 90 22 91 23 92 24
REMARK SMILES IDX 93 25 20 26 21 27 22 28 23 29 24 30 25 31 26 32 27 33 28 34
REMARK SMILES IDX 89 35 29 36 88 37 30 38 31 39 32 40 82 41 33 42 87 43 81 44
REMARK SMILES IDX 83 45 34 46 86 47 80 48 79 49 35 51 67 52 47 53 66 54 48 55
REMARK SMILES IDX 51 56 65 57 84 58 49 59 50 60 64 62 85 63 52 64 36 65 37 66
REMARK SMILES IDX 45 67 38 68 39 69 43 70 46 71 40 72 41 73 44 74 42 75 68 76
REMARK SMILES IDX 69 77 77 78 70 79 71 80 75 81 78 82 72 83 73 84 76 85 74 86
REMARK SMILES IDX 53 87 54 88 62 89 55 90 56 91 60 92 63 93 57 94 58 95 61 96
REMARK SMILES IDX 59 97
REMARK H PARENT 10 13 83 50 51 61
REMARK Flexibility Score: inf
ROOT
ATOM      1  C   UNL A   1      42.782  20.987  25.931  1.00  0.00     0.188 C 
ENDROOT
BRANCH   1   2
ATOM      2  O   UNL A   1      42.099  22.172  25.526  1.00  0.00    -0.376 OA
BRANCH   2   3
ATOM      3  C   UNL A   1      41.184  22.786  26.430  1.00  0.00     0.202 C 
BRANCH   3   4
ATOM      4  C   UNL A   1      39.979  21.931  26.833  1.00  0.00     0.261 C 
BRANCH   4   5
ATOM      5  O   UNL A   1      39.033  21.871  25.756  1.00  0.00    -0.461 OA
BRANCH   5   6
ATOM      6  C   UNL A   1      37.969  22.712  25.815  1.00  0.00     0.341 C 
ATOM      7  O   UNL A   1      38.025  23.877  26.187  1.00  0.00    -0.249 OA
BRANCH   6   8
ATOM      8  C   UNL A   1      36.690  22.021  25.308  1.00  0.00     0.231 C 
ATOM      9  C   UNL A   1      37.064  20.588  24.867  1.00  0.00     0.058 C 
BRANCH   8  10
ATOM     10  N   UNL A   1      35.765  21.923  26.471  1.00  0.00    -0.326 N 
ATOM     11  C   UNL A   1      34.472  21.471  26.608  1.00  0.00     0.288 C 
ATOM     12  O   UNL A   1      33.997  21.602  27.739  1.00  0.00    -0.266 OA
ATOM     13  H   UNL A   1      36.158  22.247  27.314  1.00  0.00     0.165 HD
BRANCH  11  14
ATOM     14  C   UNL A   1      33.703  20.909  25.505  1.00  0.00     0.191 A 
ATOM     15  C   UNL A   1      33.144  19.205  24.183  1.00  0.00     0.114 A 
ATOM     16  C   UNL A   1      32.377  20.275  23.785  1.00  0.00     0.047 A 
ATOM     17  O   UNL A   1      33.957  19.589  25.208  1.00  0.00    -0.455 OA
ATOM     18  C   UNL A   1      32.735  21.358  24.623  1.00  0.00     0.056 A 
BRANCH  15  19
ATOM     19  C   UNL A   1      33.289  17.791  23.746  1.00  0.00     0.144 C 
BRANCH  19  20
ATOM     20  S   UNL A   1      33.067  16.572  25.083  1.00  0.00    -0.157 SA
ATOM     21  C   UNL A   1      34.767  15.963  25.216  1.00  0.00     0.085 C 
ENDBRANCH  19  20
ENDBRANCH  15  19
ENDBRANCH  11  14
ENDBRANCH   8  10
BRANCH   8  22
ATOM     22  C   UNL A   1      36.210  22.970  24.179  1.00  0.00     0.422 C 
ATOM     23  F   UNL A   1      35.519  24.028  24.672  1.00  0.00    -0.168 F 
ATOM     24  F   UNL A   1      37.229  23.489  23.460  1.00  0.00    -0.168 F 
ATOM     25  F   UNL A   1      35.405  22.363  23.274  1.00  0.00    -0.168 F 
ENDBRANCH   8  22
ENDBRANCH   6   8
ENDBRANCH   5   6
ENDBRANCH   4   5
ENDBRANCH   3   4
ENDBRANCH   2   3
ENDBRANCH   1   2
BRANCH   1  26
ATOM     26  C   UNL A   1      44.254  20.801  25.527  1.00  0.00     0.188 C 
BRANCH  26  27
ATOM     27  O   UNL A   1      44.421  20.627  24.127  1.00  0.00    -0.376 OA
BRANCH  27  28
ATOM     28  C   UNL A   1      44.777  21.804  23.415  1.00  0.00     0.202 C 
BRANCH  28  29
ATOM     29  C   UNL A   1      45.573  22.755  24.311  1.00  0.00     0.261 C 
BRANCH  29  30
ATOM     30  O   UNL A   1      44.935  24.031  24.512  1.00  0.00    -0.460 OA
BRANCH  30  31
ATOM     31  C   UNL A   1      45.726  25.039  24.941  1.00  0.00     0.338 C 
ATOM     32  O   UNL A   1      46.843  25.321  24.540  1.00  0.00    -0.246 OA
BRANCH  31  33
ATOM     33  C   UNL A   1      44.935  25.889  25.854  1.00  0.00     0.060 A 
ATOM     34  C   UNL A   1      45.073  27.280  25.773  1.00  0.00     0.016 A 
ATOM     35  C   UNL A   1      44.065  25.318  26.786  1.00  0.00     0.016 A 
ATOM     36  C   UNL A   1      44.360  28.106  26.645  1.00  0.00     0.010 A 
ATOM     37  C   UNL A   1      43.366  26.143  27.669  1.00  0.00     0.010 A 
ATOM     38  C   UNL A   1      43.529  27.539  27.620  1.00  0.00    -0.014 A 
BRANCH  38  39
ATOM     39  C   UNL A   1      42.951  28.374  28.701  1.00  0.00     0.031 A 
ATOM     40  C   UNL A   1      43.732  28.539  29.974  1.00  0.00     0.074 A 
ATOM     41  C   UNL A   1      41.741  28.948  28.572  1.00  0.00     0.049 A 
ATOM     42  N   UNL A   1      43.383  29.119  31.095  1.00  0.00    -0.248 NA
ATOM     43  C   UNL A   1      45.090  27.972  29.986  1.00  0.00     0.031 C 
ATOM     44  C   UNL A   1      40.902  28.899  27.378  1.00  0.00     0.029 A 
ATOM     45  N   UNL A   1      41.002  29.670  29.477  1.00  0.00    -0.354 N 
ATOM     46  C   UNL A   1      44.470  28.978  31.945  1.00  0.00     0.074 A 
ATOM     47  C   UNL A   1      45.488  28.247  31.219  1.00  0.00     0.031 C 
ATOM     48  C   UNL A   1      39.748  29.543  27.632  1.00  0.00     0.029 A 
ATOM     49  C   UNL A   1      39.756  30.016  29.016  1.00  0.00     0.049 A 
ATOM     50  H   UNL A   1      41.334  29.917  30.370  1.00  0.00     0.167 HD
ATOM     51  C   UNL A   1      44.609  29.416  33.218  1.00  0.00     0.037 A 
ATOM     52  C   UNL A   1      38.729  30.614  29.654  1.00  0.00     0.037 A 
ATOM     53  C   UNL A   1      43.603  30.142  33.944  1.00  0.00     0.049 A 
ATOM     54  C   UNL A   1      38.882  31.017  31.100  1.00  0.00     0.074 A 
ATOM     55  C   UNL A   1      43.667  30.653  35.229  1.00  0.00     0.029 A 
ATOM     56  N   UNL A   1      42.345  30.452  33.452  1.00  0.00    -0.354 N 
ATOM     57  N   UNL A   1      39.924  30.910  31.887  1.00  0.00    -0.248 NA
ATOM     58  C   UNL A   1      37.706  31.620  31.749  1.00  0.00     0.031 C 
ATOM     59  C   UNL A   1      42.431  31.231  35.532  1.00  0.00     0.029 A 
ATOM     60  C   UNL A   1      41.614  31.122  34.419  1.00  0.00     0.049 A 
ATOM     61  H   UNL A   1      42.019  30.229  32.550  1.00  0.00     0.167 HD
ATOM     62  C   UNL A   1      39.543  31.459  33.106  1.00  0.00     0.074 A 
ATOM     63  C   UNL A   1      38.176  31.908  32.954  1.00  0.00     0.031 C 
ATOM     64  C   UNL A   1      40.261  31.582  34.249  1.00  0.00     0.037 A 
BRANCH  51  65
ATOM     65  C   UNL A   1      45.891  29.101  33.924  1.00  0.00     0.064 A 
ATOM     66  C   UNL A   1      46.981  29.982  33.893  1.00  0.00     0.173 A 
ATOM     67  C   UNL A   1      46.007  27.933  34.691  1.00  0.00     0.173 A 
ATOM     68  F   UNL A   1      46.922  31.104  33.160  1.00  0.00    -0.203 F 
ATOM     69  C   UNL A   1      48.147  29.698  34.598  1.00  0.00     0.198 A 
ATOM     70  C   UNL A   1      47.166  27.662  35.412  1.00  0.00     0.198 A 
ATOM     71  F   UNL A   1      44.990  27.060  34.750  1.00  0.00    -0.203 F 
ATOM     72  F   UNL A   1      49.190  30.539  34.533  1.00  0.00    -0.200 F 
ATOM     73  C   UNL A   1      48.235  28.544  35.363  1.00  0.00     0.200 A 
ATOM     74  F   UNL A   1      47.246  26.552  36.157  1.00  0.00    -0.200 F 
ATOM     75  F   UNL A   1      49.355  28.279  36.052  1.00  0.00    -0.200 F 
ENDBRANCH  51  65
BRANCH  52  76
ATOM     76  C   UNL A   1      37.438  30.845  28.952  1.00  0.00     0.064 A 
ATOM     77  C   UNL A   1      37.067  32.128  28.528  1.00  0.00     0.173 A 
ATOM     78  C   UNL A   1      36.522  29.801  28.756  1.00  0.00     0.173 A 
ATOM     79  F   UNL A   1      37.897  33.164  28.725  1.00  0.00    -0.203 F 
ATOM     80  C   UNL A   1      35.817  32.365  27.960  1.00  0.00     0.198 A 
ATOM     81  C   UNL A   1      35.283  30.034  28.162  1.00  0.00     0.198 A 
ATOM     82  F   UNL A   1      36.824  28.557  29.153  1.00  0.00    -0.203 F 
ATOM     83  F   UNL A   1      35.462  33.612  27.624  1.00  0.00    -0.200 F 
ATOM     84  C   UNL A   1      34.926  31.318  27.776  1.00  0.00     0.200 A 
ATOM     85  F   UNL A   1      34.427  29.020  27.982  1.00  0.00    -0.200 F 
ATOM     86  F   UNL A   1      33.719  31.548  27.242  1.00  0.00    -0.200 F 
ENDBRANCH  52  76
BRANCH  64  87
ATOM     87  C   UNL A   1      39.605  32.267  35.413  1.00  0.00     0.064 A 
ATOM     88  C   UNL A   1      39.739  33.647  35.626  1.00  0.00     0.173 A 
ATOM     89  C   UNL A   1      38.792  31.540  36.296  1.00  0.00     0.173 A 
ATOM     90  F   UNL A   1      40.515  34.382  34.817  1.00  0.00    -0.203 F 
ATOM     91  C   UNL A   1      39.098  34.270  36.694  1.00  0.00     0.198 A 
ATOM     92  C   UNL A   1      38.131  32.171  37.346  1.00  0.00     0.198 A 
ATOM     93  F   UNL A   1      38.626  30.220  36.130  1.00  0.00    -0.203 F 
ATOM     94  F   UNL A   1      39.271  35.582  36.904  1.00  0.00    -0.200 F 
ATOM     95  C   UNL A   1      38.289  33.533  37.548  1.00  0.00     0.200 A 
ATOM     96  F   UNL A   1      37.340  31.460  38.161  1.00  0.00    -0.200 F 
ATOM     97  F   UNL A   1      37.666  34.137  38.569  1.00  0.00    -0.200 F 
ENDBRANCH  64  87
ENDBRANCH  38  39
ENDBRANCH  31  33
ENDBRANCH  30  31
ENDBRANCH  29  30
ENDBRANCH  28  29
ENDBRANCH  27  28
ENDBRANCH  26  27
ENDBRANCH   1  26
TORSDOF 22
ENDMDL
