MODEL 1
REMARK VINA RESULT:     -11.2      0.000      0.000
REMARK SMILES O=C(OCCOCCOCCOC(=O)c1sccc1S(=O)(=O)N1CCO[C@@H]2CCCC[C@@H]21)c1ccc(-c2c3nc(c(-c4c(F)c(F)c(F)c(F)c4F)c4ccc([nH]4)c(-c4c(F)c(F)c(F)c(F)c4F)c4nc(c(-c5c(F)c(F)c(F)c(F)c5F)c5ccc2[nH]5)C=C4)C=C3)cc1
REMARK SMILES IDX 7 1 6 2 5 3 4 4 3 5 2 6 1 7 33 8 34 9 95 10 35 11 94 12
REMARK SMILES IDX 36 13 37 14 38 15 88 16 39 17 93 18 87 19 89 20 40 21 92 22
REMARK SMILES IDX 86 23 85 24 41 26 73 27 53 28 72 29 54 30 57 31 71 32 90 33
REMARK SMILES IDX 55 34 56 35 70 37 91 38 58 39 42 40 43 41 51 42 44 43 45 44
REMARK SMILES IDX 49 45 52 46 46 47 47 48 50 49 48 50 74 51 75 52 83 53 76 54
REMARK SMILES IDX 77 55 81 56 84 57 78 58 79 59 82 60 80 61 59 62 60 63 68 64
REMARK SMILES IDX 61 65 62 66 66 67 69 68 63 69 64 70 67 71 65 72 8 73 9 74
REMARK SMILES IDX 10 75 11 76 12 77 13 78 14 79 15 80 16 81 19 82 17 83 18 84
REMARK SMILES IDX 20 85 21 86 22 87 23 88 24 89 32 90 25 91 27 92 31 93 26 94
REMARK SMILES IDX 28 95 30 96 29 97
REMARK H PARENT 89 25 57 36
REMARK Flexibility Score: inf
ROOT
ATOM      1  C   UNL A   1      39.408  21.423  26.078  1.00  0.00     0.188 C 
ENDROOT
BRANCH   1   2
ATOM      2  O   UNL A   1      40.598  21.243  26.860  1.00  0.00    -0.376 OA
BRANCH   2   3
ATOM      3  C   UNL A   1      41.661  20.639  26.131  1.00  0.00     0.202 C 
BRANCH   3   4
ATOM      4  C   UNL A   1      42.881  21.534  25.887  1.00  0.00     0.261 C 
BRANCH   4   5
ATOM      5  O   UNL A   1      42.656  22.702  25.080  1.00  0.00    -0.460 OA
BRANCH   5   6
ATOM      6  C   UNL A   1      43.167  23.952  25.165  1.00  0.00     0.338 C 
ATOM      7  O   UNL A   1      44.185  24.200  24.517  1.00  0.00    -0.246 OA
BRANCH   6   8
ATOM      8  C   UNL A   1      42.626  25.050  26.029  1.00  0.00     0.060 A 
ATOM      9  C   UNL A   1      43.118  26.354  26.087  1.00  0.00     0.016 A 
ATOM     10  C   UNL A   1      41.580  24.703  26.914  1.00  0.00     0.016 A 
ATOM     11  C   UNL A   1      42.612  27.269  27.013  1.00  0.00     0.010 A 
ATOM     12  C   UNL A   1      41.081  25.608  27.859  1.00  0.00     0.010 A 
ATOM     13  C   UNL A   1      41.626  26.889  27.932  1.00  0.00    -0.014 A 
BRANCH  13  14
ATOM     14  C   UNL A   1      41.412  27.769  29.103  1.00  0.00     0.031 A 
ATOM     15  C   UNL A   1      40.225  28.685  29.057  1.00  0.00     0.074 A 
ATOM     16  C   UNL A   1      42.159  27.669  30.215  1.00  0.00     0.049 A 
ATOM     17  N   UNL A   1      39.677  29.387  30.012  1.00  0.00    -0.248 NA
ATOM     18  C   UNL A   1      39.545  28.800  27.754  1.00  0.00     0.031 C 
ATOM     19  C   UNL A   1      43.326  26.810  30.364  1.00  0.00     0.029 A 
ATOM     20  N   UNL A   1      42.021  28.266  31.443  1.00  0.00    -0.354 N 
ATOM     21  C   UNL A   1      38.567  29.989  29.438  1.00  0.00     0.074 A 
ATOM     22  C   UNL A   1      38.531  29.595  28.047  1.00  0.00     0.031 C 
ATOM     23  C   UNL A   1      43.771  26.893  31.631  1.00  0.00     0.029 A 
ATOM     24  C   UNL A   1      42.940  27.837  32.371  1.00  0.00     0.049 A 
ATOM     25  H   UNL A   1      41.329  28.939  31.639  1.00  0.00     0.167 HD
ATOM     26  C   UNL A   1      37.660  30.806  30.019  1.00  0.00     0.037 A 
ATOM     27  C   UNL A   1      43.084  28.173  33.669  1.00  0.00     0.037 A 
ATOM     28  C   UNL A   1      37.766  31.280  31.370  1.00  0.00     0.049 A 
ATOM     29  C   UNL A   1      42.111  29.162  34.266  1.00  0.00     0.074 A 
ATOM     30  C   UNL A   1      36.976  32.205  32.027  1.00  0.00     0.029 A 
ATOM     31  N   UNL A   1      38.750  30.881  32.263  1.00  0.00    -0.354 N 
ATOM     32  N   UNL A   1      41.052  29.715  33.722  1.00  0.00    -0.248 NA
ATOM     33  C   UNL A   1      42.356  29.579  35.654  1.00  0.00     0.031 C 
ATOM     34  C   UNL A   1      37.513  32.401  33.305  1.00  0.00     0.029 A 
ATOM     35  C   UNL A   1      38.600  31.553  33.463  1.00  0.00     0.049 A 
ATOM     36  H   UNL A   1      39.452  30.217  32.071  1.00  0.00     0.167 HD
ATOM     37  C   UNL A   1      40.505  30.539  34.699  1.00  0.00     0.074 A 
ATOM     38  C   UNL A   1      41.323  30.378  35.883  1.00  0.00     0.031 C 
ATOM     39  C   UNL A   1      39.434  31.368  34.624  1.00  0.00     0.037 A 
BRANCH  26  40
ATOM     40  C   UNL A   1      36.527  31.273  29.157  1.00  0.00     0.064 A 
ATOM     41  C   UNL A   1      36.439  32.607  28.731  1.00  0.00     0.173 A 
ATOM     42  C   UNL A   1      35.499  30.394  28.789  1.00  0.00     0.173 A 
ATOM     43  F   UNL A   1      37.382  33.494  29.086  1.00  0.00    -0.203 F 
ATOM     44  C   UNL A   1      35.349  33.049  27.985  1.00  0.00     0.198 A 
ATOM     45  C   UNL A   1      34.423  30.834  28.025  1.00  0.00     0.198 A 
ATOM     46  F   UNL A   1      35.531  29.113  29.185  1.00  0.00    -0.203 F 
ATOM     47  F   UNL A   1      35.256  34.339  27.636  1.00  0.00    -0.200 F 
ATOM     48  C   UNL A   1      34.344  32.161  27.630  1.00  0.00     0.200 A 
ATOM     49  F   UNL A   1      33.451  29.976  27.683  1.00  0.00    -0.200 F 
ATOM     50  F   UNL A   1      33.290  32.590  26.922  1.00  0.00    -0.200 F 
ENDBRANCH  26  40
BRANCH  27  51
ATOM     51  C   UNL A   1      44.194  27.602  34.487  1.00  0.00     0.064 A 
ATOM     52  C   UNL A   1      44.035  26.410  35.209  1.00  0.00     0.173 A 
ATOM     53  C   UNL A   1      45.422  28.270  34.613  1.00  0.00     0.173 A 
ATOM     54  F   UNL A   1      42.873  25.740  35.148  1.00  0.00    -0.203 F 
ATOM     55  C   UNL A   1      45.039  25.931  36.050  1.00  0.00     0.198 A 
ATOM     56  C   UNL A   1      46.441  27.772  35.424  1.00  0.00     0.198 A 
ATOM     57  F   UNL A   1      45.633  29.418  33.953  1.00  0.00    -0.203 F 
ATOM     58  F   UNL A   1      44.827  24.832  36.787  1.00  0.00    -0.200 F 
ATOM     59  C   UNL A   1      46.244  26.611  36.154  1.00  0.00     0.200 A 
ATOM     60  F   UNL A   1      47.603  28.433  35.517  1.00  0.00    -0.200 F 
ATOM     61  F   UNL A   1      47.201  26.162  36.978  1.00  0.00    -0.200 F 
ENDBRANCH  27  51
BRANCH  39  62
ATOM     62  C   UNL A   1      39.085  32.152  35.855  1.00  0.00     0.064 A 
ATOM     63  C   UNL A   1      39.536  33.467  36.043  1.00  0.00     0.173 A 
ATOM     64  C   UNL A   1      38.249  31.597  36.837  1.00  0.00     0.173 A 
ATOM     65  F   UNL A   1      40.345  34.039  35.138  1.00  0.00    -0.203 F 
ATOM     66  C   UNL A   1      39.189  34.187  37.183  1.00  0.00     0.198 A 
ATOM     67  C   UNL A   1      37.878  32.331  37.959  1.00  0.00     0.198 A 
ATOM     68  F   UNL A   1      37.782  30.347  36.699  1.00  0.00    -0.203 F 
ATOM     69  F   UNL A   1      39.674  35.422  37.366  1.00  0.00    -0.200 F 
ATOM     70  C   UNL A   1      38.355  33.622  38.135  1.00  0.00     0.200 A 
ATOM     71  F   UNL A   1      37.057  31.790  38.870  1.00  0.00    -0.200 F 
ATOM     72  F   UNL A   1      38.015  34.319  39.229  1.00  0.00    -0.200 F 
ENDBRANCH  39  62
ENDBRANCH  13  14
ENDBRANCH   6   8
ENDBRANCH   5   6
ENDBRANCH   4   5
ENDBRANCH   3   4
ENDBRANCH   2   3
ENDBRANCH   1   2
BRANCH   1  73
ATOM     73  C   UNL A   1      38.817  22.811  26.289  1.00  0.00     0.188 C 
BRANCH  73  74
ATOM     74  O   UNL A   1      37.555  22.973  25.642  1.00  0.00    -0.376 OA
BRANCH  74  75
ATOM     75  C   UNL A   1      36.824  21.764  25.435  1.00  0.00     0.202 C 
BRANCH  75  76
ATOM     76  C   UNL A   1      35.602  21.963  24.535  1.00  0.00     0.261 C 
BRANCH  76  77
ATOM     77  O   UNL A   1      34.383  21.904  25.303  1.00  0.00    -0.459 OA
BRANCH  77  78
ATOM     78  C   UNL A   1      33.216  22.031  24.611  1.00  0.00     0.349 C 
ATOM     79  O   UNL A   1      32.918  21.387  23.618  1.00  0.00    -0.245 OA
BRANCH  78  80
ATOM     80  C   UNL A   1      32.364  23.006  25.253  1.00  0.00     0.132 A 
ATOM     81  S   UNL A   1      31.072  22.444  26.231  1.00  0.00    -0.136 S 
ATOM     82  C   UNL A   1      32.358  24.384  25.160  1.00  0.00     0.108 A 
ATOM     83  C   UNL A   1      30.478  24.027  26.483  1.00  0.00     0.067 A 
ATOM     84  C   UNL A   1      31.248  24.973  25.845  1.00  0.00     0.034 A 
BRANCH  82  85
ATOM     85  S   UNL A   1      33.508  25.307  24.245  1.00  0.00     0.245 S 
ATOM     86  O   UNL A   1      34.679  25.278  25.097  1.00  0.00    -0.207 OA
ATOM     87  O   UNL A   1      33.505  24.701  22.933  1.00  0.00    -0.207 OA
BRANCH  85  88
ATOM     88  N   UNL A   1      32.934  26.895  24.129  1.00  0.00    -0.190 NA
ATOM     89  C   UNL A   1      33.682  27.883  24.948  1.00  0.00     0.131 C 
ATOM     90  C   UNL A   1      32.297  27.375  22.858  1.00  0.00     0.102 C 
ATOM     91  C   UNL A   1      33.278  29.330  24.706  1.00  0.00     0.177 C 
ATOM     92  C   UNL A   1      31.849  28.870  22.915  1.00  0.00     0.136 C 
ATOM     93  C   UNL A   1      31.132  26.479  22.412  1.00  0.00     0.023 C 
ATOM     94  O   UNL A   1      31.939  29.433  24.233  1.00  0.00    -0.375 OA
ATOM     95  C   UNL A   1      30.424  29.111  22.410  1.00  0.00     0.034 C 
ATOM     96  C   UNL A   1      29.819  26.753  23.129  1.00  0.00     0.002 C 
ATOM     97  C   UNL A   1      29.416  28.219  23.117  1.00  0.00     0.003 C 
ENDBRANCH  85  88
ENDBRANCH  82  85
ENDBRANCH  78  80
ENDBRANCH  77  78
ENDBRANCH  76  77
ENDBRANCH  75  76
ENDBRANCH  74  75
ENDBRANCH  73  74
ENDBRANCH   1  73
TORSDOF 19
ENDMDL
MODEL 2
REMARK VINA RESULT:     -11.1      4.933     10.346
REMARK SMILES O=C(OCCOCCOCCOC(=O)c1sccc1S(=O)(=O)N1CCO[C@@H]2CCCC[C@@H]21)c1ccc(-c2c3nc(c(-c4c(F)c(F)c(F)c(F)c4F)c4ccc([nH]4)c(-c4c(F)c(F)c(F)c(F)c4F)c4nc(c(-c5c(F)c(F)c(F)c(F)c5F)c5ccc2[nH]5)C=C4)C=C3)cc1
REMARK SMILES IDX 7 1 6 2 5 3 4 4 3 5 2 6 1 7 33 8 34 9 95 10 35 11 94 12
REMARK SMILES IDX 36 13 37 14 38 15 88 16 39 17 93 18 87 19 89 20 40 21 92 22
REMARK SMILES IDX 86 23 85 24 41 26 73 27 53 28 72 29 54 30 57 31 71 32 90 33
REMARK SMILES IDX 55 34 56 35 70 37 91 38 58 39 42 40 43 41 51 42 44 43 45 44
REMARK SMILES IDX 49 45 52 46 46 47 47 48 50 49 48 50 74 51 75 52 83 53 76 54
REMARK SMILES IDX 77 55 81 56 84 57 78 58 79 59 82 60 80 61 59 62 60 63 68 64
REMARK SMILES IDX 61 65 62 66 66 67 69 68 63 69 64 70 67 71 65 72 8 73 9 74
REMARK SMILES IDX 10 75 11 76 12 77 13 78 14 79 15 80 16 81 19 82 17 83 18 84
REMARK SMILES IDX 20 85 21 86 22 87 23 88 24 89 32 90 25 91 27 92 31 93 26 94
REMARK SMILES IDX 28 95 30 96 29 97
REMARK H PARENT 89 25 57 36
REMARK Flexibility Score: inf
ROOT
ATOM      1  C   UNL A   1      35.007  33.559  29.313  1.00  0.00     0.188 C 
ENDROOT
BRANCH   1   2
ATOM      2  O   UNL A   1      34.126  33.657  30.442  1.00  0.00    -0.376 OA
BRANCH   2   3
ATOM      3  C   UNL A   1      34.653  34.458  31.495  1.00  0.00     0.202 C 
BRANCH   3   4
ATOM      4  C   UNL A   1      34.573  33.836  32.893  1.00  0.00     0.261 C 
BRANCH   4   5
ATOM      5  O   UNL A   1      35.072  32.494  33.018  1.00  0.00    -0.460 OA
BRANCH   5   6
ATOM      6  C   UNL A   1      36.278  32.027  33.413  1.00  0.00     0.338 C 
ATOM      7  O   UNL A   1      36.685  32.358  34.528  1.00  0.00    -0.246 OA
BRANCH   6   8
ATOM      8  C   UNL A   1      37.192  31.180  32.580  1.00  0.00     0.060 A 
ATOM      9  C   UNL A   1      38.324  30.509  33.044  1.00  0.00     0.016 A 
ATOM     10  C   UNL A   1      36.920  31.128  31.194  1.00  0.00     0.016 A 
ATOM     11  C   UNL A   1      39.172  29.840  32.158  1.00  0.00     0.010 A 
ATOM     12  C   UNL A   1      37.776  30.476  30.297  1.00  0.00     0.010 A 
ATOM     13  C   UNL A   1      38.929  29.858  30.780  1.00  0.00    -0.014 A 
BRANCH  13  14
ATOM     14  C   UNL A   1      40.043  29.464  29.888  1.00  0.00     0.031 A 
ATOM     15  C   UNL A   1      41.150  30.459  29.705  1.00  0.00     0.074 A 
ATOM     16  C   UNL A   1      40.135  28.229  29.367  1.00  0.00     0.049 A 
ATOM     17  N   UNL A   1      42.332  30.300  29.173  1.00  0.00    -0.248 NA
ATOM     18  C   UNL A   1      40.896  31.815  30.221  1.00  0.00     0.031 C 
ATOM     19  C   UNL A   1      39.121  27.191  29.490  1.00  0.00     0.029 A 
ATOM     20  N   UNL A   1      41.150  27.628  28.665  1.00  0.00    -0.354 N 
ATOM     21  C   UNL A   1      42.975  31.519  29.331  1.00  0.00     0.074 A 
ATOM     22  C   UNL A   1      42.048  32.417  29.981  1.00  0.00     0.031 C 
ATOM     23  C   UNL A   1      39.583  26.059  28.930  1.00  0.00     0.029 A 
ATOM     24  C   UNL A   1      40.912  26.305  28.378  1.00  0.00     0.049 A 
ATOM     25  H   UNL A   1      41.969  28.100  28.393  1.00  0.00     0.167 HD
ATOM     26  C   UNL A   1      44.229  31.862  28.959  1.00  0.00     0.037 A 
ATOM     27  C   UNL A   1      41.686  25.402  27.743  1.00  0.00     0.037 A 
ATOM     28  C   UNL A   1      45.103  30.999  28.215  1.00  0.00     0.049 A 
ATOM     29  C   UNL A   1      43.047  25.841  27.255  1.00  0.00     0.074 A 
ATOM     30  C   UNL A   1      46.345  31.280  27.677  1.00  0.00     0.029 A 
ATOM     31  N   UNL A   1      44.803  29.687  27.878  1.00  0.00    -0.354 N 
ATOM     32  N   UNL A   1      43.657  26.991  27.422  1.00  0.00    -0.248 NA
ATOM     33  C   UNL A   1      43.823  24.860  26.483  1.00  0.00     0.031 C 
ATOM     34  C   UNL A   1      46.776  30.150  26.973  1.00  0.00     0.029 A 
ATOM     35  C   UNL A   1      45.830  29.146  27.124  1.00  0.00     0.049 A 
ATOM     36  H   UNL A   1      43.982  29.210  28.137  1.00  0.00     0.167 HD
ATOM     37  C   UNL A   1      44.884  26.872  26.783  1.00  0.00     0.074 A 
ATOM     38  C   UNL A   1      44.952  25.522  26.264  1.00  0.00     0.031 C 
ATOM     39  C   UNL A   1      45.865  27.796  26.622  1.00  0.00     0.037 A 
BRANCH  26  40
ATOM     40  C   UNL A   1      44.676  33.249  29.303  1.00  0.00     0.064 A 
ATOM     41  C   UNL A   1      44.491  34.316  28.412  1.00  0.00     0.173 A 
ATOM     42  C   UNL A   1      45.334  33.508  30.514  1.00  0.00     0.173 A 
ATOM     43  F   UNL A   1      43.898  34.111  27.225  1.00  0.00    -0.203 F 
ATOM     44  C   UNL A   1      44.969  35.590  28.711  1.00  0.00     0.198 A 
ATOM     45  C   UNL A   1      45.789  34.787  30.820  1.00  0.00     0.198 A 
ATOM     46  F   UNL A   1      45.547  32.518  31.392  1.00  0.00    -0.203 F 
ATOM     47  F   UNL A   1      44.831  36.583  27.821  1.00  0.00    -0.200 F 
ATOM     48  C   UNL A   1      45.614  35.825  29.916  1.00  0.00     0.200 A 
ATOM     49  F   UNL A   1      46.414  35.013  31.984  1.00  0.00    -0.200 F 
ATOM     50  F   UNL A   1      46.083  37.048  30.199  1.00  0.00    -0.200 F 
ENDBRANCH  26  40
BRANCH  27  51
ATOM     51  C   UNL A   1      41.201  24.011  27.507  1.00  0.00     0.064 A 
ATOM     52  C   UNL A   1      41.831  22.904  28.096  1.00  0.00     0.173 A 
ATOM     53  C   UNL A   1      40.130  23.753  26.636  1.00  0.00     0.173 A 
ATOM     54  F   UNL A   1      42.876  23.086  28.917  1.00  0.00    -0.203 F 
ATOM     55  C   UNL A   1      41.436  21.600  27.795  1.00  0.00     0.198 A 
ATOM     56  C   UNL A   1      39.711  22.450  26.365  1.00  0.00     0.198 A 
ATOM     57  F   UNL A   1      39.492  24.768  26.037  1.00  0.00    -0.203 F 
ATOM     58  F   UNL A   1      42.109  20.562  28.312  1.00  0.00    -0.200 F 
ATOM     59  C   UNL A   1      40.374  21.374  26.932  1.00  0.00     0.200 A 
ATOM     60  F   UNL A   1      38.681  22.242  25.533  1.00  0.00    -0.200 F 
ATOM     61  F   UNL A   1      40.008  20.122  26.627  1.00  0.00    -0.200 F 
ENDBRANCH  27  51
BRANCH  39  62
ATOM     62  C   UNL A   1      47.090  27.373  25.864  1.00  0.00     0.064 A 
ATOM     63  C   UNL A   1      47.222  27.611  24.488  1.00  0.00     0.173 A 
ATOM     64  C   UNL A   1      48.163  26.765  26.534  1.00  0.00     0.173 A 
ATOM     65  F   UNL A   1      46.219  28.181  23.802  1.00  0.00    -0.203 F 
ATOM     66  C   UNL A   1      48.373  27.228  23.804  1.00  0.00     0.198 A 
ATOM     67  C   UNL A   1      49.324  26.414  25.852  1.00  0.00     0.198 A 
ATOM     68  F   UNL A   1      48.091  26.525  27.851  1.00  0.00    -0.203 F 
ATOM     69  F   UNL A   1      48.456  27.419  22.480  1.00  0.00    -0.200 F 
ATOM     70  C   UNL A   1      49.424  26.638  24.486  1.00  0.00     0.200 A 
ATOM     71  F   UNL A   1      50.347  25.859  26.517  1.00  0.00    -0.200 F 
ATOM     72  F   UNL A   1      50.534  26.277  23.827  1.00  0.00    -0.200 F 
ENDBRANCH  39  62
ENDBRANCH  13  14
ENDBRANCH   6   8
ENDBRANCH   5   6
ENDBRANCH   4   5
ENDBRANCH   3   4
ENDBRANCH   2   3
ENDBRANCH   1   2
BRANCH   1  73
ATOM     73  C   UNL A   1      34.314  32.886  28.134  1.00  0.00     0.188 C 
BRANCH  73  74
ATOM     74  O   UNL A   1      34.023  31.511  28.383  1.00  0.00    -0.376 OA
BRANCH  74  75
ATOM     75  C   UNL A   1      34.138  30.655  27.246  1.00  0.00     0.202 C 
BRANCH  75  76
ATOM     76  C   UNL A   1      32.939  29.718  27.092  1.00  0.00     0.261 C 
BRANCH  76  77
ATOM     77  O   UNL A   1      33.049  28.934  25.887  1.00  0.00    -0.459 OA
BRANCH  77  78
ATOM     78  C   UNL A   1      32.244  27.839  25.791  1.00  0.00     0.349 C 
ATOM     79  O   UNL A   1      31.936  27.114  26.724  1.00  0.00    -0.245 OA
BRANCH  78  80
ATOM     80  C   UNL A   1      31.773  27.688  24.433  1.00  0.00     0.132 A 
ATOM     81  S   UNL A   1      30.435  28.632  23.925  1.00  0.00    -0.136 S 
ATOM     82  C   UNL A   1      32.183  26.824  23.437  1.00  0.00     0.108 A 
ATOM     83  C   UNL A   1      30.369  27.852  22.405  1.00  0.00     0.067 A 
ATOM     84  C   UNL A   1      31.351  26.896  22.275  1.00  0.00     0.034 A 
BRANCH  82  85
ATOM     85  S   UNL A   1      33.501  25.706  23.595  1.00  0.00     0.245 S 
ATOM     86  O   UNL A   1      33.923  25.528  22.221  1.00  0.00    -0.207 OA
ATOM     87  O   UNL A   1      34.367  26.296  24.589  1.00  0.00    -0.207 OA
BRANCH  85  88
ATOM     88  N   UNL A   1      32.882  24.245  24.187  1.00  0.00    -0.190 NA
ATOM     89  C   UNL A   1      31.496  24.329  24.713  1.00  0.00     0.131 C 
ATOM     90  C   UNL A   1      33.331  22.942  23.593  1.00  0.00     0.102 C 
ATOM     91  C   UNL A   1      30.883  22.985  25.079  1.00  0.00     0.177 C 
ATOM     92  C   UNL A   1      32.643  21.698  24.239  1.00  0.00     0.136 C 
ATOM     93  C   UNL A   1      34.859  22.785  23.611  1.00  0.00     0.023 C 
ATOM     94  O   UNL A   1      31.879  22.023  25.410  1.00  0.00    -0.375 OA
ATOM     95  C   UNL A   1      33.616  20.579  24.623  1.00  0.00     0.034 C 
ATOM     96  C   UNL A   1      35.427  22.329  24.947  1.00  0.00     0.002 C 
ATOM     97  C   UNL A   1      34.744  21.090  25.505  1.00  0.00     0.003 C 
ENDBRANCH  85  88
ENDBRANCH  82  85
ENDBRANCH  78  80
ENDBRANCH  77  78
ENDBRANCH  76  77
ENDBRANCH  75  76
ENDBRANCH  74  75
ENDBRANCH  73  74
ENDBRANCH   1  73
TORSDOF 19
ENDMDL
MODEL 3
REMARK VINA RESULT:     -11.0      4.559      7.176
REMARK SMILES O=C(OCCOCCOCCOC(=O)c1sccc1S(=O)(=O)N1CCO[C@@H]2CCCC[C@@H]21)c1ccc(-c2c3nc(c(-c4c(F)c(F)c(F)c(F)c4F)c4ccc([nH]4)c(-c4c(F)c(F)c(F)c(F)c4F)c4nc(c(-c5c(F)c(F)c(F)c(F)c5F)c5ccc2[nH]5)C=C4)C=C3)cc1
REMARK SMILES IDX 7 1 6 2 5 3 4 4 3 5 2 6 1 7 33 8 34 9 95 10 35 11 94 12
REMARK SMILES IDX 36 13 37 14 38 15 88 16 39 17 93 18 87 19 89 20 40 21 92 22
REMARK SMILES IDX 86 23 85 24 41 26 73 27 53 28 72 29 54 30 57 31 71 32 90 33
REMARK SMILES IDX 55 34 56 35 70 37 91 38 58 39 42 40 43 41 51 42 44 43 45 44
REMARK SMILES IDX 49 45 52 46 46 47 47 48 50 49 48 50 74 51 75 52 83 53 76 54
REMARK SMILES IDX 77 55 81 56 84 57 78 58 79 59 82 60 80 61 59 62 60 63 68 64
REMARK SMILES IDX 61 65 62 66 66 67 69 68 63 69 64 70 67 71 65 72 8 73 9 74
REMARK SMILES IDX 10 75 11 76 12 77 13 78 14 79 15 80 16 81 19 82 17 83 18 84
REMARK SMILES IDX 20 85 21 86 22 87 23 88 24 89 32 90 25 91 27 92 31 93 26 94
REMARK SMILES IDX 28 95 30 96 29 97
REMARK H PARENT 89 25 57 36
REMARK Flexibility Score: inf
ROOT
ATOM      1  C   UNL A   1      34.723  21.457  26.865  1.00  0.00     0.188 C 
ENDROOT
BRANCH   1   2
ATOM      2  O   UNL A   1      35.940  21.520  26.106  1.00  0.00    -0.376 OA
BRANCH   2   3
ATOM      3  C   UNL A   1      36.022  20.517  25.097  1.00  0.00     0.202 C 
BRANCH   3   4
ATOM      4  C   UNL A   1      37.368  19.791  25.003  1.00  0.00     0.261 C 
BRANCH   4   5
ATOM      5  O   UNL A   1      38.540  20.621  25.074  1.00  0.00    -0.460 OA
BRANCH   5   6
ATOM      6  C   UNL A   1      39.367  20.903  26.106  1.00  0.00     0.338 C 
ATOM      7  O   UNL A   1      39.803  19.960  26.767  1.00  0.00    -0.246 OA
BRANCH   6   8
ATOM      8  C   UNL A   1      39.758  22.281  26.548  1.00  0.00     0.060 A 
ATOM      9  C   UNL A   1      39.159  23.469  26.128  1.00  0.00     0.016 A 
ATOM     10  C   UNL A   1      40.881  22.377  27.401  1.00  0.00     0.016 A 
ATOM     11  C   UNL A   1      39.677  24.707  26.515  1.00  0.00     0.010 A 
ATOM     12  C   UNL A   1      41.418  23.615  27.777  1.00  0.00     0.010 A 
ATOM     13  C   UNL A   1      40.833  24.787  27.301  1.00  0.00    -0.014 A 
BRANCH  13  14
ATOM     14  C   UNL A   1      41.529  26.093  27.355  1.00  0.00     0.031 A 
ATOM     15  C   UNL A   1      40.859  27.187  28.132  1.00  0.00     0.074 A 
ATOM     16  C   UNL A   1      42.762  26.263  26.852  1.00  0.00     0.049 A 
ATOM     17  N   UNL A   1      41.334  28.338  28.528  1.00  0.00    -0.248 NA
ATOM     18  C   UNL A   1      39.467  26.933  28.542  1.00  0.00     0.031 C 
ATOM     19  C   UNL A   1      43.501  25.265  26.089  1.00  0.00     0.029 A 
ATOM     20  N   UNL A   1      43.627  27.325  26.943  1.00  0.00    -0.354 N 
ATOM     21  C   UNL A   1      40.317  28.922  29.268  1.00  0.00     0.074 A 
ATOM     22  C   UNL A   1      39.190  28.017  29.246  1.00  0.00     0.031 C 
ATOM     23  C   UNL A   1      44.731  25.739  25.824  1.00  0.00     0.029 A 
ATOM     24  C   UNL A   1      44.853  27.088  26.368  1.00  0.00     0.049 A 
ATOM     25  H   UNL A   1      43.391  28.176  27.377  1.00  0.00     0.167 HD
ATOM     26  C   UNL A   1      40.321  30.114  29.907  1.00  0.00     0.037 A 
ATOM     27  C   UNL A   1      45.945  27.875  26.297  1.00  0.00     0.037 A 
ATOM     28  C   UNL A   1      41.402  31.054  29.831  1.00  0.00     0.049 A 
ATOM     29  C   UNL A   1      45.887  29.242  26.939  1.00  0.00     0.074 A 
ATOM     30  C   UNL A   1      41.469  32.340  30.332  1.00  0.00     0.029 A 
ATOM     31  N   UNL A   1      42.604  30.811  29.181  1.00  0.00    -0.354 N 
ATOM     32  N   UNL A   1      44.927  29.783  27.654  1.00  0.00    -0.248 NA
ATOM     33  C   UNL A   1      47.059  30.110  26.759  1.00  0.00     0.031 C 
ATOM     34  C   UNL A   1      42.694  32.893  29.943  1.00  0.00     0.029 A 
ATOM     35  C   UNL A   1      43.415  31.930  29.253  1.00  0.00     0.049 A 
ATOM     36  H   UNL A   1      42.845  29.967  28.734  1.00  0.00     0.167 HD
ATOM     37  C   UNL A   1      45.380  31.047  28.009  1.00  0.00     0.074 A 
ATOM     38  C   UNL A   1      46.718  31.176  27.471  1.00  0.00     0.031 C 
ATOM     39  C   UNL A   1      44.744  32.024  28.704  1.00  0.00     0.037 A 
BRANCH  26  40
ATOM     40  C   UNL A   1      39.084  30.468  30.674  1.00  0.00     0.064 A 
ATOM     41  C   UNL A   1      38.013  31.135  30.062  1.00  0.00     0.173 A 
ATOM     42  C   UNL A   1      38.985  30.179  32.042  1.00  0.00     0.173 A 
ATOM     43  F   UNL A   1      38.076  31.465  28.762  1.00  0.00    -0.203 F 
ATOM     44  C   UNL A   1      36.895  31.521  30.798  1.00  0.00     0.198 A 
ATOM     45  C   UNL A   1      37.857  30.545  32.770  1.00  0.00     0.198 A 
ATOM     46  F   UNL A   1      39.990  29.556  32.676  1.00  0.00    -0.203 F 
ATOM     47  F   UNL A   1      35.908  32.207  30.206  1.00  0.00    -0.200 F 
ATOM     48  C   UNL A   1      36.817  31.222  32.150  1.00  0.00     0.200 A 
ATOM     49  F   UNL A   1      37.783  30.257  34.077  1.00  0.00    -0.200 F 
ATOM     50  F   UNL A   1      35.746  31.602  32.860  1.00  0.00    -0.200 F 
ENDBRANCH  26  40
BRANCH  27  51
ATOM     51  C   UNL A   1      47.172  27.418  25.581  1.00  0.00     0.064 A 
ATOM     52  C   UNL A   1      48.240  26.818  26.263  1.00  0.00     0.173 A 
ATOM     53  C   UNL A   1      47.328  27.628  24.201  1.00  0.00     0.173 A 
ATOM     54  F   UNL A   1      48.159  26.614  27.587  1.00  0.00    -0.203 F 
ATOM     55  C   UNL A   1      49.424  26.481  25.606  1.00  0.00     0.198 A 
ATOM     56  C   UNL A   1      48.497  27.258  23.537  1.00  0.00     0.198 A 
ATOM     57  F   UNL A   1      46.345  28.205  23.494  1.00  0.00    -0.203 F 
ATOM     58  F   UNL A   1      50.455  25.982  26.301  1.00  0.00    -0.200 F 
ATOM     59  C   UNL A   1      49.550  26.699  24.243  1.00  0.00     0.200 A 
ATOM     60  F   UNL A   1      48.609  27.468  22.218  1.00  0.00    -0.200 F 
ATOM     61  F   UNL A   1      50.695  26.395  23.616  1.00  0.00    -0.200 F 
ENDBRANCH  27  51
BRANCH  39  62
ATOM     62  C   UNL A   1      45.493  33.307  28.926  1.00  0.00     0.064 A 
ATOM     63  C   UNL A   1      45.398  34.379  28.026  1.00  0.00     0.173 A 
ATOM     64  C   UNL A   1      46.277  33.481  30.077  1.00  0.00     0.173 A 
ATOM     65  F   UNL A   1      44.668  34.258  26.906  1.00  0.00    -0.203 F 
ATOM     66  C   UNL A   1      46.085  35.568  28.256  1.00  0.00     0.198 A 
ATOM     67  C   UNL A   1      46.935  34.683  30.319  1.00  0.00     0.198 A 
ATOM     68  F   UNL A   1      46.391  32.490  30.974  1.00  0.00    -0.203 F 
ATOM     69  F   UNL A   1      46.020  36.560  27.358  1.00  0.00    -0.200 F 
ATOM     70  C   UNL A   1      46.845  35.722  29.405  1.00  0.00     0.200 A 
ATOM     71  F   UNL A   1      47.655  34.835  31.439  1.00  0.00    -0.200 F 
ATOM     72  F   UNL A   1      47.500  36.870  29.628  1.00  0.00    -0.200 F 
ENDBRANCH  39  62
ENDBRANCH  13  14
ENDBRANCH   6   8
ENDBRANCH   5   6
ENDBRANCH   4   5
ENDBRANCH   3   4
ENDBRANCH   2   3
ENDBRANCH   1   2
BRANCH   1  73
ATOM     73  C   UNL A   1      33.602  20.823  26.051  1.00  0.00     0.188 C 
BRANCH  73  74
ATOM     74  O   UNL A   1      32.353  21.490  26.228  1.00  0.00    -0.376 OA
BRANCH  74  75
ATOM     75  C   UNL A   1      32.420  22.710  26.966  1.00  0.00     0.202 C 
BRANCH  75  76
ATOM     76  C   UNL A   1      31.164  23.568  26.799  1.00  0.00     0.261 C 
BRANCH  76  77
ATOM     77  O   UNL A   1      31.495  24.972  26.800  1.00  0.00    -0.459 OA
BRANCH  77  78
ATOM     78  C   UNL A   1      30.484  25.841  26.521  1.00  0.00     0.349 C 
ATOM     79  O   UNL A   1      29.294  25.580  26.606  1.00  0.00    -0.245 OA
BRANCH  78  80
ATOM     80  C   UNL A   1      31.026  27.129  26.153  1.00  0.00     0.132 A 
ATOM     81  S   UNL A   1      31.519  28.194  27.405  1.00  0.00    -0.136 S 
ATOM     82  C   UNL A   1      31.162  27.719  24.912  1.00  0.00     0.108 A 
ATOM     83  C   UNL A   1      31.859  29.453  26.299  1.00  0.00     0.067 A 
ATOM     84  C   UNL A   1      31.614  29.074  24.998  1.00  0.00     0.034 A 
BRANCH  82  85
ATOM     85  S   UNL A   1      30.751  26.947  23.413  1.00  0.00     0.245 S 
ATOM     86  O   UNL A   1      29.327  26.728  23.557  1.00  0.00    -0.207 OA
ATOM     87  O   UNL A   1      31.290  27.816  22.393  1.00  0.00    -0.207 OA
BRANCH  85  88
ATOM     88  N   UNL A   1      31.547  25.454  23.355  1.00  0.00    -0.190 NA
ATOM     89  C   UNL A   1      30.657  24.288  23.123  1.00  0.00     0.131 C 
ATOM     90  C   UNL A   1      32.958  25.373  22.851  1.00  0.00     0.102 C 
ATOM     91  C   UNL A   1      31.392  22.975  22.894  1.00  0.00     0.177 C 
ATOM     92  C   UNL A   1      33.529  23.919  22.840  1.00  0.00     0.136 C 
ATOM     93  C   UNL A   1      33.905  26.320  23.603  1.00  0.00     0.023 C 
ATOM     94  O   UNL A   1      32.678  22.976  23.508  1.00  0.00    -0.375 OA
ATOM     95  C   UNL A   1      34.924  23.795  23.459  1.00  0.00     0.034 C 
ATOM     96  C   UNL A   1      34.393  25.787  24.941  1.00  0.00     0.002 C 
ATOM     97  C   UNL A   1      34.974  24.384  24.859  1.00  0.00     0.003 C 
ENDBRANCH  85  88
ENDBRANCH  82  85
ENDBRANCH  78  80
ENDBRANCH  77  78
ENDBRANCH  76  77
ENDBRANCH  75  76
ENDBRANCH  74  75
ENDBRANCH  73  74
ENDBRANCH   1  73
TORSDOF 19
ENDMDL
