MODEL 1
REMARK VINA RESULT:      -8.1      0.000      0.000
REMARK SMILES CCCN1C(=O)/C(=C\c2ccc(OC)c(OC)c2C(=O)OCCOCCOCCOC(=O)c2ccc(-c3c4nc(c(-c5c(F)c(F)c(F)c(F)c5F)c5ccc([nH]5)c(-c5c(F)c(F)c(F)c(F)c5F)c5nc(c(-c6c(F)c(F)c(F)c(F)c6F)c6ccc3[nH]6)C=C5)C=C4)cc2)S/C1=[NH+]\c1nccs1
REMARK SMILES IDX 25 1 24 2 23 3 22 4 21 5 19 6 20 7 18 8 9 9 10 10 11 11
REMARK SMILES IDX 15 12 12 13 8 14 4 15 5 16 97 17 6 18 7 19 96 20 98 21 3 23
REMARK SMILES IDX 2 24 1 25 99 26 100 27 103 28 101 29 102 30 16 31 17 32
REMARK SMILES IDX 13 33 14 34 26 35 27 36 28 37 29 38 30 39 31 40 32 41 33 42
REMARK SMILES IDX 34 43 95 44 35 45 94 46 36 47 37 48 38 49 88 50 39 51 93 52
REMARK SMILES IDX 87 53 89 54 40 55 92 56 86 57 85 58 41 60 73 61 53 62 72 63
REMARK SMILES IDX 54 64 57 65 71 66 90 67 55 68 56 69 70 71 91 72 58 73 42 74
REMARK SMILES IDX 43 75 51 76 44 77 45 78 49 79 52 80 46 81 47 82 50 83 48 84
REMARK SMILES IDX 74 85 75 86 83 87 76 88 77 89 81 90 84 91 78 92 79 93 82 94
REMARK SMILES IDX 80 95 59 96 60 97 68 98 61 99 62 100 66 101 69 102 63 103
REMARK SMILES IDX 64 104 67 105 65 106
REMARK H PARENT 98 22 89 59 57 70
REMARK Flexibility Score: inf
ROOT
ATOM      1  C   UNL A   1      50.727  41.561  29.301  1.00  0.00     0.188 C 
ENDROOT
BRANCH   1   2
ATOM      2  O   UNL A   1      49.712  41.886  28.366  1.00  0.00    -0.376 OA
BRANCH   2   3
ATOM      3  C   UNL A   1      48.629  42.643  28.891  1.00  0.00     0.202 C 
BRANCH   3   4
ATOM      4  C   UNL A   1      47.401  41.789  29.163  1.00  0.00     0.261 C 
BRANCH   4   5
ATOM      5  O   UNL A   1      46.342  41.929  28.201  1.00  0.00    -0.460 OA
BRANCH   5   6
ATOM      6  C   UNL A   1      46.147  40.974  27.256  1.00  0.00     0.342 C 
ATOM      7  O   UNL A   1      46.973  40.141  26.963  1.00  0.00    -0.246 OA
BRANCH   6   8
ATOM      8  C   UNL A   1      44.724  41.051  26.764  1.00  0.00     0.113 A 
ATOM      9  C   UNL A   1      43.683  40.284  27.367  1.00  0.00    -0.006 A 
ATOM     10  C   UNL A   1      42.403  40.309  26.800  1.00  0.00     0.013 A 
ATOM     11  C   UNL A   1      42.133  41.103  25.690  1.00  0.00     0.051 A 
ATOM     12  C   UNL A   1      44.427  41.879  25.643  1.00  0.00     0.175 A 
ATOM     13  C   UNL A   1      43.123  41.903  25.110  1.00  0.00     0.161 A 
BRANCH   9  14
ATOM     14  C   UNL A   1      43.816  39.374  28.528  1.00  0.00     0.032 C 
ATOM     15  N   UNL A   1      43.811  41.111  31.686  1.00  0.00    -0.219 N 
ATOM     16  C   UNL A   1      43.309  41.007  30.404  1.00  0.00     0.321 C 
ATOM     17  C   UNL A   1      44.377  39.972  32.218  1.00  0.00     0.271 C 
ATOM     18  O   UNL A   1      42.658  41.851  29.807  1.00  0.00    -0.250 OA
ATOM     19  C   UNL A   1      43.680  39.686  29.826  1.00  0.00     0.100 C 
ATOM     20  S   UNL A   1      44.177  38.634  31.097  1.00  0.00    -0.012 SA
ATOM     21  N   UNL A   1      44.928  39.970  33.385  1.00  0.00    -0.228 N 
ATOM     22  H   UNL A   1      44.965  40.792  33.927  1.00  0.00     0.268 HD
BRANCH  15  23
ATOM     23  C   UNL A   1      43.675  42.350  32.454  1.00  0.00     0.206 C 
BRANCH  23  24
ATOM     24  C   UNL A   1      42.351  42.459  33.223  1.00  0.00     0.035 C 
ATOM     25  C   UNL A   1      42.549  42.690  34.713  1.00  0.00     0.007 C 
ENDBRANCH  23  24
ENDBRANCH  15  23
BRANCH  21  26
ATOM     26  C   UNL A   1      45.452  38.811  33.844  1.00  0.00     0.319 A 
ATOM     27  N   UNL A   1      46.634  38.298  33.566  1.00  0.00    -0.101 NA
ATOM     28  S   UNL A   1      44.526  37.892  34.982  1.00  0.00    -0.070 S 
ATOM     29  C   UNL A   1      46.806  37.100  34.233  1.00  0.00     0.219 A 
ATOM     30  C   UNL A   1      45.766  36.717  35.047  1.00  0.00     0.110 A 
ENDBRANCH  21  26
ENDBRANCH   9  14
BRANCH  12  31
ATOM     31  O   UNL A   1      45.348  42.772  25.154  1.00  0.00    -0.492 OA
ATOM     32  C   UNL A   1      45.205  44.096  25.665  1.00  0.00     0.278 C 
ENDBRANCH  12  31
BRANCH  13  33
ATOM     33  O   UNL A   1      42.617  42.635  24.071  1.00  0.00    -0.493 OA
ATOM     34  C   UNL A   1      41.805  42.011  23.093  1.00  0.00     0.278 C 
ENDBRANCH  13  33
ENDBRANCH   6   8
ENDBRANCH   5   6
ENDBRANCH   4   5
ENDBRANCH   3   4
ENDBRANCH   2   3
ENDBRANCH   1   2
BRANCH   1  35
ATOM     35  C   UNL A   1      50.695  40.113  29.838  1.00  0.00     0.188 C 
BRANCH  35  36
ATOM     36  O   UNL A   1      49.610  39.244  29.551  1.00  0.00    -0.376 OA
BRANCH  36  37
ATOM     37  C   UNL A   1      49.234  38.265  30.504  1.00  0.00     0.202 C 
BRANCH  37  38
ATOM     38  C   UNL A   1      47.859  37.605  30.336  1.00  0.00     0.261 C 
BRANCH  38  39
ATOM     39  O   UNL A   1      47.417  37.491  28.970  1.00  0.00    -0.460 OA
BRANCH  39  40
ATOM     40  C   UNL A   1      47.856  36.395  28.304  1.00  0.00     0.338 C 
ATOM     41  O   UNL A   1      48.964  36.222  27.824  1.00  0.00    -0.246 OA
BRANCH  40  42
ATOM     42  C   UNL A   1      46.854  35.305  28.380  1.00  0.00     0.060 A 
ATOM     43  C   UNL A   1      47.083  34.278  29.308  1.00  0.00     0.016 A 
ATOM     44  C   UNL A   1      45.745  35.245  27.534  1.00  0.00     0.016 A 
ATOM     45  C   UNL A   1      46.247  33.163  29.349  1.00  0.00     0.010 A 
ATOM     46  C   UNL A   1      44.918  34.111  27.557  1.00  0.00     0.010 A 
ATOM     47  C   UNL A   1      45.195  33.043  28.432  1.00  0.00    -0.014 A 
BRANCH  47  48
ATOM     48  C   UNL A   1      44.565  31.711  28.241  1.00  0.00     0.031 A 
ATOM     49  C   UNL A   1      45.312  30.679  27.439  1.00  0.00     0.074 A 
ATOM     50  C   UNL A   1      43.395  31.385  28.817  1.00  0.00     0.049 A 
ATOM     51  N   UNL A   1      44.990  29.438  27.169  1.00  0.00    -0.248 NA
ATOM     52  C   UNL A   1      46.598  31.105  26.863  1.00  0.00     0.031 C 
ATOM     53  C   UNL A   1      42.582  32.279  29.634  1.00  0.00     0.029 A 
ATOM     54  N   UNL A   1      42.690  30.205  28.804  1.00  0.00    -0.354 N 
ATOM     55  C   UNL A   1      46.028  28.941  26.393  1.00  0.00     0.074 A 
ATOM     56  C   UNL A   1      46.975  30.019  26.208  1.00  0.00     0.031 C 
ATOM     57  C   UNL A   1      41.490  31.615  30.054  1.00  0.00     0.029 A 
ATOM     58  C   UNL A   1      41.512  30.257  29.508  1.00  0.00     0.049 A 
ATOM     59  H   UNL A   1      43.001  29.398  28.333  1.00  0.00     0.167 HD
ATOM     60  C   UNL A   1      46.186  27.695  25.886  1.00  0.00     0.037 A 
ATOM     61  C   UNL A   1      40.557  29.322  29.676  1.00  0.00     0.037 A 
ATOM     62  C   UNL A   1      45.250  26.617  26.062  1.00  0.00     0.049 A 
ATOM     63  C   UNL A   1      40.730  27.957  29.055  1.00  0.00     0.074 A 
ATOM     64  C   UNL A   1      45.333  25.318  25.595  1.00  0.00     0.029 A 
ATOM     65  N   UNL A   1      44.054  26.718  26.755  1.00  0.00    -0.354 N 
ATOM     66  N   UNL A   1      41.730  27.487  28.350  1.00  0.00    -0.248 NA
ATOM     67  C   UNL A   1      39.640  26.992  29.259  1.00  0.00     0.031 C 
ATOM     68  C   UNL A   1      44.165  24.644  25.967  1.00  0.00     0.029 A 
ATOM     69  C   UNL A   1      43.379  25.509  26.710  1.00  0.00     0.049 A 
ATOM     70  H   UNL A   1      43.731  27.529  27.212  1.00  0.00     0.167 HD
ATOM     71  C   UNL A   1      41.405  26.169  28.053  1.00  0.00     0.074 A 
ATOM     72  C   UNL A   1      40.120  25.908  28.667  1.00  0.00     0.031 C 
ATOM     73  C   UNL A   1      42.105  25.256  27.335  1.00  0.00     0.037 A 
BRANCH  60  74
ATOM     74  C   UNL A   1      47.416  27.439  25.067  1.00  0.00     0.064 A 
ATOM     75  C   UNL A   1      48.575  26.888  25.632  1.00  0.00     0.173 A 
ATOM     76  C   UNL A   1      47.425  27.727  23.694  1.00  0.00     0.173 A 
ATOM     77  F   UNL A   1      48.622  26.613  26.944  1.00  0.00    -0.203 F 
ATOM     78  C   UNL A   1      49.707  26.656  24.855  1.00  0.00     0.198 A 
ATOM     79  C   UNL A   1      48.549  27.468  22.915  1.00  0.00     0.198 A 
ATOM     80  F   UNL A   1      46.341  28.255  23.107  1.00  0.00    -0.203 F 
ATOM     81  F   UNL A   1      50.821  26.172  25.424  1.00  0.00    -0.200 F 
ATOM     82  C   UNL A   1      49.691  26.939  23.498  1.00  0.00     0.200 A 
ATOM     83  F   UNL A   1      48.529  27.733  21.603  1.00  0.00    -0.200 F 
ATOM     84  F   UNL A   1      50.780  26.710  22.751  1.00  0.00    -0.200 F 
ENDBRANCH  60  74
BRANCH  61  85
ATOM     85  C   UNL A   1      39.332  29.635  30.460  1.00  0.00     0.064 A 
ATOM     86  C   UNL A   1      38.186  30.155  29.839  1.00  0.00     0.173 A 
ATOM     87  C   UNL A   1      39.299  29.467  31.852  1.00  0.00     0.173 A 
ATOM     88  F   UNL A   1      38.179  30.363  28.515  1.00  0.00    -0.203 F 
ATOM     89  C   UNL A   1      37.064  30.513  30.584  1.00  0.00     0.198 A 
ATOM     90  C   UNL A   1      38.166  29.800  32.592  1.00  0.00     0.198 A 
ATOM     91  F   UNL A   1      40.371  28.982  32.495  1.00  0.00    -0.203 F 
ATOM     92  F   UNL A   1      36.004  31.060  29.972  1.00  0.00    -0.200 F 
ATOM     93  C   UNL A   1      37.053  30.332  31.959  1.00  0.00     0.200 A 
ATOM     94  F   UNL A   1      38.158  29.616  33.919  1.00  0.00    -0.200 F 
ATOM     95  F   UNL A   1      35.976  30.681  32.675  1.00  0.00    -0.200 F 
ENDBRANCH  61  85
BRANCH  73  96
ATOM     96  C   UNL A   1      41.523  23.876  27.209  1.00  0.00     0.064 A 
ATOM     97  C   UNL A   1      40.371  23.627  26.450  1.00  0.00     0.173 A 
ATOM     98  C   UNL A   1      42.147  22.784  27.832  1.00  0.00     0.173 A 
ATOM     99  F   UNL A   1      39.728  24.637  25.845  1.00  0.00    -0.203 F 
ATOM    100  C   UNL A   1      39.846  22.340  26.346  1.00  0.00     0.198 A 
ATOM    101  C   UNL A   1      41.638  21.495  27.701  1.00  0.00     0.198 A 
ATOM    102  F   UNL A   1      43.259  22.966  28.562  1.00  0.00    -0.203 F 
ATOM    103  F   UNL A   1      38.715  22.134  25.659  1.00  0.00    -0.200 F 
ATOM    104  C   UNL A   1      40.483  21.275  26.965  1.00  0.00     0.200 A 
ATOM    105  F   UNL A   1      42.264  20.466  28.288  1.00  0.00    -0.200 F 
ATOM    106  F   UNL A   1      39.979  20.038  26.862  1.00  0.00    -0.200 F 
ENDBRANCH  73  96
ENDBRANCH  47  48
ENDBRANCH  40  42
ENDBRANCH  39  40
ENDBRANCH  38  39
ENDBRANCH  37  38
ENDBRANCH  36  37
ENDBRANCH  35  36
ENDBRANCH   1  35
TORSDOF 23
ENDMDL
MODEL 2
REMARK VINA RESULT:      -8.0      6.825     14.264
REMARK SMILES CCCN1C(=O)/C(=C\c2ccc(OC)c(OC)c2C(=O)OCCOCCOCCOC(=O)c2ccc(-c3c4nc(c(-c5c(F)c(F)c(F)c(F)c5F)c5ccc([nH]5)c(-c5c(F)c(F)c(F)c(F)c5F)c5nc(c(-c6c(F)c(F)c(F)c(F)c6F)c6ccc3[nH]6)C=C5)C=C4)cc2)S/C1=[NH+]\c1nccs1
REMARK SMILES IDX 25 1 24 2 23 3 22 4 21 5 19 6 20 7 18 8 9 9 10 10 11 11
REMARK SMILES IDX 15 12 12 13 8 14 4 15 5 16 97 17 6 18 7 19 96 20 98 21 3 23
REMARK SMILES IDX 2 24 1 25 99 26 100 27 103 28 101 29 102 30 16 31 17 32
REMARK SMILES IDX 13 33 14 34 26 35 27 36 28 37 29 38 30 39 31 40 32 41 33 42
REMARK SMILES IDX 34 43 95 44 35 45 94 46 36 47 37 48 38 49 88 50 39 51 93 52
REMARK SMILES IDX 87 53 89 54 40 55 92 56 86 57 85 58 41 60 73 61 53 62 72 63
REMARK SMILES IDX 54 64 57 65 71 66 90 67 55 68 56 69 70 71 91 72 58 73 42 74
REMARK SMILES IDX 43 75 51 76 44 77 45 78 49 79 52 80 46 81 47 82 50 83 48 84
REMARK SMILES IDX 74 85 75 86 83 87 76 88 77 89 81 90 84 91 78 92 79 93 82 94
REMARK SMILES IDX 80 95 59 96 60 97 68 98 61 99 62 100 66 101 69 102 63 103
REMARK SMILES IDX 64 104 67 105 65 106
REMARK H PARENT 98 22 89 59 57 70
REMARK Flexibility Score: inf
ROOT
ATOM      1  C   UNL A   1      44.310  33.006  29.439  1.00  0.00     0.188 C 
ENDROOT
BRANCH   1   2
ATOM      2  O   UNL A   1      45.103  31.904  29.848  1.00  0.00    -0.376 OA
BRANCH   2   3
ATOM      3  C   UNL A   1      44.457  30.639  29.780  1.00  0.00     0.202 C 
BRANCH   3   4
ATOM      4  C   UNL A   1      43.255  30.549  30.705  1.00  0.00     0.261 C 
BRANCH   4   5
ATOM      5  O   UNL A   1      42.176  29.734  30.216  1.00  0.00    -0.460 OA
BRANCH   5   6
ATOM      6  C   UNL A   1      41.054  29.567  30.962  1.00  0.00     0.342 C 
ATOM      7  O   UNL A   1      41.062  29.411  32.161  1.00  0.00    -0.246 OA
BRANCH   6   8
ATOM      8  C   UNL A   1      39.844  29.750  30.079  1.00  0.00     0.113 A 
ATOM      9  C   UNL A   1      39.289  28.663  29.341  1.00  0.00    -0.006 A 
ATOM     10  C   UNL A   1      38.235  28.912  28.452  1.00  0.00     0.013 A 
ATOM     11  C   UNL A   1      37.704  30.191  28.321  1.00  0.00     0.051 A 
ATOM     12  C   UNL A   1      39.273  31.049  29.954  1.00  0.00     0.175 A 
ATOM     13  C   UNL A   1      38.197  31.263  29.071  1.00  0.00     0.161 A 
BRANCH   9  14
ATOM     14  C   UNL A   1      39.758  27.258  29.348  1.00  0.00     0.032 C 
ATOM     15  N   UNL A   1      41.883  26.468  26.547  1.00  0.00    -0.219 N 
ATOM     16  C   UNL A   1      41.498  27.384  27.505  1.00  0.00     0.321 C 
ATOM     17  C   UNL A   1      41.603  25.146  26.815  1.00  0.00     0.271 C 
ATOM     18  O   UNL A   1      41.768  28.576  27.522  1.00  0.00    -0.250 OA
ATOM     19  C   UNL A   1      40.684  26.705  28.550  1.00  0.00     0.100 C 
ATOM     20  S   UNL A   1      40.911  25.001  28.424  1.00  0.00    -0.012 SA
ATOM     21  N   UNL A   1      41.866  24.211  25.964  1.00  0.00    -0.228 N 
ATOM     22  H   UNL A   1      42.270  24.422  25.091  1.00  0.00     0.268 HD
BRANCH  15  23
ATOM     23  C   UNL A   1      42.616  26.887  25.350  1.00  0.00     0.206 C 
BRANCH  23  24
ATOM     24  C   UNL A   1      43.995  27.488  25.648  1.00  0.00     0.035 C 
ATOM     25  C   UNL A   1      45.138  26.661  25.080  1.00  0.00     0.007 C 
ENDBRANCH  23  24
ENDBRANCH  15  23
BRANCH  21  26
ATOM     26  C   UNL A   1      41.571  22.935  26.303  1.00  0.00     0.319 A 
ATOM     27  N   UNL A   1      40.427  22.303  26.138  1.00  0.00    -0.101 NA
ATOM     28  S   UNL A   1      42.833  21.959  26.975  1.00  0.00    -0.070 S 
ATOM     29  C   UNL A   1      40.521  21.007  26.609  1.00  0.00     0.219 A 
ATOM     30  C   UNL A   1      41.752  20.642  27.102  1.00  0.00     0.110 A 
ENDBRANCH  21  26
ENDBRANCH   9  14
BRANCH  12  31
ATOM     31  O   UNL A   1      39.651  32.076  30.785  1.00  0.00    -0.492 OA
ATOM     32  C   UNL A   1      40.537  33.017  30.182  1.00  0.00     0.278 C 
ENDBRANCH  12  31
BRANCH  13  33
ATOM     33  O   UNL A   1      37.488  32.407  28.819  1.00  0.00    -0.493 OA
ATOM     34  C   UNL A   1      36.211  32.593  29.401  1.00  0.00     0.278 C 
ENDBRANCH  13  33
ENDBRANCH   6   8
ENDBRANCH   5   6
ENDBRANCH   4   5
ENDBRANCH   3   4
ENDBRANCH   2   3
ENDBRANCH   1   2
BRANCH   1  35
ATOM     35  C   UNL A   1      45.056  34.101  28.645  1.00  0.00     0.188 C 
BRANCH  35  36
ATOM     36  O   UNL A   1      46.457  34.282  28.775  1.00  0.00    -0.376 OA
BRANCH  36  37
ATOM     37  C   UNL A   1      46.977  35.592  28.933  1.00  0.00     0.202 C 
BRANCH  37  38
ATOM     38  C   UNL A   1      45.983  36.714  29.258  1.00  0.00     0.261 C 
BRANCH  38  39
ATOM     39  O   UNL A   1      46.171  37.318  30.551  1.00  0.00    -0.460 OA
BRANCH  39  40
ATOM     40  C   UNL A   1      45.213  38.200  30.929  1.00  0.00     0.338 C 
ATOM     41  O   UNL A   1      44.745  39.108  30.262  1.00  0.00    -0.246 OA
BRANCH  40  42
ATOM     42  C   UNL A   1      44.639  37.813  32.241  1.00  0.00     0.060 A 
ATOM     43  C   UNL A   1      45.110  36.631  32.831  1.00  0.00     0.016 A 
ATOM     44  C   UNL A   1      43.626  38.546  32.861  1.00  0.00     0.016 A 
ATOM     45  C   UNL A   1      44.530  36.145  34.002  1.00  0.00     0.010 A 
ATOM     46  C   UNL A   1      43.024  38.044  34.026  1.00  0.00     0.010 A 
ATOM     47  C   UNL A   1      43.441  36.816  34.573  1.00  0.00    -0.014 A 
BRANCH  47  48
ATOM     48  C   UNL A   1      42.610  36.101  35.577  1.00  0.00     0.031 A 
ATOM     49  C   UNL A   1      42.842  36.397  37.034  1.00  0.00     0.074 A 
ATOM     50  C   UNL A   1      41.622  35.263  35.218  1.00  0.00     0.049 A 
ATOM     51  N   UNL A   1      42.220  35.933  38.089  1.00  0.00    -0.248 NA
ATOM     52  C   UNL A   1      43.924  37.346  37.343  1.00  0.00     0.031 C 
ATOM     53  C   UNL A   1      41.277  34.906  33.847  1.00  0.00     0.029 A 
ATOM     54  N   UNL A   1      40.723  34.560  35.985  1.00  0.00    -0.354 N 
ATOM     55  C   UNL A   1      42.835  36.530  39.181  1.00  0.00     0.074 A 
ATOM     56  C   UNL A   1      43.899  37.365  38.666  1.00  0.00     0.031 C 
ATOM     57  C   UNL A   1      40.234  34.057  33.865  1.00  0.00     0.029 A 
ATOM     58  C   UNL A   1      39.858  33.785  35.252  1.00  0.00     0.049 A 
ATOM     59  H   UNL A   1      40.702  34.609  36.968  1.00  0.00     0.167 HD
ATOM     60  C   UNL A   1      42.537  36.404  40.496  1.00  0.00     0.037 A 
ATOM     61  C   UNL A   1      38.887  32.944  35.659  1.00  0.00     0.037 A 
ATOM     62  C   UNL A   1      41.484  35.576  41.018  1.00  0.00     0.049 A 
ATOM     63  C   UNL A   1      38.611  32.778  37.133  1.00  0.00     0.074 A 
ATOM     64  C   UNL A   1      41.102  35.396  42.335  1.00  0.00     0.029 A 
ATOM     65  N   UNL A   1      40.650  34.782  40.247  1.00  0.00    -0.354 N 
ATOM     66  N   UNL A   1      39.177  33.371  38.155  1.00  0.00    -0.248 NA
ATOM     67  C   UNL A   1      37.553  31.827  37.507  1.00  0.00     0.031 C 
ATOM     68  C   UNL A   1      40.065  34.457  42.365  1.00  0.00     0.029 A 
ATOM     69  C   UNL A   1      39.767  34.093  41.063  1.00  0.00     0.049 A 
ATOM     70  H   UNL A   1      40.679  34.718  39.264  1.00  0.00     0.167 HD
ATOM     71  C   UNL A   1      38.528  32.890  39.287  1.00  0.00     0.074 A 
ATOM     72  C   UNL A   1      37.515  31.966  38.824  1.00  0.00     0.031 C 
ATOM     73  C   UNL A   1      38.753  33.184  40.592  1.00  0.00     0.037 A 
BRANCH  60  74
ATOM     74  C   UNL A   1      43.386  37.169  41.468  1.00  0.00     0.064 A 
ATOM     75  C   UNL A   1      44.562  36.625  42.004  1.00  0.00     0.173 A 
ATOM     76  C   UNL A   1      43.031  38.472  41.845  1.00  0.00     0.173 A 
ATOM     77  F   UNL A   1      44.934  35.375  41.688  1.00  0.00    -0.203 F 
ATOM     78  C   UNL A   1      45.339  37.350  42.904  1.00  0.00     0.198 A 
ATOM     79  C   UNL A   1      43.824  39.205  42.723  1.00  0.00     0.198 A 
ATOM     80  F   UNL A   1      41.916  39.037  41.359  1.00  0.00    -0.203 F 
ATOM     81  F   UNL A   1      46.434  36.795  43.442  1.00  0.00    -0.200 F 
ATOM     82  C   UNL A   1      44.974  38.641  43.257  1.00  0.00     0.200 A 
ATOM     83  F   UNL A   1      43.476  40.455  43.055  1.00  0.00    -0.200 F 
ATOM     84  F   UNL A   1      45.726  39.339  44.118  1.00  0.00    -0.200 F 
ENDBRANCH  60  74
BRANCH  61  85
ATOM     85  C   UNL A   1      38.100  32.172  34.660  1.00  0.00     0.064 A 
ATOM     86  C   UNL A   1      38.487  30.881  34.272  1.00  0.00     0.173 A 
ATOM     87  C   UNL A   1      36.973  32.729  34.038  1.00  0.00     0.173 A 
ATOM     88  F   UNL A   1      39.575  30.317  34.814  1.00  0.00    -0.203 F 
ATOM     89  C   UNL A   1      37.789  30.186  33.286  1.00  0.00     0.198 A 
ATOM     90  C   UNL A   1      36.260  32.022  33.072  1.00  0.00     0.198 A 
ATOM     91  F   UNL A   1      36.566  33.964  34.367  1.00  0.00    -0.203 F 
ATOM     92  F   UNL A   1      38.214  28.977  32.894  1.00  0.00    -0.200 F 
ATOM     93  C   UNL A   1      36.673  30.755  32.689  1.00  0.00     0.200 A 
ATOM     94  F   UNL A   1      35.179  32.573  32.504  1.00  0.00    -0.200 F 
ATOM     95  F   UNL A   1      36.006  30.089  31.738  1.00  0.00    -0.200 F 
ENDBRANCH  61  85
BRANCH  73  96
ATOM     96  C   UNL A   1      37.860  32.538  41.613  1.00  0.00     0.064 A 
ATOM     97  C   UNL A   1      36.622  33.092  41.969  1.00  0.00     0.173 A 
ATOM     98  C   UNL A   1      38.236  31.330  42.220  1.00  0.00     0.173 A 
ATOM     99  F   UNL A   1      36.221  34.252  41.428  1.00  0.00    -0.203 F 
ATOM    100  C   UNL A   1      35.808  32.478  42.919  1.00  0.00     0.198 A 
ATOM    101  C   UNL A   1      37.407  30.703  43.146  1.00  0.00     0.198 A 
ATOM    102  F   UNL A   1      39.406  30.751  41.908  1.00  0.00    -0.203 F 
ATOM    103  F   UNL A   1      34.654  33.053  43.281  1.00  0.00    -0.200 F 
ATOM    104  C   UNL A   1      36.198  31.281  43.501  1.00  0.00     0.200 A 
ATOM    105  F   UNL A   1      37.779  29.539  43.697  1.00  0.00    -0.200 F 
ATOM    106  F   UNL A   1      35.413  30.691  44.412  1.00  0.00    -0.200 F 
ENDBRANCH  73  96
ENDBRANCH  47  48
ENDBRANCH  40  42
ENDBRANCH  39  40
ENDBRANCH  38  39
ENDBRANCH  37  38
ENDBRANCH  36  37
ENDBRANCH  35  36
ENDBRANCH   1  35
TORSDOF 23
ENDMDL
MODEL 3
REMARK VINA RESULT:      -8.0      3.127      5.391
REMARK SMILES CCCN1C(=O)/C(=C\c2ccc(OC)c(OC)c2C(=O)OCCOCCOCCOC(=O)c2ccc(-c3c4nc(c(-c5c(F)c(F)c(F)c(F)c5F)c5ccc([nH]5)c(-c5c(F)c(F)c(F)c(F)c5F)c5nc(c(-c6c(F)c(F)c(F)c(F)c6F)c6ccc3[nH]6)C=C5)C=C4)cc2)S/C1=[NH+]\c1nccs1
REMARK SMILES IDX 25 1 24 2 23 3 22 4 21 5 19 6 20 7 18 8 9 9 10 10 11 11
REMARK SMILES IDX 15 12 12 13 8 14 4 15 5 16 97 17 6 18 7 19 96 20 98 21 3 23
REMARK SMILES IDX 2 24 1 25 99 26 100 27 103 28 101 29 102 30 16 31 17 32
REMARK SMILES IDX 13 33 14 34 26 35 27 36 28 37 29 38 30 39 31 40 32 41 33 42
REMARK SMILES IDX 34 43 95 44 35 45 94 46 36 47 37 48 38 49 88 50 39 51 93 52
REMARK SMILES IDX 87 53 89 54 40 55 92 56 86 57 85 58 41 60 73 61 53 62 72 63
REMARK SMILES IDX 54 64 57 65 71 66 90 67 55 68 56 69 70 71 91 72 58 73 42 74
REMARK SMILES IDX 43 75 51 76 44 77 45 78 49 79 52 80 46 81 47 82 50 83 48 84
REMARK SMILES IDX 74 85 75 86 83 87 76 88 77 89 81 90 84 91 78 92 79 93 82 94
REMARK SMILES IDX 80 95 59 96 60 97 68 98 61 99 62 100 66 101 69 102 63 103
REMARK SMILES IDX 64 104 67 105 65 106
REMARK H PARENT 98 22 89 59 57 70
REMARK Flexibility Score: inf
ROOT
ATOM      1  C   UNL A   1      51.099  41.632  29.261  1.00  0.00     0.188 C 
ENDROOT
BRANCH   1   2
ATOM      2  O   UNL A   1      50.268  41.782  28.122  1.00  0.00    -0.376 OA
BRANCH   2   3
ATOM      3  C   UNL A   1      49.127  42.609  28.315  1.00  0.00     0.202 C 
BRANCH   3   4
ATOM      4  C   UNL A   1      47.830  41.816  28.334  1.00  0.00     0.261 C 
BRANCH   4   5
ATOM      5  O   UNL A   1      46.800  42.321  27.468  1.00  0.00    -0.460 OA
BRANCH   5   6
ATOM      6  C   UNL A   1      46.603  41.765  26.245  1.00  0.00     0.342 C 
ATOM      7  O   UNL A   1      47.481  41.609  25.429  1.00  0.00    -0.246 OA
BRANCH   6   8
ATOM      8  C   UNL A   1      45.182  41.267  26.153  1.00  0.00     0.113 A 
ATOM      9  C   UNL A   1      44.149  42.063  25.575  1.00  0.00    -0.006 A 
ATOM     10  C   UNL A   1      42.828  41.598  25.616  1.00  0.00     0.013 A 
ATOM     11  C   UNL A   1      42.528  40.359  26.172  1.00  0.00     0.051 A 
ATOM     12  C   UNL A   1      44.864  39.989  26.696  1.00  0.00     0.175 A 
ATOM     13  C   UNL A   1      43.529  39.537  26.700  1.00  0.00     0.161 A 
BRANCH   9  14
ATOM     14  C   UNL A   1      44.301  43.408  24.974  1.00  0.00     0.032 C 
ATOM     15  N   UNL A   1      43.858  43.409  21.397  1.00  0.00    -0.219 N 
ATOM     16  C   UNL A   1      43.468  42.917  22.627  1.00  0.00     0.321 C 
ATOM     17  C   UNL A   1      44.512  44.621  21.401  1.00  0.00     0.271 C 
ATOM     18  O   UNL A   1      42.769  41.936  22.830  1.00  0.00    -0.250 OA
ATOM     19  C   UNL A   1      44.033  43.769  23.710  1.00  0.00     0.100 C 
ATOM     20  S   UNL A   1      44.556  45.266  23.035  1.00  0.00    -0.012 SA
ATOM     21  N   UNL A   1      44.972  45.147  20.315  1.00  0.00    -0.228 N 
ATOM     22  H   UNL A   1      44.872  44.687  19.450  1.00  0.00     0.268 HD
BRANCH  15  23
ATOM     23  C   UNL A   1      43.520  42.704  20.158  1.00  0.00     0.206 C 
BRANCH  23  24
ATOM     24  C   UNL A   1      42.115  43.021  19.631  1.00  0.00     0.035 C 
ATOM     25  C   UNL A   1      42.130  43.649  18.245  1.00  0.00     0.007 C 
ENDBRANCH  23  24
ENDBRANCH  15  23
BRANCH  21  26
ATOM     26  C   UNL A   1      45.594  46.346  20.397  1.00  0.00     0.319 A 
ATOM     27  N   UNL A   1      46.620  46.668  21.158  1.00  0.00    -0.101 NA
ATOM     28  S   UNL A   1      45.056  47.615  19.350  1.00  0.00    -0.070 S 
ATOM     29  C   UNL A   1      46.972  47.989  20.956  1.00  0.00     0.219 A 
ATOM     30  C   UNL A   1      46.232  48.664  20.012  1.00  0.00     0.110 A 
ENDBRANCH  21  26
ENDBRANCH   9  14
BRANCH  12  31
ATOM     31  O   UNL A   1      45.849  39.116  27.086  1.00  0.00    -0.492 OA
ATOM     32  C   UNL A   1      46.163  38.120  26.116  1.00  0.00     0.278 C 
ENDBRANCH  12  31
BRANCH  13  33
ATOM     33  O   UNL A   1      43.010  38.350  27.138  1.00  0.00    -0.493 OA
ATOM     34  C   UNL A   1      41.920  38.342  28.041  1.00  0.00     0.278 C 
ENDBRANCH  13  33
ENDBRANCH   6   8
ENDBRANCH   5   6
ENDBRANCH   4   5
ENDBRANCH   3   4
ENDBRANCH   2   3
ENDBRANCH   1   2
BRANCH   1  35
ATOM     35  C   UNL A   1      50.921  40.311  30.042  1.00  0.00     0.188 C 
BRANCH  35  36
ATOM     36  O   UNL A   1      49.851  39.423  29.756  1.00  0.00    -0.376 OA
BRANCH  36  37
ATOM     37  C   UNL A   1      49.280  38.662  30.807  1.00  0.00     0.202 C 
BRANCH  37  38
ATOM     38  C   UNL A   1      47.982  37.902  30.506  1.00  0.00     0.261 C 
BRANCH  38  39
ATOM     39  O   UNL A   1      47.886  37.399  29.160  1.00  0.00    -0.460 OA
BRANCH  39  40
ATOM     40  C   UNL A   1      48.396  36.159  28.962  1.00  0.00     0.338 C 
ATOM     41  O   UNL A   1      49.574  35.841  28.952  1.00  0.00    -0.246 OA
BRANCH  40  42
ATOM     42  C   UNL A   1      47.310  35.149  28.937  1.00  0.00     0.060 A 
ATOM     43  C   UNL A   1      47.351  34.129  29.899  1.00  0.00     0.016 A 
ATOM     44  C   UNL A   1      46.305  35.153  27.968  1.00  0.00     0.016 A 
ATOM     45  C   UNL A   1      46.432  33.081  29.858  1.00  0.00     0.010 A 
ATOM     46  C   UNL A   1      45.395  34.086  27.911  1.00  0.00     0.010 A 
ATOM     47  C   UNL A   1      45.486  33.020  28.827  1.00  0.00    -0.014 A 
BRANCH  47  48
ATOM     48  C   UNL A   1      44.781  31.735  28.582  1.00  0.00     0.031 A 
ATOM     49  C   UNL A   1      45.482  30.683  27.764  1.00  0.00     0.074 A 
ATOM     50  C   UNL A   1      43.581  31.464  29.124  1.00  0.00     0.049 A 
ATOM     51  N   UNL A   1      45.091  29.473  27.449  1.00  0.00    -0.248 NA
ATOM     52  C   UNL A   1      46.803  31.047  27.228  1.00  0.00     0.031 C 
ATOM     53  C   UNL A   1      42.806  32.382  29.951  1.00  0.00     0.029 A 
ATOM     54  N   UNL A   1      42.806  30.331  29.060  1.00  0.00    -0.354 N 
ATOM     55  C   UNL A   1      46.114  28.936  26.679  1.00  0.00     0.074 A 
ATOM     56  C   UNL A   1      47.129  29.959  26.547  1.00  0.00     0.031 C 
ATOM     57  C   UNL A   1      41.667  31.774  30.328  1.00  0.00     0.029 A 
ATOM     58  C   UNL A   1      41.618  30.434  29.742  1.00  0.00     0.049 A 
ATOM     59  H   UNL A   1      43.078  29.520  28.572  1.00  0.00     0.167 HD
ATOM     60  C   UNL A   1      46.207  27.698  26.138  1.00  0.00     0.037 A 
ATOM     61  C   UNL A   1      40.605  29.554  29.862  1.00  0.00     0.037 A 
ATOM     62  C   UNL A   1      45.204  26.675  26.262  1.00  0.00     0.049 A 
ATOM     63  C   UNL A   1      40.709  28.200  29.202  1.00  0.00     0.074 A 
ATOM     64  C   UNL A   1      45.219  25.388  25.757  1.00  0.00     0.029 A 
ATOM     65  N   UNL A   1      44.001  26.829  26.933  1.00  0.00    -0.354 N 
ATOM     66  N   UNL A   1      41.694  27.691  28.504  1.00  0.00    -0.248 NA
ATOM     67  C   UNL A   1      39.558  27.298  29.355  1.00  0.00     0.031 C 
ATOM     68  C   UNL A   1      44.004  24.776  26.084  1.00  0.00     0.029 A 
ATOM     69  C   UNL A   1      43.256  25.665  26.838  1.00  0.00     0.049 A 
ATOM     70  H   UNL A   1      43.718  27.644  27.409  1.00  0.00     0.167 HD
ATOM     71  C   UNL A   1      41.296  26.404  28.160  1.00  0.00     0.074 A 
ATOM     72  C   UNL A   1      39.985  26.205  28.740  1.00  0.00     0.031 C 
ATOM     73  C   UNL A   1      41.956  25.472  27.429  1.00  0.00     0.037 A 
BRANCH  60  74
ATOM     74  C   UNL A   1      47.438  27.392  25.337  1.00  0.00     0.064 A 
ATOM     75  C   UNL A   1      48.574  26.817  25.923  1.00  0.00     0.173 A 
ATOM     76  C   UNL A   1      47.468  27.655  23.959  1.00  0.00     0.173 A 
ATOM     77  F   UNL A   1      48.600  26.565  27.240  1.00  0.00    -0.203 F 
ATOM     78  C   UNL A   1      49.707  26.539  25.163  1.00  0.00     0.198 A 
ATOM     79  C   UNL A   1      48.592  27.349  23.197  1.00  0.00     0.198 A 
ATOM     80  F   UNL A   1      46.406  28.204  23.351  1.00  0.00    -0.203 F 
ATOM     81  F   UNL A   1      50.800  26.033  25.751  1.00  0.00    -0.200 F 
ATOM     82  C   UNL A   1      49.712  26.798  23.800  1.00  0.00     0.200 A 
ATOM     83  F   UNL A   1      48.593  27.591  21.879  1.00  0.00    -0.200 F 
ATOM     84  F   UNL A   1      50.801  26.523  23.069  1.00  0.00    -0.200 F 
ENDBRANCH  60  74
BRANCH  61  85
ATOM     85  C   UNL A   1      39.385  29.919  30.630  1.00  0.00     0.064 A 
ATOM     86  C   UNL A   1      38.280  30.512  30.000  1.00  0.00     0.173 A 
ATOM     87  C   UNL A   1      39.316  29.726  32.018  1.00  0.00     0.173 A 
ATOM     88  F   UNL A   1      38.310  30.746  28.680  1.00  0.00    -0.203 F 
ATOM     89  C   UNL A   1      37.166  30.917  30.732  1.00  0.00     0.198 A 
ATOM     90  C   UNL A   1      38.189  30.105  32.744  1.00  0.00     0.198 A 
ATOM     91  F   UNL A   1      40.348  29.171  32.670  1.00  0.00    -0.203 F 
ATOM     92  F   UNL A   1      36.149  31.532  30.112  1.00  0.00    -0.200 F 
ATOM     93  C   UNL A   1      37.119  30.710  32.102  1.00  0.00     0.200 A 
ATOM     94  F   UNL A   1      38.146  29.896  34.066  1.00  0.00    -0.200 F 
ATOM     95  F   UNL A   1      36.049  31.103  32.806  1.00  0.00    -0.200 F 
ENDBRANCH  61  85
BRANCH  73  96
ATOM     96  C   UNL A   1      41.294  24.135  27.249  1.00  0.00     0.064 A 
ATOM     97  C   UNL A   1      40.152  23.977  26.451  1.00  0.00     0.173 A 
ATOM     98  C   UNL A   1      41.831  22.991  27.859  1.00  0.00     0.173 A 
ATOM     99  F   UNL A   1      39.591  25.040  25.855  1.00  0.00    -0.203 F 
ATOM    100  C   UNL A   1      39.553  22.728  26.296  1.00  0.00     0.198 A 
ATOM    101  C   UNL A   1      41.248  21.740  27.679  1.00  0.00     0.198 A 
ATOM    102  F   UNL A   1      42.929  23.085  28.625  1.00  0.00    -0.203 F 
ATOM    103  F   UNL A   1      38.432  22.610  25.572  1.00  0.00    -0.200 F 
ATOM    104  C   UNL A   1      40.104  21.610  26.905  1.00  0.00     0.200 A 
ATOM    105  F   UNL A   1      41.791  20.659  28.255  1.00  0.00    -0.200 F 
ATOM    106  F   UNL A   1      39.529  20.410  26.753  1.00  0.00    -0.200 F 
ENDBRANCH  73  96
ENDBRANCH  47  48
ENDBRANCH  40  42
ENDBRANCH  39  40
ENDBRANCH  38  39
ENDBRANCH  37  38
ENDBRANCH  36  37
ENDBRANCH  35  36
ENDBRANCH   1  35
TORSDOF 23
ENDMDL
