MODEL 1
REMARK VINA RESULT:     -10.8      0.000      0.000
REMARK SMILES CC(C)[NH2+][C@]1(C(=O)OCCOCCOCCOC(=O)c2ccc(-c3c4nc(c(-c5c(F)c(F)c(F)c(F)c5F)c5ccc([nH]5)c(-c5c(F)c(F)c(F)c(F)c5F)c5nc(c(-c6c(F)c(F)c(F)c(F)c6F)c6ccc3[nH]6)C=C5)C=C4)cc2)CC[C@H](Oc2cccc(CO)c2)C1
REMARK SMILES IDX 12 1 11 2 10 3 9 4 8 5 6 6 7 7 5 8 83 9 95 10 84 11 85 12
REMARK SMILES IDX 4 13 2 16 1 17 3 18 86 19 87 20 88 21 94 22 89 23 91 24
REMARK SMILES IDX 90 25 92 26 93 27 13 29 14 30 15 31 16 32 17 33 18 34 19 35
REMARK SMILES IDX 20 36 21 37 82 38 22 39 81 40 23 41 24 42 25 43 75 44 26 45
REMARK SMILES IDX 80 46 74 47 76 48 27 49 79 50 73 51 72 52 28 54 60 55 40 56
REMARK SMILES IDX 59 57 41 58 44 59 58 60 77 61 42 62 43 63 57 65 78 66 45 67
REMARK SMILES IDX 29 68 30 69 38 70 31 71 32 72 36 73 39 74 33 75 34 76 37 77
REMARK SMILES IDX 35 78 61 79 62 80 70 81 63 82 64 83 68 84 71 85 65 86 66 87
REMARK SMILES IDX 69 88 67 89 46 90 47 91 55 92 48 93 49 94 53 95 56 96 50 97
REMARK SMILES IDX 51 98 54 99 52 100
REMARK H PARENT 4 14 4 15 93 28 76 53 44 64
REMARK Flexibility Score: inf
ROOT
ATOM      1  C   UNL A   1      40.985  20.792  27.247  1.00  0.00     0.188 C 
ENDROOT
BRANCH   1   2
ATOM      2  O   UNL A   1      39.793  21.563  27.155  1.00  0.00    -0.376 OA
BRANCH   2   3
ATOM      3  C   UNL A   1      39.329  21.869  25.845  1.00  0.00     0.202 C 
BRANCH   3   4
ATOM      4  C   UNL A   1      37.997  21.244  25.397  1.00  0.00     0.261 C 
BRANCH   4   5
ATOM      5  O   UNL A   1      36.806  21.888  25.867  1.00  0.00    -0.459 OA
BRANCH   5   6
ATOM      6  C   UNL A   1      36.440  22.987  25.156  1.00  0.00     0.368 C 
ATOM      7  O   UNL A   1      37.250  23.765  24.653  1.00  0.00    -0.245 OA
BRANCH   6   8
ATOM      8  C   UNL A   1      34.916  23.206  25.020  1.00  0.00     0.198 C 
ATOM      9  C   UNL A   1      34.465  23.303  26.498  1.00  0.00     0.085 C 
ATOM     10  C   UNL A   1      34.567  24.615  24.480  1.00  0.00     0.126 C 
ATOM     11  C   UNL A   1      33.228  24.161  26.485  1.00  0.00     0.052 C 
ATOM     12  C   UNL A   1      33.474  25.206  25.393  1.00  0.00     0.180 C 
BRANCH   8  13
ATOM     13  N   UNL A   1      34.089  22.135  24.401  1.00  0.00    -0.330 N 
ATOM     14  H   UNL A   1      33.230  22.585  24.085  1.00  0.00     0.347 HD
ATOM     15  H   UNL A   1      34.730  21.745  23.710  1.00  0.00     0.347 HD
BRANCH  13  16
ATOM     16  C   UNL A   1      33.676  20.940  25.143  1.00  0.00     0.176 C 
ATOM     17  C   UNL A   1      32.149  20.850  24.975  1.00  0.00     0.075 C 
ATOM     18  C   UNL A   1      34.280  19.618  24.662  1.00  0.00     0.075 C 
ENDBRANCH  13  16
ENDBRANCH   8  13
BRANCH  12  19
ATOM     19  O   UNL A   1      32.294  25.470  24.618  1.00  0.00    -0.490 OA
BRANCH  19  20
ATOM     20  C   UNL A   1      31.962  26.791  24.447  1.00  0.00     0.120 A 
ATOM     21  C   UNL A   1      32.715  27.869  24.916  1.00  0.00     0.046 A 
ATOM     22  C   UNL A   1      30.753  27.033  23.789  1.00  0.00     0.052 A 
ATOM     23  C   UNL A   1      32.216  29.168  24.826  1.00  0.00     0.004 A 
ATOM     24  C   UNL A   1      30.258  28.340  23.662  1.00  0.00    -0.019 A 
ATOM     25  C   UNL A   1      30.987  29.401  24.214  1.00  0.00     0.006 A 
BRANCH  24  26
ATOM     26  C   UNL A   1      28.950  28.614  22.971  1.00  0.00     0.191 C 
BRANCH  26  27
ATOM     27  O   UNL A   1      28.455  29.900  23.320  1.00  0.00    -0.392 OA
ATOM     28  H   UNL A   1      27.600  30.045  22.884  1.00  0.00     0.211 HD
ENDBRANCH  26  27
ENDBRANCH  24  26
ENDBRANCH  19  20
ENDBRANCH  12  19
ENDBRANCH   6   8
ENDBRANCH   5   6
ENDBRANCH   4   5
ENDBRANCH   3   4
ENDBRANCH   2   3
ENDBRANCH   1   2
BRANCH   1  29
ATOM     29  C   UNL A   1      41.064  19.597  26.318  1.00  0.00     0.188 C 
BRANCH  29  30
ATOM     30  O   UNL A   1      42.178  19.588  25.434  1.00  0.00    -0.376 OA
BRANCH  30  31
ATOM     31  C   UNL A   1      43.249  20.447  25.845  1.00  0.00     0.202 C 
BRANCH  31  32
ATOM     32  C   UNL A   1      43.764  21.459  24.795  1.00  0.00     0.261 C 
BRANCH  32  33
ATOM     33  O   UNL A   1      43.143  22.768  24.803  1.00  0.00    -0.460 OA
BRANCH  33  34
ATOM     34  C   UNL A   1      43.935  23.854  24.974  1.00  0.00     0.338 C 
ATOM     35  O   UNL A   1      44.895  24.159  24.286  1.00  0.00    -0.246 OA
BRANCH  34  36
ATOM     36  C   UNL A   1      43.289  24.777  25.958  1.00  0.00     0.060 A 
ATOM     37  C   UNL A   1      43.702  26.118  25.985  1.00  0.00     0.016 A 
ATOM     38  C   UNL A   1      42.245  24.368  26.795  1.00  0.00     0.016 A 
ATOM     39  C   UNL A   1      43.110  27.034  26.865  1.00  0.00     0.010 A 
ATOM     40  C   UNL A   1      41.663  25.282  27.689  1.00  0.00     0.010 A 
ATOM     41  C   UNL A   1      42.111  26.615  27.753  1.00  0.00    -0.014 A 
BRANCH  41  42
ATOM     42  C   UNL A   1      41.673  27.504  28.865  1.00  0.00     0.031 A 
ATOM     43  C   UNL A   1      42.440  27.460  30.162  1.00  0.00     0.074 A 
ATOM     44  C   UNL A   1      40.634  28.353  28.748  1.00  0.00     0.049 A 
ATOM     45  N   UNL A   1      42.222  28.097  31.287  1.00  0.00    -0.248 NA
ATOM     46  C   UNL A   1      43.616  26.577  30.192  1.00  0.00     0.031 C 
ATOM     47  C   UNL A   1      39.826  28.545  27.548  1.00  0.00     0.029 A 
ATOM     48  N   UNL A   1      40.078  29.213  29.669  1.00  0.00    -0.354 N 
ATOM     49  C   UNL A   1      43.226  27.688  32.153  1.00  0.00     0.074 A 
ATOM     50  C   UNL A   1      44.040  26.731  31.436  1.00  0.00     0.031 C 
ATOM     51  C   UNL A   1      38.867  29.452  27.809  1.00  0.00     0.029 A 
ATOM     52  C   UNL A   1      38.972  29.882  29.204  1.00  0.00     0.049 A 
ATOM     53  H   UNL A   1      40.440  29.336  30.576  1.00  0.00     0.167 HD
ATOM     54  C   UNL A   1      43.460  28.077  33.429  1.00  0.00     0.037 A 
ATOM     55  C   UNL A   1      38.127  30.723  29.837  1.00  0.00     0.037 A 
ATOM     56  C   UNL A   1      42.661  29.028  34.158  1.00  0.00     0.049 A 
ATOM     57  C   UNL A   1      38.355  31.074  31.289  1.00  0.00     0.074 A 
ATOM     58  C   UNL A   1      42.841  29.494  35.448  1.00  0.00     0.029 A 
ATOM     59  N   UNL A   1      41.525  29.650  33.664  1.00  0.00    -0.354 N 
ATOM     60  N   UNL A   1      39.323  30.704  32.092  1.00  0.00    -0.248 NA
ATOM     61  C   UNL A   1      37.367  31.963  31.923  1.00  0.00     0.031 C 
ATOM     62  C   UNL A   1      41.782  30.355  35.756  1.00  0.00     0.029 A 
ATOM     63  C   UNL A   1      40.975  30.470  34.637  1.00  0.00     0.049 A 
ATOM     64  H   UNL A   1      41.162  29.526  32.757  1.00  0.00     0.167 HD
ATOM     65  C   UNL A   1      39.078  31.333  33.307  1.00  0.00     0.074 A 
ATOM     66  C   UNL A   1      37.877  32.122  33.136  1.00  0.00     0.031 C 
ATOM     67  C   UNL A   1      39.786  31.263  34.462  1.00  0.00     0.037 A 
BRANCH  54  68
ATOM     68  C   UNL A   1      44.622  27.451  34.142  1.00  0.00     0.064 A 
ATOM     69  C   UNL A   1      45.884  28.062  34.173  1.00  0.00     0.173 A 
ATOM     70  C   UNL A   1      44.456  26.245  34.840  1.00  0.00     0.173 A 
ATOM     71  F   UNL A   1      46.096  29.208  33.507  1.00  0.00    -0.203 F 
ATOM     72  C   UNL A   1      46.945  27.477  34.859  1.00  0.00     0.198 A 
ATOM     73  C   UNL A   1      45.511  25.679  35.549  1.00  0.00     0.198 A 
ATOM     74  F   UNL A   1      43.267  25.624  34.846  1.00  0.00    -0.203 F 
ATOM     75  F   UNL A   1      48.153  28.054  34.840  1.00  0.00    -0.200 F 
ATOM     76  C   UNL A   1      46.755  26.290  35.553  1.00  0.00     0.200 A 
ATOM     77  F   UNL A   1      45.323  24.539  36.230  1.00  0.00    -0.200 F 
ATOM     78  F   UNL A   1      47.774  25.734  36.222  1.00  0.00    -0.200 F 
ENDBRANCH  54  68
BRANCH  55  79
ATOM     79  C   UNL A   1      36.949  31.283  29.118  1.00  0.00     0.064 A 
ATOM     80  C   UNL A   1      36.890  32.639  28.763  1.00  0.00     0.173 A 
ATOM     81  C   UNL A   1      35.834  30.485  28.822  1.00  0.00     0.173 A 
ATOM     82  F   UNL A   1      37.913  33.453  29.061  1.00  0.00    -0.203 F 
ATOM     83  C   UNL A   1      35.755  33.177  28.161  1.00  0.00     0.198 A 
ATOM     84  C   UNL A   1      34.711  31.018  28.192  1.00  0.00     0.198 A 
ATOM     85  F   UNL A   1      35.832  29.185  29.154  1.00  0.00    -0.203 F 
ATOM     86  F   UNL A   1      35.702  34.488  27.887  1.00  0.00    -0.200 F 
ATOM     87  C   UNL A   1      34.670  32.365  27.869  1.00  0.00     0.200 A 
ATOM     88  F   UNL A   1      33.666  30.228  27.910  1.00  0.00    -0.200 F 
ATOM     89  F   UNL A   1      33.576  32.885  27.293  1.00  0.00    -0.200 F 
ENDBRANCH  55  79
BRANCH  67  90
ATOM     90  C   UNL A   1      39.311  32.085  35.627  1.00  0.00     0.064 A 
ATOM     91  C   UNL A   1      39.711  33.419  35.803  1.00  0.00     0.173 A 
ATOM     92  C   UNL A   1      38.405  31.548  36.555  1.00  0.00     0.173 A 
ATOM     93  F   UNL A   1      40.585  33.979  34.952  1.00  0.00    -0.203 F 
ATOM     94  C   UNL A   1      39.242  34.173  36.875  1.00  0.00     0.198 A 
ATOM     95  C   UNL A   1      37.914  32.314  37.609  1.00  0.00     0.198 A 
ATOM     96  F   UNL A   1      37.982  30.280  36.431  1.00  0.00    -0.203 F 
ATOM     97  F   UNL A   1      39.673  35.431  37.047  1.00  0.00    -0.200 F 
ATOM     98  C   UNL A   1      38.338  33.623  37.773  1.00  0.00     0.200 A 
ATOM     99  F   UNL A   1      37.029  31.785  38.466  1.00  0.00    -0.200 F 
ATOM    100  F   UNL A   1      37.880  34.355  38.799  1.00  0.00    -0.200 F 
ENDBRANCH  67  90
ENDBRANCH  41  42
ENDBRANCH  34  36
ENDBRANCH  33  34
ENDBRANCH  32  33
ENDBRANCH  31  32
ENDBRANCH  30  31
ENDBRANCH  29  30
ENDBRANCH   1  29
TORSDOF 23
ENDMDL
MODEL 2
REMARK VINA RESULT:     -10.7      0.704      2.152
REMARK SMILES CC(C)[NH2+][C@]1(C(=O)OCCOCCOCCOC(=O)c2ccc(-c3c4nc(c(-c5c(F)c(F)c(F)c(F)c5F)c5ccc([nH]5)c(-c5c(F)c(F)c(F)c(F)c5F)c5nc(c(-c6c(F)c(F)c(F)c(F)c6F)c6ccc3[nH]6)C=C5)C=C4)cc2)CC[C@H](Oc2cccc(CO)c2)C1
REMARK SMILES IDX 12 1 11 2 10 3 9 4 8 5 6 6 7 7 5 8 83 9 95 10 84 11 85 12
REMARK SMILES IDX 4 13 2 16 1 17 3 18 86 19 87 20 88 21 94 22 89 23 91 24
REMARK SMILES IDX 90 25 92 26 93 27 13 29 14 30 15 31 16 32 17 33 18 34 19 35
REMARK SMILES IDX 20 36 21 37 82 38 22 39 81 40 23 41 24 42 25 43 75 44 26 45
REMARK SMILES IDX 80 46 74 47 76 48 27 49 79 50 73 51 72 52 28 54 60 55 40 56
REMARK SMILES IDX 59 57 41 58 44 59 58 60 77 61 42 62 43 63 57 65 78 66 45 67
REMARK SMILES IDX 29 68 30 69 38 70 31 71 32 72 36 73 39 74 33 75 34 76 37 77
REMARK SMILES IDX 35 78 61 79 62 80 70 81 63 82 64 83 68 84 71 85 65 86 66 87
REMARK SMILES IDX 69 88 67 89 46 90 47 91 55 92 48 93 49 94 53 95 56 96 50 97
REMARK SMILES IDX 51 98 54 99 52 100
REMARK H PARENT 4 14 4 15 93 28 76 53 44 64
REMARK Flexibility Score: inf
ROOT
ATOM      1  C   UNL A   1      40.991  21.153  27.322  1.00  0.00     0.188 C 
ENDROOT
BRANCH   1   2
ATOM      2  O   UNL A   1      39.836  21.949  27.080  1.00  0.00    -0.376 OA
BRANCH   2   3
ATOM      3  C   UNL A   1      39.243  21.839  25.791  1.00  0.00     0.202 C 
BRANCH   3   4
ATOM      4  C   UNL A   1      37.724  22.054  25.685  1.00  0.00     0.261 C 
BRANCH   4   5
ATOM      5  O   UNL A   1      37.297  23.351  25.250  1.00  0.00    -0.459 OA
BRANCH   5   6
ATOM      6  C   UNL A   1      36.437  23.339  24.198  1.00  0.00     0.368 C 
ATOM      7  O   UNL A   1      36.777  23.046  23.052  1.00  0.00    -0.245 OA
BRANCH   6   8
ATOM      8  C   UNL A   1      34.979  23.728  24.536  1.00  0.00     0.198 C 
ATOM      9  C   UNL A   1      35.174  24.884  25.546  1.00  0.00     0.085 C 
ATOM     10  C   UNL A   1      34.270  24.442  23.358  1.00  0.00     0.126 C 
ATOM     11  C   UNL A   1      33.949  25.749  25.408  1.00  0.00     0.052 C 
ATOM     12  C   UNL A   1      33.592  25.707  23.920  1.00  0.00     0.180 C 
BRANCH   8  13
ATOM     13  N   UNL A   1      34.106  22.728  25.208  1.00  0.00    -0.330 N 
ATOM     14  H   UNL A   1      34.682  22.284  25.923  1.00  0.00     0.347 HD
ATOM     15  H   UNL A   1      33.311  23.299  25.493  1.00  0.00     0.347 HD
BRANCH  13  16
ATOM     16  C   UNL A   1      33.456  21.639  24.472  1.00  0.00     0.176 C 
ATOM     17  C   UNL A   1      34.261  20.372  24.804  1.00  0.00     0.075 C 
ATOM     18  C   UNL A   1      31.992  21.375  24.836  1.00  0.00     0.075 C 
ENDBRANCH  13  16
ENDBRANCH   8  13
BRANCH  12  19
ATOM     19  O   UNL A   1      32.174  25.627  23.704  1.00  0.00    -0.490 OA
BRANCH  19  20
ATOM     20  C   UNL A   1      31.499  26.821  23.651  1.00  0.00     0.120 A 
ATOM     21  C   UNL A   1      30.563  27.165  22.674  1.00  0.00     0.046 A 
ATOM     22  C   UNL A   1      31.833  27.752  24.639  1.00  0.00     0.052 A 
ATOM     23  C   UNL A   1      30.046  28.459  22.619  1.00  0.00     0.004 A 
ATOM     24  C   UNL A   1      31.292  29.046  24.614  1.00  0.00    -0.019 A 
ATOM     25  C   UNL A   1      30.420  29.399  23.576  1.00  0.00     0.006 A 
BRANCH  24  26
ATOM     26  C   UNL A   1      31.656  30.063  25.661  1.00  0.00     0.191 C 
BRANCH  26  27
ATOM     27  O   UNL A   1      31.063  31.322  25.369  1.00  0.00    -0.392 OA
ATOM     28  H   UNL A   1      31.238  31.553  24.442  1.00  0.00     0.211 HD
ENDBRANCH  26  27
ENDBRANCH  24  26
ENDBRANCH  19  20
ENDBRANCH  12  19
ENDBRANCH   6   8
ENDBRANCH   5   6
ENDBRANCH   4   5
ENDBRANCH   3   4
ENDBRANCH   2   3
ENDBRANCH   1   2
BRANCH   1  29
ATOM     29  C   UNL A   1      41.139  19.931  26.440  1.00  0.00     0.188 C 
BRANCH  29  30
ATOM     30  O   UNL A   1      42.257  19.949  25.561  1.00  0.00    -0.376 OA
BRANCH  30  31
ATOM     31  C   UNL A   1      43.287  20.865  25.955  1.00  0.00     0.202 C 
BRANCH  31  32
ATOM     32  C   UNL A   1      43.783  21.853  24.873  1.00  0.00     0.261 C 
BRANCH  32  33
ATOM     33  O   UNL A   1      43.172  23.166  24.870  1.00  0.00    -0.460 OA
BRANCH  33  34
ATOM     34  C   UNL A   1      43.960  24.242  25.105  1.00  0.00     0.338 C 
ATOM     35  O   UNL A   1      44.935  24.576  24.452  1.00  0.00    -0.246 OA
BRANCH  34  36
ATOM     36  C   UNL A   1      43.294  25.122  26.115  1.00  0.00     0.060 A 
ATOM     37  C   UNL A   1      43.702  26.462  26.205  1.00  0.00     0.016 A 
ATOM     38  C   UNL A   1      42.235  24.677  26.915  1.00  0.00     0.016 A 
ATOM     39  C   UNL A   1      43.090  27.339  27.111  1.00  0.00     0.010 A 
ATOM     40  C   UNL A   1      41.634  25.550  27.835  1.00  0.00     0.010 A 
ATOM     41  C   UNL A   1      42.077  26.881  27.962  1.00  0.00    -0.014 A 
BRANCH  41  42
ATOM     42  C   UNL A   1      41.616  27.722  29.103  1.00  0.00     0.031 A 
ATOM     43  C   UNL A   1      42.370  27.639  30.406  1.00  0.00     0.074 A 
ATOM     44  C   UNL A   1      40.568  28.562  29.005  1.00  0.00     0.049 A 
ATOM     45  N   UNL A   1      42.131  28.230  31.551  1.00  0.00    -0.248 NA
ATOM     46  C   UNL A   1      43.556  26.769  30.414  1.00  0.00     0.031 C 
ATOM     47  C   UNL A   1      39.770  28.789  27.805  1.00  0.00     0.029 A 
ATOM     48  N   UNL A   1      39.991  29.380  29.952  1.00  0.00    -0.354 N 
ATOM     49  C   UNL A   1      43.132  27.801  32.412  1.00  0.00     0.074 A 
ATOM     50  C   UNL A   1      43.965  26.881  31.669  1.00  0.00     0.031 C 
ATOM     51  C   UNL A   1      38.797  29.674  28.089  1.00  0.00     0.029 A 
ATOM     52  C   UNL A   1      38.881  30.052  29.501  1.00  0.00     0.049 A 
ATOM     53  H   UNL A   1      40.342  29.473  30.868  1.00  0.00     0.167 HD
ATOM     54  C   UNL A   1      43.347  28.144  33.705  1.00  0.00     0.037 A 
ATOM     55  C   UNL A   1      38.019  30.859  30.156  1.00  0.00     0.037 A 
ATOM     56  C   UNL A   1      42.528  29.057  34.459  1.00  0.00     0.049 A 
ATOM     57  C   UNL A   1      38.228  31.157  31.622  1.00  0.00     0.074 A 
ATOM     58  C   UNL A   1      42.688  29.476  35.769  1.00  0.00     0.029 A 
ATOM     59  N   UNL A   1      41.390  29.683  33.976  1.00  0.00    -0.354 N 
ATOM     60  N   UNL A   1      39.192  30.768  32.421  1.00  0.00    -0.248 NA
ATOM     61  C   UNL A   1      37.222  32.009  32.278  1.00  0.00     0.031 C 
ATOM     62  C   UNL A   1      41.616  30.312  36.097  1.00  0.00     0.029 A 
ATOM     63  C   UNL A   1      40.819  30.459  34.974  1.00  0.00     0.049 A 
ATOM     64  H   UNL A   1      41.038  29.589  33.061  1.00  0.00     0.167 HD
ATOM     65  C   UNL A   1      38.925  31.349  33.656  1.00  0.00     0.074 A 
ATOM     66  C   UNL A   1      37.717  32.129  33.502  1.00  0.00     0.031 C 
ATOM     67  C   UNL A   1      39.622  31.243  34.815  1.00  0.00     0.037 A 
BRANCH  54  68
ATOM     68  C   UNL A   1      44.509  27.505  34.406  1.00  0.00     0.064 A 
ATOM     69  C   UNL A   1      44.402  26.244  35.011  1.00  0.00     0.173 A 
ATOM     70  C   UNL A   1      45.758  28.145  34.432  1.00  0.00     0.173 A 
ATOM     71  F   UNL A   1      43.226  25.599  35.025  1.00  0.00    -0.203 F 
ATOM     72  C   UNL A   1      45.499  25.656  35.636  1.00  0.00     0.198 A 
ATOM     73  C   UNL A   1      46.858  27.541  35.033  1.00  0.00     0.198 A 
ATOM     74  F   UNL A   1      45.912  29.350  33.863  1.00  0.00    -0.203 F 
ATOM     75  F   UNL A   1      45.364  24.471  36.246  1.00  0.00    -0.200 F 
ATOM     76  C   UNL A   1      46.727  26.302  35.640  1.00  0.00     0.200 A 
ATOM     77  F   UNL A   1      48.047  28.161  35.024  1.00  0.00    -0.200 F 
ATOM     78  F   UNL A   1      47.783  25.731  36.234  1.00  0.00    -0.200 F 
ENDBRANCH  54  68
BRANCH  55  79
ATOM     79  C   UNL A   1      36.842  31.431  29.445  1.00  0.00     0.064 A 
ATOM     80  C   UNL A   1      35.756  30.626  29.072  1.00  0.00     0.173 A 
ATOM     81  C   UNL A   1      36.808  32.782  29.073  1.00  0.00     0.173 A 
ATOM     82  F   UNL A   1      35.759  29.318  29.369  1.00  0.00    -0.203 F 
ATOM     83  C   UNL A   1      34.691  31.147  28.338  1.00  0.00     0.198 A 
ATOM     84  C   UNL A   1      35.728  33.309  28.365  1.00  0.00     0.198 A 
ATOM     85  F   UNL A   1      37.828  33.593  29.390  1.00  0.00    -0.203 F 
ATOM     86  F   UNL A   1      33.695  30.342  27.944  1.00  0.00    -0.200 F 
ATOM     87  C   UNL A   1      34.676  32.489  27.992  1.00  0.00     0.200 A 
ATOM     88  F   UNL A   1      35.717  34.608  28.034  1.00  0.00    -0.200 F 
ATOM     89  F   UNL A   1      33.654  32.988  27.282  1.00  0.00    -0.200 F 
ENDBRANCH  55  79
BRANCH  67  90
ATOM     90  C   UNL A   1      39.124  32.015  36.006  1.00  0.00     0.064 A 
ATOM     91  C   UNL A   1      38.244  31.447  36.940  1.00  0.00     0.173 A 
ATOM     92  C   UNL A   1      39.571  33.324  36.242  1.00  0.00     0.173 A 
ATOM     93  F   UNL A   1      37.776  30.203  36.757  1.00  0.00    -0.203 F 
ATOM     94  C   UNL A   1      37.813  32.169  38.050  1.00  0.00     0.198 A 
ATOM     95  C   UNL A   1      39.162  34.032  37.368  1.00  0.00     0.198 A 
ATOM     96  F   UNL A   1      40.421  33.913  35.386  1.00  0.00    -0.203 F 
ATOM     97  F   UNL A   1      36.937  31.621  38.905  1.00  0.00    -0.200 F 
ATOM     98  C   UNL A   1      38.278  33.457  38.268  1.00  0.00     0.200 A 
ATOM     99  F   UNL A   1      39.625  35.272  37.586  1.00  0.00    -0.200 F 
ATOM    100  F   UNL A   1      37.869  34.147  39.342  1.00  0.00    -0.200 F 
ENDBRANCH  67  90
ENDBRANCH  41  42
ENDBRANCH  34  36
ENDBRANCH  33  34
ENDBRANCH  32  33
ENDBRANCH  31  32
ENDBRANCH  30  31
ENDBRANCH  29  30
ENDBRANCH   1  29
TORSDOF 23
ENDMDL
MODEL 3
REMARK VINA RESULT:     -10.6      3.174      9.124
REMARK SMILES CC(C)[NH2+][C@]1(C(=O)OCCOCCOCCOC(=O)c2ccc(-c3c4nc(c(-c5c(F)c(F)c(F)c(F)c5F)c5ccc([nH]5)c(-c5c(F)c(F)c(F)c(F)c5F)c5nc(c(-c6c(F)c(F)c(F)c(F)c6F)c6ccc3[nH]6)C=C5)C=C4)cc2)CC[C@H](Oc2cccc(CO)c2)C1
REMARK SMILES IDX 12 1 11 2 10 3 9 4 8 5 6 6 7 7 5 8 83 9 95 10 84 11 85 12
REMARK SMILES IDX 4 13 2 16 1 17 3 18 86 19 87 20 88 21 94 22 89 23 91 24
REMARK SMILES IDX 90 25 92 26 93 27 13 29 14 30 15 31 16 32 17 33 18 34 19 35
REMARK SMILES IDX 20 36 21 37 82 38 22 39 81 40 23 41 24 42 25 43 75 44 26 45
REMARK SMILES IDX 80 46 74 47 76 48 27 49 79 50 73 51 72 52 28 54 60 55 40 56
REMARK SMILES IDX 59 57 41 58 44 59 58 60 77 61 42 62 43 63 57 65 78 66 45 67
REMARK SMILES IDX 29 68 30 69 38 70 31 71 32 72 36 73 39 74 33 75 34 76 37 77
REMARK SMILES IDX 35 78 61 79 62 80 70 81 63 82 64 83 68 84 71 85 65 86 66 87
REMARK SMILES IDX 69 88 67 89 46 90 47 91 55 92 48 93 49 94 53 95 56 96 50 97
REMARK SMILES IDX 51 98 54 99 52 100
REMARK H PARENT 4 14 4 15 93 28 76 53 44 64
REMARK Flexibility Score: inf
ROOT
ATOM      1  C   UNL A   1      31.136  29.159  24.671  1.00  0.00     0.188 C 
ENDROOT
BRANCH   1   2
ATOM      2  O   UNL A   1      31.526  29.069  23.306  1.00  0.00    -0.376 OA
BRANCH   2   3
ATOM      3  C   UNL A   1      31.137  27.891  22.607  1.00  0.00     0.202 C 
BRANCH   3   4
ATOM      4  C   UNL A   1      32.179  26.769  22.469  1.00  0.00     0.261 C 
BRANCH   4   5
ATOM      5  O   UNL A   1      32.306  25.881  23.587  1.00  0.00    -0.459 OA
BRANCH   5   6
ATOM      6  C   UNL A   1      33.028  24.757  23.337  1.00  0.00     0.368 C 
ATOM      7  O   UNL A   1      33.689  24.594  22.312  1.00  0.00    -0.245 OA
BRANCH   6   8
ATOM      8  C   UNL A   1      32.963  23.674  24.439  1.00  0.00     0.198 C 
ATOM      9  C   UNL A   1      31.540  23.876  25.014  1.00  0.00     0.085 C 
ATOM     10  C   UNL A   1      32.878  22.242  23.855  1.00  0.00     0.126 C 
ATOM     11  C   UNL A   1      31.129  22.531  25.551  1.00  0.00     0.052 C 
ATOM     12  C   UNL A   1      31.734  21.509  24.584  1.00  0.00     0.180 C 
BRANCH   8  13
ATOM     13  N   UNL A   1      33.896  23.768  25.593  1.00  0.00    -0.330 N 
ATOM     14  H   UNL A   1      34.355  24.676  25.514  1.00  0.00     0.347 HD
ATOM     15  H   UNL A   1      33.276  23.592  26.383  1.00  0.00     0.347 HD
BRANCH  13  16
ATOM     16  C   UNL A   1      34.964  22.788  25.816  1.00  0.00     0.176 C 
ATOM     17  C   UNL A   1      36.241  23.609  26.059  1.00  0.00     0.075 C 
ATOM     18  C   UNL A   1      34.769  21.856  27.016  1.00  0.00     0.075 C 
ENDBRANCH  13  16
ENDBRANCH   8  13
BRANCH  12  19
ATOM     19  O   UNL A   1      32.260  20.360  25.268  1.00  0.00    -0.490 OA
BRANCH  19  20
ATOM     20  C   UNL A   1      32.650  19.308  24.477  1.00  0.00     0.120 A 
ATOM     21  C   UNL A   1      32.221  19.095  23.165  1.00  0.00     0.046 A 
ATOM     22  C   UNL A   1      33.505  18.381  25.079  1.00  0.00     0.052 A 
ATOM     23  C   UNL A   1      32.554  17.916  22.500  1.00  0.00     0.004 A 
ATOM     24  C   UNL A   1      33.875  17.208  24.404  1.00  0.00    -0.019 A 
ATOM     25  C   UNL A   1      33.365  16.971  23.121  1.00  0.00     0.006 A 
BRANCH  24  26
ATOM     26  C   UNL A   1      34.781  16.192  25.047  1.00  0.00     0.191 C 
BRANCH  26  27
ATOM     27  O   UNL A   1      34.061  15.011  25.374  1.00  0.00    -0.392 OA
ATOM     28  H   UNL A   1      34.687  14.283  25.523  1.00  0.00     0.211 HD
ENDBRANCH  26  27
ENDBRANCH  24  26
ENDBRANCH  19  20
ENDBRANCH  12  19
ENDBRANCH   6   8
ENDBRANCH   5   6
ENDBRANCH   4   5
ENDBRANCH   3   4
ENDBRANCH   2   3
ENDBRANCH   1   2
BRANCH   1  29
ATOM     29  C   UNL A   1      32.205  29.650  25.626  1.00  0.00     0.188 C 
BRANCH  29  30
ATOM     30  O   UNL A   1      31.724  30.351  26.766  1.00  0.00    -0.376 OA
BRANCH  30  31
ATOM     31  C   UNL A   1      31.446  31.735  26.520  1.00  0.00     0.202 C 
BRANCH  31  32
ATOM     32  C   UNL A   1      32.567  32.739  26.878  1.00  0.00     0.261 C 
BRANCH  32  33
ATOM     33  O   UNL A   1      32.279  33.672  27.948  1.00  0.00    -0.460 OA
BRANCH  33  34
ATOM     34  C   UNL A   1      33.274  34.487  28.374  1.00  0.00     0.338 C 
ATOM     35  O   UNL A   1      33.175  35.681  28.609  1.00  0.00    -0.246 OA
BRANCH  34  36
ATOM     36  C   UNL A   1      34.443  33.652  28.788  1.00  0.00     0.060 A 
ATOM     37  C   UNL A   1      34.196  32.428  29.429  1.00  0.00     0.016 A 
ATOM     38  C   UNL A   1      35.763  34.012  28.493  1.00  0.00     0.016 A 
ATOM     39  C   UNL A   1      35.253  31.591  29.810  1.00  0.00     0.010 A 
ATOM     40  C   UNL A   1      36.823  33.182  28.890  1.00  0.00     0.010 A 
ATOM     41  C   UNL A   1      36.579  31.978  29.579  1.00  0.00    -0.014 A 
BRANCH  41  42
ATOM     42  C   UNL A   1      37.702  31.234  30.216  1.00  0.00     0.031 A 
ATOM     43  C   UNL A   1      38.046  31.547  31.650  1.00  0.00     0.074 A 
ATOM     44  C   UNL A   1      38.402  30.285  29.567  1.00  0.00     0.049 A 
ATOM     45  N   UNL A   1      39.009  31.073  32.403  1.00  0.00    -0.248 NA
ATOM     46  C   UNL A   1      37.184  32.529  32.325  1.00  0.00     0.031 C 
ATOM     47  C   UNL A   1      38.161  29.838  28.199  1.00  0.00     0.029 A 
ATOM     48  N   UNL A   1      39.477  29.529  29.983  1.00  0.00    -0.354 N 
ATOM     49  C   UNL A   1      38.870  31.701  33.633  1.00  0.00     0.074 A 
ATOM     50  C   UNL A   1      37.748  32.609  33.521  1.00  0.00     0.031 C 
ATOM     51  C   UNL A   1      39.069  28.897  27.881  1.00  0.00     0.029 A 
ATOM     52  C   UNL A   1      39.978  28.698  29.011  1.00  0.00     0.049 A 
ATOM     53  H   UNL A   1      39.850  29.581  30.893  1.00  0.00     0.167 HD
ATOM     54  C   UNL A   1      39.602  31.537  34.760  1.00  0.00     0.037 A 
ATOM     55  C   UNL A   1      41.060  27.889  29.022  1.00  0.00     0.037 A 
ATOM     56  C   UNL A   1      40.721  30.639  34.890  1.00  0.00     0.049 A 
ATOM     57  C   UNL A   1      41.915  27.789  30.263  1.00  0.00     0.074 A 
ATOM     58  C   UNL A   1      41.505  30.396  36.004  1.00  0.00     0.029 A 
ATOM     59  N   UNL A   1      41.221  29.847  33.869  1.00  0.00    -0.354 N 
ATOM     60  N   UNL A   1      41.760  28.366  31.430  1.00  0.00    -0.248 NA
ATOM     61  C   UNL A   1      43.102  26.921  30.185  1.00  0.00     0.031 C 
ATOM     62  C   UNL A   1      42.515  29.498  35.643  1.00  0.00     0.029 A 
ATOM     63  C   UNL A   1      42.325  29.139  34.319  1.00  0.00     0.049 A 
ATOM     64  H   UNL A   1      40.849  29.796  32.958  1.00  0.00     0.167 HD
ATOM     65  C   UNL A   1      42.804  27.911  32.227  1.00  0.00     0.074 A 
ATOM     66  C   UNL A   1      43.582  26.997  31.418  1.00  0.00     0.031 C 
ATOM     67  C   UNL A   1      43.092  28.223  33.515  1.00  0.00     0.037 A 
BRANCH  54  68
ATOM     68  C   UNL A   1      39.233  32.370  35.953  1.00  0.00     0.064 A 
ATOM     69  C   UNL A   1      39.755  33.658  36.141  1.00  0.00     0.173 A 
ATOM     70  C   UNL A   1      38.311  31.888  36.894  1.00  0.00     0.173 A 
ATOM     71  F   UNL A   1      40.652  34.156  35.276  1.00  0.00    -0.203 F 
ATOM     72  C   UNL A   1      39.383  34.426  37.241  1.00  0.00     0.198 A 
ATOM     73  C   UNL A   1      37.920  32.670  37.976  1.00  0.00     0.198 A 
ATOM     74  F   UNL A   1      37.779  30.665  36.755  1.00  0.00    -0.203 F 
ATOM     75  F   UNL A   1      39.927  35.636  37.426  1.00  0.00    -0.200 F 
ATOM     76  C   UNL A   1      38.460  33.934  38.153  1.00  0.00     0.200 A 
ATOM     77  F   UNL A   1      37.017  32.199  38.849  1.00  0.00    -0.200 F 
ATOM     78  F   UNL A   1      38.096  34.678  39.206  1.00  0.00    -0.200 F 
ENDBRANCH  54  68
BRANCH  55  79
ATOM     79  C   UNL A   1      41.431  27.120  27.803  1.00  0.00     0.064 A 
ATOM     80  C   UNL A   1      41.079  25.770  27.659  1.00  0.00     0.173 A 
ATOM     81  C   UNL A   1      42.197  27.704  26.783  1.00  0.00     0.173 A 
ATOM     82  F   UNL A   1      40.383  25.154  28.626  1.00  0.00    -0.203 F 
ATOM     83  C   UNL A   1      41.496  25.030  26.554  1.00  0.00     0.198 A 
ATOM     84  C   UNL A   1      42.586  26.972  25.663  1.00  0.00     0.198 A 
ATOM     85  F   UNL A   1      42.574  28.987  26.878  1.00  0.00    -0.203 F 
ATOM     86  F   UNL A   1      41.196  23.727  26.472  1.00  0.00    -0.200 F 
ATOM     87  C   UNL A   1      42.242  25.633  25.554  1.00  0.00     0.200 A 
ATOM     88  F   UNL A   1      43.307  27.560  24.698  1.00  0.00    -0.200 F 
ATOM     89  F   UNL A   1      42.646  24.920  24.493  1.00  0.00    -0.200 F 
ENDBRANCH  55  79
BRANCH  67  90
ATOM     90  C   UNL A   1      44.275  27.549  34.153  1.00  0.00     0.064 A 
ATOM     91  C   UNL A   1      45.544  28.148  34.174  1.00  0.00     0.173 A 
ATOM     92  C   UNL A   1      44.127  26.309  34.794  1.00  0.00     0.173 A 
ATOM     93  F   UNL A   1      45.744  29.328  33.567  1.00  0.00    -0.203 F 
ATOM     94  C   UNL A   1      46.623  27.521  34.792  1.00  0.00     0.198 A 
ATOM     95  C   UNL A   1      45.201  25.698  35.436  1.00  0.00     0.198 A 
ATOM     96  F   UNL A   1      42.934  25.695  34.812  1.00  0.00    -0.203 F 
ATOM     97  F   UNL A   1      47.836  28.091  34.761  1.00  0.00    -0.200 F 
ATOM     98  C   UNL A   1      46.449  26.300  35.428  1.00  0.00     0.200 A 
ATOM     99  F   UNL A   1      45.028  24.527  36.065  1.00  0.00    -0.200 F 
ATOM    100  F   UNL A   1      47.488  25.702  36.030  1.00  0.00    -0.200 F 
ENDBRANCH  67  90
ENDBRANCH  41  42
ENDBRANCH  34  36
ENDBRANCH  33  34
ENDBRANCH  32  33
ENDBRANCH  31  32
ENDBRANCH  30  31
ENDBRANCH  29  30
ENDBRANCH   1  29
TORSDOF 23
ENDMDL
