MODEL 1
REMARK VINA RESULT:     -10.3      0.000      0.000
REMARK SMILES CC(C)COc1ccc(CC(=O)OCCOCCOCCOC(=O)c2ccc(-c3c4nc(c(-c5c(F)c(F)c(F)c(F)c5F)c5ccc([nH]5)c(-c5c(F)c(F)c(F)c(F)c5F)c5nc(c(-c6c(F)c(F)c(F)c(F)c6F)c6ccc3[nH]6)C=C5)C=C4)cc2)cc1
REMARK SMILES IDX 17 1 16 2 15 3 14 4 13 5 11 6 12 7 10 8 9 9 6 10 7 11 89 12
REMARK SMILES IDX 8 13 88 14 5 15 4 16 2 17 1 18 3 19 18 20 19 21 20 22 21 23
REMARK SMILES IDX 22 24 23 25 24 26 25 27 26 28 87 29 27 30 86 31 28 32 29 33
REMARK SMILES IDX 30 34 80 35 31 36 85 37 79 38 81 39 32 40 84 41 78 42 77 43
REMARK SMILES IDX 33 45 65 46 45 47 64 48 46 49 49 50 63 51 82 52 47 53 48 54
REMARK SMILES IDX 62 56 83 57 50 58 34 59 35 60 43 61 36 62 37 63 41 64 44 65
REMARK SMILES IDX 38 66 39 67 42 68 40 69 66 70 67 71 75 72 68 73 69 74 73 75
REMARK SMILES IDX 76 76 70 77 71 78 74 79 72 80 51 81 52 82 60 83 53 84 54 85
REMARK SMILES IDX 58 86 61 87 55 88 56 89 59 90 57 91
REMARK H PARENT 81 44 49 55
REMARK Flexibility Score: inf
ROOT
ATOM      1  C   UNL A   1      34.046  24.747  23.016  1.00  0.00     0.188 C 
ENDROOT
BRANCH   1   2
ATOM      2  O   UNL A   1      33.860  25.578  21.871  1.00  0.00    -0.376 OA
BRANCH   2   3
ATOM      3  C   UNL A   1      32.723  26.427  21.820  1.00  0.00     0.202 C 
BRANCH   3   4
ATOM      4  C   UNL A   1      32.856  27.739  22.595  1.00  0.00     0.261 C 
BRANCH   4   5
ATOM      5  O   UNL A   1      31.722  28.011  23.437  1.00  0.00    -0.463 OA
BRANCH   5   6
ATOM      6  C   UNL A   1      30.508  28.006  22.834  1.00  0.00     0.310 C 
ATOM      7  O   UNL A   1      30.231  28.662  21.833  1.00  0.00    -0.252 OA
BRANCH   6   8
ATOM      8  C   UNL A   1      29.469  27.133  23.498  1.00  0.00     0.158 C 
BRANCH   8   9
ATOM      9  C   UNL A   1      29.867  25.847  24.194  1.00  0.00    -0.037 A 
ATOM     10  C   UNL A   1      30.947  23.597  25.476  1.00  0.00     0.119 A 
ATOM     11  C   UNL A   1      30.589  24.708  26.230  1.00  0.00     0.047 A 
ATOM     12  C   UNL A   1      30.691  23.562  24.108  1.00  0.00     0.047 A 
ATOM     13  C   UNL A   1      30.056  25.832  25.589  1.00  0.00     0.008 A 
ATOM     14  C   UNL A   1      30.178  24.691  23.464  1.00  0.00     0.008 A 
BRANCH  10  15
ATOM     15  O   UNL A   1      31.542  22.505  26.042  1.00  0.00    -0.493 OA
BRANCH  15  16
ATOM     16  C   UNL A   1      32.428  21.807  25.142  1.00  0.00     0.232 C 
BRANCH  16  17
ATOM     17  C   UNL A   1      33.351  20.817  25.885  1.00  0.00     0.020 C 
ATOM     18  C   UNL A   1      34.270  20.059  24.920  1.00  0.00     0.011 C 
ATOM     19  C   UNL A   1      34.224  21.541  26.913  1.00  0.00     0.011 C 
ENDBRANCH  16  17
ENDBRANCH  15  16
ENDBRANCH  10  15
ENDBRANCH   8   9
ENDBRANCH   6   8
ENDBRANCH   5   6
ENDBRANCH   4   5
ENDBRANCH   3   4
ENDBRANCH   2   3
ENDBRANCH   1   2
BRANCH   1  20
ATOM     20  C   UNL A   1      34.318  23.246  22.843  1.00  0.00     0.188 C 
BRANCH  20  21
ATOM     21  O   UNL A   1      35.715  22.980  22.763  1.00  0.00    -0.376 OA
BRANCH  21  22
ATOM     22  C   UNL A   1      36.416  23.208  23.977  1.00  0.00     0.202 C 
BRANCH  22  23
ATOM     23  C   UNL A   1      37.227  21.958  24.321  1.00  0.00     0.261 C 
BRANCH  23  24
ATOM     24  O   UNL A   1      37.532  21.831  25.724  1.00  0.00    -0.460 OA
BRANCH  24  25
ATOM     25  C   UNL A   1      38.824  21.582  26.029  1.00  0.00     0.338 C 
ATOM     26  O   UNL A   1      39.478  20.604  25.718  1.00  0.00    -0.246 OA
BRANCH  25  27
ATOM     27  C   UNL A   1      39.390  22.758  26.723  1.00  0.00     0.060 A 
ATOM     28  C   UNL A   1      38.778  24.005  26.548  1.00  0.00     0.016 A 
ATOM     29  C   UNL A   1      40.564  22.646  27.472  1.00  0.00     0.016 A 
ATOM     30  C   UNL A   1      39.378  25.157  27.064  1.00  0.00     0.010 A 
ATOM     31  C   UNL A   1      41.168  23.799  27.981  1.00  0.00     0.010 A 
ATOM     32  C   UNL A   1      40.605  25.065  27.738  1.00  0.00    -0.014 A 
BRANCH  32  33
ATOM     33  C   UNL A   1      41.412  26.286  27.993  1.00  0.00     0.031 A 
ATOM     34  C   UNL A   1      40.774  27.417  28.755  1.00  0.00     0.074 A 
ATOM     35  C   UNL A   1      42.683  26.398  27.569  1.00  0.00     0.049 A 
ATOM     36  N   UNL A   1      41.240  28.611  29.028  1.00  0.00    -0.248 NA
ATOM     37  C   UNL A   1      39.421  27.169  29.278  1.00  0.00     0.031 C 
ATOM     38  C   UNL A   1      43.433  25.366  26.859  1.00  0.00     0.029 A 
ATOM     39  N   UNL A   1      43.564  27.448  27.670  1.00  0.00    -0.354 N 
ATOM     40  C   UNL A   1      40.234  29.256  29.735  1.00  0.00     0.074 A 
ATOM     41  C   UNL A   1      39.122  28.335  29.828  1.00  0.00     0.031 C 
ATOM     42  C   UNL A   1      44.661  25.837  26.576  1.00  0.00     0.029 A 
ATOM     43  C   UNL A   1      44.769  27.216  27.054  1.00  0.00     0.049 A 
ATOM     44  H   UNL A   1      43.350  28.286  28.138  1.00  0.00     0.167 HD
ATOM     45  C   UNL A   1      40.235  30.502  30.267  1.00  0.00     0.037 A 
ATOM     46  C   UNL A   1      45.827  28.033  26.877  1.00  0.00     0.037 A 
ATOM     47  C   UNL A   1      41.341  31.419  30.182  1.00  0.00     0.049 A 
ATOM     48  C   UNL A   1      45.784  29.438  27.427  1.00  0.00     0.074 A 
ATOM     49  C   UNL A   1      41.441  32.700  30.695  1.00  0.00     0.029 A 
ATOM     50  N   UNL A   1      42.540  31.150  29.540  1.00  0.00    -0.354 N 
ATOM     51  N   UNL A   1      44.833  30.037  28.104  1.00  0.00    -0.248 NA
ATOM     52  C   UNL A   1      46.966  30.279  27.190  1.00  0.00     0.031 C 
ATOM     53  C   UNL A   1      42.684  33.223  30.325  1.00  0.00     0.029 A 
ATOM     54  C   UNL A   1      43.380  32.248  29.630  1.00  0.00     0.049 A 
ATOM     55  H   UNL A   1      42.761  30.304  29.087  1.00  0.00     0.167 HD
ATOM     56  C   UNL A   1      45.317  31.305  28.404  1.00  0.00     0.074 A 
ATOM     57  C   UNL A   1      46.648  31.388  27.843  1.00  0.00     0.031 C 
ATOM     58  C   UNL A   1      44.713  32.310  29.087  1.00  0.00     0.037 A 
BRANCH  45  59
ATOM     59  C   UNL A   1      38.988  30.956  30.965  1.00  0.00     0.064 A 
ATOM     60  C   UNL A   1      38.815  30.794  32.349  1.00  0.00     0.173 A 
ATOM     61  C   UNL A   1      37.960  31.584  30.245  1.00  0.00     0.173 A 
ATOM     62  F   UNL A   1      39.761  30.185  33.080  1.00  0.00    -0.203 F 
ATOM     63  C   UNL A   1      37.648  31.218  32.980  1.00  0.00     0.198 A 
ATOM     64  C   UNL A   1      36.808  32.034  30.884  1.00  0.00     0.198 A 
ATOM     65  F   UNL A   1      38.075  31.765  28.921  1.00  0.00    -0.203 F 
ATOM     66  F   UNL A   1      37.484  31.007  34.293  1.00  0.00    -0.200 F 
ATOM     67  C   UNL A   1      36.650  31.843  32.248  1.00  0.00     0.200 A 
ATOM     68  F   UNL A   1      35.848  32.648  30.178  1.00  0.00    -0.200 F 
ATOM     69  F   UNL A   1      35.529  32.256  32.858  1.00  0.00    -0.200 F 
ENDBRANCH  45  59
BRANCH  46  70
ATOM     70  C   UNL A   1      47.023  27.553  26.136  1.00  0.00     0.064 A 
ATOM     71  C   UNL A   1      48.113  26.985  26.812  1.00  0.00     0.173 A 
ATOM     72  C   UNL A   1      47.118  27.685  24.743  1.00  0.00     0.173 A 
ATOM     73  F   UNL A   1      48.083  26.867  28.149  1.00  0.00    -0.203 F 
ATOM     74  C   UNL A   1      49.258  26.585  26.126  1.00  0.00     0.198 A 
ATOM     75  C   UNL A   1      48.252  27.257  24.055  1.00  0.00     0.198 A 
ATOM     76  F   UNL A   1      46.108  28.229  24.050  1.00  0.00    -0.203 F 
ATOM     77  F   UNL A   1      50.305  26.095  26.804  1.00  0.00    -0.200 F 
ATOM     78  C   UNL A   1      49.324  26.716  24.748  1.00  0.00     0.200 A 
ATOM     79  F   UNL A   1      48.309  27.380  22.722  1.00  0.00    -0.200 F 
ATOM     80  F   UNL A   1      50.427  26.333  24.089  1.00  0.00    -0.200 F 
ENDBRANCH  46  70
BRANCH  58  81
ATOM     81  C   UNL A   1      45.504  33.564  29.323  1.00  0.00     0.064 A 
ATOM     82  C   UNL A   1      45.455  34.651  28.438  1.00  0.00     0.173 A 
ATOM     83  C   UNL A   1      46.289  33.695  30.479  1.00  0.00     0.173 A 
ATOM     84  F   UNL A   1      44.729  34.572  27.313  1.00  0.00    -0.203 F 
ATOM     85  C   UNL A   1      46.184  35.811  28.688  1.00  0.00     0.198 A 
ATOM     86  C   UNL A   1      46.993  34.869  30.741  1.00  0.00     0.198 A 
ATOM     87  F   UNL A   1      46.364  32.690  31.365  1.00  0.00    -0.203 F 
ATOM     88  F   UNL A   1      46.160  36.819  27.805  1.00  0.00    -0.200 F 
ATOM     89  C   UNL A   1      46.946  35.921  29.842  1.00  0.00     0.200 A 
ATOM     90  F   UNL A   1      47.715  34.978  31.864  1.00  0.00    -0.200 F 
ATOM     91  F   UNL A   1      47.641  37.042  30.084  1.00  0.00    -0.200 F 
ENDBRANCH  58  81
ENDBRANCH  32  33
ENDBRANCH  25  27
ENDBRANCH  24  25
ENDBRANCH  23  24
ENDBRANCH  22  23
ENDBRANCH  21  22
ENDBRANCH  20  21
ENDBRANCH   1  20
TORSDOF 21
ENDMDL
MODEL 2
REMARK VINA RESULT:     -10.3      1.358      3.209
REMARK SMILES CC(C)COc1ccc(CC(=O)OCCOCCOCCOC(=O)c2ccc(-c3c4nc(c(-c5c(F)c(F)c(F)c(F)c5F)c5ccc([nH]5)c(-c5c(F)c(F)c(F)c(F)c5F)c5nc(c(-c6c(F)c(F)c(F)c(F)c6F)c6ccc3[nH]6)C=C5)C=C4)cc2)cc1
REMARK SMILES IDX 17 1 16 2 15 3 14 4 13 5 11 6 12 7 10 8 9 9 6 10 7 11 89 12
REMARK SMILES IDX 8 13 88 14 5 15 4 16 2 17 1 18 3 19 18 20 19 21 20 22 21 23
REMARK SMILES IDX 22 24 23 25 24 26 25 27 26 28 87 29 27 30 86 31 28 32 29 33
REMARK SMILES IDX 30 34 80 35 31 36 85 37 79 38 81 39 32 40 84 41 78 42 77 43
REMARK SMILES IDX 33 45 65 46 45 47 64 48 46 49 49 50 63 51 82 52 47 53 48 54
REMARK SMILES IDX 62 56 83 57 50 58 34 59 35 60 43 61 36 62 37 63 41 64 44 65
REMARK SMILES IDX 38 66 39 67 42 68 40 69 66 70 67 71 75 72 68 73 69 74 73 75
REMARK SMILES IDX 76 76 70 77 71 78 74 79 72 80 51 81 52 82 60 83 53 84 54 85
REMARK SMILES IDX 58 86 61 87 55 88 56 89 59 90 57 91
REMARK H PARENT 81 44 49 55
REMARK Flexibility Score: inf
ROOT
ATOM      1  C   UNL A   1      33.481  21.755  26.351  1.00  0.00     0.188 C 
ENDROOT
BRANCH   1   2
ATOM      2  O   UNL A   1      32.855  20.601  25.791  1.00  0.00    -0.376 OA
BRANCH   2   3
ATOM      3  C   UNL A   1      32.446  20.638  24.431  1.00  0.00     0.202 C 
BRANCH   3   4
ATOM      4  C   UNL A   1      32.279  22.038  23.840  1.00  0.00     0.261 C 
BRANCH   4   5
ATOM      5  O   UNL A   1      33.381  22.428  23.000  1.00  0.00    -0.463 OA
BRANCH   5   6
ATOM      6  C   UNL A   1      33.723  23.739  23.025  1.00  0.00     0.310 C 
ATOM      7  O   UNL A   1      34.844  24.166  22.758  1.00  0.00    -0.252 OA
BRANCH   6   8
ATOM      8  C   UNL A   1      32.615  24.681  23.435  1.00  0.00     0.158 C 
BRANCH   8   9
ATOM      9  C   UNL A   1      32.818  25.673  24.562  1.00  0.00    -0.037 A 
ATOM     10  C   UNL A   1      32.917  27.699  26.501  1.00  0.00     0.119 A 
ATOM     11  C   UNL A   1      32.045  26.631  26.672  1.00  0.00     0.047 A 
ATOM     12  C   UNL A   1      33.799  27.723  25.425  1.00  0.00     0.047 A 
ATOM     13  C   UNL A   1      31.992  25.624  25.701  1.00  0.00     0.008 A 
ATOM     14  C   UNL A   1      33.734  26.730  24.444  1.00  0.00     0.008 A 
BRANCH  10  15
ATOM     15  O   UNL A   1      32.953  28.746  27.379  1.00  0.00    -0.493 OA
BRANCH  15  16
ATOM     16  C   UNL A   1      33.712  29.872  26.893  1.00  0.00     0.232 C 
BRANCH  16  17
ATOM     17  C   UNL A   1      34.777  30.337  27.910  1.00  0.00     0.020 C 
ATOM     18  C   UNL A   1      36.028  29.451  27.872  1.00  0.00     0.011 C 
ATOM     19  C   UNL A   1      35.204  31.783  27.641  1.00  0.00     0.011 C 
ENDBRANCH  16  17
ENDBRANCH  15  16
ENDBRANCH  10  15
ENDBRANCH   8   9
ENDBRANCH   6   8
ENDBRANCH   5   6
ENDBRANCH   4   5
ENDBRANCH   3   4
ENDBRANCH   2   3
ENDBRANCH   1   2
BRANCH   1  20
ATOM     20  C   UNL A   1      35.005  21.796  26.528  1.00  0.00     0.188 C 
BRANCH  20  21
ATOM     21  O   UNL A   1      35.675  21.671  25.277  1.00  0.00    -0.376 OA
BRANCH  21  22
ATOM     22  C   UNL A   1      36.162  20.363  25.011  1.00  0.00     0.202 C 
BRANCH  22  23
ATOM     23  C   UNL A   1      37.672  20.438  24.780  1.00  0.00     0.261 C 
BRANCH  23  24
ATOM     24  O   UNL A   1      38.303  21.563  25.423  1.00  0.00    -0.460 OA
BRANCH  24  25
ATOM     25  C   UNL A   1      39.385  21.282  26.180  1.00  0.00     0.338 C 
ATOM     26  O   UNL A   1      39.966  20.216  26.268  1.00  0.00    -0.246 OA
BRANCH  25  27
ATOM     27  C   UNL A   1      39.855  22.526  26.828  1.00  0.00     0.060 A 
ATOM     28  C   UNL A   1      39.257  23.740  26.470  1.00  0.00     0.016 A 
ATOM     29  C   UNL A   1      40.932  22.502  27.717  1.00  0.00     0.016 A 
ATOM     30  C   UNL A   1      39.782  24.944  26.948  1.00  0.00     0.010 A 
ATOM     31  C   UNL A   1      41.462  23.707  28.188  1.00  0.00     0.010 A 
ATOM     32  C   UNL A   1      40.920  24.936  27.767  1.00  0.00    -0.014 A 
BRANCH  32  33
ATOM     33  C   UNL A   1      41.681  26.189  28.005  1.00  0.00     0.031 A 
ATOM     34  C   UNL A   1      41.023  27.285  28.802  1.00  0.00     0.074 A 
ATOM     35  C   UNL A   1      42.929  26.362  27.536  1.00  0.00     0.049 A 
ATOM     36  N   UNL A   1      41.445  28.496  29.069  1.00  0.00    -0.248 NA
ATOM     37  C   UNL A   1      39.702  26.971  29.371  1.00  0.00     0.031 C 
ATOM     38  C   UNL A   1      43.698  25.371  26.789  1.00  0.00     0.029 A 
ATOM     39  N   UNL A   1      43.766  27.450  27.615  1.00  0.00    -0.354 N 
ATOM     40  C   UNL A   1      40.437  29.089  29.819  1.00  0.00     0.074 A 
ATOM     41  C   UNL A   1      39.372  28.118  29.943  1.00  0.00     0.031 C 
ATOM     42  C   UNL A   1      44.892  25.899  26.465  1.00  0.00     0.029 A 
ATOM     43  C   UNL A   1      44.957  27.277  26.953  1.00  0.00     0.049 A 
ATOM     44  H   UNL A   1      43.533  28.274  28.100  1.00  0.00     0.167 HD
ATOM     45  C   UNL A   1      40.403  30.329  30.363  1.00  0.00     0.037 A 
ATOM     46  C   UNL A   1      45.970  28.143  26.747  1.00  0.00     0.037 A 
ATOM     47  C   UNL A   1      41.463  31.295  30.247  1.00  0.00     0.049 A 
ATOM     48  C   UNL A   1      45.884  29.540  27.312  1.00  0.00     0.074 A 
ATOM     49  C   UNL A   1      41.524  32.576  30.769  1.00  0.00     0.029 A 
ATOM     50  N   UNL A   1      42.648  31.086  29.558  1.00  0.00    -0.354 N 
ATOM     51  N   UNL A   1      44.934  30.090  28.029  1.00  0.00    -0.248 NA
ATOM     52  C   UNL A   1      47.018  30.435  27.040  1.00  0.00     0.031 C 
ATOM     53  C   UNL A   1      42.728  33.157  30.359  1.00  0.00     0.029 A 
ATOM     54  C   UNL A   1      43.440  32.220  29.629  1.00  0.00     0.049 A 
ATOM     55  H   UNL A   1      42.889  30.255  29.089  1.00  0.00     0.167 HD
ATOM     56  C   UNL A   1      45.371  31.376  28.324  1.00  0.00     0.074 A 
ATOM     57  C   UNL A   1      46.675  31.523  27.715  1.00  0.00     0.031 C 
ATOM     58  C   UNL A   1      44.748  32.346  29.038  1.00  0.00     0.037 A 
BRANCH  45  59
ATOM     59  C   UNL A   1      39.163  30.721  31.111  1.00  0.00     0.064 A 
ATOM     60  C   UNL A   1      39.020  30.473  32.485  1.00  0.00     0.173 A 
ATOM     61  C   UNL A   1      38.112  31.375  30.450  1.00  0.00     0.173 A 
ATOM     62  F   UNL A   1      39.989  29.836  33.160  1.00  0.00    -0.203 F 
ATOM     63  C   UNL A   1      37.860  30.840  33.163  1.00  0.00     0.198 A 
ATOM     64  C   UNL A   1      36.966  31.767  31.137  1.00  0.00     0.198 A 
ATOM     65  F   UNL A   1      38.198  31.637  29.138  1.00  0.00    -0.203 F 
ATOM     66  F   UNL A   1      37.725  30.548  34.463  1.00  0.00    -0.200 F 
ATOM     67  C   UNL A   1      36.838  31.492  32.489  1.00  0.00     0.200 A 
ATOM     68  F   UNL A   1      35.984  32.408  30.488  1.00  0.00    -0.200 F 
ATOM     69  F   UNL A   1      35.724  31.850  33.144  1.00  0.00    -0.200 F 
ENDBRANCH  45  59
BRANCH  46  70
ATOM     70  C   UNL A   1      47.158  27.723  25.957  1.00  0.00     0.064 A 
ATOM     71  C   UNL A   1      47.155  27.787  24.556  1.00  0.00     0.173 A 
ATOM     72  C   UNL A   1      48.306  27.217  26.584  1.00  0.00     0.173 A 
ATOM     73  F   UNL A   1      46.067  28.235  23.909  1.00  0.00    -0.203 F 
ATOM     74  C   UNL A   1      48.246  27.343  23.812  1.00  0.00     0.198 A 
ATOM     75  C   UNL A   1      49.408  26.801  25.839  1.00  0.00     0.198 A 
ATOM     76  F   UNL A   1      48.358  27.127  27.921  1.00  0.00    -0.203 F 
ATOM     77  F   UNL A   1      48.194  27.366  22.473  1.00  0.00    -0.200 F 
ATOM     78  C   UNL A   1      49.374  26.855  24.454  1.00  0.00     0.200 A 
ATOM     79  F   UNL A   1      50.498  26.336  26.464  1.00  0.00    -0.200 F 
ATOM     80  F   UNL A   1      50.422  26.427  23.737  1.00  0.00    -0.200 F 
ENDBRANCH  46  70
BRANCH  58  81
ATOM     81  C   UNL A   1      45.491  33.633  29.257  1.00  0.00     0.064 A 
ATOM     82  C   UNL A   1      45.365  34.722  28.383  1.00  0.00     0.173 A 
ATOM     83  C   UNL A   1      46.308  33.791  30.389  1.00  0.00     0.173 A 
ATOM     84  F   UNL A   1      44.607  34.618  27.282  1.00  0.00    -0.203 F 
ATOM     85  C   UNL A   1      46.051  35.912  28.618  1.00  0.00     0.198 A 
ATOM     86  C   UNL A   1      46.967  34.993  30.637  1.00  0.00     0.198 A 
ATOM     87  F   UNL A   1      46.456  32.785  31.264  1.00  0.00    -0.203 F 
ATOM     88  F   UNL A   1      45.953  36.923  27.744  1.00  0.00    -0.200 F 
ATOM     89  C   UNL A   1      46.844  36.048  29.747  1.00  0.00     0.200 A 
ATOM     90  F   UNL A   1      47.721  35.128  31.736  1.00  0.00    -0.200 F 
ATOM     91  F   UNL A   1      47.497  37.197  29.975  1.00  0.00    -0.200 F 
ENDBRANCH  58  81
ENDBRANCH  32  33
ENDBRANCH  25  27
ENDBRANCH  24  25
ENDBRANCH  23  24
ENDBRANCH  22  23
ENDBRANCH  21  22
ENDBRANCH  20  21
ENDBRANCH   1  20
TORSDOF 21
ENDMDL
MODEL 3
REMARK VINA RESULT:     -10.3      1.333      7.642
REMARK SMILES CC(C)COc1ccc(CC(=O)OCCOCCOCCOC(=O)c2ccc(-c3c4nc(c(-c5c(F)c(F)c(F)c(F)c5F)c5ccc([nH]5)c(-c5c(F)c(F)c(F)c(F)c5F)c5nc(c(-c6c(F)c(F)c(F)c(F)c6F)c6ccc3[nH]6)C=C5)C=C4)cc2)cc1
REMARK SMILES IDX 17 1 16 2 15 3 14 4 13 5 11 6 12 7 10 8 9 9 6 10 7 11 89 12
REMARK SMILES IDX 8 13 88 14 5 15 4 16 2 17 1 18 3 19 18 20 19 21 20 22 21 23
REMARK SMILES IDX 22 24 23 25 24 26 25 27 26 28 87 29 27 30 86 31 28 32 29 33
REMARK SMILES IDX 30 34 80 35 31 36 85 37 79 38 81 39 32 40 84 41 78 42 77 43
REMARK SMILES IDX 33 45 65 46 45 47 64 48 46 49 49 50 63 51 82 52 47 53 48 54
REMARK SMILES IDX 62 56 83 57 50 58 34 59 35 60 43 61 36 62 37 63 41 64 44 65
REMARK SMILES IDX 38 66 39 67 42 68 40 69 66 70 67 71 75 72 68 73 69 74 73 75
REMARK SMILES IDX 76 76 70 77 71 78 74 79 72 80 51 81 52 82 60 83 53 84 54 85
REMARK SMILES IDX 58 86 61 87 55 88 56 89 59 90 57 91
REMARK H PARENT 81 44 49 55
REMARK Flexibility Score: inf
ROOT
ATOM      1  C   UNL A   1      35.667  23.061  25.914  1.00  0.00     0.188 C 
ENDROOT
BRANCH   1   2
ATOM      2  O   UNL A   1      34.617  23.718  25.204  1.00  0.00    -0.376 OA
BRANCH   2   3
ATOM      3  C   UNL A   1      34.522  25.133  25.281  1.00  0.00     0.202 C 
BRANCH   3   4
ATOM      4  C   UNL A   1      33.809  25.801  24.105  1.00  0.00     0.261 C 
BRANCH   4   5
ATOM      5  O   UNL A   1      32.504  26.301  24.451  1.00  0.00    -0.463 OA
BRANCH   5   6
ATOM      6  C   UNL A   1      31.447  25.656  23.900  1.00  0.00     0.310 C 
ATOM      7  O   UNL A   1      30.923  25.973  22.835  1.00  0.00    -0.252 OA
BRANCH   6   8
ATOM      8  C   UNL A   1      30.916  24.495  24.708  1.00  0.00     0.158 C 
BRANCH   8   9
ATOM      9  C   UNL A   1      31.373  23.079  24.422  1.00  0.00    -0.037 A 
ATOM     10  C   UNL A   1      32.553  20.569  23.992  1.00  0.00     0.119 A 
ATOM     11  C   UNL A   1      32.108  20.908  25.264  1.00  0.00     0.047 A 
ATOM     12  C   UNL A   1      32.336  21.429  22.919  1.00  0.00     0.047 A 
ATOM     13  C   UNL A   1      31.525  22.162  25.479  1.00  0.00     0.008 A 
ATOM     14  C   UNL A   1      31.773  22.690  23.135  1.00  0.00     0.008 A 
BRANCH  10  15
ATOM     15  O   UNL A   1      33.198  19.390  23.745  1.00  0.00    -0.493 OA
BRANCH  15  16
ATOM     16  C   UNL A   1      33.546  18.669  24.945  1.00  0.00     0.232 C 
BRANCH  16  17
ATOM     17  C   UNL A   1      33.933  17.204  24.650  1.00  0.00     0.020 C 
ATOM     18  C   UNL A   1      32.928  16.215  25.254  1.00  0.00     0.011 C 
ATOM     19  C   UNL A   1      34.015  16.946  23.144  1.00  0.00     0.011 C 
ENDBRANCH  16  17
ENDBRANCH  15  16
ENDBRANCH  10  15
ENDBRANCH   8   9
ENDBRANCH   6   8
ENDBRANCH   5   6
ENDBRANCH   4   5
ENDBRANCH   3   4
ENDBRANCH   2   3
ENDBRANCH   1   2
BRANCH   1  20
ATOM     20  C   UNL A   1      35.751  21.528  25.919  1.00  0.00     0.188 C 
BRANCH  20  21
ATOM     21  O   UNL A   1      36.450  21.045  24.775  1.00  0.00    -0.376 OA
BRANCH  21  22
ATOM     22  C   UNL A   1      37.067  19.780  24.969  1.00  0.00     0.202 C 
BRANCH  22  23
ATOM     23  C   UNL A   1      38.582  19.978  25.045  1.00  0.00     0.261 C 
BRANCH  23  24
ATOM     24  O   UNL A   1      39.066  20.242  26.376  1.00  0.00    -0.460 OA
BRANCH  24  25
ATOM     25  C   UNL A   1      40.380  20.535  26.481  1.00  0.00     0.338 C 
ATOM     26  O   UNL A   1      41.318  19.856  26.109  1.00  0.00    -0.246 OA
BRANCH  25  27
ATOM     27  C   UNL A   1      40.526  21.901  27.031  1.00  0.00     0.060 A 
ATOM     28  C   UNL A   1      39.736  22.929  26.501  1.00  0.00     0.016 A 
ATOM     29  C   UNL A   1      41.492  22.179  27.999  1.00  0.00     0.016 A 
ATOM     30  C   UNL A   1      39.960  24.252  26.891  1.00  0.00     0.010 A 
ATOM     31  C   UNL A   1      41.722  23.503  28.383  1.00  0.00     0.010 A 
ATOM     32  C   UNL A   1      40.990  24.551  27.794  1.00  0.00    -0.014 A 
BRANCH  32  33
ATOM     33  C   UNL A   1      41.458  25.952  27.958  1.00  0.00     0.031 A 
ATOM     34  C   UNL A   1      42.824  26.315  27.436  1.00  0.00     0.074 A 
ATOM     35  C   UNL A   1      40.698  26.890  28.549  1.00  0.00     0.049 A 
ATOM     36  N   UNL A   1      43.486  27.441  27.536  1.00  0.00    -0.248 NA
ATOM     37  C   UNL A   1      43.543  25.259  26.706  1.00  0.00     0.031 C 
ATOM     38  C   UNL A   1      39.345  26.686  29.059  1.00  0.00     0.029 A 
ATOM     39  N   UNL A   1      40.969  28.209  28.827  1.00  0.00    -0.354 N 
ATOM     40  C   UNL A   1      44.701  27.221  26.898  1.00  0.00     0.074 A 
ATOM     41  C   UNL A   1      44.697  25.849  26.438  1.00  0.00     0.031 C 
ATOM     42  C   UNL A   1      38.906  27.836  29.601  1.00  0.00     0.029 A 
ATOM     43  C   UNL A   1      39.960  28.846  29.506  1.00  0.00     0.049 A 
ATOM     44  H   UNL A   1      41.806  28.652  28.564  1.00  0.00     0.167 HD
ATOM     45  C   UNL A   1      45.726  28.084  26.705  1.00  0.00     0.037 A 
ATOM     46  C   UNL A   1      39.907  30.095  30.013  1.00  0.00     0.037 A 
ATOM     47  C   UNL A   1      45.731  29.451  27.154  1.00  0.00     0.049 A 
ATOM     48  C   UNL A   1      41.085  31.021  29.837  1.00  0.00     0.074 A 
ATOM     49  C   UNL A   1      46.720  30.407  27.001  1.00  0.00     0.029 A 
ATOM     50  N   UNL A   1      44.694  30.056  27.849  1.00  0.00    -0.354 N 
ATOM     51  N   UNL A   1      42.225  30.810  29.224  1.00  0.00    -0.248 NA
ATOM     52  C   UNL A   1      40.965  32.365  30.423  1.00  0.00     0.031 C 
ATOM     53  C   UNL A   1      46.300  31.577  27.641  1.00  0.00     0.029 A 
ATOM     54  C   UNL A   1      45.027  31.368  28.144  1.00  0.00     0.049 A 
ATOM     55  H   UNL A   1      43.848  29.617  28.096  1.00  0.00     0.167 HD
ATOM     56  C   UNL A   1      42.937  32.000  29.318  1.00  0.00     0.074 A 
ATOM     57  C   UNL A   1      42.099  32.932  30.040  1.00  0.00     0.031 C 
ATOM     58  C   UNL A   1      44.174  32.294  28.844  1.00  0.00     0.037 A 
BRANCH  45  59
ATOM     59  C   UNL A   1      46.943  27.565  25.998  1.00  0.00     0.064 A 
ATOM     60  C   UNL A   1      48.007  26.974  26.697  1.00  0.00     0.173 A 
ATOM     61  C   UNL A   1      47.035  27.636  24.599  1.00  0.00     0.173 A 
ATOM     62  F   UNL A   1      47.975  26.896  28.035  1.00  0.00    -0.203 F 
ATOM     63  C   UNL A   1      49.130  26.500  26.024  1.00  0.00     0.198 A 
ATOM     64  C   UNL A   1      48.146  27.134  23.928  1.00  0.00     0.198 A 
ATOM     65  F   UNL A   1      46.045  28.189  23.883  1.00  0.00    -0.203 F 
ATOM     66  F   UNL A   1      50.156  25.986  26.715  1.00  0.00    -0.200 F 
ATOM     67  C   UNL A   1      49.196  26.575  24.640  1.00  0.00     0.200 A 
ATOM     68  F   UNL A   1      48.204  27.196  22.590  1.00  0.00    -0.200 F 
ATOM     69  F   UNL A   1      50.275  26.113  23.993  1.00  0.00    -0.200 F 
ENDBRANCH  45  59
BRANCH  46  70
ATOM     70  C   UNL A   1      38.696  30.549  30.748  1.00  0.00     0.064 A 
ATOM     71  C   UNL A   1      37.609  31.116  30.069  1.00  0.00     0.173 A 
ATOM     72  C   UNL A   1      38.617  30.459  32.145  1.00  0.00     0.173 A 
ATOM     73  F   UNL A   1      37.650  31.254  28.735  1.00  0.00    -0.203 F 
ATOM     74  C   UNL A   1      36.496  31.593  30.761  1.00  0.00     0.198 A 
ATOM     75  C   UNL A   1      37.492  30.909  32.833  1.00  0.00     0.198 A 
ATOM     76  F   UNL A   1      39.634  29.932  32.843  1.00  0.00    -0.203 F 
ATOM     77  F   UNL A   1      35.495  32.180  30.090  1.00  0.00    -0.200 F 
ATOM     78  C   UNL A   1      36.437  31.484  32.142  1.00  0.00     0.200 A 
ATOM     79  F   UNL A   1      37.436  30.796  34.167  1.00  0.00    -0.200 F 
ATOM     80  F   UNL A   1      35.368  31.945  32.806  1.00  0.00    -0.200 F 
ENDBRANCH  46  70
BRANCH  58  81
ATOM     81  C   UNL A   1      44.675  33.697  29.034  1.00  0.00     0.064 A 
ATOM     82  C   UNL A   1      45.446  34.066  30.145  1.00  0.00     0.173 A 
ATOM     83  C   UNL A   1      44.416  34.676  28.061  1.00  0.00     0.173 A 
ATOM     84  F   UNL A   1      45.712  33.172  31.109  1.00  0.00    -0.203 F 
ATOM     85  C   UNL A   1      45.915  35.370  30.289  1.00  0.00     0.198 A 
ATOM     86  C   UNL A   1      44.913  35.970  28.193  1.00  0.00     0.198 A 
ATOM     87  F   UNL A   1      43.692  34.373  26.972  1.00  0.00    -0.203 F 
ATOM     88  F   UNL A   1      46.610  35.713  31.383  1.00  0.00    -0.200 F 
ATOM     89  C   UNL A   1      45.654  36.318  29.311  1.00  0.00     0.200 A 
ATOM     90  F   UNL A   1      44.672  36.880  27.239  1.00  0.00    -0.200 F 
ATOM     91  F   UNL A   1      46.113  37.570  29.449  1.00  0.00    -0.200 F 
ENDBRANCH  58  81
ENDBRANCH  32  33
ENDBRANCH  25  27
ENDBRANCH  24  25
ENDBRANCH  23  24
ENDBRANCH  22  23
ENDBRANCH  21  22
ENDBRANCH  20  21
ENDBRANCH   1  20
TORSDOF 21
ENDMDL
