MODEL 1
REMARK VINA RESULT:     -13.1      0.000      0.000
REMARK SMILES O=C(OCCOCCOCCOC(=O)[C@]1(NC(=O)C2CCN(C(=O)C3CC3)CC2)CCCc2ccccc21)c1ccc(-c2c3nc(c(-c4c(F)c(F)c(F)c(F)c4F)c4ccc([nH]4)c(-c4c(F)c(F)c(F)c(F)c4F)c4nc(c(-c5c(F)c(F)c(F)c(F)c5F)c5ccc2[nH]5)C=C4)C=C3)cc1
REMARK SMILES IDX 8 1 7 2 6 3 5 4 4 5 3 6 2 7 1 8 39 9 40 10 101 11 41 12
REMARK SMILES IDX 100 13 42 14 43 15 44 16 94 17 45 18 99 19 93 20 95 21 46 22
REMARK SMILES IDX 98 23 92 24 91 25 47 27 79 28 59 29 78 30 60 31 63 32 77 33
REMARK SMILES IDX 96 34 61 35 62 36 76 38 97 39 64 40 48 41 49 42 57 43 50 44
REMARK SMILES IDX 51 45 55 46 58 47 52 48 53 49 56 50 54 51 80 52 81 53 89 54
REMARK SMILES IDX 82 55 83 56 87 57 90 58 84 59 85 60 88 61 86 62 65 63 66 64
REMARK SMILES IDX 74 65 67 66 68 67 72 68 75 69 69 70 70 71 73 72 71 73 9 74
REMARK SMILES IDX 10 75 11 76 12 77 13 78 14 79 15 80 30 81 38 82 31 83 33 84
REMARK SMILES IDX 37 85 32 86 34 87 36 88 35 89 16 90 17 91 18 93 19 94 20 95
REMARK SMILES IDX 29 96 21 97 28 98 22 99 23 100 24 101 25 102 26 103 27 104
REMARK H PARENT 95 26 63 37 16 92
REMARK Flexibility Score: inf
ROOT
ATOM      1  C   UNL A   1      31.707  28.324  27.034  1.00  0.00     0.188 C 
ENDROOT
BRANCH   1   2
ATOM      2  C   UNL A   1      32.945  28.980  26.411  1.00  0.00     0.188 C 
BRANCH   2   3
ATOM      3  O   UNL A   1      32.532  29.762  25.282  1.00  0.00    -0.376 OA
BRANCH   3   4
ATOM      4  C   UNL A   1      31.184  30.269  25.227  1.00  0.00     0.202 C 
BRANCH   4   5
ATOM      5  C   UNL A   1      30.987  31.658  26.019  1.00  0.00     0.261 C 
BRANCH   5   6
ATOM      6  O   UNL A   1      32.208  32.646  27.172  1.00  0.00    -0.460 OA
BRANCH   6   7
ATOM      7  C   UNL A   1      33.197  33.335  27.978  1.00  0.00     0.338 C 
ATOM      8  O   UNL A   1      32.927  34.441  28.450  1.00  0.00    -0.246 OA
BRANCH   7   9
ATOM      9  C   UNL A   1      34.586  32.825  28.418  1.00  0.00     0.060 A 
ATOM     10  C   UNL A   1      34.871  31.508  28.733  1.00  0.00     0.016 A 
ATOM     11  C   UNL A   1      35.700  33.677  28.505  1.00  0.00     0.016 A 
ATOM     12  C   UNL A   1      36.035  31.058  29.313  1.00  0.00     0.010 A 
ATOM     13  C   UNL A   1      36.965  33.210  28.982  1.00  0.00     0.010 A 
ATOM     14  C   UNL A   1      37.127  31.887  29.425  1.00  0.00    -0.014 A 
BRANCH  14  15
ATOM     15  C   UNL A   1      38.280  31.288  30.151  1.00  0.00     0.031 A 
ATOM     16  C   UNL A   1      38.290  31.330  31.650  1.00  0.00     0.074 A 
ATOM     17  C   UNL A   1      39.111  30.428  29.512  1.00  0.00     0.049 A 
ATOM     18  N   UNL A   1      39.204  30.902  32.478  1.00  0.00    -0.248 NA
ATOM     19  C   UNL A   1      37.109  31.911  32.310  1.00  0.00     0.031 C 
ATOM     20  C   UNL A   1      39.059  30.117  28.078  1.00  0.00     0.029 A 
ATOM     21  N   UNL A   1      40.056  29.552  29.990  1.00  0.00    -0.354 N 
ATOM     22  C   UNL A   1      38.781  31.295  33.738  1.00  0.00     0.074 A 
ATOM     23  C   UNL A   1      37.472  31.888  33.585  1.00  0.00     0.031 C 
ATOM     24  C   UNL A   1      39.789  29.018  27.835  1.00  0.00     0.029 A 
ATOM     25  C   UNL A   1      40.500  28.646  29.051  1.00  0.00     0.049 A 
ATOM     26  H   UNL A   1      40.386  29.571  30.918  1.00  0.00     0.167 HD
ATOM     27  C   UNL A   1      39.482  31.233  34.893  1.00  0.00     0.037 A 
ATOM     28  C   UNL A   1      41.403  27.649  29.159  1.00  0.00     0.037 A 
ATOM     29  C   UNL A   1      40.753  30.569  35.002  1.00  0.00     0.049 A 
ATOM     30  C   UNL A   1      42.154  27.541  30.460  1.00  0.00     0.074 A 
ATOM     31  C   UNL A   1      41.668  30.582  36.037  1.00  0.00     0.029 A 
ATOM     32  N   UNL A   1      41.263  29.722  34.025  1.00  0.00    -0.354 N 
ATOM     33  N   UNL A   1      41.926  28.155  31.595  1.00  0.00    -0.248 NA
ATOM     34  C   UNL A   1      43.335  26.669  30.472  1.00  0.00     0.031 C 
ATOM     35  C   UNL A   1      42.744  29.759  35.674  1.00  0.00     0.029 A 
ATOM     36  C   UNL A   1      42.477  29.203  34.432  1.00  0.00     0.049 A 
ATOM     37  H   UNL A   1      40.824  29.523  33.167  1.00  0.00     0.167 HD
ATOM     38  C   UNL A   1      42.966  27.795  32.438  1.00  0.00     0.074 A 
ATOM     39  C   UNL A   1      43.777  26.838  31.712  1.00  0.00     0.031 C 
ATOM     40  C   UNL A   1      43.258  28.256  33.679  1.00  0.00     0.037 A 
BRANCH  27  41
ATOM     41  C   UNL A   1      38.974  32.063  36.032  1.00  0.00     0.064 A 
ATOM     42  C   UNL A   1      39.361  33.391  36.246  1.00  0.00     0.173 A 
ATOM     43  C   UNL A   1      38.119  31.467  36.974  1.00  0.00     0.173 A 
ATOM     44  F   UNL A   1      40.209  33.994  35.400  1.00  0.00    -0.203 F 
ATOM     45  C   UNL A   1      38.930  34.086  37.377  1.00  0.00     0.198 A 
ATOM     46  C   UNL A   1      37.673  32.169  38.089  1.00  0.00     0.198 A 
ATOM     47  F   UNL A   1      37.732  30.191  36.823  1.00  0.00    -0.203 F 
ATOM     48  F   UNL A   1      39.359  35.336  37.597  1.00  0.00    -0.200 F 
ATOM     49  C   UNL A   1      38.086  33.475  38.296  1.00  0.00     0.200 A 
ATOM     50  F   UNL A   1      36.861  31.574  38.974  1.00  0.00    -0.200 F 
ATOM     51  F   UNL A   1      37.687  34.139  39.389  1.00  0.00    -0.200 F 
ENDBRANCH  27  41
BRANCH  28  52
ATOM     52  C   UNL A   1      41.714  26.745  28.012  1.00  0.00     0.064 A 
ATOM     53  C   UNL A   1      42.717  27.075  27.086  1.00  0.00     0.173 A 
ATOM     54  C   UNL A   1      41.021  25.543  27.798  1.00  0.00     0.173 A 
ATOM     55  F   UNL A   1      43.396  28.224  27.216  1.00  0.00    -0.203 F 
ATOM     56  C   UNL A   1      43.014  26.241  26.006  1.00  0.00     0.198 A 
ATOM     57  C   UNL A   1      41.347  24.689  26.745  1.00  0.00     0.198 A 
ATOM     58  F   UNL A   1      40.030  25.181  28.627  1.00  0.00    -0.203 F 
ATOM     59  F   UNL A   1      43.956  26.600  25.124  1.00  0.00    -0.200 F 
ATOM     60  C   UNL A   1      42.340  25.041  25.845  1.00  0.00     0.200 A 
ATOM     61  F   UNL A   1      40.702  23.523  26.606  1.00  0.00    -0.200 F 
ATOM     62  F   UNL A   1      42.645  24.227  24.826  1.00  0.00    -0.200 F 
ENDBRANCH  28  52
BRANCH  40  63
ATOM     63  C   UNL A   1      44.522  27.753  34.300  1.00  0.00     0.064 A 
ATOM     64  C   UNL A   1      44.530  26.571  35.057  1.00  0.00     0.173 A 
ATOM     65  C   UNL A   1      45.732  28.430  34.110  1.00  0.00     0.173 A 
ATOM     66  F   UNL A   1      43.389  25.900  35.274  1.00  0.00    -0.203 F 
ATOM     67  C   UNL A   1      45.709  26.098  35.623  1.00  0.00     0.198 A 
ATOM     68  C   UNL A   1      46.912  27.943  34.663  1.00  0.00     0.198 A 
ATOM     69  F   UNL A   1      45.768  29.563  33.392  1.00  0.00    -0.203 F 
ATOM     70  F   UNL A   1      45.690  24.989  36.376  1.00  0.00    -0.200 F 
ATOM     71  C   UNL A   1      46.899  26.781  35.422  1.00  0.00     0.200 A 
ATOM     72  F   UNL A   1      48.063  28.601  34.465  1.00  0.00    -0.200 F 
ATOM     73  F   UNL A   1      48.034  26.324  35.969  1.00  0.00    -0.200 F 
ENDBRANCH  40  63
ENDBRANCH  14  15
ENDBRANCH   7   9
ENDBRANCH   6   7
ENDBRANCH   5   6
ENDBRANCH   4   5
ENDBRANCH   3   4
ENDBRANCH   2   3
ENDBRANCH   1   2
BRANCH   1  74
ATOM     74  O   UNL A   1      31.825  26.929  27.276  1.00  0.00    -0.376 OA
BRANCH  74  75
ATOM     75  C   UNL A   1      30.914  26.068  26.596  1.00  0.00     0.202 C 
BRANCH  75  76
ATOM     76  C   UNL A   1      31.278  24.582  26.610  1.00  0.00     0.261 C 
BRANCH  76  77
ATOM     77  O   UNL A   1      32.701  24.348  26.645  1.00  0.00    -0.461 OA
BRANCH  77  78
ATOM     78  C   UNL A   1      33.092  23.043  26.537  1.00  0.00     0.336 C 
ATOM     79  O   UNL A   1      33.055  22.251  27.473  1.00  0.00    -0.249 OA
BRANCH  78  80
ATOM     80  C   UNL A   1      33.524  22.647  25.090  1.00  0.00     0.164 C 
ATOM     81  C   UNL A   1      32.416  21.729  24.500  1.00  0.00     0.046 C 
ATOM     82  C   UNL A   1      34.879  21.892  25.076  1.00  0.00    -0.008 A 
ATOM     83  C   UNL A   1      32.424  20.349  25.150  1.00  0.00     0.008 C 
ATOM     84  C   UNL A   1      34.948  20.488  24.976  1.00  0.00    -0.042 A 
ATOM     85  C   UNL A   1      36.089  22.620  25.133  1.00  0.00     0.007 A 
ATOM     86  C   UNL A   1      33.721  19.622  24.830  1.00  0.00     0.036 C 
ATOM     87  C   UNL A   1      36.205  19.855  24.933  1.00  0.00     0.004 A 
ATOM     88  C   UNL A   1      37.326  21.981  25.081  1.00  0.00     0.000 A 
ATOM     89  C   UNL A   1      37.383  20.597  24.990  1.00  0.00     0.000 A 
BRANCH  80  90
ATOM     90  N   UNL A   1      33.697  23.838  24.219  1.00  0.00    -0.336 N 
ATOM     91  C   UNL A   1      33.583  23.852  22.854  1.00  0.00     0.224 C 
ATOM     92  H   UNL A   1      33.912  24.691  24.661  1.00  0.00     0.164 HD
ATOM     93  O   UNL A   1      34.516  23.439  22.175  1.00  0.00    -0.275 OA
BRANCH  91  94
ATOM     94  C   UNL A   1      32.352  24.583  22.273  1.00  0.00     0.082 C 
ATOM     95  C   UNL A   1      33.064  26.271  21.652  1.00  0.00     0.035 C 
ATOM     96  C   UNL A   1      30.579  24.643  23.136  1.00  0.00     0.035 C 
ATOM     97  C   UNL A   1      32.077  27.882  21.909  1.00  0.00     0.120 C 
ATOM     98  C   UNL A   1      29.708  26.377  23.422  1.00  0.00     0.120 C 
ATOM     99  N   UNL A   1      30.379  27.829  22.566  1.00  0.00    -0.342 N 
ATOM    100  C   UNL A   1      29.698  29.011  22.239  1.00  0.00     0.225 C 
ATOM    101  O   UNL A   1      30.268  29.871  21.565  1.00  0.00    -0.275 OA
BRANCH 100 102
ATOM    102  C   UNL A   1      28.298  29.349  22.613  1.00  0.00     0.079 C 
ATOM    103  C   UNL A   1      27.741  30.312  23.612  1.00  0.00     0.014 C 
ATOM    104  C   UNL A   1      27.646  30.620  22.143  1.00  0.00     0.014 C 
ENDBRANCH 100 102
ENDBRANCH  91  94
ENDBRANCH  80  90
ENDBRANCH  78  80
ENDBRANCH  77  78
ENDBRANCH  76  77
ENDBRANCH  75  76
ENDBRANCH  74  75
ENDBRANCH   1  74
TORSDOF 20
ENDMDL
MODEL 2
REMARK VINA RESULT:     -12.9      4.344     10.289
REMARK SMILES O=C(OCCOCCOCCOC(=O)[C@]1(NC(=O)C2CCN(C(=O)C3CC3)CC2)CCCc2ccccc21)c1ccc(-c2c3nc(c(-c4c(F)c(F)c(F)c(F)c4F)c4ccc([nH]4)c(-c4c(F)c(F)c(F)c(F)c4F)c4nc(c(-c5c(F)c(F)c(F)c(F)c5F)c5ccc2[nH]5)C=C4)C=C3)cc1
REMARK SMILES IDX 8 1 7 2 6 3 5 4 4 5 3 6 2 7 1 8 39 9 40 10 101 11 41 12
REMARK SMILES IDX 100 13 42 14 43 15 44 16 94 17 45 18 99 19 93 20 95 21 46 22
REMARK SMILES IDX 98 23 92 24 91 25 47 27 79 28 59 29 78 30 60 31 63 32 77 33
REMARK SMILES IDX 96 34 61 35 62 36 76 38 97 39 64 40 48 41 49 42 57 43 50 44
REMARK SMILES IDX 51 45 55 46 58 47 52 48 53 49 56 50 54 51 80 52 81 53 89 54
REMARK SMILES IDX 82 55 83 56 87 57 90 58 84 59 85 60 88 61 86 62 65 63 66 64
REMARK SMILES IDX 74 65 67 66 68 67 72 68 75 69 69 70 70 71 73 72 71 73 9 74
REMARK SMILES IDX 10 75 11 76 12 77 13 78 14 79 15 80 30 81 38 82 31 83 33 84
REMARK SMILES IDX 37 85 32 86 34 87 36 88 35 89 16 90 17 91 18 93 19 94 20 95
REMARK SMILES IDX 29 96 21 97 28 98 22 99 23 100 24 101 25 102 26 103 27 104
REMARK H PARENT 95 26 63 37 16 92
REMARK Flexibility Score: inf
ROOT
ATOM      1  C   UNL A   1      36.931  23.361  24.624  1.00  0.00     0.188 C 
ENDROOT
BRANCH   1   2
ATOM      2  C   UNL A   1      37.725  22.443  25.562  1.00  0.00     0.188 C 
BRANCH   2   3
ATOM      3  O   UNL A   1      36.901  21.323  25.914  1.00  0.00    -0.376 OA
BRANCH   3   4
ATOM      4  C   UNL A   1      36.720  20.253  24.967  1.00  0.00     0.202 C 
BRANCH   4   5
ATOM      5  C   UNL A   1      37.936  19.196  24.948  1.00  0.00     0.261 C 
BRANCH   5   6
ATOM      6  O   UNL A   1      39.762  19.352  25.609  1.00  0.00    -0.460 OA
BRANCH   6   7
ATOM      7  C   UNL A   1      41.132  19.554  26.038  1.00  0.00     0.338 C 
ATOM      8  O   UNL A   1      41.887  18.583  26.126  1.00  0.00    -0.246 OA
BRANCH   7   9
ATOM      9  C   UNL A   1      41.845  20.889  26.346  1.00  0.00     0.060 A 
ATOM     10  C   UNL A   1      42.184  21.318  27.616  1.00  0.00     0.016 A 
ATOM     11  C   UNL A   1      42.238  21.776  25.329  1.00  0.00     0.016 A 
ATOM     12  C   UNL A   1      42.636  22.577  27.941  1.00  0.00     0.010 A 
ATOM     13  C   UNL A   1      42.833  23.041  25.627  1.00  0.00     0.010 A 
ATOM     14  C   UNL A   1      43.005  23.464  26.956  1.00  0.00    -0.014 A 
BRANCH  14  15
ATOM     15  C   UNL A   1      43.389  24.812  27.457  1.00  0.00     0.031 A 
ATOM     16  C   UNL A   1      44.702  25.396  27.026  1.00  0.00     0.074 A 
ATOM     17  C   UNL A   1      42.448  25.631  27.989  1.00  0.00     0.049 A 
ATOM     18  N   UNL A   1      45.246  26.532  27.366  1.00  0.00    -0.248 NA
ATOM     19  C   UNL A   1      45.500  24.612  26.069  1.00  0.00     0.031 C 
ATOM     20  C   UNL A   1      41.053  25.252  28.249  1.00  0.00     0.029 A 
ATOM     21  N   UNL A   1      42.468  26.975  28.270  1.00  0.00    -0.354 N 
ATOM     22  C   UNL A   1      46.508  26.529  26.791  1.00  0.00     0.074 A 
ATOM     23  C   UNL A   1      46.605  25.338  25.979  1.00  0.00     0.031 C 
ATOM     24  C   UNL A   1      40.328  26.357  28.472  1.00  0.00     0.029 A 
ATOM     25  C   UNL A   1      41.224  27.504  28.546  1.00  0.00     0.049 A 
ATOM     26  H   UNL A   1      43.293  27.512  28.276  1.00  0.00     0.167 HD
ATOM     27  C   UNL A   1      47.508  27.414  27.008  1.00  0.00     0.037 A 
ATOM     28  C   UNL A   1      40.861  28.766  28.853  1.00  0.00     0.037 A 
ATOM     29  C   UNL A   1      47.333  28.620  27.769  1.00  0.00     0.049 A 
ATOM     30  C   UNL A   1      41.966  29.770  29.047  1.00  0.00     0.074 A 
ATOM     31  C   UNL A   1      48.281  29.512  28.237  1.00  0.00     0.029 A 
ATOM     32  N   UNL A   1      46.092  29.123  28.139  1.00  0.00    -0.354 N 
ATOM     33  N   UNL A   1      43.243  29.654  28.771  1.00  0.00    -0.248 NA
ATOM     34  C   UNL A   1      41.599  31.047  29.674  1.00  0.00     0.031 C 
ATOM     35  C   UNL A   1      47.609  30.543  28.910  1.00  0.00     0.029 A 
ATOM     36  C   UNL A   1      46.245  30.313  28.823  1.00  0.00     0.049 A 
ATOM     37  H   UNL A   1      45.229  28.693  27.941  1.00  0.00     0.167 HD
ATOM     38  C   UNL A   1      43.842  30.811  29.243  1.00  0.00     0.074 A 
ATOM     39  C   UNL A   1      42.776  31.656  29.744  1.00  0.00     0.031 C 
ATOM     40  C   UNL A   1      45.159  31.125  29.311  1.00  0.00     0.037 A 
BRANCH  27  41
ATOM     41  C   UNL A   1      48.881  26.990  26.585  1.00  0.00     0.064 A 
ATOM     42  C   UNL A   1      49.378  27.179  25.289  1.00  0.00     0.173 A 
ATOM     43  C   UNL A   1      49.693  26.310  27.507  1.00  0.00     0.173 A 
ATOM     44  F   UNL A   1      48.627  27.785  24.358  1.00  0.00    -0.203 F 
ATOM     45  C   UNL A   1      50.629  26.679  24.926  1.00  0.00     0.198 A 
ATOM     46  C   UNL A   1      50.949  25.832  27.149  1.00  0.00     0.198 A 
ATOM     47  F   UNL A   1      49.257  26.090  28.757  1.00  0.00    -0.203 F 
ATOM     48  F   UNL A   1      51.063  26.815  23.666  1.00  0.00    -0.200 F 
ATOM     49  C   UNL A   1      51.413  26.008  25.856  1.00  0.00     0.200 A 
ATOM     50  F   UNL A   1      51.700  25.182  28.049  1.00  0.00    -0.200 F 
ATOM     51  F   UNL A   1      52.607  25.515  25.499  1.00  0.00    -0.200 F 
ENDBRANCH  27  41
BRANCH  28  52
ATOM     52  C   UNL A   1      39.433  29.139  29.079  1.00  0.00     0.064 A 
ATOM     53  C   UNL A   1      38.868  29.081  30.364  1.00  0.00     0.173 A 
ATOM     54  C   UNL A   1      38.592  29.548  28.032  1.00  0.00     0.173 A 
ATOM     55  F   UNL A   1      39.609  28.670  31.403  1.00  0.00    -0.203 F 
ATOM     56  C   UNL A   1      37.533  29.422  30.588  1.00  0.00     0.198 A 
ATOM     57  C   UNL A   1      37.270  29.930  28.263  1.00  0.00     0.198 A 
ATOM     58  F   UNL A   1      39.057  29.596  26.775  1.00  0.00    -0.203 F 
ATOM     59  F   UNL A   1      37.017  29.327  31.822  1.00  0.00    -0.200 F 
ATOM     60  C   UNL A   1      36.739  29.861  29.541  1.00  0.00     0.200 A 
ATOM     61  F   UNL A   1      36.515  30.369  27.247  1.00  0.00    -0.200 F 
ATOM     62  F   UNL A   1      35.466  30.215  29.761  1.00  0.00    -0.200 F 
ENDBRANCH  28  52
BRANCH  40  63
ATOM     63  C   UNL A   1      45.506  32.416  29.979  1.00  0.00     0.064 A 
ATOM     64  C   UNL A   1      45.608  33.605  29.240  1.00  0.00     0.173 A 
ATOM     65  C   UNL A   1      45.704  32.475  31.364  1.00  0.00     0.173 A 
ATOM     66  F   UNL A   1      45.439  33.589  27.909  1.00  0.00    -0.203 F 
ATOM     67  C   UNL A   1      45.918  34.807  29.865  1.00  0.00     0.198 A 
ATOM     68  C   UNL A   1      45.996  33.683  31.988  1.00  0.00     0.198 A 
ATOM     69  F   UNL A   1      45.616  31.362  32.108  1.00  0.00    -0.203 F 
ATOM     70  F   UNL A   1      46.050  35.924  29.138  1.00  0.00    -0.200 F 
ATOM     71  C   UNL A   1      46.109  34.846  31.239  1.00  0.00     0.200 A 
ATOM     72  F   UNL A   1      46.176  33.722  33.316  1.00  0.00    -0.200 F 
ATOM     73  F   UNL A   1      46.409  36.005  31.841  1.00  0.00    -0.200 F 
ENDBRANCH  40  63
ENDBRANCH  14  15
ENDBRANCH   7   9
ENDBRANCH   6   7
ENDBRANCH   5   6
ENDBRANCH   4   5
ENDBRANCH   3   4
ENDBRANCH   2   3
ENDBRANCH   1   2
BRANCH   1  74
ATOM     74  O   UNL A   1      35.867  24.074  25.239  1.00  0.00    -0.376 OA
BRANCH  74  75
ATOM     75  C   UNL A   1      34.613  24.090  24.562  1.00  0.00     0.202 C 
BRANCH  75  76
ATOM     76  C   UNL A   1      34.566  24.934  23.286  1.00  0.00     0.261 C 
BRANCH  76  77
ATOM     77  O   UNL A   1      33.290  25.574  23.076  1.00  0.00    -0.461 OA
BRANCH  77  78
ATOM     78  C   UNL A   1      33.183  26.853  23.542  1.00  0.00     0.336 C 
ATOM     79  O   UNL A   1      33.918  27.765  23.177  1.00  0.00    -0.249 OA
BRANCH  78  80
ATOM     80  C   UNL A   1      31.993  27.051  24.533  1.00  0.00     0.164 C 
ATOM     81  C   UNL A   1      30.685  27.109  23.694  1.00  0.00     0.046 C 
ATOM     82  C   UNL A   1      32.134  28.357  25.357  1.00  0.00    -0.008 A 
ATOM     83  C   UNL A   1      30.578  28.413  22.911  1.00  0.00     0.008 C 
ATOM     84  C   UNL A   1      31.433  29.532  25.018  1.00  0.00    -0.042 A 
ATOM     85  C   UNL A   1      32.964  28.379  26.502  1.00  0.00     0.007 A 
ATOM     86  C   UNL A   1      30.463  29.594  23.863  1.00  0.00     0.036 C 
ATOM     87  C   UNL A   1      31.572  30.680  25.819  1.00  0.00     0.004 A 
ATOM     88  C   UNL A   1      33.084  29.521  27.291  1.00  0.00     0.000 A 
ATOM     89  C   UNL A   1      32.394  30.674  26.944  1.00  0.00     0.000 A 
BRANCH  80  90
ATOM     90  N   UNL A   1      31.902  25.940  25.517  1.00  0.00    -0.336 N 
ATOM     91  C   UNL A   1      30.756  25.277  25.868  1.00  0.00     0.224 C 
ATOM     92  H   UNL A   1      32.738  25.658  25.954  1.00  0.00     0.164 HD
ATOM     93  O   UNL A   1      29.981  25.804  26.656  1.00  0.00    -0.275 OA
BRANCH  91  94
ATOM     94  C   UNL A   1      30.634  23.813  25.388  1.00  0.00     0.082 C 
ATOM     95  C   UNL A   1      31.503  22.793  26.782  1.00  0.00     0.035 C 
ATOM     96  C   UNL A   1      30.953  23.215  23.535  1.00  0.00     0.035 C 
ATOM     97  C   UNL A   1      32.619  21.313  26.337  1.00  0.00     0.120 C 
ATOM     98  C   UNL A   1      32.195  21.735  23.205  1.00  0.00     0.120 C 
ATOM     99  N   UNL A   1      32.730  20.727  24.615  1.00  0.00    -0.342 N 
ATOM    100  C   UNL A   1      33.198  19.405  24.585  1.00  0.00     0.225 C 
ATOM    101  O   UNL A   1      33.429  18.820  25.645  1.00  0.00    -0.275 OA
BRANCH 100 102
ATOM    102  C   UNL A   1      33.436  18.587  23.365  1.00  0.00     0.079 C 
ATOM    103  C   UNL A   1      33.386  17.109  23.134  1.00  0.00     0.014 C 
ATOM    104  C   UNL A   1      32.296  17.990  22.587  1.00  0.00     0.014 C 
ENDBRANCH 100 102
ENDBRANCH  91  94
ENDBRANCH  80  90
ENDBRANCH  78  80
ENDBRANCH  77  78
ENDBRANCH  76  77
ENDBRANCH  75  76
ENDBRANCH  74  75
ENDBRANCH   1  74
TORSDOF 20
ENDMDL
MODEL 3
REMARK VINA RESULT:     -12.9      4.087      9.910
REMARK SMILES O=C(OCCOCCOCCOC(=O)[C@]1(NC(=O)C2CCN(C(=O)C3CC3)CC2)CCCc2ccccc21)c1ccc(-c2c3nc(c(-c4c(F)c(F)c(F)c(F)c4F)c4ccc([nH]4)c(-c4c(F)c(F)c(F)c(F)c4F)c4nc(c(-c5c(F)c(F)c(F)c(F)c5F)c5ccc2[nH]5)C=C4)C=C3)cc1
REMARK SMILES IDX 8 1 7 2 6 3 5 4 4 5 3 6 2 7 1 8 39 9 40 10 101 11 41 12
REMARK SMILES IDX 100 13 42 14 43 15 44 16 94 17 45 18 99 19 93 20 95 21 46 22
REMARK SMILES IDX 98 23 92 24 91 25 47 27 79 28 59 29 78 30 60 31 63 32 77 33
REMARK SMILES IDX 96 34 61 35 62 36 76 38 97 39 64 40 48 41 49 42 57 43 50 44
REMARK SMILES IDX 51 45 55 46 58 47 52 48 53 49 56 50 54 51 80 52 81 53 89 54
REMARK SMILES IDX 82 55 83 56 87 57 90 58 84 59 85 60 88 61 86 62 65 63 66 64
REMARK SMILES IDX 74 65 67 66 68 67 72 68 75 69 69 70 70 71 73 72 71 73 9 74
REMARK SMILES IDX 10 75 11 76 12 77 13 78 14 79 15 80 30 81 38 82 31 83 33 84
REMARK SMILES IDX 37 85 32 86 34 87 36 88 35 89 16 90 17 91 18 93 19 94 20 95
REMARK SMILES IDX 29 96 21 97 28 98 22 99 23 100 24 101 25 102 26 103 27 104
REMARK H PARENT 95 26 63 37 16 92
REMARK Flexibility Score: inf
ROOT
ATOM      1  C   UNL A   1      34.601  23.822  26.102  1.00  0.00     0.188 C 
ENDROOT
BRANCH   1   2
ATOM      2  C   UNL A   1      35.922  23.059  25.941  1.00  0.00     0.188 C 
BRANCH   2   3
ATOM      3  O   UNL A   1      35.662  21.655  26.077  1.00  0.00    -0.376 OA
BRANCH   3   4
ATOM      4  C   UNL A   1      35.859  20.786  24.946  1.00  0.00     0.202 C 
BRANCH   4   5
ATOM      5  C   UNL A   1      37.410  20.516  24.604  1.00  0.00     0.261 C 
BRANCH   5   6
ATOM      6  O   UNL A   1      39.009  20.746  25.695  1.00  0.00    -0.460 OA
BRANCH   6   7
ATOM      7  C   UNL A   1      40.139  20.979  26.572  1.00  0.00     0.338 C 
ATOM      8  O   UNL A   1      40.925  20.056  26.801  1.00  0.00    -0.246 OA
BRANCH   7   9
ATOM      9  C   UNL A   1      40.569  22.304  27.237  1.00  0.00     0.060 A 
ATOM     10  C   UNL A   1      40.003  23.535  26.962  1.00  0.00     0.016 A 
ATOM     11  C   UNL A   1      41.575  22.354  28.219  1.00  0.00     0.016 A 
ATOM     12  C   UNL A   1      40.490  24.752  27.384  1.00  0.00     0.010 A 
ATOM     13  C   UNL A   1      42.015  23.594  28.777  1.00  0.00     0.010 A 
ATOM     14  C   UNL A   1      41.488  24.817  28.329  1.00  0.00    -0.014 A 
BRANCH  14  15
ATOM     15  C   UNL A   1      41.968  26.195  28.620  1.00  0.00     0.031 A 
ATOM     16  C   UNL A   1      43.203  26.690  27.927  1.00  0.00     0.074 A 
ATOM     17  C   UNL A   1      41.138  27.093  29.206  1.00  0.00     0.049 A 
ATOM     18  N   UNL A   1      43.813  27.837  28.057  1.00  0.00    -0.248 NA
ATOM     19  C   UNL A   1      43.825  25.789  26.944  1.00  0.00     0.031 C 
ATOM     20  C   UNL A   1      39.798  26.788  29.721  1.00  0.00     0.029 A 
ATOM     21  N   UNL A   1      41.224  28.458  29.339  1.00  0.00    -0.354 N 
ATOM     22  C   UNL A   1      44.966  27.736  27.293  1.00  0.00     0.074 A 
ATOM     23  C   UNL A   1      44.912  26.466  26.604  1.00  0.00     0.031 C 
ATOM     24  C   UNL A   1      39.135  27.933  29.941  1.00  0.00     0.029 A 
ATOM     25  C   UNL A   1      40.049  29.051  29.751  1.00  0.00     0.049 A 
ATOM     26  H   UNL A   1      42.048  28.966  29.158  1.00  0.00     0.167 HD
ATOM     27  C   UNL A   1      46.001  28.605  27.254  1.00  0.00     0.037 A 
ATOM     28  C   UNL A   1      39.761  30.349  29.978  1.00  0.00     0.037 A 
ATOM     29  C   UNL A   1      45.971  29.887  27.904  1.00  0.00     0.049 A 
ATOM     30  C   UNL A   1      40.898  31.331  29.890  1.00  0.00     0.074 A 
ATOM     31  C   UNL A   1      46.995  30.790  28.120  1.00  0.00     0.029 A 
ATOM     32  N   UNL A   1      44.813  30.464  28.411  1.00  0.00    -0.354 N 
ATOM     33  N   UNL A   1      42.111  31.147  29.428  1.00  0.00    -0.248 NA
ATOM     34  C   UNL A   1      40.656  32.676  30.430  1.00  0.00     0.031 C 
ATOM     35  C   UNL A   1      46.457  31.905  28.779  1.00  0.00     0.029 A 
ATOM     36  C   UNL A   1      45.093  31.712  28.935  1.00  0.00     0.049 A 
ATOM     37  H   UNL A   1      43.922  30.044  28.399  1.00  0.00     0.167 HD
ATOM     38  C   UNL A   1      42.797  32.326  29.676  1.00  0.00     0.074 A 
ATOM     39  C   UNL A   1      41.838  33.251  30.249  1.00  0.00     0.031 C 
ATOM     40  C   UNL A   1      44.112  32.602  29.501  1.00  0.00     0.037 A 
BRANCH  27  41
ATOM     41  C   UNL A   1      47.281  28.097  26.666  1.00  0.00     0.064 A 
ATOM     42  C   UNL A   1      47.553  28.107  25.292  1.00  0.00     0.173 A 
ATOM     43  C   UNL A   1      48.236  27.519  27.519  1.00  0.00     0.173 A 
ATOM     44  F   UNL A   1      46.656  28.608  24.429  1.00  0.00    -0.203 F 
ATOM     45  C   UNL A   1      48.723  27.534  24.792  1.00  0.00     0.198 A 
ATOM     46  C   UNL A   1      49.412  26.969  27.020  1.00  0.00     0.198 A 
ATOM     47  F   UNL A   1      48.017  27.471  28.842  1.00  0.00    -0.203 F 
ATOM     48  F   UNL A   1      48.937  27.498  23.470  1.00  0.00    -0.200 F 
ATOM     49  C   UNL A   1      49.651  26.967  25.656  1.00  0.00     0.200 A 
ATOM     50  F   UNL A   1      50.303  26.420  27.858  1.00  0.00    -0.200 F 
ATOM     51  F   UNL A   1      50.766  26.403  25.171  1.00  0.00    -0.200 F 
ENDBRANCH  27  41
BRANCH  28  52
ATOM     52  C   UNL A   1      38.393  30.788  30.388  1.00  0.00     0.064 A 
ATOM     53  C   UNL A   1      38.053  30.912  31.745  1.00  0.00     0.173 A 
ATOM     54  C   UNL A   1      37.390  31.083  29.451  1.00  0.00     0.173 A 
ATOM     55  F   UNL A   1      38.956  30.617  32.691  1.00  0.00    -0.203 F 
ATOM     56  C   UNL A   1      36.777  31.317  32.141  1.00  0.00     0.198 A 
ATOM     57  C   UNL A   1      36.129  31.529  29.846  1.00  0.00     0.198 A 
ATOM     58  F   UNL A   1      37.637  30.956  28.139  1.00  0.00    -0.203 F 
ATOM     59  F   UNL A   1      36.476  31.396  33.445  1.00  0.00    -0.200 F 
ATOM     60  C   UNL A   1      35.821  31.640  31.192  1.00  0.00     0.200 A 
ATOM     61  F   UNL A   1      35.216  31.855  28.922  1.00  0.00    -0.200 F 
ATOM     62  F   UNL A   1      34.605  32.056  31.573  1.00  0.00    -0.200 F 
ENDBRANCH  28  52
BRANCH  40  63
ATOM     63  C   UNL A   1      44.583  33.942  29.967  1.00  0.00     0.064 A 
ATOM     64  C   UNL A   1      45.041  34.127  31.281  1.00  0.00     0.173 A 
ATOM     65  C   UNL A   1      44.609  35.036  29.094  1.00  0.00     0.173 A 
ATOM     66  F   UNL A   1      45.020  33.107  32.153  1.00  0.00    -0.203 F 
ATOM     67  C   UNL A   1      45.490  35.371  31.709  1.00  0.00     0.198 A 
ATOM     68  C   UNL A   1      45.076  36.274  29.521  1.00  0.00     0.198 A 
ATOM     69  F   UNL A   1      44.180  34.902  27.830  1.00  0.00    -0.203 F 
ATOM     70  F   UNL A   1      45.887  35.537  32.978  1.00  0.00    -0.200 F 
ATOM     71  C   UNL A   1      45.511  36.442  30.829  1.00  0.00     0.200 A 
ATOM     72  F   UNL A   1      45.101  37.309  28.669  1.00  0.00    -0.200 F 
ATOM     73  F   UNL A   1      45.943  37.641  31.243  1.00  0.00    -0.200 F 
ENDBRANCH  40  63
ENDBRANCH  14  15
ENDBRANCH   7   9
ENDBRANCH   6   7
ENDBRANCH   5   6
ENDBRANCH   4   5
ENDBRANCH   3   4
ENDBRANCH   2   3
ENDBRANCH   1   2
BRANCH   1  74
ATOM     74  O   UNL A   1      33.990  24.228  24.886  1.00  0.00    -0.376 OA
BRANCH  74  75
ATOM     75  C   UNL A   1      34.846  24.462  23.770  1.00  0.00     0.202 C 
BRANCH  75  76
ATOM     76  C   UNL A   1      34.182  25.118  22.558  1.00  0.00     0.261 C 
BRANCH  76  77
ATOM     77  O   UNL A   1      32.898  25.703  22.862  1.00  0.00    -0.461 OA
BRANCH  77  78
ATOM     78  C   UNL A   1      32.931  26.925  23.471  1.00  0.00     0.336 C 
ATOM     79  O   UNL A   1      33.757  27.790  23.198  1.00  0.00    -0.249 OA
BRANCH  78  80
ATOM     80  C   UNL A   1      31.775  27.133  24.499  1.00  0.00     0.164 C 
ATOM     81  C   UNL A   1      30.450  27.273  23.697  1.00  0.00     0.046 C 
ATOM     82  C   UNL A   1      31.989  28.402  25.364  1.00  0.00    -0.008 A 
ATOM     83  C   UNL A   1      30.376  28.608  22.963  1.00  0.00     0.008 C 
ATOM     84  C   UNL A   1      31.327  29.615  25.085  1.00  0.00    -0.042 A 
ATOM     85  C   UNL A   1      32.846  28.350  26.487  1.00  0.00     0.007 A 
ATOM     86  C   UNL A   1      30.332  29.757  23.960  1.00  0.00     0.036 C 
ATOM     87  C   UNL A   1      31.531  30.727  25.923  1.00  0.00     0.004 A 
ATOM     88  C   UNL A   1      33.032  29.457  27.313  1.00  0.00     0.000 A 
ATOM     89  C   UNL A   1      32.380  30.648  27.025  1.00  0.00     0.000 A 
BRANCH  80  90
ATOM     90  N   UNL A   1      31.664  25.992  25.445  1.00  0.00    -0.336 N 
ATOM     91  C   UNL A   1      30.511  25.319  25.752  1.00  0.00     0.224 C 
ATOM     92  H   UNL A   1      32.490  25.695  25.890  1.00  0.00     0.164 HD
ATOM     93  O   UNL A   1      29.720  25.822  26.541  1.00  0.00    -0.275 OA
BRANCH  91  94
ATOM     94  C   UNL A   1      30.398  23.871  25.224  1.00  0.00     0.082 C 
ATOM     95  C   UNL A   1      31.005  22.787  26.705  1.00  0.00     0.035 C 
ATOM     96  C   UNL A   1      30.962  23.292  23.424  1.00  0.00     0.035 C 
ATOM     97  C   UNL A   1      32.110  21.265  26.393  1.00  0.00     0.120 C 
ATOM     98  C   UNL A   1      32.175  21.762  23.244  1.00  0.00     0.120 C 
ATOM     99  N   UNL A   1      32.450  20.705  24.693  1.00  0.00    -0.342 N 
ATOM    100  C   UNL A   1      32.859  19.363  24.699  1.00  0.00     0.225 C 
ATOM    101  O   UNL A   1      32.905  18.750  25.768  1.00  0.00    -0.275 OA
BRANCH 100 102
ATOM    102  C   UNL A   1      33.241  18.557  23.509  1.00  0.00     0.079 C 
ATOM    103  C   UNL A   1      33.033  17.113  23.179  1.00  0.00     0.014 C 
ATOM    104  C   UNL A   1      32.226  18.166  22.470  1.00  0.00     0.014 C 
ENDBRANCH 100 102
ENDBRANCH  91  94
ENDBRANCH  80  90
ENDBRANCH  78  80
ENDBRANCH  77  78
ENDBRANCH  76  77
ENDBRANCH  75  76
ENDBRANCH  74  75
ENDBRANCH   1  74
TORSDOF 20
ENDMDL
