MODEL 1
REMARK VINA RESULT:     -11.3      0.000      0.000
REMARK SMILES O=C(OCCOCCOCCOC(=O)c1cc(/C=C/c2cc(O)cc(O)c2)ccc1O)c1ccc(-c2c3nc(c(-c4c(F)c(F)c(F)c(F)c4F)c4ccc([nH]4)c(-c4c(F)c(F)c(F)c(F)c4F)c4nc(c(-c5c(F)c(F)c(F)c(F)c5F)c5ccc2[nH]5)C=C4)C=C3)cc1
REMARK SMILES IDX 8 1 7 2 6 3 5 4 4 5 3 6 2 7 1 8 32 9 33 10 94 11 34 12 93 13
REMARK SMILES IDX 35 14 36 15 37 16 87 17 38 18 92 19 86 20 88 21 39 22 91 23
REMARK SMILES IDX 85 24 84 25 40 27 72 28 52 29 71 30 53 31 56 32 70 33 89 34
REMARK SMILES IDX 54 35 55 36 69 38 90 39 57 40 41 41 42 42 50 43 43 44 44 45
REMARK SMILES IDX 48 46 51 47 45 48 46 49 49 50 47 51 73 52 74 53 82 54 75 55
REMARK SMILES IDX 76 56 80 57 83 58 77 59 78 60 81 61 79 62 58 63 59 64 67 65
REMARK SMILES IDX 60 66 61 67 65 68 68 69 62 70 63 71 66 72 64 73 9 74 10 75
REMARK SMILES IDX 11 76 12 77 13 78 14 79 15 80 16 81 30 82 17 83 29 84 28 85
REMARK SMILES IDX 31 86 18 88 19 89 20 90 21 91 27 92 22 93 25 94 24 95 23 96
REMARK SMILES IDX 26 98
REMARK H PARENT 88 26 56 37 31 87 23 97 26 99
REMARK Flexibility Score: inf
ROOT
ATOM      1  C   UNL A   1      39.651  22.551  26.634  1.00  0.00     0.188 C 
ENDROOT
BRANCH   1   2
ATOM      2  C   UNL A   1      40.520  21.299  26.499  1.00  0.00     0.188 C 
BRANCH   2   3
ATOM      3  O   UNL A   1      41.624  21.541  25.615  1.00  0.00    -0.376 OA
BRANCH   3   4
ATOM      4  C   UNL A   1      42.803  20.810  25.961  1.00  0.00     0.202 C 
BRANCH   4   5
ATOM      5  C   UNL A   1      44.081  21.367  25.323  1.00  0.00     0.261 C 
BRANCH   5   6
ATOM      6  O   UNL A   1      44.528  22.566  25.979  1.00  0.00    -0.460 OA
BRANCH   6   7
ATOM      7  C   UNL A   1      44.284  23.851  25.623  1.00  0.00     0.338 C 
ATOM      8  O   UNL A   1      44.501  24.196  24.461  1.00  0.00    -0.246 OA
BRANCH   7   9
ATOM      9  C   UNL A   1      43.695  24.874  26.542  1.00  0.00     0.060 A 
ATOM     10  C   UNL A   1      43.965  26.243  26.517  1.00  0.00     0.016 A 
ATOM     11  C   UNL A   1      42.749  24.410  27.472  1.00  0.00     0.016 A 
ATOM     12  C   UNL A   1      43.417  27.104  27.466  1.00  0.00     0.010 A 
ATOM     13  C   UNL A   1      42.133  25.280  28.377  1.00  0.00     0.010 A 
ATOM     14  C   UNL A   1      42.507  26.626  28.408  1.00  0.00    -0.014 A 
BRANCH  14  15
ATOM     15  C   UNL A   1      42.044  27.522  29.487  1.00  0.00     0.031 A 
ATOM     16  C   UNL A   1      42.828  27.583  30.762  1.00  0.00     0.074 A 
ATOM     17  C   UNL A   1      40.992  28.334  29.293  1.00  0.00     0.049 A 
ATOM     18  N   UNL A   1      42.592  28.270  31.849  1.00  0.00    -0.248 NA
ATOM     19  C   UNL A   1      44.061  26.780  30.811  1.00  0.00     0.031 C 
ATOM     20  C   UNL A   1      40.233  28.437  28.050  1.00  0.00     0.029 A 
ATOM     21  N   UNL A   1      40.389  29.238  30.130  1.00  0.00    -0.354 N 
ATOM     22  C   UNL A   1      43.641  27.980  32.708  1.00  0.00     0.074 A 
ATOM     23  C   UNL A   1      44.500  27.033  32.033  1.00  0.00     0.031 C 
ATOM     24  C   UNL A   1      39.262  29.350  28.206  1.00  0.00     0.029 A 
ATOM     25  C   UNL A   1      39.287  29.840  29.577  1.00  0.00     0.049 A 
ATOM     26  H   UNL A   1      40.715  29.435  31.038  1.00  0.00     0.167 HD
ATOM     27  C   UNL A   1      43.869  28.472  33.948  1.00  0.00     0.037 A 
ATOM     28  C   UNL A   1      38.375  30.663  30.126  1.00  0.00     0.037 A 
ATOM     29  C   UNL A   1      43.002  29.409  34.608  1.00  0.00     0.049 A 
ATOM     30  C   UNL A   1      38.576  31.100  31.548  1.00  0.00     0.074 A 
ATOM     31  C   UNL A   1      43.115  29.951  35.874  1.00  0.00     0.029 A 
ATOM     32  N   UNL A   1      41.848  29.938  34.044  1.00  0.00    -0.354 N 
ATOM     33  N   UNL A   1      39.555  30.801  32.368  1.00  0.00    -0.248 NA
ATOM     34  C   UNL A   1      37.559  31.989  32.120  1.00  0.00     0.031 C 
ATOM     35  C   UNL A   1      42.007  30.779  36.091  1.00  0.00     0.029 A 
ATOM     36  C   UNL A   1      41.224  30.783  34.945  1.00  0.00     0.049 A 
ATOM     37  H   UNL A   1      41.522  29.742  33.136  1.00  0.00     0.167 HD
ATOM     38  C   UNL A   1      39.287  31.480  33.545  1.00  0.00     0.074 A 
ATOM     39  C   UNL A   1      38.055  32.214  33.329  1.00  0.00     0.031 C 
ATOM     40  C   UNL A   1      39.998  31.499  34.699  1.00  0.00     0.037 A 
BRANCH  27  41
ATOM     41  C   UNL A   1      45.079  27.954  34.664  1.00  0.00     0.064 A 
ATOM     42  C   UNL A   1      45.022  26.812  35.476  1.00  0.00     0.173 A 
ATOM     43  C   UNL A   1      46.297  28.641  34.578  1.00  0.00     0.173 A 
ATOM     44  F   UNL A   1      43.869  26.138  35.614  1.00  0.00    -0.203 F 
ATOM     45  C   UNL A   1      46.134  26.397  36.206  1.00  0.00     0.198 A 
ATOM     46  C   UNL A   1      47.414  28.210  35.290  1.00  0.00     0.198 A 
ATOM     47  F   UNL A   1      46.401  29.743  33.821  1.00  0.00    -0.203 F 
ATOM     48  F   UNL A   1      46.039  25.341  37.025  1.00  0.00    -0.200 F 
ATOM     49  C   UNL A   1      47.328  27.095  36.110  1.00  0.00     0.200 A 
ATOM     50  F   UNL A   1      48.568  28.886  35.198  1.00  0.00    -0.200 F 
ATOM     51  F   UNL A   1      48.392  26.705  36.826  1.00  0.00    -0.200 F 
ENDBRANCH  27  41
BRANCH  28  52
ATOM     52  C   UNL A   1      37.184  31.074  29.338  1.00  0.00     0.064 A 
ATOM     53  C   UNL A   1      37.066  32.362  28.802  1.00  0.00     0.173 A 
ATOM     54  C   UNL A   1      36.147  30.163  29.079  1.00  0.00     0.173 A 
ATOM     55  F   UNL A   1      38.024  33.272  29.030  1.00  0.00    -0.203 F 
ATOM     56  C   UNL A   1      35.953  32.727  28.045  1.00  0.00     0.198 A 
ATOM     57  C   UNL A   1      35.048  30.521  28.301  1.00  0.00     0.198 A 
ATOM     58  F   UNL A   1      36.215  28.910  29.554  1.00  0.00    -0.203 F 
ATOM     59  F   UNL A   1      35.853  33.973  27.562  1.00  0.00    -0.200 F 
ATOM     60  C   UNL A   1      34.949  31.804  27.789  1.00  0.00     0.200 A 
ATOM     61  F   UNL A   1      34.099  29.615  28.031  1.00  0.00    -0.200 F 
ATOM     62  F   UNL A   1      33.892  32.149  27.042  1.00  0.00    -0.200 F 
ENDBRANCH  28  52
BRANCH  40  63
ATOM     63  C   UNL A   1      39.467  32.357  35.804  1.00  0.00     0.064 A 
ATOM     64  C   UNL A   1      38.549  31.858  36.738  1.00  0.00     0.173 A 
ATOM     65  C   UNL A   1      39.914  33.678  35.951  1.00  0.00     0.173 A 
ATOM     66  F   UNL A   1      38.080  30.607  36.622  1.00  0.00    -0.203 F 
ATOM     67  C   UNL A   1      38.085  32.660  37.776  1.00  0.00     0.198 A 
ATOM     68  C   UNL A   1      39.465  34.468  37.003  1.00  0.00     0.198 A 
ATOM     69  F   UNL A   1      40.793  34.195  35.079  1.00  0.00    -0.203 F 
ATOM     70  F   UNL A   1      37.180  32.178  38.638  1.00  0.00    -0.200 F 
ATOM     71  C   UNL A   1      38.549  33.961  37.913  1.00  0.00     0.200 A 
ATOM     72  F   UNL A   1      39.919  35.722  37.138  1.00  0.00    -0.200 F 
ATOM     73  F   UNL A   1      38.106  34.729  38.917  1.00  0.00    -0.200 F 
ENDBRANCH  40  63
ENDBRANCH  14  15
ENDBRANCH   7   9
ENDBRANCH   6   7
ENDBRANCH   5   6
ENDBRANCH   4   5
ENDBRANCH   3   4
ENDBRANCH   2   3
ENDBRANCH   1   2
BRANCH   1  74
ATOM     74  O   UNL A   1      38.336  22.428  26.092  1.00  0.00    -0.376 OA
BRANCH  74  75
ATOM     75  C   UNL A   1      37.598  23.633  25.906  1.00  0.00     0.202 C 
BRANCH  75  76
ATOM     76  C   UNL A   1      36.532  23.622  24.804  1.00  0.00     0.261 C 
BRANCH  76  77
ATOM     77  O   UNL A   1      35.181  23.815  25.260  1.00  0.00    -0.460 OA
BRANCH  77  78
ATOM     78  C   UNL A   1      34.350  22.781  24.985  1.00  0.00     0.342 C 
ATOM     79  O   UNL A   1      34.647  21.700  24.484  1.00  0.00    -0.246 OA
BRANCH  78  80
ATOM     80  C   UNL A   1      32.967  23.104  25.350  1.00  0.00     0.102 A 
ATOM     81  C   UNL A   1      32.276  24.121  24.670  1.00  0.00     0.027 A 
ATOM     82  C   UNL A   1      32.436  22.538  26.511  1.00  0.00     0.130 A 
ATOM     83  C   UNL A   1      31.043  24.579  25.155  1.00  0.00    -0.025 A 
ATOM     84  C   UNL A   1      31.229  23.002  27.017  1.00  0.00     0.048 A 
ATOM     85  C   UNL A   1      30.538  24.009  26.338  1.00  0.00     0.012 A 
BRANCH  82  86
ATOM     86  O   UNL A   1      33.102  21.533  27.151  1.00  0.00    -0.507 OA
ATOM     87  H   UNL A   1      32.920  20.638  26.938  1.00  0.00     0.293 HD
ENDBRANCH  82  86
BRANCH  83  88
ATOM     88  C   UNL A   1      30.264  25.680  24.556  1.00  0.00     0.009 C 
ATOM     89  C   UNL A   1      30.706  26.668  23.762  1.00  0.00     0.009 C 
BRANCH  89  90
ATOM     90  C   UNL A   1      29.809  27.730  23.265  1.00  0.00    -0.018 A 
ATOM     91  C   UNL A   1      30.305  28.867  22.606  1.00  0.00     0.054 A 
ATOM     92  C   UNL A   1      28.423  27.586  23.414  1.00  0.00     0.054 A 
ATOM     93  C   UNL A   1      29.429  29.856  22.159  1.00  0.00     0.119 A 
ATOM     94  C   UNL A   1      27.565  28.592  22.966  1.00  0.00     0.119 A 
ATOM     95  C   UNL A   1      28.060  29.732  22.347  1.00  0.00     0.092 A 
BRANCH  93  96
ATOM     96  O   UNL A   1      29.887  30.972  21.520  1.00  0.00    -0.508 OA
ATOM     97  H   UNL A   1      30.711  30.953  21.076  1.00  0.00     0.293 HD
ENDBRANCH  93  96
BRANCH  94  98
ATOM     98  O   UNL A   1      26.213  28.488  23.121  1.00  0.00    -0.508 OA
ATOM     99  H   UNL A   1      25.639  28.886  22.496  1.00  0.00     0.293 HD
ENDBRANCH  94  98
ENDBRANCH  89  90
ENDBRANCH  83  88
ENDBRANCH  78  80
ENDBRANCH  77  78
ENDBRANCH  76  77
ENDBRANCH  75  76
ENDBRANCH  74  75
ENDBRANCH   1  74
TORSDOF 22
ENDMDL
MODEL 2
REMARK VINA RESULT:     -11.1      4.838      7.135
REMARK SMILES O=C(OCCOCCOCCOC(=O)c1cc(/C=C/c2cc(O)cc(O)c2)ccc1O)c1ccc(-c2c3nc(c(-c4c(F)c(F)c(F)c(F)c4F)c4ccc([nH]4)c(-c4c(F)c(F)c(F)c(F)c4F)c4nc(c(-c5c(F)c(F)c(F)c(F)c5F)c5ccc2[nH]5)C=C4)C=C3)cc1
REMARK SMILES IDX 8 1 7 2 6 3 5 4 4 5 3 6 2 7 1 8 32 9 33 10 94 11 34 12 93 13
REMARK SMILES IDX 35 14 36 15 37 16 87 17 38 18 92 19 86 20 88 21 39 22 91 23
REMARK SMILES IDX 85 24 84 25 40 27 72 28 52 29 71 30 53 31 56 32 70 33 89 34
REMARK SMILES IDX 54 35 55 36 69 38 90 39 57 40 41 41 42 42 50 43 43 44 44 45
REMARK SMILES IDX 48 46 51 47 45 48 46 49 49 50 47 51 73 52 74 53 82 54 75 55
REMARK SMILES IDX 76 56 80 57 83 58 77 59 78 60 81 61 79 62 58 63 59 64 67 65
REMARK SMILES IDX 60 66 61 67 65 68 68 69 62 70 63 71 66 72 64 73 9 74 10 75
REMARK SMILES IDX 11 76 12 77 13 78 14 79 15 80 16 81 30 82 17 83 29 84 28 85
REMARK SMILES IDX 31 86 18 88 19 89 20 90 21 91 27 92 22 93 25 94 24 95 23 96
REMARK SMILES IDX 26 98
REMARK H PARENT 88 26 56 37 31 87 23 97 26 99
REMARK Flexibility Score: inf
ROOT
ATOM      1  C   UNL A   1      40.013  21.912  26.475  1.00  0.00     0.188 C 
ENDROOT
BRANCH   1   2
ATOM      2  C   UNL A   1      41.497  21.584  26.300  1.00  0.00     0.188 C 
BRANCH   2   3
ATOM      3  O   UNL A   1      41.787  20.272  26.802  1.00  0.00    -0.376 OA
BRANCH   3   4
ATOM      4  C   UNL A   1      41.854  19.272  25.781  1.00  0.00     0.202 C 
BRANCH   4   5
ATOM      5  C   UNL A   1      43.138  18.435  25.823  1.00  0.00     0.261 C 
BRANCH   5   6
ATOM      6  O   UNL A   1      43.938  18.623  24.643  1.00  0.00    -0.460 OA
BRANCH   6   7
ATOM      7  C   UNL A   1      44.951  19.504  24.456  1.00  0.00     0.338 C 
ATOM      8  O   UNL A   1      45.966  19.124  23.869  1.00  0.00    -0.246 OA
BRANCH   7   9
ATOM      9  C   UNL A   1      44.892  20.943  24.858  1.00  0.00     0.060 A 
ATOM     10  C   UNL A   1      44.530  22.006  24.030  1.00  0.00     0.016 A 
ATOM     11  C   UNL A   1      45.177  21.230  26.204  1.00  0.00     0.016 A 
ATOM     12  C   UNL A   1      44.576  23.323  24.484  1.00  0.00     0.010 A 
ATOM     13  C   UNL A   1      45.148  22.540  26.690  1.00  0.00     0.010 A 
ATOM     14  C   UNL A   1      44.896  23.599  25.813  1.00  0.00    -0.014 A 
BRANCH  14  15
ATOM     15  C   UNL A   1      45.073  25.001  26.239  1.00  0.00     0.031 A 
ATOM     16  C   UNL A   1      46.427  25.631  26.112  1.00  0.00     0.074 A 
ATOM     17  C   UNL A   1      44.018  25.728  26.646  1.00  0.00     0.049 A 
ATOM     18  N   UNL A   1      46.819  26.830  26.451  1.00  0.00    -0.248 NA
ATOM     19  C   UNL A   1      47.477  24.803  25.497  1.00  0.00     0.031 C 
ATOM     20  C   UNL A   1      42.640  25.247  26.695  1.00  0.00     0.029 A 
ATOM     21  N   UNL A   1      43.936  27.026  27.080  1.00  0.00    -0.354 N 
ATOM     22  C   UNL A   1      48.157  26.900  26.094  1.00  0.00     0.074 A 
ATOM     23  C   UNL A   1      48.521  25.614  25.541  1.00  0.00     0.031 C 
ATOM     24  C   UNL A   1      41.849  26.235  27.138  1.00  0.00     0.029 A 
ATOM     25  C   UNL A   1      42.672  27.389  27.471  1.00  0.00     0.049 A 
ATOM     26  H   UNL A   1      44.709  27.637  27.109  1.00  0.00     0.167 HD
ATOM     27  C   UNL A   1      49.002  27.951  26.210  1.00  0.00     0.037 A 
ATOM     28  C   UNL A   1      42.233  28.511  28.069  1.00  0.00     0.037 A 
ATOM     29  C   UNL A   1      48.626  29.220  26.768  1.00  0.00     0.049 A 
ATOM     30  C   UNL A   1      43.215  29.622  28.306  1.00  0.00     0.074 A 
ATOM     31  C   UNL A   1      49.405  30.345  26.965  1.00  0.00     0.029 A 
ATOM     32  N   UNL A   1      47.351  29.526  27.227  1.00  0.00    -0.354 N 
ATOM     33  N   UNL A   1      44.487  29.674  27.992  1.00  0.00    -0.248 NA
ATOM     34  C   UNL A   1      42.707  30.829  28.969  1.00  0.00     0.031 C 
ATOM     35  C   UNL A   1      48.609  31.320  27.580  1.00  0.00     0.029 A 
ATOM     36  C   UNL A   1      47.326  30.815  27.731  1.00  0.00     0.049 A 
ATOM     37  H   UNL A   1      46.579  28.916  27.198  1.00  0.00     0.167 HD
ATOM     38  C   UNL A   1      44.929  30.922  28.397  1.00  0.00     0.074 A 
ATOM     39  C   UNL A   1      43.784  31.601  28.974  1.00  0.00     0.031 C 
ATOM     40  C   UNL A   1      46.169  31.461  28.298  1.00  0.00     0.037 A 
BRANCH  27  41
ATOM     41  C   UNL A   1      50.415  27.729  25.764  1.00  0.00     0.064 A 
ATOM     42  C   UNL A   1      51.441  27.450  26.679  1.00  0.00     0.173 A 
ATOM     43  C   UNL A   1      50.755  27.849  24.410  1.00  0.00     0.173 A 
ATOM     44  F   UNL A   1      51.170  27.355  27.990  1.00  0.00    -0.203 F 
ATOM     45  C   UNL A   1      52.764  27.335  26.256  1.00  0.00     0.198 A 
ATOM     46  C   UNL A   1      52.074  27.711  23.988  1.00  0.00     0.198 A 
ATOM     47  F   UNL A   1      49.810  28.123  23.497  1.00  0.00    -0.203 F 
ATOM     48  F   UNL A   1      53.737  27.133  27.155  1.00  0.00    -0.200 F 
ATOM     49  C   UNL A   1      53.078  27.465  24.912  1.00  0.00     0.200 A 
ATOM     50  F   UNL A   1      52.378  27.837  22.688  1.00  0.00    -0.200 F 
ATOM     51  F   UNL A   1      54.353  27.372  24.509  1.00  0.00    -0.200 F 
ENDBRANCH  27  41
BRANCH  28  52
ATOM     52  C   UNL A   1      40.819  28.604  28.516  1.00  0.00     0.064 A 
ATOM     53  C   UNL A   1      40.436  28.258  29.818  1.00  0.00     0.173 A 
ATOM     54  C   UNL A   1      39.821  29.075  27.647  1.00  0.00     0.173 A 
ATOM     55  F   UNL A   1      41.349  27.794  30.683  1.00  0.00    -0.203 F 
ATOM     56  C   UNL A   1      39.109  28.373  30.232  1.00  0.00     0.198 A 
ATOM     57  C   UNL A   1      38.501  29.213  28.069  1.00  0.00     0.198 A 
ATOM     58  F   UNL A   1      40.134  29.435  26.393  1.00  0.00    -0.203 F 
ATOM     59  F   UNL A   1      38.764  28.015  31.476  1.00  0.00    -0.200 F 
ATOM     60  C   UNL A   1      38.145  28.857  29.360  1.00  0.00     0.200 A 
ATOM     61  F   UNL A   1      37.582  29.711  27.232  1.00  0.00    -0.200 F 
ATOM     62  F   UNL A   1      36.875  28.987  29.765  1.00  0.00    -0.200 F 
ENDBRANCH  28  52
BRANCH  40  63
ATOM     63  C   UNL A   1      46.339  32.859  28.805  1.00  0.00     0.064 A 
ATOM     64  C   UNL A   1      46.117  33.967  27.977  1.00  0.00     0.173 A 
ATOM     65  C   UNL A   1      46.688  33.088  30.144  1.00  0.00     0.173 A 
ATOM     66  F   UNL A   1      45.802  33.793  26.685  1.00  0.00    -0.203 F 
ATOM     67  C   UNL A   1      46.252  35.261  28.471  1.00  0.00     0.198 A 
ATOM     68  C   UNL A   1      46.800  34.383  30.638  1.00  0.00     0.198 A 
ATOM     69  F   UNL A   1      46.909  32.056  30.971  1.00  0.00    -0.203 F 
ATOM     70  F   UNL A   1      46.072  36.309  27.655  1.00  0.00    -0.200 F 
ATOM     71  C   UNL A   1      46.586  35.468  29.802  1.00  0.00     0.200 A 
ATOM     72  F   UNL A   1      47.114  34.581  31.927  1.00  0.00    -0.200 F 
ATOM     73  F   UNL A   1      46.709  36.715  30.276  1.00  0.00    -0.200 F 
ENDBRANCH  40  63
ENDBRANCH  14  15
ENDBRANCH   7   9
ENDBRANCH   6   7
ENDBRANCH   5   6
ENDBRANCH   4   5
ENDBRANCH   3   4
ENDBRANCH   2   3
ENDBRANCH   1   2
BRANCH   1  74
ATOM     74  O   UNL A   1      39.747  23.178  27.081  1.00  0.00    -0.376 OA
BRANCH  74  75
ATOM     75  C   UNL A   1      38.612  23.898  26.604  1.00  0.00     0.202 C 
BRANCH  75  76
ATOM     76  C   UNL A   1      37.723  23.178  25.584  1.00  0.00     0.261 C 
BRANCH  76  77
ATOM     77  O   UNL A   1      36.433  22.775  26.075  1.00  0.00    -0.460 OA
BRANCH  77  78
ATOM     78  C   UNL A   1      35.498  22.609  25.110  1.00  0.00     0.342 C 
ATOM     79  O   UNL A   1      35.666  22.151  23.982  1.00  0.00    -0.246 OA
BRANCH  78  80
ATOM     80  C   UNL A   1      34.183  23.075  25.561  1.00  0.00     0.102 A 
ATOM     81  C   UNL A   1      33.522  24.102  24.866  1.00  0.00     0.027 A 
ATOM     82  C   UNL A   1      33.711  22.637  26.800  1.00  0.00     0.130 A 
ATOM     83  C   UNL A   1      32.377  24.698  25.415  1.00  0.00    -0.025 A 
ATOM     84  C   UNL A   1      32.595  23.238  27.367  1.00  0.00     0.048 A 
ATOM     85  C   UNL A   1      31.932  24.255  26.674  1.00  0.00     0.012 A 
BRANCH  82  86
ATOM     86  O   UNL A   1      34.346  21.622  27.456  1.00  0.00    -0.507 OA
ATOM     87  H   UNL A   1      33.863  20.867  27.732  1.00  0.00     0.293 HD
ENDBRANCH  82  86
BRANCH  83  88
ATOM     88  C   UNL A   1      31.643  25.821  24.802  1.00  0.00     0.009 C 
ATOM     89  C   UNL A   1      30.501  25.776  24.098  1.00  0.00     0.009 C 
BRANCH  89  90
ATOM     90  C   UNL A   1      29.897  26.988  23.510  1.00  0.00    -0.018 A 
ATOM     91  C   UNL A   1      30.671  27.937  22.820  1.00  0.00     0.054 A 
ATOM     92  C   UNL A   1      28.513  27.182  23.602  1.00  0.00     0.054 A 
ATOM     93  C   UNL A   1      30.069  29.076  22.285  1.00  0.00     0.119 A 
ATOM     94  C   UNL A   1      27.933  28.334  23.067  1.00  0.00     0.119 A 
ATOM     95  C   UNL A   1      28.704  29.288  22.417  1.00  0.00     0.092 A 
BRANCH  93  96
ATOM     96  O   UNL A   1      30.799  30.015  21.615  1.00  0.00    -0.508 OA
ATOM     97  H   UNL A   1      30.846  29.992  20.681  1.00  0.00     0.293 HD
ENDBRANCH  93  96
BRANCH  94  98
ATOM     98  O   UNL A   1      26.590  28.560  23.165  1.00  0.00    -0.508 OA
ATOM     99  H   UNL A   1      26.046  28.479  22.406  1.00  0.00     0.293 HD
ENDBRANCH  94  98
ENDBRANCH  89  90
ENDBRANCH  83  88
ENDBRANCH  78  80
ENDBRANCH  77  78
ENDBRANCH  76  77
ENDBRANCH  75  76
ENDBRANCH  74  75
ENDBRANCH   1  74
TORSDOF 22
ENDMDL
MODEL 3
REMARK VINA RESULT:     -10.9      5.093      9.254
REMARK SMILES O=C(OCCOCCOCCOC(=O)c1cc(/C=C/c2cc(O)cc(O)c2)ccc1O)c1ccc(-c2c3nc(c(-c4c(F)c(F)c(F)c(F)c4F)c4ccc([nH]4)c(-c4c(F)c(F)c(F)c(F)c4F)c4nc(c(-c5c(F)c(F)c(F)c(F)c5F)c5ccc2[nH]5)C=C4)C=C3)cc1
REMARK SMILES IDX 8 1 7 2 6 3 5 4 4 5 3 6 2 7 1 8 32 9 33 10 94 11 34 12 93 13
REMARK SMILES IDX 35 14 36 15 37 16 87 17 38 18 92 19 86 20 88 21 39 22 91 23
REMARK SMILES IDX 85 24 84 25 40 27 72 28 52 29 71 30 53 31 56 32 70 33 89 34
REMARK SMILES IDX 54 35 55 36 69 38 90 39 57 40 41 41 42 42 50 43 43 44 44 45
REMARK SMILES IDX 48 46 51 47 45 48 46 49 49 50 47 51 73 52 74 53 82 54 75 55
REMARK SMILES IDX 76 56 80 57 83 58 77 59 78 60 81 61 79 62 58 63 59 64 67 65
REMARK SMILES IDX 60 66 61 67 65 68 68 69 62 70 63 71 66 72 64 73 9 74 10 75
REMARK SMILES IDX 11 76 12 77 13 78 14 79 15 80 16 81 30 82 17 83 29 84 28 85
REMARK SMILES IDX 31 86 18 88 19 89 20 90 21 91 27 92 22 93 25 94 24 95 23 96
REMARK SMILES IDX 26 98
REMARK H PARENT 88 26 56 37 31 87 23 97 26 99
REMARK Flexibility Score: inf
ROOT
ATOM      1  C   UNL A   1      40.232  22.165  27.026  1.00  0.00     0.188 C 
ENDROOT
BRANCH   1   2
ATOM      2  C   UNL A   1      41.567  21.766  26.393  1.00  0.00     0.188 C 
BRANCH   2   3
ATOM      3  O   UNL A   1      42.026  20.515  26.926  1.00  0.00    -0.376 OA
BRANCH   3   4
ATOM      4  C   UNL A   1      41.833  19.411  26.039  1.00  0.00     0.202 C 
BRANCH   4   5
ATOM      5  C   UNL A   1      43.118  18.630  25.741  1.00  0.00     0.261 C 
BRANCH   5   6
ATOM      6  O   UNL A   1      43.728  19.053  24.510  1.00  0.00    -0.460 OA
BRANCH   6   7
ATOM      7  C   UNL A   1      44.826  19.832  24.349  1.00  0.00     0.338 C 
ATOM      8  O   UNL A   1      45.801  19.367  23.755  1.00  0.00    -0.246 OA
BRANCH   7   9
ATOM      9  C   UNL A   1      44.909  21.259  24.789  1.00  0.00     0.060 A 
ATOM     10  C   UNL A   1      44.552  22.369  24.024  1.00  0.00     0.016 A 
ATOM     11  C   UNL A   1      45.336  21.483  26.110  1.00  0.00     0.016 A 
ATOM     12  C   UNL A   1      44.736  23.665  24.503  1.00  0.00     0.010 A 
ATOM     13  C   UNL A   1      45.447  22.776  26.627  1.00  0.00     0.010 A 
ATOM     14  C   UNL A   1      45.195  23.877  25.803  1.00  0.00    -0.014 A 
BRANCH  14  15
ATOM     15  C   UNL A   1      45.512  25.250  26.244  1.00  0.00     0.031 A 
ATOM     16  C   UNL A   1      44.427  26.082  26.856  1.00  0.00     0.074 A 
ATOM     17  C   UNL A   1      46.773  25.711  26.182  1.00  0.00     0.049 A 
ATOM     18  N   UNL A   1      44.468  27.317  27.282  1.00  0.00    -0.248 NA
ATOM     19  C   UNL A   1      43.121  25.425  27.033  1.00  0.00     0.031 C 
ATOM     20  C   UNL A   1      47.922  24.941  25.715  1.00  0.00     0.029 A 
ATOM     21  N   UNL A   1      47.302  26.928  26.528  1.00  0.00    -0.354 N 
ATOM     22  C   UNL A   1      43.200  27.585  27.773  1.00  0.00     0.074 A 
ATOM     23  C   UNL A   1      42.400  26.398  27.566  1.00  0.00     0.031 C 
ATOM     24  C   UNL A   1      49.021  25.706  25.799  1.00  0.00     0.029 A 
ATOM     25  C   UNL A   1      48.642  27.035  26.256  1.00  0.00     0.049 A 
ATOM     26  H   UNL A   1      46.771  27.653  26.932  1.00  0.00     0.167 HD
ATOM     27  C   UNL A   1      42.749  28.720  28.356  1.00  0.00     0.037 A 
ATOM     28  C   UNL A   1      49.464  28.098  26.328  1.00  0.00     0.037 A 
ATOM     29  C   UNL A   1      43.555  29.894  28.549  1.00  0.00     0.049 A 
ATOM     30  C   UNL A   1      48.913  29.389  26.859  1.00  0.00     0.074 A 
ATOM     31  C   UNL A   1      43.197  31.111  29.097  1.00  0.00     0.029 A 
ATOM     32  N   UNL A   1      44.893  29.991  28.187  1.00  0.00    -0.354 N 
ATOM     33  N   UNL A   1      47.704  29.647  27.297  1.00  0.00    -0.248 NA
ATOM     34  C   UNL A   1      49.832  30.532  26.915  1.00  0.00     0.031 C 
ATOM     35  C   UNL A   1      44.309  31.959  29.031  1.00  0.00     0.029 A 
ATOM     36  C   UNL A   1      45.370  31.258  28.477  1.00  0.00     0.049 A 
ATOM     37  H   UNL A   1      45.423  29.266  27.784  1.00  0.00     0.167 HD
ATOM     38  C   UNL A   1      47.719  30.972  27.701  1.00  0.00     0.074 A 
ATOM     39  C   UNL A   1      49.063  31.463  27.463  1.00  0.00     0.031 C 
ATOM     40  C   UNL A   1      46.715  31.715  28.227  1.00  0.00     0.037 A 
BRANCH  27  41
ATOM     41  C   UNL A   1      41.309  28.737  28.769  1.00  0.00     0.064 A 
ATOM     42  C   UNL A   1      40.908  28.358  30.059  1.00  0.00     0.173 A 
ATOM     43  C   UNL A   1      40.314  29.087  27.847  1.00  0.00     0.173 A 
ATOM     44  F   UNL A   1      41.822  27.985  30.969  1.00  0.00    -0.203 F 
ATOM     45  C   UNL A   1      39.558  28.294  30.398  1.00  0.00     0.198 A 
ATOM     46  C   UNL A   1      38.967  29.045  28.195  1.00  0.00     0.198 A 
ATOM     47  F   UNL A   1      40.647  29.449  26.598  1.00  0.00    -0.203 F 
ATOM     48  F   UNL A   1      39.194  27.867  31.615  1.00  0.00    -0.200 F 
ATOM     49  C   UNL A   1      38.590  28.638  29.466  1.00  0.00     0.200 A 
ATOM     50  F   UNL A   1      38.032  29.377  27.294  1.00  0.00    -0.200 F 
ATOM     51  F   UNL A   1      37.291  28.559  29.788  1.00  0.00    -0.200 F 
ENDBRANCH  27  41
BRANCH  28  52
ATOM     52  C   UNL A   1      50.863  27.982  25.841  1.00  0.00     0.064 A 
ATOM     53  C   UNL A   1      51.930  27.751  26.718  1.00  0.00     0.173 A 
ATOM     54  C   UNL A   1      51.155  28.069  24.469  1.00  0.00     0.173 A 
ATOM     55  F   UNL A   1      51.706  27.670  28.037  1.00  0.00    -0.203 F 
ATOM     56  C   UNL A   1      53.235  27.621  26.245  1.00  0.00     0.198 A 
ATOM     57  C   UNL A   1      52.455  27.914  23.996  1.00  0.00     0.198 A 
ATOM     58  F   UNL A   1      50.169  28.274  23.583  1.00  0.00    -0.203 F 
ATOM     59  F   UNL A   1      54.242  27.422  27.107  1.00  0.00    -0.200 F 
ATOM     60  C   UNL A   1      53.495  27.694  24.884  1.00  0.00     0.200 A 
ATOM     61  F   UNL A   1      52.694  27.954  22.678  1.00  0.00    -0.200 F 
ATOM     62  F   UNL A   1      54.746  27.547  24.428  1.00  0.00    -0.200 F 
ENDBRANCH  28  52
BRANCH  40  63
ATOM     63  C   UNL A   1      47.043  33.127  28.596  1.00  0.00     0.064 A 
ATOM     64  C   UNL A   1      47.596  33.444  29.844  1.00  0.00     0.173 A 
ATOM     65  C   UNL A   1      46.838  34.165  27.676  1.00  0.00     0.173 A 
ATOM     66  F   UNL A   1      47.789  32.485  30.761  1.00  0.00    -0.203 F 
ATOM     67  C   UNL A   1      47.922  34.759  30.163  1.00  0.00     0.198 A 
ATOM     68  C   UNL A   1      47.186  35.474  27.991  1.00  0.00     0.198 A 
ATOM     69  F   UNL A   1      46.311  33.906  26.470  1.00  0.00    -0.203 F 
ATOM     70  F   UNL A   1      48.416  35.049  31.374  1.00  0.00    -0.200 F 
ATOM     71  C   UNL A   1      47.724  35.771  29.234  1.00  0.00     0.200 A 
ATOM     72  F   UNL A   1      47.001  36.449  27.090  1.00  0.00    -0.200 F 
ATOM     73  F   UNL A   1      48.045  37.035  29.542  1.00  0.00    -0.200 F 
ENDBRANCH  40  63
ENDBRANCH  14  15
ENDBRANCH   7   9
ENDBRANCH   6   7
ENDBRANCH   5   6
ENDBRANCH   4   5
ENDBRANCH   3   4
ENDBRANCH   2   3
ENDBRANCH   1   2
BRANCH   1  74
ATOM     74  O   UNL A   1      39.895  23.546  26.892  1.00  0.00    -0.376 OA
BRANCH  74  75
ATOM     75  C   UNL A   1      38.553  23.851  26.519  1.00  0.00     0.202 C 
BRANCH  75  76
ATOM     76  C   UNL A   1      37.790  22.765  25.753  1.00  0.00     0.261 C 
BRANCH  76  77
ATOM     77  O   UNL A   1      36.672  23.235  24.979  1.00  0.00    -0.460 OA
BRANCH  77  78
ATOM     78  C   UNL A   1      35.484  23.170  25.625  1.00  0.00     0.342 C 
ATOM     79  O   UNL A   1      35.298  23.095  26.836  1.00  0.00    -0.246 OA
BRANCH  78  80
ATOM     80  C   UNL A   1      34.365  23.181  24.677  1.00  0.00     0.102 A 
ATOM     81  C   UNL A   1      33.734  24.392  24.343  1.00  0.00     0.027 A 
ATOM     82  C   UNL A   1      33.810  21.959  24.289  1.00  0.00     0.130 A 
ATOM     83  C   UNL A   1      32.536  24.382  23.615  1.00  0.00    -0.025 A 
ATOM     84  C   UNL A   1      32.609  21.936  23.592  1.00  0.00     0.048 A 
ATOM     85  C   UNL A   1      31.984  23.139  23.254  1.00  0.00     0.012 A 
BRANCH  82  86
ATOM     86  O   UNL A   1      34.443  20.790  24.597  1.00  0.00    -0.507 OA
ATOM     87  H   UNL A   1      35.165  20.791  25.195  1.00  0.00     0.293 HD
ENDBRANCH  82  86
BRANCH  83  88
ATOM     88  C   UNL A   1      31.760  25.586  23.264  1.00  0.00     0.009 C 
ATOM     89  C   UNL A   1      30.547  25.947  23.712  1.00  0.00     0.009 C 
BRANCH  89  90
ATOM     90  C   UNL A   1      29.873  27.173  23.239  1.00  0.00    -0.018 A 
ATOM     91  C   UNL A   1      30.574  28.189  22.568  1.00  0.00     0.054 A 
ATOM     92  C   UNL A   1      28.491  27.314  23.424  1.00  0.00     0.054 A 
ATOM     93  C   UNL A   1      29.908  29.338  22.144  1.00  0.00     0.119 A 
ATOM     94  C   UNL A   1      27.846  28.477  22.999  1.00  0.00     0.119 A 
ATOM     95  C   UNL A   1      28.547  29.496  22.369  1.00  0.00     0.092 A 
BRANCH  93  96
ATOM     96  O   UNL A   1      30.567  30.342  21.495  1.00  0.00    -0.508 OA
ATOM     97  H   UNL A   1      31.327  30.729  21.881  1.00  0.00     0.293 HD
ENDBRANCH  93  96
BRANCH  94  98
ATOM     98  O   UNL A   1      26.505  28.651  23.190  1.00  0.00    -0.508 OA
ATOM     99  H   UNL A   1      25.984  27.943  23.514  1.00  0.00     0.293 HD
ENDBRANCH  94  98
ENDBRANCH  89  90
ENDBRANCH  83  88
ENDBRANCH  78  80
ENDBRANCH  77  78
ENDBRANCH  76  77
ENDBRANCH  75  76
ENDBRANCH  74  75
ENDBRANCH   1  74
TORSDOF 22
ENDMDL
