MODEL 1
REMARK VINA RESULT:     -11.9      0.000      0.000
REMARK SMILES COc1cccc(C(=O)Nc2ccc(NC(=O)[C@@H]3[C@@H](C(=O)OCCOCCOCCOC(=O)c4ccc(-c5c6nc(c(-c7c(F)c(F)c(F)c(F)c7F)c7ccc([nH]7)c(-c7c(F)c(F)c(F)c(F)c7F)c7nc(c(-c8c(F)c(F)c(F)c(F)c8F)c8ccc5[nH]8)C=C7)C=C6)cc4)[C@@H]4C=C[C@H]3C4)cc2)c1
REMARK SMILES IDX 25 1 24 2 23 3 22 4 20 5 21 6 19 7 18 8 100 9 97 10 99 11
REMARK SMILES IDX 101 12 98 13 16 14 15 15 17 17 14 18 11 19 12 20 103 21
REMARK SMILES IDX 13 22 102 23 10 24 8 25 9 26 7 28 3 29 4 30 104 31 5 32 6 33
REMARK SMILES IDX 2 34 1 35 26 36 27 37 28 38 29 39 30 40 31 41 32 42 33 43
REMARK SMILES IDX 34 44 35 45 96 46 36 47 95 48 37 49 38 50 39 51 89 52 40 53
REMARK SMILES IDX 94 54 88 55 90 56 41 57 93 58 87 59 86 60 42 62 74 63 54 64
REMARK SMILES IDX 73 65 55 66 58 67 72 68 91 69 56 70 57 71 71 73 92 74 59 75
REMARK SMILES IDX 43 76 44 77 52 78 45 79 46 80 50 81 53 82 47 83 48 84 51 85
REMARK SMILES IDX 49 86 75 87 76 88 84 89 77 90 78 91 82 92 85 93 79 94 80 95
REMARK SMILES IDX 83 96 81 97 60 98 61 99 69 100 62 101 63 102 67 103 70 104
REMARK SMILES IDX 64 105 65 106 68 107 66 108
REMARK H PARENT 15 16 10 27 90 61 58 72
REMARK Flexibility Score: inf
ROOT
ATOM      1  O   UNL A   1      34.438  30.590  27.649  1.00  0.00    -0.376 OA
ENDROOT
BRANCH   1   2
ATOM      2  C   UNL A   1      33.575  29.913  26.738  1.00  0.00     0.202 C 
BRANCH   2   3
ATOM      3  C   UNL A   1      33.836  28.417  26.503  1.00  0.00     0.261 C 
BRANCH   3   4
ATOM      4  O   UNL A   1      32.994  27.783  25.505  1.00  0.00    -0.463 OA
BRANCH   4   5
ATOM      5  C   UNL A   1      31.676  27.719  25.831  1.00  0.00     0.310 C 
ATOM      6  O   UNL A   1      31.253  27.270  26.892  1.00  0.00    -0.252 OA
BRANCH   5   7
ATOM      7  C   UNL A   1      30.719  28.208  24.770  1.00  0.00     0.119 C 
ATOM      8  C   UNL A   1      30.426  27.213  23.622  1.00  0.00     0.100 C 
ATOM      9  C   UNL A   1      30.138  28.168  22.436  1.00  0.00     0.025 C 
ATOM     10  C   UNL A   1      31.007  29.525  24.002  1.00  0.00     0.027 C 
ATOM     11  C   UNL A   1      29.107  29.232  22.741  1.00  0.00    -0.027 C 
ATOM     12  C   UNL A   1      31.392  29.051  22.593  1.00  0.00     0.017 C 
ATOM     13  C   UNL A   1      29.641  30.074  23.641  1.00  0.00    -0.027 C 
BRANCH   8  14
ATOM     14  C   UNL A   1      29.362  26.240  24.053  1.00  0.00     0.228 C 
ATOM     15  N   UNL A   1      29.682  25.009  24.564  1.00  0.00    -0.326 N 
ATOM     16  H   UNL A   1      28.951  24.612  25.090  1.00  0.00     0.169 HD
ATOM     17  O   UNL A   1      28.166  26.536  23.999  1.00  0.00    -0.274 OA
BRANCH  15  18
ATOM     18  C   UNL A   1      30.827  24.181  24.503  1.00  0.00     0.041 A 
ATOM     19  C   UNL A   1      32.522  21.965  24.728  1.00  0.00     0.041 A 
ATOM     20  C   UNL A   1      32.208  22.463  23.474  1.00  0.00     0.028 A 
ATOM     21  C   UNL A   1      32.225  22.723  25.855  1.00  0.00     0.028 A 
ATOM     22  C   UNL A   1      31.349  23.557  23.373  1.00  0.00     0.028 A 
ATOM     23  C   UNL A   1      31.390  23.841  25.739  1.00  0.00     0.028 A 
BRANCH  19  24
ATOM     24  N   UNL A   1      33.011  20.658  24.780  1.00  0.00    -0.322 N 
ATOM     25  C   UNL A   1      34.310  20.197  24.692  1.00  0.00     0.255 C 
ATOM     26  O   UNL A   1      34.498  18.980  24.667  1.00  0.00    -0.269 OA
ATOM     27  H   UNL A   1      32.327  19.960  24.899  1.00  0.00     0.170 HD
BRANCH  25  28
ATOM     28  C   UNL A   1      35.497  21.105  24.706  1.00  0.00     0.043 A 
ATOM     29  C   UNL A   1      37.705  21.784  25.473  1.00  0.00     0.119 A 
ATOM     30  C   UNL A   1      37.591  22.946  24.705  1.00  0.00     0.046 A 
ATOM     31  C   UNL A   1      36.684  20.834  25.415  1.00  0.00     0.060 A 
ATOM     32  C   UNL A   1      36.471  23.173  23.907  1.00  0.00     0.005 A 
ATOM     33  C   UNL A   1      35.419  22.259  23.918  1.00  0.00     0.014 A 
BRANCH  29  34
ATOM     34  O   UNL A   1      38.846  21.729  26.218  1.00  0.00    -0.497 OA
ATOM     35  C   UNL A   1      39.456  22.925  26.681  1.00  0.00     0.278 C 
ENDBRANCH  29  34
ENDBRANCH  25  28
ENDBRANCH  19  24
ENDBRANCH  15  18
ENDBRANCH   8  14
ENDBRANCH   5   7
ENDBRANCH   4   5
ENDBRANCH   3   4
ENDBRANCH   2   3
ENDBRANCH   1   2
BRANCH   1  36
ATOM     36  C   UNL A   1      34.080  31.922  27.978  1.00  0.00     0.188 C 
BRANCH  36  37
ATOM     37  C   UNL A   1      35.210  32.857  28.424  1.00  0.00     0.188 C 
BRANCH  37  38
ATOM     38  O   UNL A   1      34.816  34.044  29.099  1.00  0.00    -0.376 OA
BRANCH  38  39
ATOM     39  C   UNL A   1      33.689  34.742  28.553  1.00  0.00     0.202 C 
BRANCH  39  40
ATOM     40  C   UNL A   1      33.001  35.773  29.471  1.00  0.00     0.261 C 
BRANCH  40  41
ATOM     41  O   UNL A   1      32.381  35.206  30.647  1.00  0.00    -0.460 OA
BRANCH  41  42
ATOM     42  C   UNL A   1      32.729  35.734  31.846  1.00  0.00     0.338 C 
ATOM     43  O   UNL A   1      32.083  36.526  32.499  1.00  0.00    -0.246 OA
BRANCH  42  44
ATOM     44  C   UNL A   1      33.903  34.977  32.372  1.00  0.00     0.060 A 
ATOM     45  C   UNL A   1      35.156  35.602  32.315  1.00  0.00     0.016 A 
ATOM     46  C   UNL A   1      33.784  33.727  32.987  1.00  0.00     0.016 A 
ATOM     47  C   UNL A   1      36.291  34.974  32.833  1.00  0.00     0.010 A 
ATOM     48  C   UNL A   1      34.925  33.085  33.487  1.00  0.00     0.010 A 
ATOM     49  C   UNL A   1      36.190  33.690  33.382  1.00  0.00    -0.014 A 
BRANCH  49  50
ATOM     50  C   UNL A   1      37.426  32.896  33.610  1.00  0.00     0.031 A 
ATOM     51  C   UNL A   1      38.192  33.138  34.883  1.00  0.00     0.074 A 
ATOM     52  C   UNL A   1      37.845  31.948  32.753  1.00  0.00     0.049 A 
ATOM     53  N   UNL A   1      39.304  32.593  35.308  1.00  0.00    -0.248 NA
ATOM     54  C   UNL A   1      37.616  34.129  35.806  1.00  0.00     0.031 C 
ATOM     55  C   UNL A   1      37.172  31.559  31.518  1.00  0.00     0.029 A 
ATOM     56  N   UNL A   1      38.953  31.135  32.803  1.00  0.00    -0.354 N 
ATOM     57  C   UNL A   1      39.556  33.171  36.544  1.00  0.00     0.074 A 
ATOM     58  C   UNL A   1      38.504  34.133  36.788  1.00  0.00     0.031 C 
ATOM     59  C   UNL A   1      37.885  30.587  30.920  1.00  0.00     0.029 A 
ATOM     60  C   UNL A   1      39.083  30.307  31.715  1.00  0.00     0.049 A 
ATOM     61  H   UNL A   1      39.594  31.145  33.550  1.00  0.00     0.167 HD
ATOM     62  C   UNL A   1      40.569  32.921  37.407  1.00  0.00     0.037 A 
ATOM     63  C   UNL A   1      40.065  29.441  31.390  1.00  0.00     0.037 A 
ATOM     64  C   UNL A   1      41.628  31.978  37.172  1.00  0.00     0.049 A 
ATOM     65  C   UNL A   1      41.244  29.260  32.319  1.00  0.00     0.074 A 
ATOM     66  C   UNL A   1      42.701  31.666  37.987  1.00  0.00     0.029 A 
ATOM     67  N   UNL A   1      41.754  31.204  36.029  1.00  0.00    -0.354 N 
ATOM     68  N   UNL A   1      41.470  29.802  33.491  1.00  0.00    -0.248 NA
ATOM     69  C   UNL A   1      42.306  28.343  31.874  1.00  0.00     0.031 C 
ATOM     70  C   UNL A   1      43.507  30.742  37.315  1.00  0.00     0.029 A 
ATOM     71  C   UNL A   1      42.903  30.433  36.106  1.00  0.00     0.049 A 
ATOM     72  H   UNL A   1      41.121  31.201  35.275  1.00  0.00     0.167 HD
ATOM     73  C   UNL A   1      42.674  29.265  33.937  1.00  0.00     0.074 A 
ATOM     74  C   UNL A   1      43.128  28.349  32.913  1.00  0.00     0.031 C 
ATOM     75  C   UNL A   1      43.342  29.510  35.092  1.00  0.00     0.037 A 
BRANCH  62  76
ATOM     76  C   UNL A   1      40.593  33.714  38.681  1.00  0.00     0.064 A 
ATOM     77  C   UNL A   1      39.837  33.335  39.800  1.00  0.00     0.173 A 
ATOM     78  C   UNL A   1      41.394  34.860  38.785  1.00  0.00     0.173 A 
ATOM     79  F   UNL A   1      39.039  32.258  39.744  1.00  0.00    -0.203 F 
ATOM     80  C   UNL A   1      39.862  34.092  40.968  1.00  0.00     0.198 A 
ATOM     81  C   UNL A   1      41.440  35.597  39.965  1.00  0.00     0.198 A 
ATOM     82  F   UNL A   1      42.135  35.265  37.742  1.00  0.00    -0.203 F 
ATOM     83  F   UNL A   1      39.090  33.743  42.007  1.00  0.00    -0.200 F 
ATOM     84  C   UNL A   1      40.668  35.217  41.051  1.00  0.00     0.200 A 
ATOM     85  F   UNL A   1      42.227  36.679  40.046  1.00  0.00    -0.200 F 
ATOM     86  F   UNL A   1      40.692  35.944  42.178  1.00  0.00    -0.200 F 
ENDBRANCH  62  76
BRANCH  63  87
ATOM     87  C   UNL A   1      40.004  28.682  30.111  1.00  0.00     0.064 A 
ATOM     88  C   UNL A   1      39.402  27.417  30.045  1.00  0.00     0.173 A 
ATOM     89  C   UNL A   1      40.598  29.180  28.943  1.00  0.00     0.173 A 
ATOM     90  F   UNL A   1      38.853  26.879  31.145  1.00  0.00    -0.203 F 
ATOM     91  C   UNL A   1      39.416  26.672  28.868  1.00  0.00     0.198 A 
ATOM     92  C   UNL A   1      40.586  28.447  27.757  1.00  0.00     0.198 A 
ATOM     93  F   UNL A   1      41.200  30.379  28.953  1.00  0.00    -0.203 F 
ATOM     94  F   UNL A   1      38.887  25.441  28.850  1.00  0.00    -0.200 F 
ATOM     95  C   UNL A   1      40.004  27.189  27.722  1.00  0.00     0.200 A 
ATOM     96  F   UNL A   1      41.151  28.953  26.653  1.00  0.00    -0.200 F 
ATOM     97  F   UNL A   1      40.023  26.470  26.593  1.00  0.00    -0.200 F 
ENDBRANCH  63  87
BRANCH  75  98
ATOM     98  C   UNL A   1      44.609  28.743  35.345  1.00  0.00     0.064 A 
ATOM     99  C   UNL A   1      45.868  29.252  34.990  1.00  0.00     0.173 A 
ATOM    100  C   UNL A   1      44.567  27.504  36.004  1.00  0.00     0.173 A 
ATOM    101  F   UNL A   1      45.965  30.427  34.350  1.00  0.00    -0.203 F 
ATOM    102  C   UNL A   1      47.033  28.538  35.263  1.00  0.00     0.198 A 
ATOM    103  C   UNL A   1      45.736  26.807  36.303  1.00  0.00     0.198 A 
ATOM    104  F   UNL A   1      43.392  26.975  36.376  1.00  0.00    -0.203 F 
ATOM    105  F   UNL A   1      48.220  29.022  34.875  1.00  0.00    -0.200 F 
ATOM    106  C   UNL A   1      46.966  27.321  35.926  1.00  0.00     0.200 A 
ATOM    107  F   UNL A   1      45.670  25.641  36.959  1.00  0.00    -0.200 F 
ATOM    108  F   UNL A   1      48.089  26.641  36.196  1.00  0.00    -0.200 F 
ENDBRANCH  75  98
ENDBRANCH  49  50
ENDBRANCH  42  44
ENDBRANCH  41  42
ENDBRANCH  40  41
ENDBRANCH  39  40
ENDBRANCH  38  39
ENDBRANCH  37  38
ENDBRANCH  36  37
ENDBRANCH   1  36
TORSDOF 22
ENDMDL
MODEL 2
REMARK VINA RESULT:     -11.9      4.736      7.438
REMARK SMILES COc1cccc(C(=O)Nc2ccc(NC(=O)[C@@H]3[C@@H](C(=O)OCCOCCOCCOC(=O)c4ccc(-c5c6nc(c(-c7c(F)c(F)c(F)c(F)c7F)c7ccc([nH]7)c(-c7c(F)c(F)c(F)c(F)c7F)c7nc(c(-c8c(F)c(F)c(F)c(F)c8F)c8ccc5[nH]8)C=C7)C=C6)cc4)[C@@H]4C=C[C@H]3C4)cc2)c1
REMARK SMILES IDX 25 1 24 2 23 3 22 4 20 5 21 6 19 7 18 8 100 9 97 10 99 11
REMARK SMILES IDX 101 12 98 13 16 14 15 15 17 17 14 18 11 19 12 20 103 21
REMARK SMILES IDX 13 22 102 23 10 24 8 25 9 26 7 28 3 29 4 30 104 31 5 32 6 33
REMARK SMILES IDX 2 34 1 35 26 36 27 37 28 38 29 39 30 40 31 41 32 42 33 43
REMARK SMILES IDX 34 44 35 45 96 46 36 47 95 48 37 49 38 50 39 51 89 52 40 53
REMARK SMILES IDX 94 54 88 55 90 56 41 57 93 58 87 59 86 60 42 62 74 63 54 64
REMARK SMILES IDX 73 65 55 66 58 67 72 68 91 69 56 70 57 71 71 73 92 74 59 75
REMARK SMILES IDX 43 76 44 77 52 78 45 79 46 80 50 81 53 82 47 83 48 84 51 85
REMARK SMILES IDX 49 86 75 87 76 88 84 89 77 90 78 91 82 92 85 93 79 94 80 95
REMARK SMILES IDX 83 96 81 97 60 98 61 99 69 100 62 101 63 102 67 103 70 104
REMARK SMILES IDX 64 105 65 106 68 107 66 108
REMARK H PARENT 15 16 10 27 90 61 58 72
REMARK Flexibility Score: inf
ROOT
ATOM      1  O   UNL A   1      34.886  31.725  27.651  1.00  0.00    -0.376 OA
ENDROOT
BRANCH   1   2
ATOM      2  C   UNL A   1      33.818  30.897  27.197  1.00  0.00     0.202 C 
BRANCH   2   3
ATOM      3  C   UNL A   1      34.034  29.377  27.254  1.00  0.00     0.261 C 
BRANCH   3   4
ATOM      4  O   UNL A   1      33.344  28.606  26.236  1.00  0.00    -0.463 OA
BRANCH   4   5
ATOM      5  C   UNL A   1      32.006  28.472  26.433  1.00  0.00     0.310 C 
ATOM      6  O   UNL A   1      31.483  28.357  27.538  1.00  0.00    -0.252 OA
BRANCH   5   7
ATOM      7  C   UNL A   1      31.165  28.430  25.180  1.00  0.00     0.119 C 
ATOM      8  C   UNL A   1      31.327  27.164  24.306  1.00  0.00     0.100 C 
ATOM      9  C   UNL A   1      31.035  27.715  22.887  1.00  0.00     0.025 C 
ATOM     10  C   UNL A   1      31.262  29.571  24.133  1.00  0.00     0.027 C 
ATOM     11  C   UNL A   1      29.743  28.494  22.784  1.00  0.00    -0.027 C 
ATOM     12  C   UNL A   1      31.994  28.920  22.949  1.00  0.00     0.017 C 
ATOM     13  C   UNL A   1      29.891  29.628  23.488  1.00  0.00    -0.027 C 
BRANCH   8  14
ATOM     14  C   UNL A   1      30.466  26.057  24.852  1.00  0.00     0.228 C 
ATOM     15  N   UNL A   1      30.955  25.150  25.757  1.00  0.00    -0.326 N 
ATOM     16  H   UNL A   1      30.244  24.697  26.265  1.00  0.00     0.169 HD
ATOM     17  O   UNL A   1      29.279  25.955  24.535  1.00  0.00    -0.274 OA
BRANCH  15  18
ATOM     18  C   UNL A   1      32.252  24.719  26.122  1.00  0.00     0.041 A 
ATOM     19  C   UNL A   1      34.590  23.193  26.320  1.00  0.00     0.041 A 
ATOM     20  C   UNL A   1      34.636  24.442  25.724  1.00  0.00     0.028 A 
ATOM     21  C   UNL A   1      33.464  22.828  27.051  1.00  0.00     0.028 A 
ATOM     22  C   UNL A   1      33.462  25.188  25.616  1.00  0.00     0.028 A 
ATOM     23  C   UNL A   1      32.300  23.601  26.963  1.00  0.00     0.028 A 
BRANCH  19  24
ATOM     24  N   UNL A   1      35.644  22.322  26.035  1.00  0.00    -0.322 N 
ATOM     25  C   UNL A   1      35.625  21.079  25.436  1.00  0.00     0.255 C 
ATOM     26  O   UNL A   1      36.678  20.443  25.374  1.00  0.00    -0.269 OA
ATOM     27  H   UNL A   1      36.536  22.644  26.301  1.00  0.00     0.170 HD
BRANCH  25  28
ATOM     28  C   UNL A   1      34.404  20.507  24.791  1.00  0.00     0.043 A 
ATOM     29  C   UNL A   1      32.870  18.691  24.271  1.00  0.00     0.119 A 
ATOM     30  C   UNL A   1      32.155  19.560  23.442  1.00  0.00     0.046 A 
ATOM     31  C   UNL A   1      33.952  19.188  24.997  1.00  0.00     0.060 A 
ATOM     32  C   UNL A   1      32.522  20.899  23.319  1.00  0.00     0.005 A 
ATOM     33  C   UNL A   1      33.653  21.369  23.983  1.00  0.00     0.014 A 
BRANCH  29  34
ATOM     34  O   UNL A   1      32.399  17.410  24.256  1.00  0.00    -0.497 OA
ATOM     35  C   UNL A   1      33.277  16.329  23.975  1.00  0.00     0.278 C 
ENDBRANCH  29  34
ENDBRANCH  25  28
ENDBRANCH  19  24
ENDBRANCH  15  18
ENDBRANCH   8  14
ENDBRANCH   5   7
ENDBRANCH   4   5
ENDBRANCH   3   4
ENDBRANCH   2   3
ENDBRANCH   1   2
BRANCH   1  36
ATOM     36  C   UNL A   1      34.512  32.926  28.306  1.00  0.00     0.188 C 
BRANCH  36  37
ATOM     37  C   UNL A   1      34.860  33.045  29.794  1.00  0.00     0.188 C 
BRANCH  37  38
ATOM     38  O   UNL A   1      33.976  33.824  30.588  1.00  0.00    -0.376 OA
BRANCH  38  39
ATOM     39  C   UNL A   1      34.475  34.250  31.863  1.00  0.00     0.202 C 
BRANCH  39  40
ATOM     40  C   UNL A   1      34.429  33.216  33.006  1.00  0.00     0.261 C 
BRANCH  40  41
ATOM     41  O   UNL A   1      35.299  32.077  32.817  1.00  0.00    -0.460 OA
BRANCH  41  42
ATOM     42  C   UNL A   1      36.537  32.146  33.364  1.00  0.00     0.338 C 
ATOM     43  O   UNL A   1      36.804  32.469  34.503  1.00  0.00    -0.246 OA
BRANCH  42  44
ATOM     44  C   UNL A   1      37.502  31.492  32.432  1.00  0.00     0.060 A 
ATOM     45  C   UNL A   1      38.420  30.586  32.981  1.00  0.00     0.016 A 
ATOM     46  C   UNL A   1      37.466  31.682  31.047  1.00  0.00     0.016 A 
ATOM     47  C   UNL A   1      39.321  29.900  32.162  1.00  0.00     0.010 A 
ATOM     48  C   UNL A   1      38.383  31.012  30.227  1.00  0.00     0.010 A 
ATOM     49  C   UNL A   1      39.338  30.143  30.784  1.00  0.00    -0.014 A 
BRANCH  49  50
ATOM     50  C   UNL A   1      40.501  29.687  29.978  1.00  0.00     0.031 A 
ATOM     51  C   UNL A   1      41.614  30.670  29.732  1.00  0.00     0.074 A 
ATOM     52  C   UNL A   1      40.611  28.429  29.514  1.00  0.00     0.049 A 
ATOM     53  N   UNL A   1      42.722  30.528  29.050  1.00  0.00    -0.248 NA
ATOM     54  C   UNL A   1      41.454  31.997  30.350  1.00  0.00     0.031 C 
ATOM     55  C   UNL A   1      39.648  27.355  29.729  1.00  0.00     0.029 A 
ATOM     56  N   UNL A   1      41.602  27.848  28.756  1.00  0.00    -0.354 N 
ATOM     57  C   UNL A   1      43.389  31.741  29.160  1.00  0.00     0.074 A 
ATOM     58  C   UNL A   1      42.549  32.619  29.945  1.00  0.00     0.031 C 
ATOM     59  C   UNL A   1      40.089  26.244  29.110  1.00  0.00     0.029 A 
ATOM     60  C   UNL A   1      41.352  26.539  28.428  1.00  0.00     0.049 A 
ATOM     61  H   UNL A   1      42.415  28.327  28.476  1.00  0.00     0.167 HD
ATOM     62  C   UNL A   1      44.597  32.093  28.662  1.00  0.00     0.037 A 
ATOM     63  C   UNL A   1      42.050  25.685  27.650  1.00  0.00     0.037 A 
ATOM     64  C   UNL A   1      45.435  31.235  27.870  1.00  0.00     0.049 A 
ATOM     65  C   UNL A   1      43.343  26.139  27.012  1.00  0.00     0.074 A 
ATOM     66  C   UNL A   1      46.672  31.511  27.315  1.00  0.00     0.029 A 
ATOM     67  N   UNL A   1      45.116  29.935  27.511  1.00  0.00    -0.354 N 
ATOM     68  N   UNL A   1      43.973  27.282  27.130  1.00  0.00    -0.248 NA
ATOM     69  C   UNL A   1      44.022  25.175  26.130  1.00  0.00     0.031 C 
ATOM     70  C   UNL A   1      47.078  30.398  26.573  1.00  0.00     0.029 A 
ATOM     71  C   UNL A   1      46.121  29.405  26.717  1.00  0.00     0.049 A 
ATOM     72  H   UNL A   1      44.297  29.459  27.779  1.00  0.00     0.167 HD
ATOM     73  C   UNL A   1      45.133  27.162  26.372  1.00  0.00     0.074 A 
ATOM     74  C   UNL A   1      45.126  25.832  25.804  1.00  0.00     0.031 C 
ATOM     75  C   UNL A   1      46.117  28.074  26.168  1.00  0.00     0.037 A 
BRANCH  62  76
ATOM     76  C   UNL A   1      45.068  33.491  28.935  1.00  0.00     0.064 A 
ATOM     77  C   UNL A   1      45.873  33.796  30.042  1.00  0.00     0.173 A 
ATOM     78  C   UNL A   1      44.717  34.537  28.068  1.00  0.00     0.173 A 
ATOM     79  F   UNL A   1      46.218  32.835  30.912  1.00  0.00    -0.203 F 
ATOM     80  C   UNL A   1      46.287  35.102  30.286  1.00  0.00     0.198 A 
ATOM     81  C   UNL A   1      45.159  35.836  28.299  1.00  0.00     0.198 A 
ATOM     82  F   UNL A   1      43.947  34.298  26.996  1.00  0.00    -0.203 F 
ATOM     83  F   UNL A   1      47.011  35.381  31.380  1.00  0.00    -0.200 F 
ATOM     84  C   UNL A   1      45.936  36.119  29.411  1.00  0.00     0.200 A 
ATOM     85  F   UNL A   1      44.825  36.816  27.447  1.00  0.00    -0.200 F 
ATOM     86  F   UNL A   1      46.338  37.376  29.646  1.00  0.00    -0.200 F 
ENDBRANCH  62  76
BRANCH  63  87
ATOM     87  C   UNL A   1      41.540  24.309  27.400  1.00  0.00     0.064 A 
ATOM     88  C   UNL A   1      40.402  24.088  26.612  1.00  0.00     0.173 A 
ATOM     89  C   UNL A   1      42.147  23.193  27.993  1.00  0.00     0.173 A 
ATOM     90  F   UNL A   1      39.762  25.127  26.054  1.00  0.00    -0.203 F 
ATOM     91  C   UNL A   1      39.878  22.807  26.446  1.00  0.00     0.198 A 
ATOM     92  C   UNL A   1      41.640  21.908  27.801  1.00  0.00     0.198 A 
ATOM     93  F   UNL A   1      43.231  23.349  28.768  1.00  0.00    -0.203 F 
ATOM     94  F   UNL A   1      38.753  22.633  25.737  1.00  0.00    -0.200 F 
ATOM     95  C   UNL A   1      40.501  21.717  27.036  1.00  0.00     0.200 A 
ATOM     96  F   UNL A   1      42.248  20.859  28.370  1.00  0.00    -0.200 F 
ATOM     97  F   UNL A   1      39.993  20.487  26.881  1.00  0.00    -0.200 F 
ENDBRANCH  63  87
BRANCH  75  98
ATOM     98  C   UNL A   1      47.298  27.656  25.337  1.00  0.00     0.064 A 
ATOM     99  C   UNL A   1      48.425  27.042  25.905  1.00  0.00     0.173 A 
ATOM    100  C   UNL A   1      47.277  27.824  23.943  1.00  0.00     0.173 A 
ATOM    101  F   UNL A   1      48.500  26.867  27.233  1.00  0.00    -0.203 F 
ATOM    102  C   UNL A   1      49.495  26.635  25.112  1.00  0.00     0.198 A 
ATOM    103  C   UNL A   1      48.336  27.387  23.150  1.00  0.00     0.198 A 
ATOM    104  F   UNL A   1      46.221  28.396  23.346  1.00  0.00    -0.203 F 
ATOM    105  F   UNL A   1      50.580  26.091  25.680  1.00  0.00    -0.200 F 
ATOM    106  C   UNL A   1      49.446  26.800  23.735  1.00  0.00     0.200 A 
ATOM    107  F   UNL A   1      48.278  27.532  21.819  1.00  0.00    -0.200 F 
ATOM    108  F   UNL A   1      50.473  26.398  22.973  1.00  0.00    -0.200 F 
ENDBRANCH  75  98
ENDBRANCH  49  50
ENDBRANCH  42  44
ENDBRANCH  41  42
ENDBRANCH  40  41
ENDBRANCH  39  40
ENDBRANCH  38  39
ENDBRANCH  37  38
ENDBRANCH  36  37
ENDBRANCH   1  36
TORSDOF 22
ENDMDL
MODEL 3
REMARK VINA RESULT:     -11.5      0.836      2.177
REMARK SMILES COc1cccc(C(=O)Nc2ccc(NC(=O)[C@@H]3[C@@H](C(=O)OCCOCCOCCOC(=O)c4ccc(-c5c6nc(c(-c7c(F)c(F)c(F)c(F)c7F)c7ccc([nH]7)c(-c7c(F)c(F)c(F)c(F)c7F)c7nc(c(-c8c(F)c(F)c(F)c(F)c8F)c8ccc5[nH]8)C=C7)C=C6)cc4)[C@@H]4C=C[C@H]3C4)cc2)c1
REMARK SMILES IDX 25 1 24 2 23 3 22 4 20 5 21 6 19 7 18 8 100 9 97 10 99 11
REMARK SMILES IDX 101 12 98 13 16 14 15 15 17 17 14 18 11 19 12 20 103 21
REMARK SMILES IDX 13 22 102 23 10 24 8 25 9 26 7 28 3 29 4 30 104 31 5 32 6 33
REMARK SMILES IDX 2 34 1 35 26 36 27 37 28 38 29 39 30 40 31 41 32 42 33 43
REMARK SMILES IDX 34 44 35 45 96 46 36 47 95 48 37 49 38 50 39 51 89 52 40 53
REMARK SMILES IDX 94 54 88 55 90 56 41 57 93 58 87 59 86 60 42 62 74 63 54 64
REMARK SMILES IDX 73 65 55 66 58 67 72 68 91 69 56 70 57 71 71 73 92 74 59 75
REMARK SMILES IDX 43 76 44 77 52 78 45 79 46 80 50 81 53 82 47 83 48 84 51 85
REMARK SMILES IDX 49 86 75 87 76 88 84 89 77 90 78 91 82 92 85 93 79 94 80 95
REMARK SMILES IDX 83 96 81 97 60 98 61 99 69 100 62 101 63 102 67 103 70 104
REMARK SMILES IDX 64 105 65 106 68 107 66 108
REMARK H PARENT 15 16 10 27 90 61 58 72
REMARK Flexibility Score: inf
ROOT
ATOM      1  O   UNL A   1      35.206  30.709  28.121  1.00  0.00    -0.376 OA
ENDROOT
BRANCH   1   2
ATOM      2  C   UNL A   1      34.656  29.567  27.468  1.00  0.00     0.202 C 
BRANCH   2   3
ATOM      3  C   UNL A   1      33.367  29.773  26.658  1.00  0.00     0.261 C 
BRANCH   3   4
ATOM      4  O   UNL A   1      33.016  28.695  25.753  1.00  0.00    -0.463 OA
BRANCH   4   5
ATOM      5  C   UNL A   1      31.778  28.169  25.947  1.00  0.00     0.310 C 
ATOM      6  O   UNL A   1      31.457  27.516  26.936  1.00  0.00    -0.252 OA
BRANCH   5   7
ATOM      7  C   UNL A   1      30.789  28.402  24.830  1.00  0.00     0.119 C 
ATOM      8  C   UNL A   1      30.686  27.271  23.780  1.00  0.00     0.100 C 
ATOM      9  C   UNL A   1      30.290  28.054  22.503  1.00  0.00     0.025 C 
ATOM     10  C   UNL A   1      30.895  29.670  23.942  1.00  0.00     0.027 C 
ATOM     11  C   UNL A   1      29.100  28.970  22.688  1.00  0.00    -0.027 C 
ATOM     12  C   UNL A   1      31.389  29.131  22.591  1.00  0.00     0.017 C 
ATOM     13  C   UNL A   1      29.472  29.965  23.509  1.00  0.00    -0.027 C 
BRANCH   8  14
ATOM     14  C   UNL A   1      29.770  26.190  24.288  1.00  0.00     0.228 C 
ATOM     15  N   UNL A   1      30.248  25.129  25.013  1.00  0.00    -0.326 N 
ATOM     16  H   UNL A   1      29.549  24.683  25.544  1.00  0.00     0.169 HD
ATOM     17  O   UNL A   1      28.552  26.246  24.104  1.00  0.00    -0.274 OA
BRANCH  15  18
ATOM     18  C   UNL A   1      31.520  24.530  25.166  1.00  0.00     0.041 A 
ATOM     19  C   UNL A   1      34.292  24.184  25.360  1.00  0.00     0.041 A 
ATOM     20  C   UNL A   1      33.490  23.926  26.460  1.00  0.00     0.028 A 
ATOM     21  C   UNL A   1      33.701  24.342  24.110  1.00  0.00     0.028 A 
ATOM     22  C   UNL A   1      32.112  24.117  26.358  1.00  0.00     0.028 A 
ATOM     23  C   UNL A   1      32.314  24.499  24.013  1.00  0.00     0.028 A 
BRANCH  19  24
ATOM     24  N   UNL A   1      35.649  24.396  25.609  1.00  0.00    -0.322 N 
ATOM     25  C   UNL A   1      36.684  23.486  25.690  1.00  0.00     0.255 C 
ATOM     26  O   UNL A   1      37.799  23.895  26.018  1.00  0.00    -0.269 OA
ATOM     27  H   UNL A   1      35.908  25.336  25.745  1.00  0.00     0.170 HD
BRANCH  25  28
ATOM     28  C   UNL A   1      36.530  22.045  25.322  1.00  0.00     0.043 A 
ATOM     29  C   UNL A   1      35.217  20.067  24.788  1.00  0.00     0.119 A 
ATOM     30  C   UNL A   1      36.398  19.321  24.742  1.00  0.00     0.046 A 
ATOM     31  C   UNL A   1      35.295  21.443  25.009  1.00  0.00     0.060 A 
ATOM     32  C   UNL A   1      37.638  19.928  24.934  1.00  0.00     0.005 A 
ATOM     33  C   UNL A   1      37.703  21.286  25.236  1.00  0.00     0.014 A 
BRANCH  29  34
ATOM     34  O   UNL A   1      34.090  19.319  24.609  1.00  0.00    -0.497 OA
ATOM     35  C   UNL A   1      33.100  19.263  25.625  1.00  0.00     0.278 C 
ENDBRANCH  29  34
ENDBRANCH  25  28
ENDBRANCH  19  24
ENDBRANCH  15  18
ENDBRANCH   8  14
ENDBRANCH   5   7
ENDBRANCH   4   5
ENDBRANCH   3   4
ENDBRANCH   2   3
ENDBRANCH   1   2
BRANCH   1  36
ATOM     36  C   UNL A   1      34.733  31.971  27.679  1.00  0.00     0.188 C 
BRANCH  36  37
ATOM     37  C   UNL A   1      34.004  32.840  28.708  1.00  0.00     0.188 C 
BRANCH  37  38
ATOM     38  O   UNL A   1      34.606  34.090  29.018  1.00  0.00    -0.376 OA
BRANCH  38  39
ATOM     39  C   UNL A   1      33.974  35.254  28.470  1.00  0.00     0.202 C 
BRANCH  39  40
ATOM     40  C   UNL A   1      33.024  36.032  29.403  1.00  0.00     0.261 C 
BRANCH  40  41
ATOM     41  O   UNL A   1      32.449  35.240  30.466  1.00  0.00    -0.460 OA
BRANCH  41  42
ATOM     42  C   UNL A   1      32.679  35.649  31.737  1.00  0.00     0.338 C 
ATOM     43  O   UNL A   1      31.943  36.330  32.420  1.00  0.00    -0.246 OA
BRANCH  42  44
ATOM     44  C   UNL A   1      33.857  34.900  32.268  1.00  0.00     0.060 A 
ATOM     45  C   UNL A   1      35.109  35.525  32.197  1.00  0.00     0.016 A 
ATOM     46  C   UNL A   1      33.742  33.658  32.901  1.00  0.00     0.016 A 
ATOM     47  C   UNL A   1      36.247  34.905  32.718  1.00  0.00     0.010 A 
ATOM     48  C   UNL A   1      34.886  33.024  33.405  1.00  0.00     0.010 A 
ATOM     49  C   UNL A   1      36.149  33.629  33.285  1.00  0.00    -0.014 A 
BRANCH  49  50
ATOM     50  C   UNL A   1      37.387  32.838  33.518  1.00  0.00     0.031 A 
ATOM     51  C   UNL A   1      38.154  33.091  34.789  1.00  0.00     0.074 A 
ATOM     52  C   UNL A   1      37.807  31.885  32.667  1.00  0.00     0.049 A 
ATOM     53  N   UNL A   1      39.267  32.551  35.217  1.00  0.00    -0.248 NA
ATOM     54  C   UNL A   1      37.577  34.088  35.705  1.00  0.00     0.031 C 
ATOM     55  C   UNL A   1      37.134  31.485  31.436  1.00  0.00     0.029 A 
ATOM     56  N   UNL A   1      38.917  31.074  32.723  1.00  0.00    -0.354 N 
ATOM     57  C   UNL A   1      39.519  33.139  36.449  1.00  0.00     0.074 A 
ATOM     58  C   UNL A   1      38.465  34.101  36.686  1.00  0.00     0.031 C 
ATOM     59  C   UNL A   1      37.849  30.510  30.845  1.00  0.00     0.029 A 
ATOM     60  C   UNL A   1      39.048  30.239  31.641  1.00  0.00     0.049 A 
ATOM     61  H   UNL A   1      39.559  31.091  33.470  1.00  0.00     0.167 HD
ATOM     62  C   UNL A   1      40.532  32.897  37.313  1.00  0.00     0.037 A 
ATOM     63  C   UNL A   1      40.031  29.372  31.321  1.00  0.00     0.037 A 
ATOM     64  C   UNL A   1      41.593  31.955  37.083  1.00  0.00     0.049 A 
ATOM     65  C   UNL A   1      41.211  29.201  32.251  1.00  0.00     0.074 A 
ATOM     66  C   UNL A   1      42.667  31.651  37.900  1.00  0.00     0.029 A 
ATOM     67  N   UNL A   1      41.720  31.172  35.947  1.00  0.00    -0.354 N 
ATOM     68  N   UNL A   1      41.437  29.751  33.419  1.00  0.00    -0.248 NA
ATOM     69  C   UNL A   1      42.275  28.282  31.812  1.00  0.00     0.031 C 
ATOM     70  C   UNL A   1      43.475  30.724  37.234  1.00  0.00     0.029 A 
ATOM     71  C   UNL A   1      42.871  30.405  36.028  1.00  0.00     0.049 A 
ATOM     72  H   UNL A   1      41.087  31.163  35.193  1.00  0.00     0.167 HD
ATOM     73  C   UNL A   1      42.643  29.220  33.867  1.00  0.00     0.074 A 
ATOM     74  C   UNL A   1      43.098  28.298  32.850  1.00  0.00     0.031 C 
ATOM     75  C   UNL A   1      43.310  29.475  35.020  1.00  0.00     0.037 A 
BRANCH  62  76
ATOM     76  C   UNL A   1      40.556  33.700  38.581  1.00  0.00     0.064 A 
ATOM     77  C   UNL A   1      41.356  34.843  38.715  1.00  0.00     0.173 A 
ATOM     78  C   UNL A   1      39.755  33.324  39.669  1.00  0.00     0.173 A 
ATOM     79  F   UNL A   1      42.156  35.231  37.710  1.00  0.00    -0.203 F 
ATOM     80  C   UNL A   1      41.375  35.565  39.905  1.00  0.00     0.198 A 
ATOM     81  C   UNL A   1      39.753  34.067  40.846  1.00  0.00     0.198 A 
ATOM     82  F   UNL A   1      38.972  32.237  39.591  1.00  0.00    -0.203 F 
ATOM     83  F   UNL A   1      42.188  36.624  40.032  1.00  0.00    -0.200 F 
ATOM     84  C   UNL A   1      40.569  35.181  40.966  1.00  0.00     0.200 A 
ATOM     85  F   UNL A   1      38.966  33.698  41.866  1.00  0.00    -0.200 F 
ATOM     86  F   UNL A   1      40.586  35.880  42.110  1.00  0.00    -0.200 F 
ENDBRANCH  62  76
BRANCH  63  87
ATOM     87  C   UNL A   1      39.970  28.604  30.048  1.00  0.00     0.064 A 
ATOM     88  C   UNL A   1      39.389  27.329  29.997  1.00  0.00     0.173 A 
ATOM     89  C   UNL A   1      40.546  29.104  28.871  1.00  0.00     0.173 A 
ATOM     90  F   UNL A   1      38.859  26.790  31.105  1.00  0.00    -0.203 F 
ATOM     91  C   UNL A   1      39.405  26.576  28.824  1.00  0.00     0.198 A 
ATOM     92  C   UNL A   1      40.534  28.362  27.691  1.00  0.00     0.198 A 
ATOM     93  F   UNL A   1      41.128  30.312  28.868  1.00  0.00    -0.203 F 
ATOM     94  F   UNL A   1      38.895  25.336  28.819  1.00  0.00    -0.200 F 
ATOM     95  C   UNL A   1      39.972  27.095  27.670  1.00  0.00     0.200 A 
ATOM     96  F   UNL A   1      41.081  28.870  26.578  1.00  0.00    -0.200 F 
ATOM     97  F   UNL A   1      39.993  26.369  26.544  1.00  0.00    -0.200 F 
ENDBRANCH  63  87
BRANCH  75  98
ATOM     98  C   UNL A   1      44.580  28.712  35.279  1.00  0.00     0.064 A 
ATOM     99  C   UNL A   1      44.577  27.460  35.912  1.00  0.00     0.173 A 
ATOM    100  C   UNL A   1      45.812  29.218  34.835  1.00  0.00     0.173 A 
ATOM    101  F   UNL A   1      43.428  26.935  36.364  1.00  0.00    -0.203 F 
ATOM    102  C   UNL A   1      45.762  26.756  36.113  1.00  0.00     0.198 A 
ATOM    103  C   UNL A   1      46.991  28.497  35.010  1.00  0.00     0.198 A 
ATOM    104  F   UNL A   1      45.872  30.406  34.215  1.00  0.00    -0.203 F 
ATOM    105  F   UNL A   1      45.741  25.582  36.760  1.00  0.00    -0.200 F 
ATOM    106  C   UNL A   1      46.966  27.271  35.655  1.00  0.00     0.200 A 
ATOM    107  F   UNL A   1      48.150  28.988  34.551  1.00  0.00    -0.200 F 
ATOM    108  F   UNL A   1      48.103  26.586  35.840  1.00  0.00    -0.200 F 
ENDBRANCH  75  98
ENDBRANCH  49  50
ENDBRANCH  42  44
ENDBRANCH  41  42
ENDBRANCH  40  41
ENDBRANCH  39  40
ENDBRANCH  38  39
ENDBRANCH  37  38
ENDBRANCH  36  37
ENDBRANCH   1  36
TORSDOF 22
ENDMDL
