MODEL 1
REMARK VINA RESULT:     -11.8      0.000      0.000
REMARK SMILES Cc1ccnc(C(=O)c2[nH]c3ccc(F)cc3c2CC(=O)OCCOCCOCCOC(=O)c2ccc(-c3c4nc(c(-c5c(F)c(F)c(F)c(F)c5F)c5ccc([nH]5)c(-c5c(F)c(F)c(F)c(F)c5F)c5nc(c(-c6c(F)c(F)c(F)c(F)c6F)c6ccc3[nH]6)C=C5)C=C4)cc2)c1
REMARK SMILES IDX 26 1 25 2 24 3 23 4 22 5 20 6 21 7 19 8 18 9 9 10 10 11
REMARK SMILES IDX 11 12 17 14 12 15 16 16 13 17 14 18 15 19 7 20 8 21 6 22
REMARK SMILES IDX 1 23 2 24 3 25 97 26 4 27 5 28 27 29 28 30 29 31 30 32 31 33
REMARK SMILES IDX 32 34 33 35 34 36 35 37 96 38 36 39 95 40 37 41 38 42 39 43
REMARK SMILES IDX 89 44 40 45 94 46 88 47 90 48 41 49 93 50 87 51 86 52 42 54
REMARK SMILES IDX 74 55 54 56 73 57 55 58 58 59 72 60 91 61 56 62 57 63 71 65
REMARK SMILES IDX 92 66 59 67 43 68 44 69 52 70 45 71 46 72 50 73 53 74 47 75
REMARK SMILES IDX 48 76 51 77 49 78 75 79 76 80 84 81 77 82 78 83 82 84 85 85
REMARK SMILES IDX 79 86 80 87 83 88 81 89 60 90 61 91 69 92 62 93 63 94 67 95
REMARK SMILES IDX 70 96 64 97 65 98 68 99 66 100
REMARK H PARENT 10 13 90 53 58 64
REMARK Flexibility Score: inf
ROOT
ATOM      1  C   UNL A   1      35.863  32.834  27.924  1.00  0.00     0.188 C 
ENDROOT
BRANCH   1   2
ATOM      2  O   UNL A   1      35.585  31.503  27.471  1.00  0.00    -0.376 OA
BRANCH   2   3
ATOM      3  C   UNL A   1      34.378  30.932  28.042  1.00  0.00     0.202 C 
BRANCH   3   4
ATOM      4  C   UNL A   1      34.173  29.435  27.754  1.00  0.00     0.261 C 
BRANCH   4   5
ATOM      5  O   UNL A   1      34.052  29.211  26.333  1.00  0.00    -0.463 OA
BRANCH   5   6
ATOM      6  C   UNL A   1      32.779  29.138  25.863  1.00  0.00     0.310 C 
ATOM      7  O   UNL A   1      32.151  30.092  25.419  1.00  0.00    -0.252 OA
BRANCH   6   8
ATOM      8  C   UNL A   1      32.202  27.751  25.962  1.00  0.00     0.161 C 
BRANCH   8   9
ATOM      9  C   UNL A   1      32.393  26.863  24.768  1.00  0.00     0.000 A 
ATOM     10  C   UNL A   1      31.620  26.777  23.612  1.00  0.00     0.093 A 
ATOM     11  N   UNL A   1      31.968  25.557  23.040  1.00  0.00    -0.352 N 
ATOM     12  C   UNL A   1      33.096  25.026  23.575  1.00  0.00     0.046 A 
ATOM     13  H   UNL A   1      31.450  25.125  22.323  1.00  0.00     0.167 HD
ATOM     14  C   UNL A   1      33.421  25.834  24.658  1.00  0.00     0.007 A 
ATOM     15  C   UNL A   1      33.812  23.889  23.182  1.00  0.00     0.030 A 
ATOM     16  C   UNL A   1      34.576  25.486  25.389  1.00  0.00     0.049 A 
ATOM     17  C   UNL A   1      34.957  23.580  23.909  1.00  0.00     0.041 A 
ATOM     18  C   UNL A   1      35.330  24.375  24.985  1.00  0.00     0.123 A 
ATOM     19  F   UNL A   1      36.449  24.066  25.656  1.00  0.00    -0.207 F 
BRANCH  10  20
ATOM     20  C   UNL A   1      30.549  27.455  22.900  1.00  0.00     0.227 C 
ATOM     21  O   UNL A   1      30.747  27.519  21.692  1.00  0.00    -0.285 OA
BRANCH  20  22
ATOM     22  C   UNL A   1      29.420  28.327  23.377  1.00  0.00     0.113 A 
ATOM     23  C   UNL A   1      28.908  32.099  23.098  1.00  0.00     0.044 C 
ATOM     24  C   UNL A   1      28.588  30.634  23.225  1.00  0.00    -0.047 A 
ATOM     25  C   UNL A   1      27.309  30.130  23.101  1.00  0.00     0.023 A 
ATOM     26  C   UNL A   1      29.622  29.702  23.344  1.00  0.00     0.036 A 
ATOM     27  C   UNL A   1      27.153  28.747  23.137  1.00  0.00     0.112 A 
ATOM     28  N   UNL A   1      28.162  27.834  23.271  1.00  0.00    -0.253 NA
ENDBRANCH  20  22
ENDBRANCH  10  20
ENDBRANCH   8   9
ENDBRANCH   6   8
ENDBRANCH   5   6
ENDBRANCH   4   5
ENDBRANCH   3   4
ENDBRANCH   2   3
ENDBRANCH   1   2
BRANCH   1  29
ATOM     29  C   UNL A   1      34.743  33.533  28.746  1.00  0.00     0.188 C 
BRANCH  29  30
ATOM     30  O   UNL A   1      35.206  34.134  29.977  1.00  0.00    -0.376 OA
BRANCH  30  31
ATOM     31  C   UNL A   1      34.171  34.477  30.918  1.00  0.00     0.202 C 
BRANCH  31  32
ATOM     32  C   UNL A   1      34.369  33.828  32.323  1.00  0.00     0.261 C 
BRANCH  32  33
ATOM     33  O   UNL A   1      34.850  32.447  32.305  1.00  0.00    -0.460 OA
BRANCH  33  34
ATOM     34  C   UNL A   1      35.987  32.131  32.992  1.00  0.00     0.338 C 
ATOM     35  O   UNL A   1      36.196  32.372  34.182  1.00  0.00    -0.246 OA
BRANCH  34  36
ATOM     36  C   UNL A   1      36.999  31.406  32.158  1.00  0.00     0.060 A 
ATOM     37  C   UNL A   1      38.252  31.091  32.705  1.00  0.00     0.016 A 
ATOM     38  C   UNL A   1      36.771  31.083  30.817  1.00  0.00     0.016 A 
ATOM     39  C   UNL A   1      39.175  30.292  32.019  1.00  0.00     0.010 A 
ATOM     40  C   UNL A   1      37.759  30.389  30.075  1.00  0.00     0.010 A 
ATOM     41  C   UNL A   1      38.957  29.959  30.679  1.00  0.00    -0.014 A 
BRANCH  41  42
ATOM     42  C   UNL A   1      40.124  29.452  29.892  1.00  0.00     0.031 A 
ATOM     43  C   UNL A   1      41.289  30.393  29.715  1.00  0.00     0.074 A 
ATOM     44  C   UNL A   1      40.243  28.184  29.451  1.00  0.00     0.049 A 
ATOM     45  N   UNL A   1      42.427  30.220  29.090  1.00  0.00    -0.248 NA
ATOM     46  C   UNL A   1      41.154  31.709  30.364  1.00  0.00     0.031 C 
ATOM     47  C   UNL A   1      39.277  27.111  29.664  1.00  0.00     0.029 A 
ATOM     48  N   UNL A   1      41.261  27.575  28.743  1.00  0.00    -0.354 N 
ATOM     49  C   UNL A   1      43.136  31.401  29.272  1.00  0.00     0.074 A 
ATOM     50  C   UNL A   1      42.305  32.282  30.060  1.00  0.00     0.031 C 
ATOM     51  C   UNL A   1      39.741  25.982  29.093  1.00  0.00     0.029 A 
ATOM     52  C   UNL A   1      41.028  26.252  28.448  1.00  0.00     0.049 A 
ATOM     53  H   UNL A   1      42.082  28.048  28.473  1.00  0.00     0.167 HD
ATOM     54  C   UNL A   1      44.368  31.734  28.820  1.00  0.00     0.037 A 
ATOM     55  C   UNL A   1      41.758  25.371  27.728  1.00  0.00     0.037 A 
ATOM     56  C   UNL A   1      45.199  30.883  28.016  1.00  0.00     0.049 A 
ATOM     57  C   UNL A   1      43.074  25.807  27.118  1.00  0.00     0.074 A 
ATOM     58  C   UNL A   1      46.432  31.163  27.453  1.00  0.00     0.029 A 
ATOM     59  N   UNL A   1      44.876  29.585  27.654  1.00  0.00    -0.354 N 
ATOM     60  N   UNL A   1      43.713  26.944  27.247  1.00  0.00    -0.248 NA
ATOM     61  C   UNL A   1      43.764  24.837  26.250  1.00  0.00     0.031 C 
ATOM     62  C   UNL A   1      46.835  30.049  26.711  1.00  0.00     0.029 A 
ATOM     63  C   UNL A   1      45.879  29.057  26.857  1.00  0.00     0.049 A 
ATOM     64  H   UNL A   1      44.058  29.109  27.923  1.00  0.00     0.167 HD
ATOM     65  C   UNL A   1      44.883  26.817  26.504  1.00  0.00     0.074 A 
ATOM     66  C   UNL A   1      44.877  25.488  25.936  1.00  0.00     0.031 C 
ATOM     67  C   UNL A   1      45.872  27.725  26.308  1.00  0.00     0.037 A 
BRANCH  54  68
ATOM     68  C   UNL A   1      44.842  33.122  29.130  1.00  0.00     0.064 A 
ATOM     69  C   UNL A   1      44.562  34.207  28.287  1.00  0.00     0.173 A 
ATOM     70  C   UNL A   1      45.623  33.358  30.272  1.00  0.00     0.173 A 
ATOM     71  F   UNL A   1      43.843  34.025  27.169  1.00  0.00    -0.203 F 
ATOM     72  C   UNL A   1      45.078  35.472  28.556  1.00  0.00     0.198 A 
ATOM     73  C   UNL A   1      46.112  34.629  30.554  1.00  0.00     0.198 A 
ATOM     74  F   UNL A   1      45.920  32.352  31.108  1.00  0.00    -0.203 F 
ATOM     75  F   UNL A   1      44.855  36.481  27.703  1.00  0.00    -0.200 F 
ATOM     76  C   UNL A   1      45.850  35.682  29.691  1.00  0.00     0.200 A 
ATOM     77  F   UNL A   1      46.851  34.831  31.653  1.00  0.00    -0.200 F 
ATOM     78  F   UNL A   1      46.354  36.897  29.943  1.00  0.00    -0.200 F 
ENDBRANCH  54  68
BRANCH  55  79
ATOM     79  C   UNL A   1      41.258  23.984  27.488  1.00  0.00     0.064 A 
ATOM     80  C   UNL A   1      41.914  22.864  28.024  1.00  0.00     0.173 A 
ATOM     81  C   UNL A   1      40.158  23.746  26.650  1.00  0.00     0.173 A 
ATOM     82  F   UNL A   1      43.000  23.028  28.792  1.00  0.00    -0.203 F 
ATOM     83  C   UNL A   1      41.498  21.567  27.721  1.00  0.00     0.198 A 
ATOM     84  C   UNL A   1      39.724  22.449  26.372  1.00  0.00     0.198 A 
ATOM     85  F   UNL A   1      39.508  24.774  26.086  1.00  0.00    -0.203 F 
ATOM     86  F   UNL A   1      42.182  20.517  28.198  1.00  0.00    -0.200 F 
ATOM     87  C   UNL A   1      40.400  21.360  26.900  1.00  0.00     0.200 A 
ATOM     88  F   UNL A   1      38.664  22.256  25.577  1.00  0.00    -0.200 F 
ATOM     89  F   UNL A   1      40.005  20.114  26.604  1.00  0.00    -0.200 F 
ENDBRANCH  55  79
BRANCH  67  90
ATOM     90  C   UNL A   1      47.052  27.314  25.475  1.00  0.00     0.064 A 
ATOM     91  C   UNL A   1      47.173  27.692  24.130  1.00  0.00     0.173 A 
ATOM     92  C   UNL A   1      48.112  26.596  26.052  1.00  0.00     0.173 A 
ATOM     93  F   UNL A   1      46.186  28.370  23.527  1.00  0.00    -0.203 F 
ATOM     94  C   UNL A   1      48.305  27.355  23.390  1.00  0.00     0.198 A 
ATOM     95  C   UNL A   1      49.253  26.284  25.318  1.00  0.00     0.198 A 
ATOM     96  F   UNL A   1      48.052  26.219  27.338  1.00  0.00    -0.203 F 
ATOM     97  F   UNL A   1      48.385  27.698  22.097  1.00  0.00    -0.200 F 
ATOM     98  C   UNL A   1      49.346  26.659  23.987  1.00  0.00     0.200 A 
ATOM     99  F   UNL A   1      50.266  25.627  25.901  1.00  0.00    -0.200 F 
ATOM    100  F   UNL A   1      50.441  26.349  23.277  1.00  0.00    -0.200 F 
ENDBRANCH  67  90
ENDBRANCH  41  42
ENDBRANCH  34  36
ENDBRANCH  33  34
ENDBRANCH  32  33
ENDBRANCH  31  32
ENDBRANCH  30  31
ENDBRANCH  29  30
ENDBRANCH   1  29
TORSDOF 20
ENDMDL
MODEL 2
REMARK VINA RESULT:     -11.6      5.266     10.443
REMARK SMILES Cc1ccnc(C(=O)c2[nH]c3ccc(F)cc3c2CC(=O)OCCOCCOCCOC(=O)c2ccc(-c3c4nc(c(-c5c(F)c(F)c(F)c(F)c5F)c5ccc([nH]5)c(-c5c(F)c(F)c(F)c(F)c5F)c5nc(c(-c6c(F)c(F)c(F)c(F)c6F)c6ccc3[nH]6)C=C5)C=C4)cc2)c1
REMARK SMILES IDX 26 1 25 2 24 3 23 4 22 5 20 6 21 7 19 8 18 9 9 10 10 11
REMARK SMILES IDX 11 12 17 14 12 15 16 16 13 17 14 18 15 19 7 20 8 21 6 22
REMARK SMILES IDX 1 23 2 24 3 25 97 26 4 27 5 28 27 29 28 30 29 31 30 32 31 33
REMARK SMILES IDX 32 34 33 35 34 36 35 37 96 38 36 39 95 40 37 41 38 42 39 43
REMARK SMILES IDX 89 44 40 45 94 46 88 47 90 48 41 49 93 50 87 51 86 52 42 54
REMARK SMILES IDX 74 55 54 56 73 57 55 58 58 59 72 60 91 61 56 62 57 63 71 65
REMARK SMILES IDX 92 66 59 67 43 68 44 69 52 70 45 71 46 72 50 73 53 74 47 75
REMARK SMILES IDX 48 76 51 77 49 78 75 79 76 80 84 81 77 82 78 83 82 84 85 85
REMARK SMILES IDX 79 86 80 87 83 88 81 89 60 90 61 91 69 92 62 93 63 94 67 95
REMARK SMILES IDX 70 96 64 97 65 98 68 99 66 100
REMARK H PARENT 10 13 90 53 58 64
REMARK Flexibility Score: inf
ROOT
ATOM      1  C   UNL A   1      39.568  19.876  25.377  1.00  0.00     0.188 C 
ENDROOT
BRANCH   1   2
ATOM      2  O   UNL A   1      38.252  20.387  25.622  1.00  0.00    -0.376 OA
BRANCH   2   3
ATOM      3  C   UNL A   1      38.150  21.828  25.478  1.00  0.00     0.202 C 
BRANCH   3   4
ATOM      4  C   UNL A   1      36.713  22.378  25.497  1.00  0.00     0.261 C 
BRANCH   4   5
ATOM      5  O   UNL A   1      35.816  21.412  26.087  1.00  0.00    -0.463 OA
BRANCH   5   6
ATOM      6  C   UNL A   1      34.749  21.937  26.745  1.00  0.00     0.310 C 
ATOM      7  O   UNL A   1      34.783  22.970  27.403  1.00  0.00    -0.252 OA
BRANCH   6   8
ATOM      8  C   UNL A   1      33.507  21.098  26.599  1.00  0.00     0.161 C 
BRANCH   8   9
ATOM      9  C   UNL A   1      33.045  20.829  25.198  1.00  0.00     0.000 A 
ATOM     10  C   UNL A   1      32.272  21.634  24.363  1.00  0.00     0.093 A 
ATOM     11  N   UNL A   1      31.797  20.775  23.377  1.00  0.00    -0.352 N 
ATOM     12  C   UNL A   1      32.447  19.585  23.358  1.00  0.00     0.046 A 
ATOM     13  H   UNL A   1      31.066  21.007  22.760  1.00  0.00     0.167 HD
ATOM     14  C   UNL A   1      33.270  19.581  24.477  1.00  0.00     0.007 A 
ATOM     15  C   UNL A   1      32.332  18.529  22.445  1.00  0.00     0.030 A 
ATOM     16  C   UNL A   1      34.065  18.433  24.681  1.00  0.00     0.049 A 
ATOM     17  C   UNL A   1      33.141  17.418  22.659  1.00  0.00     0.041 A 
ATOM     18  C   UNL A   1      33.995  17.383  23.753  1.00  0.00     0.123 A 
ATOM     19  F   UNL A   1      34.778  16.308  23.925  1.00  0.00    -0.207 F 
BRANCH  10  20
ATOM     20  C   UNL A   1      31.739  22.982  24.250  1.00  0.00     0.227 C 
ATOM     21  O   UNL A   1      31.596  23.341  23.086  1.00  0.00    -0.285 OA
BRANCH  20  22
ATOM     22  C   UNL A   1      31.609  24.099  25.249  1.00  0.00     0.113 A 
ATOM     23  C   UNL A   1      33.851  27.117  25.906  1.00  0.00     0.044 C 
ATOM     24  C   UNL A   1      32.617  26.259  25.848  1.00  0.00    -0.047 A 
ATOM     25  C   UNL A   1      31.348  26.750  26.079  1.00  0.00     0.023 A 
ATOM     26  C   UNL A   1      32.709  24.933  25.417  1.00  0.00     0.036 A 
ATOM     27  C   UNL A   1      30.276  25.882  25.897  1.00  0.00     0.112 A 
ATOM     28  N   UNL A   1      30.365  24.578  25.493  1.00  0.00    -0.253 NA
ENDBRANCH  20  22
ENDBRANCH  10  20
ENDBRANCH   8   9
ENDBRANCH   6   8
ENDBRANCH   5   6
ENDBRANCH   4   5
ENDBRANCH   3   4
ENDBRANCH   2   3
ENDBRANCH   1   2
BRANCH   1  29
ATOM     29  C   UNL A   1      40.643  20.183  26.459  1.00  0.00     0.188 C 
BRANCH  29  30
ATOM     30  O   UNL A   1      41.562  21.237  26.092  1.00  0.00    -0.376 OA
BRANCH  30  31
ATOM     31  C   UNL A   1      42.954  20.864  26.094  1.00  0.00     0.202 C 
BRANCH  31  32
ATOM     32  C   UNL A   1      43.813  21.668  25.069  1.00  0.00     0.261 C 
BRANCH  32  33
ATOM     33  O   UNL A   1      43.225  22.931  24.623  1.00  0.00    -0.460 OA
BRANCH  33  34
ATOM     34  C   UNL A   1      43.880  24.099  24.890  1.00  0.00     0.338 C 
ATOM     35  O   UNL A   1      44.939  24.461  24.375  1.00  0.00    -0.246 OA
BRANCH  34  36
ATOM     36  C   UNL A   1      43.164  24.964  25.883  1.00  0.00     0.060 A 
ATOM     37  C   UNL A   1      43.699  26.215  26.226  1.00  0.00     0.016 A 
ATOM     38  C   UNL A   1      42.004  24.546  26.542  1.00  0.00     0.016 A 
ATOM     39  C   UNL A   1      42.998  27.118  27.034  1.00  0.00     0.010 A 
ATOM     40  C   UNL A   1      41.362  25.406  27.465  1.00  0.00     0.010 A 
ATOM     41  C   UNL A   1      41.836  26.713  27.696  1.00  0.00    -0.014 A 
BRANCH  41  42
ATOM     42  C   UNL A   1      41.351  27.561  28.829  1.00  0.00     0.031 A 
ATOM     43  C   UNL A   1      42.161  27.528  30.101  1.00  0.00     0.074 A 
ATOM     44  C   UNL A   1      40.327  28.432  28.736  1.00  0.00     0.049 A 
ATOM     45  N   UNL A   1      41.981  28.162  31.233  1.00  0.00    -0.248 NA
ATOM     46  C   UNL A   1      43.361  26.675  30.075  1.00  0.00     0.031 C 
ATOM     47  C   UNL A   1      39.534  28.694  27.539  1.00  0.00     0.029 A 
ATOM     48  N   UNL A   1      39.792  29.288  29.679  1.00  0.00    -0.354 N 
ATOM     49  C   UNL A   1      43.041  27.783  32.046  1.00  0.00     0.074 A 
ATOM     50  C   UNL A   1      43.857  26.865  31.284  1.00  0.00     0.031 C 
ATOM     51  C   UNL A   1      38.612  29.635  27.819  1.00  0.00     0.029 A 
ATOM     52  C   UNL A   1      38.725  30.029  29.226  1.00  0.00     0.049 A 
ATOM     53  H   UNL A   1      40.144  29.361  30.596  1.00  0.00     0.167 HD
ATOM     54  C   UNL A   1      43.316  28.154  33.319  1.00  0.00     0.037 A 
ATOM     55  C   UNL A   1      37.925  30.905  29.874  1.00  0.00     0.037 A 
ATOM     56  C   UNL A   1      42.506  29.045  34.101  1.00  0.00     0.049 A 
ATOM     57  C   UNL A   1      38.171  31.205  31.338  1.00  0.00     0.074 A 
ATOM     58  C   UNL A   1      42.667  29.423  35.422  1.00  0.00     0.029 A 
ATOM     59  N   UNL A   1      41.374  29.692  33.633  1.00  0.00    -0.354 N 
ATOM     60  N   UNL A   1      39.144  30.799  32.117  1.00  0.00    -0.248 NA
ATOM     61  C   UNL A   1      37.197  32.078  32.016  1.00  0.00     0.031 C 
ATOM     62  C   UNL A   1      41.606  30.265  35.767  1.00  0.00     0.029 A 
ATOM     63  C   UNL A   1      40.814  30.453  34.646  1.00  0.00     0.049 A 
ATOM     64  H   UNL A   1      41.020  29.623  32.717  1.00  0.00     0.167 HD
ATOM     65  C   UNL A   1      38.914  31.384  33.359  1.00  0.00     0.074 A 
ATOM     66  C   UNL A   1      37.718  32.185  33.231  1.00  0.00     0.031 C 
ATOM     67  C   UNL A   1      39.630  31.261  34.505  1.00  0.00     0.037 A 
BRANCH  54  68
ATOM     68  C   UNL A   1      44.513  27.518  33.959  1.00  0.00     0.064 A 
ATOM     69  C   UNL A   1      44.431  26.285  34.623  1.00  0.00     0.173 A 
ATOM     70  C   UNL A   1      45.753  28.175  33.937  1.00  0.00     0.173 A 
ATOM     71  F   UNL A   1      43.261  25.633  34.694  1.00  0.00    -0.203 F 
ATOM     72  C   UNL A   1      45.539  25.752  35.276  1.00  0.00     0.198 A 
ATOM     73  C   UNL A   1      46.865  27.624  34.565  1.00  0.00     0.198 A 
ATOM     74  F   UNL A   1      45.881  29.358  33.317  1.00  0.00    -0.203 F 
ATOM     75  F   UNL A   1      45.424  24.606  35.962  1.00  0.00    -0.200 F 
ATOM     76  C   UNL A   1      46.755  26.420  35.243  1.00  0.00     0.200 A 
ATOM     77  F   UNL A   1      48.039  28.268  34.527  1.00  0.00    -0.200 F 
ATOM     78  F   UNL A   1      47.818  25.910  35.879  1.00  0.00    -0.200 F 
ENDBRANCH  54  68
BRANCH  55  79
ATOM     79  C   UNL A   1      36.772  31.546  29.174  1.00  0.00     0.064 A 
ATOM     80  C   UNL A   1      36.747  32.926  28.912  1.00  0.00     0.173 A 
ATOM     81  C   UNL A   1      35.635  30.804  28.823  1.00  0.00     0.173 A 
ATOM     82  F   UNL A   1      37.786  33.694  29.269  1.00  0.00    -0.203 F 
ATOM     83  C   UNL A   1      35.628  33.534  28.341  1.00  0.00     0.198 A 
ATOM     84  C   UNL A   1      34.529  31.408  28.225  1.00  0.00     0.198 A 
ATOM     85  F   UNL A   1      35.588  29.487  29.073  1.00  0.00    -0.203 F 
ATOM     86  F   UNL A   1      35.609  34.863  28.160  1.00  0.00    -0.200 F 
ATOM     87  C   UNL A   1      34.522  32.775  27.992  1.00  0.00     0.200 A 
ATOM     88  F   UNL A   1      33.462  30.669  27.892  1.00  0.00    -0.200 F 
ATOM     89  F   UNL A   1      33.445  33.361  27.451  1.00  0.00    -0.200 F 
ENDBRANCH  55  79
BRANCH  67  90
ATOM     90  C   UNL A   1      39.173  32.034  35.709  1.00  0.00     0.064 A 
ATOM     91  C   UNL A   1      39.517  33.381  35.895  1.00  0.00     0.173 A 
ATOM     92  C   UNL A   1      38.315  31.441  36.649  1.00  0.00     0.173 A 
ATOM     93  F   UNL A   1      40.341  33.994  35.032  1.00  0.00    -0.203 F 
ATOM     94  C   UNL A   1      39.032  34.100  36.985  1.00  0.00     0.198 A 
ATOM     95  C   UNL A   1      37.811  32.170  37.723  1.00  0.00     0.198 A 
ATOM     96  F   UNL A   1      37.946  30.159  36.512  1.00  0.00    -0.203 F 
ATOM     97  F   UNL A   1      39.401  35.377  37.162  1.00  0.00    -0.200 F 
ATOM     98  C   UNL A   1      38.174  33.498  37.893  1.00  0.00     0.200 A 
ATOM     99  F   UNL A   1      36.967  31.591  38.588  1.00  0.00    -0.200 F 
ATOM    100  F   UNL A   1      37.696  34.196  38.933  1.00  0.00    -0.200 F 
ENDBRANCH  67  90
ENDBRANCH  41  42
ENDBRANCH  34  36
ENDBRANCH  33  34
ENDBRANCH  32  33
ENDBRANCH  31  32
ENDBRANCH  30  31
ENDBRANCH  29  30
ENDBRANCH   1  29
TORSDOF 20
ENDMDL
MODEL 3
REMARK VINA RESULT:     -11.6      5.383     10.810
REMARK SMILES Cc1ccnc(C(=O)c2[nH]c3ccc(F)cc3c2CC(=O)OCCOCCOCCOC(=O)c2ccc(-c3c4nc(c(-c5c(F)c(F)c(F)c(F)c5F)c5ccc([nH]5)c(-c5c(F)c(F)c(F)c(F)c5F)c5nc(c(-c6c(F)c(F)c(F)c(F)c6F)c6ccc3[nH]6)C=C5)C=C4)cc2)c1
REMARK SMILES IDX 26 1 25 2 24 3 23 4 22 5 20 6 21 7 19 8 18 9 9 10 10 11
REMARK SMILES IDX 11 12 17 14 12 15 16 16 13 17 14 18 15 19 7 20 8 21 6 22
REMARK SMILES IDX 1 23 2 24 3 25 97 26 4 27 5 28 27 29 28 30 29 31 30 32 31 33
REMARK SMILES IDX 32 34 33 35 34 36 35 37 96 38 36 39 95 40 37 41 38 42 39 43
REMARK SMILES IDX 89 44 40 45 94 46 88 47 90 48 41 49 93 50 87 51 86 52 42 54
REMARK SMILES IDX 74 55 54 56 73 57 55 58 58 59 72 60 91 61 56 62 57 63 71 65
REMARK SMILES IDX 92 66 59 67 43 68 44 69 52 70 45 71 46 72 50 73 53 74 47 75
REMARK SMILES IDX 48 76 51 77 49 78 75 79 76 80 84 81 77 82 78 83 82 84 85 85
REMARK SMILES IDX 79 86 80 87 83 88 81 89 60 90 61 91 69 92 62 93 63 94 67 95
REMARK SMILES IDX 70 96 64 97 65 98 68 99 66 100
REMARK H PARENT 10 13 90 53 58 64
REMARK Flexibility Score: inf
ROOT
ATOM      1  C   UNL A   1      40.852  20.594  26.172  1.00  0.00     0.188 C 
ENDROOT
BRANCH   1   2
ATOM      2  O   UNL A   1      40.275  21.899  26.037  1.00  0.00    -0.376 OA
BRANCH   2   3
ATOM      3  C   UNL A   1      38.839  21.926  26.254  1.00  0.00     0.202 C 
BRANCH   3   4
ATOM      4  C   UNL A   1      38.119  23.145  25.651  1.00  0.00     0.261 C 
BRANCH   4   5
ATOM      5  O   UNL A   1      36.698  23.054  25.890  1.00  0.00    -0.463 OA
BRANCH   5   6
ATOM      6  C   UNL A   1      35.965  22.562  24.856  1.00  0.00     0.310 C 
ATOM      7  O   UNL A   1      36.445  22.116  23.821  1.00  0.00    -0.252 OA
BRANCH   6   8
ATOM      8  C   UNL A   1      34.483  22.641  25.106  1.00  0.00     0.161 C 
BRANCH   8   9
ATOM      9  C   UNL A   1      33.642  23.148  23.972  1.00  0.00     0.000 A 
ATOM     10  C   UNL A   1      32.904  22.422  23.039  1.00  0.00     0.093 A 
ATOM     11  N   UNL A   1      32.667  23.314  21.998  1.00  0.00    -0.352 N 
ATOM     12  C   UNL A   1      32.929  24.601  22.337  1.00  0.00     0.046 A 
ATOM     13  H   UNL A   1      32.343  23.040  21.110  1.00  0.00     0.167 HD
ATOM     14  C   UNL A   1      33.524  24.552  23.591  1.00  0.00     0.007 A 
ATOM     15  C   UNL A   1      32.700  25.773  21.605  1.00  0.00     0.030 A 
ATOM     16  C   UNL A   1      33.894  25.783  24.172  1.00  0.00     0.049 A 
ATOM     17  C   UNL A   1      33.058  26.974  22.209  1.00  0.00     0.041 A 
ATOM     18  C   UNL A   1      33.634  26.971  23.472  1.00  0.00     0.123 A 
ATOM     19  F   UNL A   1      33.950  28.144  24.038  1.00  0.00    -0.207 F 
BRANCH  10  20
ATOM     20  C   UNL A   1      32.419  21.079  22.761  1.00  0.00     0.227 C 
ATOM     21  O   UNL A   1      31.779  21.012  21.717  1.00  0.00    -0.285 OA
BRANCH  20  22
ATOM     22  C   UNL A   1      32.301  19.854  23.625  1.00  0.00     0.113 A 
ATOM     23  C   UNL A   1      34.037  16.464  23.380  1.00  0.00     0.044 C 
ATOM     24  C   UNL A   1      33.333  17.652  23.977  1.00  0.00    -0.047 A 
ATOM     25  C   UNL A   1      33.219  17.852  25.338  1.00  0.00     0.023 A 
ATOM     26  C   UNL A   1      32.880  18.683  23.150  1.00  0.00     0.036 A 
ATOM     27  C   UNL A   1      32.635  19.040  25.770  1.00  0.00     0.112 A 
ATOM     28  N   UNL A   1      32.173  20.041  24.961  1.00  0.00    -0.253 NA
ENDBRANCH  20  22
ENDBRANCH  10  20
ENDBRANCH   8   9
ENDBRANCH   6   8
ENDBRANCH   5   6
ENDBRANCH   4   5
ENDBRANCH   3   4
ENDBRANCH   2   3
ENDBRANCH   1   2
BRANCH   1  29
ATOM     29  C   UNL A   1      42.126  20.489  27.058  1.00  0.00     0.188 C 
BRANCH  29  30
ATOM     30  O   UNL A   1      43.288  19.986  26.360  1.00  0.00    -0.376 OA
BRANCH  30  31
ATOM     31  C   UNL A   1      43.554  20.605  25.087  1.00  0.00     0.202 C 
BRANCH  31  32
ATOM     32  C   UNL A   1      44.351  21.941  25.200  1.00  0.00     0.261 C 
BRANCH  32  33
ATOM     33  O   UNL A   1      43.610  23.140  24.806  1.00  0.00    -0.460 OA
BRANCH  33  34
ATOM     34  C   UNL A   1      44.159  24.367  25.043  1.00  0.00     0.338 C 
ATOM     35  O   UNL A   1      45.167  24.819  24.498  1.00  0.00    -0.246 OA
BRANCH  34  36
ATOM     36  C   UNL A   1      43.388  25.176  26.042  1.00  0.00     0.060 A 
ATOM     37  C   UNL A   1      43.744  26.513  26.274  1.00  0.00     0.016 A 
ATOM     38  C   UNL A   1      42.358  24.629  26.813  1.00  0.00     0.016 A 
ATOM     39  C   UNL A   1      42.968  27.349  27.087  1.00  0.00     0.010 A 
ATOM     40  C   UNL A   1      41.655  25.440  27.737  1.00  0.00     0.010 A 
ATOM     41  C   UNL A   1      41.933  26.815  27.860  1.00  0.00    -0.014 A 
BRANCH  41  42
ATOM     42  C   UNL A   1      41.403  27.652  28.981  1.00  0.00     0.031 A 
ATOM     43  C   UNL A   1      42.180  27.632  30.274  1.00  0.00     0.074 A 
ATOM     44  C   UNL A   1      40.364  28.503  28.863  1.00  0.00     0.049 A 
ATOM     45  N   UNL A   1      41.959  28.260  31.402  1.00  0.00    -0.248 NA
ATOM     46  C   UNL A   1      43.397  26.802  30.277  1.00  0.00     0.031 C 
ATOM     47  C   UNL A   1      39.598  28.751  27.646  1.00  0.00     0.029 A 
ATOM     48  N   UNL A   1      39.789  29.346  29.794  1.00  0.00    -0.354 N 
ATOM     49  C   UNL A   1      43.005  27.900  32.242  1.00  0.00     0.074 A 
ATOM     50  C   UNL A   1      43.858  27.000  31.500  1.00  0.00     0.031 C 
ATOM     51  C   UNL A   1      38.650  29.673  27.904  1.00  0.00     0.029 A 
ATOM     52  C   UNL A   1      38.719  30.066  29.314  1.00  0.00     0.049 A 
ATOM     53  H   UNL A   1      40.115  29.424  30.719  1.00  0.00     0.167 HD
ATOM     54  C   UNL A   1      43.239  28.274  33.522  1.00  0.00     0.037 A 
ATOM     55  C   UNL A   1      37.886  30.925  29.942  1.00  0.00     0.037 A 
ATOM     56  C   UNL A   1      42.391  29.147  34.284  1.00  0.00     0.049 A 
ATOM     57  C   UNL A   1      38.088  31.227  31.413  1.00  0.00     0.074 A 
ATOM     58  C   UNL A   1      42.511  29.525  35.610  1.00  0.00     0.029 A 
ATOM     59  N   UNL A   1      41.259  29.772  33.787  1.00  0.00    -0.354 N 
ATOM     60  N   UNL A   1      39.048  30.839  32.216  1.00  0.00    -0.248 NA
ATOM     61  C   UNL A   1      37.079  32.079  32.067  1.00  0.00     0.031 C 
ATOM     62  C   UNL A   1      41.425  30.345  35.928  1.00  0.00     0.029 A 
ATOM     63  C   UNL A   1      40.659  30.520  34.787  1.00  0.00     0.049 A 
ATOM     64  H   UNL A   1      40.932  29.698  32.863  1.00  0.00     0.167 HD
ATOM     65  C   UNL A   1      38.775  31.416  33.453  1.00  0.00     0.074 A 
ATOM     66  C   UNL A   1      37.567  32.194  33.295  1.00  0.00     0.031 C 
ATOM     67  C   UNL A   1      39.463  31.305  34.617  1.00  0.00     0.037 A 
BRANCH  54  68
ATOM     68  C   UNL A   1      44.431  27.660  34.191  1.00  0.00     0.064 A 
ATOM     69  C   UNL A   1      45.693  28.275  34.167  1.00  0.00     0.173 A 
ATOM     70  C   UNL A   1      44.314  26.419  34.835  1.00  0.00     0.173 A 
ATOM     71  F   UNL A   1      45.860  29.449  33.540  1.00  0.00    -0.203 F 
ATOM     72  C   UNL A   1      46.802  27.649  34.730  1.00  0.00     0.198 A 
ATOM     73  C   UNL A   1      45.419  25.811  35.423  1.00  0.00     0.198 A 
ATOM     74  F   UNL A   1      43.130  25.791  34.882  1.00  0.00    -0.203 F 
ATOM     75  F   UNL A   1      48.011  28.221  34.638  1.00  0.00    -0.200 F 
ATOM     76  C   UNL A   1      46.663  26.420  35.360  1.00  0.00     0.200 A 
ATOM     77  F   UNL A   1      45.282  24.628  36.036  1.00  0.00    -0.200 F 
ATOM     78  F   UNL A   1      47.733  25.815  35.893  1.00  0.00    -0.200 F 
ENDBRANCH  54  68
BRANCH  55  79
ATOM     79  C   UNL A   1      36.739  31.545  29.214  1.00  0.00     0.064 A 
ATOM     80  C   UNL A   1      36.705  32.920  28.932  1.00  0.00     0.173 A 
ATOM     81  C   UNL A   1      35.615  30.786  28.853  1.00  0.00     0.173 A 
ATOM     82  F   UNL A   1      37.729  33.704  29.297  1.00  0.00    -0.203 F 
ATOM     83  C   UNL A   1      35.590  33.510  28.334  1.00  0.00     0.198 A 
ATOM     84  C   UNL A   1      34.514  31.371  28.228  1.00  0.00     0.198 A 
ATOM     85  F   UNL A   1      35.577  29.473  29.121  1.00  0.00    -0.203 F 
ATOM     86  F   UNL A   1      35.561  34.835  28.134  1.00  0.00    -0.200 F 
ATOM     87  C   UNL A   1      34.498  32.734  27.977  1.00  0.00     0.200 A 
ATOM     88  F   UNL A   1      33.460  30.616  27.887  1.00  0.00    -0.200 F 
ATOM     89  F   UNL A   1      33.424  33.302  27.409  1.00  0.00    -0.200 F 
ENDBRANCH  55  79
BRANCH  67  90
ATOM     90  C   UNL A   1      38.960  32.066  35.809  1.00  0.00     0.064 A 
ATOM     91  C   UNL A   1      38.170  31.455  36.795  1.00  0.00     0.173 A 
ATOM     92  C   UNL A   1      39.335  33.404  36.008  1.00  0.00     0.173 A 
ATOM     93  F   UNL A   1      37.775  30.181  36.650  1.00  0.00    -0.203 F 
ATOM     94  C   UNL A   1      37.764  32.159  37.926  1.00  0.00     0.198 A 
ATOM     95  C   UNL A   1      38.950  34.098  37.153  1.00  0.00     0.198 A 
ATOM     96  F   UNL A   1      40.099  34.034  35.102  1.00  0.00    -0.203 F 
ATOM     97  F   UNL A   1      36.982  31.565  38.838  1.00  0.00    -0.200 F 
ATOM     98  C   UNL A   1      38.160  33.476  38.108  1.00  0.00     0.200 A 
ATOM     99  F   UNL A   1      39.349  35.364  37.335  1.00  0.00    -0.200 F 
ATOM    100  F   UNL A   1      37.781  34.147  39.205  1.00  0.00    -0.200 F 
ENDBRANCH  67  90
ENDBRANCH  41  42
ENDBRANCH  34  36
ENDBRANCH  33  34
ENDBRANCH  32  33
ENDBRANCH  31  32
ENDBRANCH  30  31
ENDBRANCH  29  30
ENDBRANCH   1  29
TORSDOF 20
ENDMDL
