MODEL 1
REMARK VINA RESULT:     -12.1      0.000      0.000
REMARK SMILES Nn1c(S[C@@H](C(=O)OCCOCCOCCOC(=O)c2ccc(-c3c4nc(c(-c5c(F)c(F)c(F)c(F)c5F)c5ccc([nH]5)c(-c5c(F)c(F)c(F)c(F)c5F)c5nc(c(-c6c(F)c(F)c(F)c(F)c6F)c6ccc3[nH]6)C=C5)C=C4)cc2)c2ccccc2)nc2ccc(Br)cc2c1=O
REMARK SMILES IDX 12 1 11 2 10 3 9 4 8 5 6 6 7 7 5 8 4 9 3 10 2 11 97 12 89 13
REMARK SMILES IDX 96 14 98 15 90 16 95 17 91 18 93 19 92 20 94 21 1 22 83 25
REMARK SMILES IDX 84 26 88 27 85 28 87 29 86 30 13 31 14 32 15 33 16 34 17 35
REMARK SMILES IDX 18 36 19 37 20 38 21 39 82 40 22 41 81 42 23 43 24 44 25 45
REMARK SMILES IDX 75 46 26 47 80 48 74 49 76 50 27 51 79 52 73 53 72 54 28 56
REMARK SMILES IDX 60 57 40 58 59 59 41 60 44 61 58 62 77 63 42 64 43 65 57 67
REMARK SMILES IDX 78 68 45 69 29 70 30 71 38 72 31 73 32 74 36 75 39 76 33 77
REMARK SMILES IDX 34 78 37 79 35 80 61 81 62 82 70 83 63 84 64 85 68 86 71 87
REMARK SMILES IDX 65 88 66 89 69 90 67 91 46 92 47 93 55 94 48 95 49 96 53 97
REMARK SMILES IDX 56 98 50 99 51 100 54 101 52 102
REMARK H PARENT 1 23 1 24 76 55 44 66
REMARK Flexibility Score: inf
ROOT
ATOM      1  C   UNL A   1      34.386  25.048  25.167  1.00  0.00     0.188 C 
ENDROOT
BRANCH   1   2
ATOM      2  O   UNL A   1      33.590  26.052  24.534  1.00  0.00    -0.376 OA
BRANCH   2   3
ATOM      3  C   UNL A   1      33.632  26.117  23.117  1.00  0.00     0.202 C 
BRANCH   3   4
ATOM      4  C   UNL A   1      33.422  27.512  22.514  1.00  0.00     0.261 C 
BRANCH   4   5
ATOM      5  O   UNL A   1      32.036  27.912  22.380  1.00  0.00    -0.462 OA
BRANCH   5   6
ATOM      6  C   UNL A   1      31.562  28.625  23.436  1.00  0.00     0.324 C 
ATOM      7  O   UNL A   1      32.313  29.238  24.200  1.00  0.00    -0.251 OA
BRANCH   6   8
ATOM      8  C   UNL A   1      30.046  28.600  23.680  1.00  0.00     0.194 C 
BRANCH   8   9
ATOM      9  S   UNL A   1      29.159  27.018  23.863  1.00  0.00    -0.066 SA
BRANCH   9  10
ATOM     10  C   UNL A   1      30.093  25.604  24.310  1.00  0.00     0.191 A 
ATOM     11  N   UNL A   1      30.612  25.421  25.567  1.00  0.00    -0.202 N 
ATOM     12  C   UNL A   1      30.637  24.136  26.025  1.00  0.00     0.280 A 
ATOM     13  N   UNL A   1      30.278  24.681  23.395  1.00  0.00    -0.222 NA
ATOM     14  C   UNL A   1      31.166  23.161  25.093  1.00  0.00     0.069 A 
ATOM     15  O   UNL A   1      30.166  23.834  27.113  1.00  0.00    -0.267 OA
ATOM     16  C   UNL A   1      31.018  23.515  23.756  1.00  0.00     0.079 A 
ATOM     17  C   UNL A   1      31.847  22.017  25.524  1.00  0.00     0.031 A 
ATOM     18  C   UNL A   1      31.602  22.660  22.820  1.00  0.00     0.030 A 
ATOM     19  C   UNL A   1      32.436  21.198  24.580  1.00  0.00     0.018 A 
ATOM     20  C   UNL A   1      32.319  21.513  23.228  1.00  0.00     0.018 A 
ATOM     21  Br  UNL A   1      33.416  19.684  25.148  1.00  0.00    -0.051 Br
BRANCH  11  22
ATOM     22  N   UNL A   1      30.851  26.399  26.508  1.00  0.00    -0.334 N 
ATOM     23  H   UNL A   1      30.545  27.322  26.347  1.00  0.00     0.178 HD
ATOM     24  H   UNL A   1      31.326  26.176  27.340  1.00  0.00     0.178 HD
ENDBRANCH  11  22
ENDBRANCH   9  10
ENDBRANCH   8   9
BRANCH   8  25
ATOM     25  C   UNL A   1      29.324  29.824  23.108  1.00  0.00    -0.023 A 
ATOM     26  C   UNL A   1      28.693  29.749  21.855  1.00  0.00     0.005 A 
ATOM     27  C   UNL A   1      29.282  31.061  23.796  1.00  0.00     0.005 A 
ATOM     28  C   UNL A   1      28.105  30.880  21.284  1.00  0.00     0.000 A 
ATOM     29  C   UNL A   1      28.706  32.193  23.215  1.00  0.00     0.000 A 
ATOM     30  C   UNL A   1      28.128  32.103  21.953  1.00  0.00     0.000 A 
ENDBRANCH   8  25
ENDBRANCH   6   8
ENDBRANCH   5   6
ENDBRANCH   4   5
ENDBRANCH   3   4
ENDBRANCH   2   3
ENDBRANCH   1   2
BRANCH   1  31
ATOM     31  C   UNL A   1      34.999  23.937  24.308  1.00  0.00     0.188 C 
BRANCH  31  32
ATOM     32  O   UNL A   1      36.221  23.464  24.874  1.00  0.00    -0.376 OA
BRANCH  32  33
ATOM     33  C   UNL A   1      36.028  22.297  25.664  1.00  0.00     0.202 C 
BRANCH  33  34
ATOM     34  C   UNL A   1      37.101  21.235  25.390  1.00  0.00     0.261 C 
BRANCH  34  35
ATOM     35  O   UNL A   1      38.445  21.745  25.231  1.00  0.00    -0.460 OA
BRANCH  35  36
ATOM     36  C   UNL A   1      39.339  21.433  26.204  1.00  0.00     0.338 C 
ATOM     37  O   UNL A   1      39.676  20.321  26.553  1.00  0.00    -0.246 OA
BRANCH  36  38
ATOM     38  C   UNL A   1      39.921  22.667  26.797  1.00  0.00     0.060 A 
ATOM     39  C   UNL A   1      40.853  22.645  27.832  1.00  0.00     0.016 A 
ATOM     40  C   UNL A   1      39.595  23.891  26.217  1.00  0.00     0.016 A 
ATOM     41  C   UNL A   1      41.421  23.855  28.273  1.00  0.00     0.010 A 
ATOM     42  C   UNL A   1      40.012  25.093  26.749  1.00  0.00     0.010 A 
ATOM     43  C   UNL A   1      40.985  25.080  27.738  1.00  0.00    -0.014 A 
BRANCH  43  44
ATOM     44  C   UNL A   1      41.636  26.371  28.010  1.00  0.00     0.031 A 
ATOM     45  C   UNL A   1      43.043  26.628  27.592  1.00  0.00     0.074 A 
ATOM     46  C   UNL A   1      41.002  27.222  28.839  1.00  0.00     0.049 A 
ATOM     47  N   UNL A   1      43.706  27.753  27.606  1.00  0.00    -0.248 NA
ATOM     48  C   UNL A   1      43.827  25.467  27.145  1.00  0.00     0.031 C 
ATOM     49  C   UNL A   1      39.724  26.950  29.509  1.00  0.00     0.029 A 
ATOM     50  N   UNL A   1      41.356  28.462  29.297  1.00  0.00    -0.354 N 
ATOM     51  C   UNL A   1      44.964  27.451  27.108  1.00  0.00     0.074 A 
ATOM     52  C   UNL A   1      45.008  26.021  26.898  1.00  0.00     0.031 C 
ATOM     53  C   UNL A   1      39.402  27.993  30.288  1.00  0.00     0.029 A 
ATOM     54  C   UNL A   1      40.407  29.031  30.109  1.00  0.00     0.049 A 
ATOM     55  H   UNL A   1      42.206  28.901  29.068  1.00  0.00     0.167 HD
ATOM     56  C   UNL A   1      45.957  28.323  26.812  1.00  0.00     0.037 A 
ATOM     57  C   UNL A   1      40.320  30.287  30.581  1.00  0.00     0.037 A 
ATOM     58  C   UNL A   1      45.859  29.737  27.073  1.00  0.00     0.049 A 
ATOM     59  C   UNL A   1      41.356  31.274  30.130  1.00  0.00     0.074 A 
ATOM     60  C   UNL A   1      46.720  30.754  26.704  1.00  0.00     0.029 A 
ATOM     61  N   UNL A   1      44.828  30.327  27.795  1.00  0.00    -0.354 N 
ATOM     62  N   UNL A   1      42.439  31.060  29.420  1.00  0.00    -0.248 NA
ATOM     63  C   UNL A   1      41.135  32.679  30.487  1.00  0.00     0.031 C 
ATOM     64  C   UNL A   1      46.226  31.953  27.232  1.00  0.00     0.029 A 
ATOM     65  C   UNL A   1      45.038  31.690  27.896  1.00  0.00     0.049 A 
ATOM     66  H   UNL A   1      44.061  29.845  28.178  1.00  0.00     0.167 HD
ATOM     67  C   UNL A   1      43.018  32.304  29.224  1.00  0.00     0.074 A 
ATOM     68  C   UNL A   1      42.153  33.270  29.874  1.00  0.00     0.031 C 
ATOM     69  C   UNL A   1      44.160  32.619  28.565  1.00  0.00     0.037 A 
BRANCH  56  70
ATOM     70  C   UNL A   1      47.175  27.801  26.106  1.00  0.00     0.064 A 
ATOM     71  C   UNL A   1      47.212  27.716  24.705  1.00  0.00     0.173 A 
ATOM     72  C   UNL A   1      48.346  27.478  26.807  1.00  0.00     0.173 A 
ATOM     73  F   UNL A   1      46.122  28.019  23.981  1.00  0.00    -0.203 F 
ATOM     74  C   UNL A   1      48.363  27.312  24.035  1.00  0.00     0.198 A 
ATOM     75  C   UNL A   1      49.506  27.098  26.133  1.00  0.00     0.198 A 
ATOM     76  F   UNL A   1      48.375  27.548  28.147  1.00  0.00    -0.203 F 
ATOM     77  F   UNL A   1      48.360  27.217  22.698  1.00  0.00    -0.200 F 
ATOM     78  C   UNL A   1      49.513  27.014  24.748  1.00  0.00     0.200 A 
ATOM     79  F   UNL A   1      50.623  26.828  26.822  1.00  0.00    -0.200 F 
ATOM     80  F   UNL A   1      50.629  26.648  24.102  1.00  0.00    -0.200 F 
ENDBRANCH  56  70
BRANCH  57  81
ATOM     81  C   UNL A   1      39.109  30.690  31.338  1.00  0.00     0.064 A 
ATOM     82  C   UNL A   1      39.094  30.614  32.737  1.00  0.00     0.173 A 
ATOM     83  C   UNL A   1      37.992  31.246  30.702  1.00  0.00     0.173 A 
ATOM     84  F   UNL A   1      40.146  30.096  33.390  1.00  0.00    -0.203 F 
ATOM     85  C   UNL A   1      38.001  31.063  33.473  1.00  0.00     0.198 A 
ATOM     86  C   UNL A   1      36.905  31.713  31.439  1.00  0.00     0.198 A 
ATOM     87  F   UNL A   1      37.972  31.371  29.365  1.00  0.00    -0.203 F 
ATOM     88  F   UNL A   1      38.009  30.962  34.809  1.00  0.00    -0.200 F 
ATOM     89  C   UNL A   1      36.909  31.618  32.824  1.00  0.00     0.200 A 
ATOM     90  F   UNL A   1      35.860  32.271  30.811  1.00  0.00    -0.200 F 
ATOM     91  F   UNL A   1      35.863  32.066  33.532  1.00  0.00    -0.200 F 
ENDBRANCH  57  81
BRANCH  69  92
ATOM     92  C   UNL A   1      44.552  34.064  28.538  1.00  0.00     0.064 A 
ATOM     93  C   UNL A   1      44.054  34.929  27.554  1.00  0.00     0.173 A 
ATOM     94  C   UNL A   1      45.360  34.603  29.549  1.00  0.00     0.173 A 
ATOM     95  F   UNL A   1      43.289  34.452  26.560  1.00  0.00    -0.203 F 
ATOM     96  C   UNL A   1      44.360  36.285  27.577  1.00  0.00     0.198 A 
ATOM     97  C   UNL A   1      45.642  35.964  29.584  1.00  0.00     0.198 A 
ATOM     98  F   UNL A   1      45.854  33.814  30.514  1.00  0.00    -0.203 F 
ATOM     99  F   UNL A   1      43.896  37.090  26.611  1.00  0.00    -0.200 F 
ATOM    100  C   UNL A   1      45.144  36.803  28.598  1.00  0.00     0.200 A 
ATOM    101  F   UNL A   1      46.387  36.468  30.577  1.00  0.00    -0.200 F 
ATOM    102  F   UNL A   1      45.420  38.114  28.630  1.00  0.00    -0.200 F 
ENDBRANCH  69  92
ENDBRANCH  43  44
ENDBRANCH  36  38
ENDBRANCH  35  36
ENDBRANCH  34  35
ENDBRANCH  33  34
ENDBRANCH  32  33
ENDBRANCH  31  32
ENDBRANCH   1  31
TORSDOF 21
ENDMDL
MODEL 2
REMARK VINA RESULT:     -11.7      4.297     10.189
REMARK SMILES Nn1c(S[C@@H](C(=O)OCCOCCOCCOC(=O)c2ccc(-c3c4nc(c(-c5c(F)c(F)c(F)c(F)c5F)c5ccc([nH]5)c(-c5c(F)c(F)c(F)c(F)c5F)c5nc(c(-c6c(F)c(F)c(F)c(F)c6F)c6ccc3[nH]6)C=C5)C=C4)cc2)c2ccccc2)nc2ccc(Br)cc2c1=O
REMARK SMILES IDX 12 1 11 2 10 3 9 4 8 5 6 6 7 7 5 8 4 9 3 10 2 11 97 12 89 13
REMARK SMILES IDX 96 14 98 15 90 16 95 17 91 18 93 19 92 20 94 21 1 22 83 25
REMARK SMILES IDX 84 26 88 27 85 28 87 29 86 30 13 31 14 32 15 33 16 34 17 35
REMARK SMILES IDX 18 36 19 37 20 38 21 39 82 40 22 41 81 42 23 43 24 44 25 45
REMARK SMILES IDX 75 46 26 47 80 48 74 49 76 50 27 51 79 52 73 53 72 54 28 56
REMARK SMILES IDX 60 57 40 58 59 59 41 60 44 61 58 62 77 63 42 64 43 65 57 67
REMARK SMILES IDX 78 68 45 69 29 70 30 71 38 72 31 73 32 74 36 75 39 76 33 77
REMARK SMILES IDX 34 78 37 79 35 80 61 81 62 82 70 83 63 84 64 85 68 86 71 87
REMARK SMILES IDX 65 88 66 89 69 90 67 91 46 92 47 93 55 94 48 95 49 96 53 97
REMARK SMILES IDX 56 98 50 99 51 100 54 101 52 102
REMARK H PARENT 1 23 1 24 76 55 44 66
REMARK Flexibility Score: inf
ROOT
ATOM      1  C   UNL A   1      31.894  26.320  26.498  1.00  0.00     0.188 C 
ENDROOT
BRANCH   1   2
ATOM      2  O   UNL A   1      32.832  25.242  26.461  1.00  0.00    -0.376 OA
BRANCH   2   3
ATOM      3  C   UNL A   1      32.366  23.961  26.855  1.00  0.00     0.202 C 
BRANCH   3   4
ATOM      4  C   UNL A   1      33.456  22.926  27.158  1.00  0.00     0.261 C 
BRANCH   4   5
ATOM      5  O   UNL A   1      33.045  21.546  26.999  1.00  0.00    -0.462 OA
BRANCH   5   6
ATOM      6  C   UNL A   1      32.698  21.216  25.726  1.00  0.00     0.324 C 
ATOM      7  O   UNL A   1      31.520  21.118  25.374  1.00  0.00    -0.251 OA
BRANCH   6   8
ATOM      8  C   UNL A   1      33.838  20.916  24.742  1.00  0.00     0.194 C 
BRANCH   8   9
ATOM      9  S   UNL A   1      34.554  22.242  23.714  1.00  0.00    -0.066 SA
BRANCH   9  10
ATOM     10  C   UNL A   1      33.523  23.595  23.291  1.00  0.00     0.191 A 
ATOM     11  N   UNL A   1      32.225  23.440  22.873  1.00  0.00    -0.202 N 
ATOM     12  C   UNL A   1      31.349  24.408  23.269  1.00  0.00     0.280 A 
ATOM     13  N   UNL A   1      34.026  24.802  23.401  1.00  0.00    -0.222 NA
ATOM     14  C   UNL A   1      31.804  25.769  23.070  1.00  0.00     0.069 A 
ATOM     15  O   UNL A   1      30.295  24.130  23.824  1.00  0.00    -0.267 OA
ATOM     16  C   UNL A   1      33.187  25.911  23.080  1.00  0.00     0.079 A 
ATOM     17  C   UNL A   1      30.916  26.816  22.799  1.00  0.00     0.031 A 
ATOM     18  C   UNL A   1      33.682  27.184  22.792  1.00  0.00     0.030 A 
ATOM     19  C   UNL A   1      31.429  28.062  22.493  1.00  0.00     0.018 A 
ATOM     20  C   UNL A   1      32.809  28.253  22.487  1.00  0.00     0.018 A 
ATOM     21  Br  UNL A   1      30.246  29.471  22.060  1.00  0.00    -0.051 Br
BRANCH  11  22
ATOM     22  N   UNL A   1      31.662  22.299  22.344  1.00  0.00    -0.334 N 
ATOM     23  H   UNL A   1      32.236  21.540  22.089  1.00  0.00     0.178 HD
ATOM     24  H   UNL A   1      30.688  22.243  22.219  1.00  0.00     0.178 HD
ENDBRANCH  11  22
ENDBRANCH   9  10
ENDBRANCH   8   9
BRANCH   8  25
ATOM     25  C   UNL A   1      33.832  19.471  24.235  1.00  0.00    -0.023 A 
ATOM     26  C   UNL A   1      32.780  19.010  23.427  1.00  0.00     0.005 A 
ATOM     27  C   UNL A   1      34.857  18.553  24.571  1.00  0.00     0.005 A 
ATOM     28  C   UNL A   1      32.717  17.673  23.029  1.00  0.00     0.000 A 
ATOM     29  C   UNL A   1      34.784  17.212  24.185  1.00  0.00     0.000 A 
ATOM     30  C   UNL A   1      33.707  16.772  23.423  1.00  0.00     0.000 A 
ENDBRANCH   8  25
ENDBRANCH   6   8
ENDBRANCH   5   6
ENDBRANCH   4   5
ENDBRANCH   3   4
ENDBRANCH   2   3
ENDBRANCH   1   2
BRANCH   1  31
ATOM     31  C   UNL A   1      32.402  27.751  26.291  1.00  0.00     0.188 C 
BRANCH  31  32
ATOM     32  O   UNL A   1      31.318  28.659  26.097  1.00  0.00    -0.376 OA
BRANCH  32  33
ATOM     33  C   UNL A   1      31.748  29.897  25.543  1.00  0.00     0.202 C 
BRANCH  33  34
ATOM     34  C   UNL A   1      33.064  30.378  26.168  1.00  0.00     0.261 C 
BRANCH  34  35
ATOM     35  O   UNL A   1      32.942  30.960  27.486  1.00  0.00    -0.460 OA
BRANCH  35  36
ATOM     36  C   UNL A   1      33.714  32.046  27.752  1.00  0.00     0.338 C 
ATOM     37  O   UNL A   1      33.385  33.210  27.665  1.00  0.00    -0.246 OA
BRANCH  36  38
ATOM     38  C   UNL A   1      35.060  31.629  28.226  1.00  0.00     0.060 A 
ATOM     39  C   UNL A   1      36.173  32.466  28.183  1.00  0.00     0.016 A 
ATOM     40  C   UNL A   1      35.186  30.381  28.835  1.00  0.00     0.016 A 
ATOM     41  C   UNL A   1      37.389  32.023  28.735  1.00  0.00     0.010 A 
ATOM     42  C   UNL A   1      36.406  29.871  29.224  1.00  0.00     0.010 A 
ATOM     43  C   UNL A   1      37.506  30.717  29.242  1.00  0.00    -0.014 A 
BRANCH  43  44
ATOM     44  C   UNL A   1      38.675  30.227  29.988  1.00  0.00     0.031 A 
ATOM     45  C   UNL A   1      38.982  30.731  31.357  1.00  0.00     0.074 A 
ATOM     46  C   UNL A   1      39.576  29.487  29.313  1.00  0.00     0.049 A 
ATOM     47  N   UNL A   1      39.868  30.290  32.209  1.00  0.00    -0.248 NA
ATOM     48  C   UNL A   1      38.235  31.913  31.814  1.00  0.00     0.031 C 
ATOM     49  C   UNL A   1      39.490  29.151  27.886  1.00  0.00     0.029 A 
ATOM     50  N   UNL A   1      40.755  28.921  29.714  1.00  0.00    -0.354 N 
ATOM     51  C   UNL A   1      39.740  31.095  33.330  1.00  0.00     0.074 A 
ATOM     52  C   UNL A   1      38.766  32.116  33.014  1.00  0.00     0.031 C 
ATOM     53  C   UNL A   1      40.568  28.436  27.535  1.00  0.00     0.029 A 
ATOM     54  C   UNL A   1      41.374  28.199  28.724  1.00  0.00     0.049 A 
ATOM     55  H   UNL A   1      41.123  29.022  30.621  1.00  0.00     0.167 HD
ATOM     56  C   UNL A   1      40.357  30.938  34.525  1.00  0.00     0.037 A 
ATOM     57  C   UNL A   1      42.426  27.366  28.797  1.00  0.00     0.037 A 
ATOM     58  C   UNL A   1      41.342  29.913  34.766  1.00  0.00     0.049 A 
ATOM     59  C   UNL A   1      43.010  27.099  30.153  1.00  0.00     0.074 A 
ATOM     60  C   UNL A   1      41.947  29.547  35.955  1.00  0.00     0.029 A 
ATOM     61  N   UNL A   1      41.879  29.099  33.776  1.00  0.00    -0.354 N 
ATOM     62  N   UNL A   1      42.719  27.667  31.299  1.00  0.00    -0.248 NA
ATOM     63  C   UNL A   1      44.020  26.039  30.244  1.00  0.00     0.031 C 
ATOM     64  C   UNL A   1      42.872  28.534  35.676  1.00  0.00     0.029 A 
ATOM     65  C   UNL A   1      42.818  28.242  34.321  1.00  0.00     0.049 A 
ATOM     66  H   UNL A   1      41.628  29.128  32.824  1.00  0.00     0.167 HD
ATOM     67  C   UNL A   1      43.489  27.022  32.252  1.00  0.00     0.074 A 
ATOM     68  C   UNL A   1      44.247  26.003  31.551  1.00  0.00     0.031 C 
ATOM     69  C   UNL A   1      43.563  27.249  33.587  1.00  0.00     0.037 A 
BRANCH  56  70
ATOM     70  C   UNL A   1      39.935  31.817  35.666  1.00  0.00     0.064 A 
ATOM     71  C   UNL A   1      40.616  33.014  35.940  1.00  0.00     0.173 A 
ATOM     72  C   UNL A   1      38.795  31.529  36.430  1.00  0.00     0.173 A 
ATOM     73  F   UNL A   1      41.711  33.344  35.237  1.00  0.00    -0.203 F 
ATOM     74  C   UNL A   1      40.184  33.879  36.942  1.00  0.00     0.198 A 
ATOM     75  C   UNL A   1      38.349  32.409  37.416  1.00  0.00     0.198 A 
ATOM     76  F   UNL A   1      38.097  30.404  36.209  1.00  0.00    -0.203 F 
ATOM     77  F   UNL A   1      40.869  35.002  37.197  1.00  0.00    -0.200 F 
ATOM     78  C   UNL A   1      39.045  33.581  37.672  1.00  0.00     0.200 A 
ATOM     79  F   UNL A   1      37.237  32.130  38.109  1.00  0.00    -0.200 F 
ATOM     80  F   UNL A   1      38.616  34.425  38.621  1.00  0.00    -0.200 F 
ENDBRANCH  56  70
BRANCH  57  81
ATOM     81  C   UNL A   1      42.820  26.596  27.592  1.00  0.00     0.064 A 
ATOM     82  C   UNL A   1      43.834  27.073  26.750  1.00  0.00     0.173 A 
ATOM     83  C   UNL A   1      42.275  25.337  27.309  1.00  0.00     0.173 A 
ATOM     84  F   UNL A   1      44.392  28.270  26.988  1.00  0.00    -0.203 F 
ATOM     85  C   UNL A   1      44.277  26.329  25.661  1.00  0.00     0.198 A 
ATOM     86  C   UNL A   1      42.731  24.584  26.229  1.00  0.00     0.198 A 
ATOM     87  F   UNL A   1      41.324  24.822  28.104  1.00  0.00    -0.203 F 
ATOM     88  F   UNL A   1      45.237  26.819  24.864  1.00  0.00    -0.200 F 
ATOM     89  C   UNL A   1      43.730  25.081  25.403  1.00  0.00     0.200 A 
ATOM     90  F   UNL A   1      42.217  23.368  25.995  1.00  0.00    -0.200 F 
ATOM     91  F   UNL A   1      44.168  24.358  24.364  1.00  0.00    -0.200 F 
ENDBRANCH  57  81
BRANCH  69  92
ATOM     92  C   UNL A   1      44.515  26.398  34.369  1.00  0.00     0.064 A 
ATOM     93  C   UNL A   1      45.801  26.857  34.685  1.00  0.00     0.173 A 
ATOM     94  C   UNL A   1      44.109  25.156  34.877  1.00  0.00     0.173 A 
ATOM     95  F   UNL A   1      46.234  28.033  34.208  1.00  0.00    -0.203 F 
ATOM     96  C   UNL A   1      46.654  26.095  35.476  1.00  0.00     0.198 A 
ATOM     97  C   UNL A   1      44.955  24.409  35.690  1.00  0.00     0.198 A 
ATOM     98  F   UNL A   1      42.885  24.680  34.604  1.00  0.00    -0.203 F 
ATOM     99  F   UNL A   1      47.889  26.539  35.744  1.00  0.00    -0.200 F 
ATOM    100  C   UNL A   1      46.226  24.878  35.988  1.00  0.00     0.200 A 
ATOM    101  F   UNL A   1      44.537  23.241  36.195  1.00  0.00    -0.200 F 
ATOM    102  F   UNL A   1      47.042  24.156  36.767  1.00  0.00    -0.200 F 
ENDBRANCH  69  92
ENDBRANCH  43  44
ENDBRANCH  36  38
ENDBRANCH  35  36
ENDBRANCH  34  35
ENDBRANCH  33  34
ENDBRANCH  32  33
ENDBRANCH  31  32
ENDBRANCH   1  31
TORSDOF 21
ENDMDL
MODEL 3
REMARK VINA RESULT:     -11.5      2.821      8.520
REMARK SMILES Nn1c(S[C@@H](C(=O)OCCOCCOCCOC(=O)c2ccc(-c3c4nc(c(-c5c(F)c(F)c(F)c(F)c5F)c5ccc([nH]5)c(-c5c(F)c(F)c(F)c(F)c5F)c5nc(c(-c6c(F)c(F)c(F)c(F)c6F)c6ccc3[nH]6)C=C5)C=C4)cc2)c2ccccc2)nc2ccc(Br)cc2c1=O
REMARK SMILES IDX 12 1 11 2 10 3 9 4 8 5 6 6 7 7 5 8 4 9 3 10 2 11 97 12 89 13
REMARK SMILES IDX 96 14 98 15 90 16 95 17 91 18 93 19 92 20 94 21 1 22 83 25
REMARK SMILES IDX 84 26 88 27 85 28 87 29 86 30 13 31 14 32 15 33 16 34 17 35
REMARK SMILES IDX 18 36 19 37 20 38 21 39 82 40 22 41 81 42 23 43 24 44 25 45
REMARK SMILES IDX 75 46 26 47 80 48 74 49 76 50 27 51 79 52 73 53 72 54 28 56
REMARK SMILES IDX 60 57 40 58 59 59 41 60 44 61 58 62 77 63 42 64 43 65 57 67
REMARK SMILES IDX 78 68 45 69 29 70 30 71 38 72 31 73 32 74 36 75 39 76 33 77
REMARK SMILES IDX 34 78 37 79 35 80 61 81 62 82 70 83 63 84 64 85 68 86 71 87
REMARK SMILES IDX 65 88 66 89 69 90 67 91 46 92 47 93 55 94 48 95 49 96 53 97
REMARK SMILES IDX 56 98 50 99 51 100 54 101 52 102
REMARK H PARENT 1 23 1 24 76 55 44 66
REMARK Flexibility Score: inf
ROOT
ATOM      1  C   UNL A   1      36.302  23.265  25.248  1.00  0.00     0.188 C 
ENDROOT
BRANCH   1   2
ATOM      2  O   UNL A   1      35.743  22.849  26.495  1.00  0.00    -0.376 OA
BRANCH   2   3
ATOM      3  C   UNL A   1      34.505  23.428  26.878  1.00  0.00     0.202 C 
BRANCH   3   4
ATOM      4  C   UNL A   1      33.540  22.492  27.617  1.00  0.00     0.261 C 
BRANCH   4   5
ATOM      5  O   UNL A   1      33.298  21.225  26.957  1.00  0.00    -0.462 OA
BRANCH   5   6
ATOM      6  C   UNL A   1      32.489  21.315  25.869  1.00  0.00     0.324 C 
ATOM      7  O   UNL A   1      31.264  21.413  25.972  1.00  0.00    -0.251 OA
BRANCH   6   8
ATOM      8  C   UNL A   1      33.155  21.237  24.487  1.00  0.00     0.194 C 
BRANCH   8   9
ATOM      9  S   UNL A   1      33.051  22.638  23.324  1.00  0.00    -0.066 SA
BRANCH   9  10
ATOM     10  C   UNL A   1      32.632  24.211  23.974  1.00  0.00     0.191 A 
ATOM     11  N   UNL A   1      31.446  24.459  24.617  1.00  0.00    -0.202 N 
ATOM     12  C   UNL A   1      31.499  25.346  25.653  1.00  0.00     0.280 A 
ATOM     13  N   UNL A   1      33.511  25.177  23.846  1.00  0.00    -0.222 NA
ATOM     14  C   UNL A   1      32.210  26.577  25.373  1.00  0.00     0.069 A 
ATOM     15  O   UNL A   1      31.046  25.071  26.755  1.00  0.00    -0.267 OA
ATOM     16  C   UNL A   1      33.189  26.456  24.392  1.00  0.00     0.079 A 
ATOM     17  C   UNL A   1      31.862  27.789  25.980  1.00  0.00     0.031 A 
ATOM     18  C   UNL A   1      33.834  27.634  24.011  1.00  0.00     0.030 A 
ATOM     19  C   UNL A   1      32.498  28.945  25.570  1.00  0.00     0.018 A 
ATOM     20  C   UNL A   1      33.483  28.876  24.587  1.00  0.00     0.018 A 
ATOM     21  Br  UNL A   1      31.994  30.600  26.332  1.00  0.00    -0.051 Br
BRANCH  11  22
ATOM     22  N   UNL A   1      30.286  23.722  24.516  1.00  0.00    -0.334 N 
ATOM     23  H   UNL A   1      29.411  24.172  24.570  1.00  0.00     0.178 HD
ATOM     24  H   UNL A   1      30.331  22.747  24.391  1.00  0.00     0.178 HD
ENDBRANCH  11  22
ENDBRANCH   9  10
ENDBRANCH   8   9
BRANCH   8  25
ATOM     25  C   UNL A   1      33.276  19.806  23.956  1.00  0.00    -0.023 A 
ATOM     26  C   UNL A   1      32.386  19.339  22.975  1.00  0.00     0.005 A 
ATOM     27  C   UNL A   1      34.259  18.907  24.437  1.00  0.00     0.005 A 
ATOM     28  C   UNL A   1      32.430  18.011  22.544  1.00  0.00     0.000 A 
ATOM     29  C   UNL A   1      34.291  17.576  24.015  1.00  0.00     0.000 A 
ATOM     30  C   UNL A   1      33.368  17.127  23.076  1.00  0.00     0.000 A 
ENDBRANCH   8  25
ENDBRANCH   6   8
ENDBRANCH   5   6
ENDBRANCH   4   5
ENDBRANCH   3   4
ENDBRANCH   2   3
ENDBRANCH   1   2
BRANCH   1  31
ATOM     31  C   UNL A   1      37.401  22.410  24.607  1.00  0.00     0.188 C 
BRANCH  31  32
ATOM     32  O   UNL A   1      37.667  21.244  25.387  1.00  0.00    -0.376 OA
BRANCH  32  33
ATOM     33  C   UNL A   1      39.035  21.154  25.766  1.00  0.00     0.202 C 
BRANCH  33  34
ATOM     34  C   UNL A   1      39.580  19.729  25.609  1.00  0.00     0.261 C 
BRANCH  34  35
ATOM     35  O   UNL A   1      40.528  19.318  26.621  1.00  0.00    -0.460 OA
BRANCH  35  36
ATOM     36  C   UNL A   1      41.835  19.265  26.252  1.00  0.00     0.338 C 
ATOM     37  O   UNL A   1      42.441  18.290  25.861  1.00  0.00    -0.246 OA
BRANCH  36  38
ATOM     38  C   UNL A   1      42.460  20.611  26.343  1.00  0.00     0.060 A 
ATOM     39  C   UNL A   1      43.021  21.264  25.247  1.00  0.00     0.016 A 
ATOM     40  C   UNL A   1      42.387  21.289  27.558  1.00  0.00     0.016 A 
ATOM     41  C   UNL A   1      43.511  22.574  25.402  1.00  0.00     0.010 A 
ATOM     42  C   UNL A   1      43.013  22.500  27.766  1.00  0.00     0.010 A 
ATOM     43  C   UNL A   1      43.519  23.183  26.669  1.00  0.00    -0.014 A 
BRANCH  43  44
ATOM     44  C   UNL A   1      43.849  24.599  26.896  1.00  0.00     0.031 A 
ATOM     45  C   UNL A   1      42.793  25.589  27.252  1.00  0.00     0.074 A 
ATOM     46  C   UNL A   1      45.085  25.010  26.553  1.00  0.00     0.049 A 
ATOM     47  N   UNL A   1      42.934  26.827  27.642  1.00  0.00    -0.248 NA
ATOM     48  C   UNL A   1      41.396  25.153  27.105  1.00  0.00     0.031 C 
ATOM     49  C   UNL A   1      46.119  24.158  25.951  1.00  0.00     0.029 A 
ATOM     50  N   UNL A   1      45.672  26.244  26.617  1.00  0.00    -0.354 N 
ATOM     51  C   UNL A   1      41.648  27.299  27.854  1.00  0.00     0.074 A 
ATOM     52  C   UNL A   1      40.736  26.252  27.450  1.00  0.00     0.031 C 
ATOM     53  C   UNL A   1      47.211  24.896  25.705  1.00  0.00     0.029 A 
ATOM     54  C   UNL A   1      46.980  26.245  26.203  1.00  0.00     0.049 A 
ATOM     55  H   UNL A   1      45.202  27.051  26.928  1.00  0.00     0.167 HD
ATOM     56  C   UNL A   1      41.293  28.490  28.391  1.00  0.00     0.037 A 
ATOM     57  C   UNL A   1      47.913  27.208  26.301  1.00  0.00     0.037 A 
ATOM     58  C   UNL A   1      42.253  29.505  28.747  1.00  0.00     0.049 A 
ATOM     59  C   UNL A   1      47.538  28.469  27.023  1.00  0.00     0.074 A 
ATOM     60  C   UNL A   1      42.055  30.695  29.422  1.00  0.00     0.029 A 
ATOM     61  N   UNL A   1      43.605  29.443  28.430  1.00  0.00    -0.354 N 
ATOM     62  N   UNL A   1      46.365  28.836  27.479  1.00  0.00    -0.248 NA
ATOM     63  C   UNL A   1      48.619  29.421  27.299  1.00  0.00     0.031 C 
ATOM     64  C   UNL A   1      43.281  31.368  29.483  1.00  0.00     0.029 A 
ATOM     65  C   UNL A   1      44.252  30.580  28.882  1.00  0.00     0.049 A 
ATOM     66  H   UNL A   1      44.040  28.700  27.954  1.00  0.00     0.167 HD
ATOM     67  C   UNL A   1      46.565  30.050  28.117  1.00  0.00     0.074 A 
ATOM     68  C   UNL A   1      47.981  30.346  28.006  1.00  0.00     0.031 C 
ATOM     69  C   UNL A   1      45.662  30.846  28.739  1.00  0.00     0.037 A 
BRANCH  56  70
ATOM     70  C   UNL A   1      39.843  28.726  28.703  1.00  0.00     0.064 A 
ATOM     71  C   UNL A   1      39.341  28.497  29.995  1.00  0.00     0.173 A 
ATOM     72  C   UNL A   1      38.969  29.275  27.754  1.00  0.00     0.173 A 
ATOM     73  F   UNL A   1      40.134  27.978  30.946  1.00  0.00    -0.203 F 
ATOM     74  C   UNL A   1      38.019  28.790  30.319  1.00  0.00     0.198 A 
ATOM     75  C   UNL A   1      37.653  29.592  28.088  1.00  0.00     0.198 A 
ATOM     76  F   UNL A   1      39.393  29.525  26.506  1.00  0.00    -0.203 F 
ATOM     77  F   UNL A   1      37.561  28.536  31.553  1.00  0.00    -0.200 F 
ATOM     78  C   UNL A   1      37.179  29.347  29.369  1.00  0.00     0.200 A 
ATOM     79  F   UNL A   1      36.845  30.148  27.174  1.00  0.00    -0.200 F 
ATOM     80  F   UNL A   1      35.913  29.651  29.687  1.00  0.00    -0.200 F 
ENDBRANCH  56  70
BRANCH  57  81
ATOM     81  C   UNL A   1      49.307  26.905  25.894  1.00  0.00     0.064 A 
ATOM     82  C   UNL A   1      50.180  26.268  26.786  1.00  0.00     0.173 A 
ATOM     83  C   UNL A   1      49.766  27.149  24.593  1.00  0.00     0.173 A 
ATOM     84  F   UNL A   1      49.780  26.006  28.040  1.00  0.00    -0.203 F 
ATOM     85  C   UNL A   1      51.465  25.900  26.399  1.00  0.00     0.198 A 
ATOM     86  C   UNL A   1      51.046  26.764  24.199  1.00  0.00     0.198 A 
ATOM     87  F   UNL A   1      48.956  27.728  23.692  1.00  0.00    -0.203 F 
ATOM     88  F   UNL A   1      52.283  25.306  27.279  1.00  0.00    -0.200 F 
ATOM     89  C   UNL A   1      51.897  26.143  25.103  1.00  0.00     0.200 A 
ATOM     90  F   UNL A   1      51.453  26.979  22.940  1.00  0.00    -0.200 F 
ATOM     91  F   UNL A   1      53.128  25.774  24.725  1.00  0.00    -0.200 F 
ENDBRANCH  57  81
BRANCH  69  92
ATOM     92  C   UNL A   1      46.174  32.126  29.324  1.00  0.00     0.064 A 
ATOM     93  C   UNL A   1      46.168  33.313  28.579  1.00  0.00     0.173 A 
ATOM     94  C   UNL A   1      46.593  32.183  30.661  1.00  0.00     0.173 A 
ATOM     95  F   UNL A   1      45.789  33.301  27.292  1.00  0.00    -0.203 F 
ATOM     96  C   UNL A   1      46.573  34.514  29.150  1.00  0.00     0.198 A 
ATOM     97  C   UNL A   1      46.971  33.391  31.237  1.00  0.00     0.198 A 
ATOM     98  F   UNL A   1      46.610  31.073  31.413  1.00  0.00    -0.203 F 
ATOM     99  F   UNL A   1      46.586  35.633  28.413  1.00  0.00    -0.200 F 
ATOM    100  C   UNL A   1      46.963  34.554  30.482  1.00  0.00     0.200 A 
ATOM    101  F   UNL A   1      47.334  33.432  32.526  1.00  0.00    -0.200 F 
ATOM    102  F   UNL A   1      47.332  35.716  31.037  1.00  0.00    -0.200 F 
ENDBRANCH  69  92
ENDBRANCH  43  44
ENDBRANCH  36  38
ENDBRANCH  35  36
ENDBRANCH  34  35
ENDBRANCH  33  34
ENDBRANCH  32  33
ENDBRANCH  31  32
ENDBRANCH   1  31
TORSDOF 21
ENDMDL
