MODEL 1
REMARK VINA RESULT:     -11.0      0.000      0.000
REMARK SMILES C[C@H](C(=O)OCCOCCOCCOC(=O)c1ccc(-c2c3nc(c(-c4c(F)c(F)c(F)c(F)c4F)c4ccc([nH]4)c(-c4c(F)c(F)c(F)c(F)c4F)c4nc(c(-c5c(F)c(F)c(F)c(F)c5F)c5ccc2[nH]5)C=C4)C=C3)cc1)c1ccc(C[C@H]2CCC[C@@H]2O)cc1
REMARK SMILES IDX 9 1 8 2 7 3 6 4 5 5 3 6 4 7 2 8 1 9 80 10 81 11 92 12 82 13
REMARK SMILES IDX 91 14 83 15 84 16 85 17 86 18 89 19 87 20 88 21 90 22 10 24
REMARK SMILES IDX 11 25 12 26 13 27 14 28 15 29 16 30 17 31 18 32 79 33 19 34
REMARK SMILES IDX 78 35 20 36 21 37 22 38 72 39 23 40 77 41 71 42 73 43 24 44
REMARK SMILES IDX 76 45 70 46 69 47 25 49 57 50 37 51 56 52 38 53 41 54 55 55
REMARK SMILES IDX 74 56 39 57 40 58 54 60 75 61 42 62 26 63 27 64 35 65 28 66
REMARK SMILES IDX 29 67 33 68 36 69 30 70 31 71 34 72 32 73 58 74 59 75 67 76
REMARK SMILES IDX 60 77 61 78 65 79 68 80 62 81 63 82 66 83 64 84 43 85 44 86
REMARK SMILES IDX 52 87 45 88 46 89 50 90 53 91 47 92 48 93 51 94 49 95
REMARK H PARENT 90 23 73 48 41 59
REMARK Flexibility Score: inf
ROOT
ATOM      1  C   UNL A   1      32.869  29.679  25.290  1.00  0.00     0.188 C 
ENDROOT
BRANCH   1   2
ATOM      2  O   UNL A   1      33.434  28.976  26.386  1.00  0.00    -0.376 OA
BRANCH   2   3
ATOM      3  C   UNL A   1      32.586  28.178  27.195  1.00  0.00     0.202 C 
BRANCH   3   4
ATOM      4  C   UNL A   1      32.360  26.722  26.773  1.00  0.00     0.261 C 
BRANCH   4   5
ATOM      5  O   UNL A   1      33.365  26.228  25.865  1.00  0.00    -0.463 OA
BRANCH   5   6
ATOM      6  C   UNL A   1      32.938  25.371  24.905  1.00  0.00     0.313 C 
ATOM      7  O   UNL A   1      32.770  24.170  25.104  1.00  0.00    -0.252 OA
BRANCH   6   8
ATOM      8  C   UNL A   1      32.589  26.010  23.556  1.00  0.00     0.126 C 
ATOM      9  C   UNL A   1      32.876  24.962  22.471  1.00  0.00     0.025 C 
BRANCH   8  10
ATOM     10  C   UNL A   1      31.239  26.711  23.394  1.00  0.00    -0.034 A 
ATOM     11  C   UNL A   1      31.134  27.824  22.547  1.00  0.00     0.005 A 
ATOM     12  C   UNL A   1      30.053  26.262  24.003  1.00  0.00     0.005 A 
ATOM     13  C   UNL A   1      29.910  28.485  22.361  1.00  0.00     0.004 A 
ATOM     14  C   UNL A   1      28.842  26.958  23.855  1.00  0.00     0.004 A 
ATOM     15  C   UNL A   1      28.762  28.105  23.062  1.00  0.00    -0.048 A 
BRANCH  15  16
ATOM     16  C   UNL A   1      27.448  28.847  22.932  1.00  0.00     0.041 C 
BRANCH  16  17
ATOM     17  C   UNL A   1      27.475  30.364  22.660  1.00  0.00     0.022 C 
ATOM     18  C   UNL A   1      28.025  31.254  23.784  1.00  0.00     0.007 C 
ATOM     19  C   UNL A   1      28.228  30.821  21.408  1.00  0.00     0.117 C 
ATOM     20  C   UNL A   1      28.751  32.413  23.088  1.00  0.00     0.003 C 
ATOM     21  C   UNL A   1      28.358  32.321  21.620  1.00  0.00     0.032 C 
BRANCH  19  22
ATOM     22  O   UNL A   1      27.534  30.503  20.217  1.00  0.00    -0.393 OA
ATOM     23  H   UNL A   1      26.899  31.207  20.015  1.00  0.00     0.210 HD
ENDBRANCH  19  22
ENDBRANCH  16  17
ENDBRANCH  15  16
ENDBRANCH   8  10
ENDBRANCH   6   8
ENDBRANCH   5   6
ENDBRANCH   4   5
ENDBRANCH   3   4
ENDBRANCH   2   3
ENDBRANCH   1   2
BRANCH   1  24
ATOM     24  C   UNL A   1      31.418  30.202  25.337  1.00  0.00     0.188 C 
BRANCH  24  25
ATOM     25  O   UNL A   1      31.076  31.477  25.833  1.00  0.00    -0.376 OA
BRANCH  25  26
ATOM     26  C   UNL A   1      31.696  31.996  26.989  1.00  0.00     0.202 C 
BRANCH  26  27
ATOM     27  C   UNL A   1      32.185  33.446  27.026  1.00  0.00     0.261 C 
BRANCH  27  28
ATOM     28  O   UNL A   1      32.744  33.867  28.278  1.00  0.00    -0.460 OA
BRANCH  28  29
ATOM     29  C   UNL A   1      33.944  34.480  28.196  1.00  0.00     0.338 C 
ATOM     30  O   UNL A   1      34.167  35.675  27.977  1.00  0.00    -0.246 OA
BRANCH  29  31
ATOM     31  C   UNL A   1      35.009  33.542  28.568  1.00  0.00     0.060 A 
ATOM     32  C   UNL A   1      34.656  32.320  29.155  1.00  0.00     0.016 A 
ATOM     33  C   UNL A   1      36.349  33.896  28.415  1.00  0.00     0.016 A 
ATOM     34  C   UNL A   1      35.642  31.451  29.613  1.00  0.00     0.010 A 
ATOM     35  C   UNL A   1      37.338  33.033  28.892  1.00  0.00     0.010 A 
ATOM     36  C   UNL A   1      36.990  31.821  29.518  1.00  0.00    -0.014 A 
BRANCH  36  37
ATOM     37  C   UNL A   1      38.028  31.033  30.222  1.00  0.00     0.031 A 
ATOM     38  C   UNL A   1      38.275  31.308  31.679  1.00  0.00     0.074 A 
ATOM     39  C   UNL A   1      38.739  30.090  29.582  1.00  0.00     0.049 A 
ATOM     40  N   UNL A   1      39.208  30.842  32.468  1.00  0.00    -0.248 NA
ATOM     41  C   UNL A   1      37.341  32.239  32.331  1.00  0.00     0.031 C 
ATOM     42  C   UNL A   1      38.553  29.691  28.189  1.00  0.00     0.029 A 
ATOM     43  N   UNL A   1      39.779  29.310  30.023  1.00  0.00    -0.354 N 
ATOM     44  C   UNL A   1      38.985  31.435  33.704  1.00  0.00     0.074 A 
ATOM     45  C   UNL A   1      37.844  32.312  33.555  1.00  0.00     0.031 C 
ATOM     46  C   UNL A   1      39.465  28.753  27.881  1.00  0.00     0.029 A 
ATOM     47  C   UNL A   1      40.325  28.522  29.041  1.00  0.00     0.049 A 
ATOM     48  H   UNL A   1      40.101  29.314  30.953  1.00  0.00     0.167 HD
ATOM     49  C   UNL A   1      39.671  31.260  34.858  1.00  0.00     0.037 A 
ATOM     50  C   UNL A   1      41.418  27.734  29.069  1.00  0.00     0.037 A 
ATOM     51  C   UNL A   1      40.807  30.389  35.001  1.00  0.00     0.049 A 
ATOM     52  C   UNL A   1      42.217  27.620  30.343  1.00  0.00     0.074 A 
ATOM     53  C   UNL A   1      41.568  30.141  36.129  1.00  0.00     0.029 A 
ATOM     54  N   UNL A   1      41.347  29.625  33.978  1.00  0.00    -0.354 N 
ATOM     55  N   UNL A   1      42.006  28.184  31.508  1.00  0.00    -0.248 NA
ATOM     56  C   UNL A   1      43.409  26.761  30.304  1.00  0.00     0.031 C 
ATOM     57  C   UNL A   1      42.602  29.266  35.776  1.00  0.00     0.029 A 
ATOM     58  C   UNL A   1      42.448  28.922  34.442  1.00  0.00     0.049 A 
ATOM     59  H   UNL A   1      41.000  29.587  33.056  1.00  0.00     0.167 HD
ATOM     60  C   UNL A   1      43.016  27.726  32.345  1.00  0.00     0.074 A 
ATOM     61  C   UNL A   1      43.834  26.829  31.557  1.00  0.00     0.031 C 
ATOM     62  C   UNL A   1      43.247  28.023  33.649  1.00  0.00     0.037 A 
BRANCH  49  63
ATOM     63  C   UNL A   1      39.229  32.060  36.050  1.00  0.00     0.064 A 
ATOM     64  C   UNL A   1      39.729  33.346  36.304  1.00  0.00     0.173 A 
ATOM     65  C   UNL A   1      38.276  31.540  36.939  1.00  0.00     0.173 A 
ATOM     66  F   UNL A   1      40.654  33.883  35.493  1.00  0.00    -0.203 F 
ATOM     67  C   UNL A   1      39.313  34.069  37.419  1.00  0.00     0.198 A 
ATOM     68  C   UNL A   1      37.840  32.277  38.035  1.00  0.00     0.198 A 
ATOM     69  F   UNL A   1      37.765  30.315  36.741  1.00  0.00    -0.203 F 
ATOM     70  F   UNL A   1      39.844  35.273  37.671  1.00  0.00    -0.200 F 
ATOM     71  C   UNL A   1      38.364  33.537  38.279  1.00  0.00     0.200 A 
ATOM     72  F   UNL A   1      36.914  31.766  38.859  1.00  0.00    -0.200 F 
ATOM     73  F   UNL A   1      37.962  34.236  39.350  1.00  0.00    -0.200 F 
ENDBRANCH  49  63
BRANCH  50  74
ATOM     74  C   UNL A   1      41.844  27.011  27.841  1.00  0.00     0.064 A 
ATOM     75  C   UNL A   1      41.409  25.705  27.583  1.00  0.00     0.173 A 
ATOM     76  C   UNL A   1      42.714  27.605  26.914  1.00  0.00     0.173 A 
ATOM     77  F   UNL A   1      40.601  25.084  28.454  1.00  0.00    -0.203 F 
ATOM     78  C   UNL A   1      41.843  25.012  26.454  1.00  0.00     0.198 A 
ATOM     79  C   UNL A   1      43.122  26.923  25.770  1.00  0.00     0.198 A 
ATOM     80  F   UNL A   1      43.164  28.852  27.117  1.00  0.00    -0.203 F 
ATOM     81  F   UNL A   1      41.453  23.745  26.258  1.00  0.00    -0.200 F 
ATOM     82  C   UNL A   1      42.693  25.623  25.545  1.00  0.00     0.200 A 
ATOM     83  F   UNL A   1      43.936  27.522  24.889  1.00  0.00    -0.200 F 
ATOM     84  F   UNL A   1      43.108  24.958  24.459  1.00  0.00    -0.200 F 
ENDBRANCH  50  74
BRANCH  62  85
ATOM     85  C   UNL A   1      44.402  27.337  34.322  1.00  0.00     0.064 A 
ATOM     86  C   UNL A   1      45.689  27.894  34.333  1.00  0.00     0.173 A 
ATOM     87  C   UNL A   1      44.204  26.127  35.008  1.00  0.00     0.173 A 
ATOM     88  F   UNL A   1      45.934  29.041  33.682  1.00  0.00    -0.203 F 
ATOM     89  C   UNL A   1      46.741  27.252  34.982  1.00  0.00     0.198 A 
ATOM     90  C   UNL A   1      45.251  25.505  35.683  1.00  0.00     0.198 A 
ATOM     91  F   UNL A   1      42.991  25.557  35.036  1.00  0.00    -0.203 F 
ATOM     92  F   UNL A   1      47.973  27.778  34.939  1.00  0.00    -0.200 F 
ATOM     93  C   UNL A   1      46.520  26.064  35.663  1.00  0.00     0.200 A 
ATOM     94  F   UNL A   1      45.032  24.366  36.352  1.00  0.00    -0.200 F 
ATOM     95  F   UNL A   1      47.532  25.453  36.294  1.00  0.00    -0.200 F 
ENDBRANCH  62  85
ENDBRANCH  36  37
ENDBRANCH  29  31
ENDBRANCH  28  29
ENDBRANCH  27  28
ENDBRANCH  26  27
ENDBRANCH  25  26
ENDBRANCH  24  25
ENDBRANCH   1  24
TORSDOF 21
ENDMDL
MODEL 2
REMARK VINA RESULT:     -10.9      5.276      9.565
REMARK SMILES C[C@H](C(=O)OCCOCCOCCOC(=O)c1ccc(-c2c3nc(c(-c4c(F)c(F)c(F)c(F)c4F)c4ccc([nH]4)c(-c4c(F)c(F)c(F)c(F)c4F)c4nc(c(-c5c(F)c(F)c(F)c(F)c5F)c5ccc2[nH]5)C=C4)C=C3)cc1)c1ccc(C[C@H]2CCC[C@@H]2O)cc1
REMARK SMILES IDX 9 1 8 2 7 3 6 4 5 5 3 6 4 7 2 8 1 9 80 10 81 11 92 12 82 13
REMARK SMILES IDX 91 14 83 15 84 16 85 17 86 18 89 19 87 20 88 21 90 22 10 24
REMARK SMILES IDX 11 25 12 26 13 27 14 28 15 29 16 30 17 31 18 32 79 33 19 34
REMARK SMILES IDX 78 35 20 36 21 37 22 38 72 39 23 40 77 41 71 42 73 43 24 44
REMARK SMILES IDX 76 45 70 46 69 47 25 49 57 50 37 51 56 52 38 53 41 54 55 55
REMARK SMILES IDX 74 56 39 57 40 58 54 60 75 61 42 62 26 63 27 64 35 65 28 66
REMARK SMILES IDX 29 67 33 68 36 69 30 70 31 71 34 72 32 73 58 74 59 75 67 76
REMARK SMILES IDX 60 77 61 78 65 79 68 80 62 81 63 82 66 83 64 84 43 85 44 86
REMARK SMILES IDX 52 87 45 88 46 89 50 90 53 91 47 92 48 93 51 94 49 95
REMARK H PARENT 90 23 73 48 41 59
REMARK Flexibility Score: inf
ROOT
ATOM      1  C   UNL A   1      36.398  23.839  25.222  1.00  0.00     0.188 C 
ENDROOT
BRANCH   1   2
ATOM      2  O   UNL A   1      35.204  24.371  25.773  1.00  0.00    -0.376 OA
BRANCH   2   3
ATOM      3  C   UNL A   1      34.462  25.312  25.016  1.00  0.00     0.202 C 
BRANCH   3   4
ATOM      4  C   UNL A   1      33.607  26.329  25.780  1.00  0.00     0.261 C 
BRANCH   4   5
ATOM      5  O   UNL A   1      32.333  26.588  25.157  1.00  0.00    -0.463 OA
BRANCH   5   6
ATOM      6  C   UNL A   1      31.253  26.013  25.739  1.00  0.00     0.313 C 
ATOM      7  O   UNL A   1      30.749  26.429  26.781  1.00  0.00    -0.252 OA
BRANCH   6   8
ATOM      8  C   UNL A   1      30.631  24.843  24.968  1.00  0.00     0.126 C 
ATOM      9  C   UNL A   1      30.077  25.410  23.653  1.00  0.00     0.025 C 
BRANCH   8  10
ATOM     10  C   UNL A   1      31.441  23.557  24.791  1.00  0.00    -0.034 A 
ATOM     11  C   UNL A   1      31.909  22.874  25.923  1.00  0.00     0.005 A 
ATOM     12  C   UNL A   1      31.697  22.966  23.541  1.00  0.00     0.005 A 
ATOM     13  C   UNL A   1      32.643  21.684  25.803  1.00  0.00     0.004 A 
ATOM     14  C   UNL A   1      32.477  21.804  23.424  1.00  0.00     0.004 A 
ATOM     15  C   UNL A   1      32.996  21.166  24.553  1.00  0.00    -0.048 A 
BRANCH  15  16
ATOM     16  C   UNL A   1      33.847  19.923  24.399  1.00  0.00     0.041 C 
BRANCH  16  17
ATOM     17  C   UNL A   1      33.152  18.547  24.363  1.00  0.00     0.022 C 
ATOM     18  C   UNL A   1      33.544  17.610  23.210  1.00  0.00     0.007 C 
ATOM     19  C   UNL A   1      33.283  17.683  25.619  1.00  0.00     0.117 C 
ATOM     20  C   UNL A   1      33.496  16.189  23.787  1.00  0.00     0.003 C 
ATOM     21  C   UNL A   1      32.812  16.318  25.140  1.00  0.00     0.032 C 
BRANCH  19  22
ATOM     22  O   UNL A   1      32.507  18.175  26.693  1.00  0.00    -0.393 OA
ATOM     23  H   UNL A   1      33.084  18.368  27.447  1.00  0.00     0.210 HD
ENDBRANCH  19  22
ENDBRANCH  16  17
ENDBRANCH  15  16
ENDBRANCH   8  10
ENDBRANCH   6   8
ENDBRANCH   5   6
ENDBRANCH   4   5
ENDBRANCH   3   4
ENDBRANCH   2   3
ENDBRANCH   1   2
BRANCH   1  24
ATOM     24  C   UNL A   1      37.668  23.662  26.080  1.00  0.00     0.188 C 
BRANCH  24  25
ATOM     25  O   UNL A   1      38.500  22.527  25.997  1.00  0.00    -0.376 OA
BRANCH  25  26
ATOM     26  C   UNL A   1      38.096  21.381  25.279  1.00  0.00     0.202 C 
BRANCH  26  27
ATOM     27  C   UNL A   1      38.928  20.097  25.331  1.00  0.00     0.261 C 
BRANCH  27  28
ATOM     28  O   UNL A   1      39.774  19.968  26.483  1.00  0.00    -0.460 OA
BRANCH  28  29
ATOM     29  C   UNL A   1      41.078  19.746  26.217  1.00  0.00     0.338 C 
ATOM     30  O   UNL A   1      41.574  18.777  25.632  1.00  0.00    -0.246 OA
BRANCH  29  31
ATOM     31  C   UNL A   1      41.871  20.923  26.588  1.00  0.00     0.060 A 
ATOM     32  C   UNL A   1      42.074  21.197  27.946  1.00  0.00     0.016 A 
ATOM     33  C   UNL A   1      42.344  21.795  25.608  1.00  0.00     0.016 A 
ATOM     34  C   UNL A   1      42.733  22.360  28.336  1.00  0.00     0.010 A 
ATOM     35  C   UNL A   1      42.988  22.971  25.999  1.00  0.00     0.010 A 
ATOM     36  C   UNL A   1      43.161  23.273  27.364  1.00  0.00    -0.014 A 
BRANCH  36  37
ATOM     37  C   UNL A   1      43.632  24.619  27.765  1.00  0.00     0.031 A 
ATOM     38  C   UNL A   1      42.609  25.668  28.100  1.00  0.00     0.074 A 
ATOM     39  C   UNL A   1      44.942  24.907  27.830  1.00  0.00     0.049 A 
ATOM     40  N   UNL A   1      42.773  26.941  28.351  1.00  0.00    -0.248 NA
ATOM     41  C   UNL A   1      41.210  25.216  28.158  1.00  0.00     0.031 C 
ATOM     42  C   UNL A   1      46.028  23.962  27.586  1.00  0.00     0.029 A 
ATOM     43  N   UNL A   1      45.578  26.092  28.105  1.00  0.00    -0.354 N 
ATOM     44  C   UNL A   1      41.499  27.446  28.578  1.00  0.00     0.074 A 
ATOM     45  C   UNL A   1      40.572  26.348  28.414  1.00  0.00     0.031 C 
ATOM     46  C   UNL A   1      47.201  24.608  27.701  1.00  0.00     0.029 A 
ATOM     47  C   UNL A   1      46.943  26.021  27.981  1.00  0.00     0.049 A 
ATOM     48  H   UNL A   1      45.102  26.913  28.367  1.00  0.00     0.167 HD
ATOM     49  C   UNL A   1      41.139  28.711  28.898  1.00  0.00     0.037 A 
ATOM     50  C   UNL A   1      47.872  26.995  28.047  1.00  0.00     0.037 A 
ATOM     51  C   UNL A   1      42.066  29.801  29.059  1.00  0.00     0.049 A 
ATOM     52  C   UNL A   1      47.440  28.413  28.321  1.00  0.00     0.074 A 
ATOM     53  C   UNL A   1      41.800  31.118  29.385  1.00  0.00     0.029 A 
ATOM     54  N   UNL A   1      43.439  29.696  28.900  1.00  0.00    -0.354 N 
ATOM     55  N   UNL A   1      46.236  28.888  28.532  1.00  0.00    -0.248 NA
ATOM     56  C   UNL A   1      48.498  29.433  28.363  1.00  0.00     0.031 C 
ATOM     57  C   UNL A   1      43.008  31.824  29.372  1.00  0.00     0.029 A 
ATOM     58  C   UNL A   1      44.034  30.933  29.098  1.00  0.00     0.049 A 
ATOM     59  H   UNL A   1      43.922  28.866  28.679  1.00  0.00     0.167 HD
ATOM     60  C   UNL A   1      46.394  30.249  28.761  1.00  0.00     0.074 A 
ATOM     61  C   UNL A   1      47.812  30.523  28.673  1.00  0.00     0.031 C 
ATOM     62  C   UNL A   1      45.449  31.189  29.018  1.00  0.00     0.037 A 
BRANCH  49  63
ATOM     63  C   UNL A   1      39.673  28.991  29.058  1.00  0.00     0.064 A 
ATOM     64  C   UNL A   1      38.869  29.367  27.971  1.00  0.00     0.173 A 
ATOM     65  C   UNL A   1      39.059  28.860  30.313  1.00  0.00     0.173 A 
ATOM     66  F   UNL A   1      39.410  29.523  26.753  1.00  0.00    -0.203 F 
ATOM     67  C   UNL A   1      37.512  29.630  28.141  1.00  0.00     0.198 A 
ATOM     68  C   UNL A   1      37.697  29.094  30.474  1.00  0.00     0.198 A 
ATOM     69  F   UNL A   1      39.782  28.501  31.384  1.00  0.00    -0.203 F 
ATOM     70  F   UNL A   1      36.775  30.040  27.100  1.00  0.00    -0.200 F 
ATOM     71  C   UNL A   1      36.926  29.486  29.390  1.00  0.00     0.200 A 
ATOM     72  F   UNL A   1      37.130  28.942  31.679  1.00  0.00    -0.200 F 
ATOM     73  F   UNL A   1      35.619  29.735  29.551  1.00  0.00    -0.200 F 
ENDBRANCH  49  63
BRANCH  50  74
ATOM     74  C   UNL A   1      49.306  26.670  27.821  1.00  0.00     0.064 A 
ATOM     75  C   UNL A   1      49.820  26.525  26.526  1.00  0.00     0.173 A 
ATOM     76  C   UNL A   1      50.184  26.476  28.898  1.00  0.00     0.173 A 
ATOM     77  F   UNL A   1      49.012  26.671  25.465  1.00  0.00    -0.203 F 
ATOM     78  C   UNL A   1      51.153  26.178  26.316  1.00  0.00     0.198 A 
ATOM     79  C   UNL A   1      51.525  26.160  28.686  1.00  0.00     0.198 A 
ATOM     80  F   UNL A   1      49.741  26.599  30.158  1.00  0.00    -0.203 F 
ATOM     81  F   UNL A   1      51.606  25.993  25.068  1.00  0.00    -0.200 F 
ATOM     82  C   UNL A   1      52.006  26.003  27.395  1.00  0.00     0.200 A 
ATOM     83  F   UNL A   1      52.347  26.002  29.732  1.00  0.00    -0.200 F 
ATOM     84  F   UNL A   1      53.288  25.671  27.193  1.00  0.00    -0.200 F 
ENDBRANCH  50  74
BRANCH  62  85
ATOM     85  C   UNL A   1      45.919  32.593  29.272  1.00  0.00     0.064 A 
ATOM     86  C   UNL A   1      46.047  33.529  28.236  1.00  0.00     0.173 A 
ATOM     87  C   UNL A   1      46.200  33.020  30.580  1.00  0.00     0.173 A 
ATOM     88  F   UNL A   1      45.804  33.169  26.967  1.00  0.00    -0.203 F 
ATOM     89  C   UNL A   1      46.463  34.833  28.496  1.00  0.00     0.198 A 
ATOM     90  C   UNL A   1      46.585  34.333  30.840  1.00  0.00     0.198 A 
ATOM     91  F   UNL A   1      46.086  32.167  31.609  1.00  0.00    -0.203 F 
ATOM     92  F   UNL A   1      46.624  35.697  27.484  1.00  0.00    -0.200 F 
ATOM     93  C   UNL A   1      46.723  35.235  29.797  1.00  0.00     0.200 A 
ATOM     94  F   UNL A   1      46.821  34.723  32.100  1.00  0.00    -0.200 F 
ATOM     95  F   UNL A   1      47.116  36.492  30.046  1.00  0.00    -0.200 F 
ENDBRANCH  62  85
ENDBRANCH  36  37
ENDBRANCH  29  31
ENDBRANCH  28  29
ENDBRANCH  27  28
ENDBRANCH  26  27
ENDBRANCH  25  26
ENDBRANCH  24  25
ENDBRANCH   1  24
TORSDOF 21
ENDMDL
MODEL 3
REMARK VINA RESULT:     -10.7      5.166     10.973
REMARK SMILES C[C@H](C(=O)OCCOCCOCCOC(=O)c1ccc(-c2c3nc(c(-c4c(F)c(F)c(F)c(F)c4F)c4ccc([nH]4)c(-c4c(F)c(F)c(F)c(F)c4F)c4nc(c(-c5c(F)c(F)c(F)c(F)c5F)c5ccc2[nH]5)C=C4)C=C3)cc1)c1ccc(C[C@H]2CCC[C@@H]2O)cc1
REMARK SMILES IDX 9 1 8 2 7 3 6 4 5 5 3 6 4 7 2 8 1 9 80 10 81 11 92 12 82 13
REMARK SMILES IDX 91 14 83 15 84 16 85 17 86 18 89 19 87 20 88 21 90 22 10 24
REMARK SMILES IDX 11 25 12 26 13 27 14 28 15 29 16 30 17 31 18 32 79 33 19 34
REMARK SMILES IDX 78 35 20 36 21 37 22 38 72 39 23 40 77 41 71 42 73 43 24 44
REMARK SMILES IDX 76 45 70 46 69 47 25 49 57 50 37 51 56 52 38 53 41 54 55 55
REMARK SMILES IDX 74 56 39 57 40 58 54 60 75 61 42 62 26 63 27 64 35 65 28 66
REMARK SMILES IDX 29 67 33 68 36 69 30 70 31 71 34 72 32 73 58 74 59 75 67 76
REMARK SMILES IDX 60 77 61 78 65 79 68 80 62 81 63 82 66 83 64 84 43 85 44 86
REMARK SMILES IDX 52 87 45 88 46 89 50 90 53 91 47 92 48 93 51 94 49 95
REMARK H PARENT 90 23 73 48 41 59
REMARK Flexibility Score: inf
ROOT
ATOM      1  C   UNL A   1      36.960  23.639  25.243  1.00  0.00     0.188 C 
ENDROOT
BRANCH   1   2
ATOM      2  O   UNL A   1      35.835  24.354  25.732  1.00  0.00    -0.376 OA
BRANCH   2   3
ATOM      3  C   UNL A   1      34.814  24.724  24.820  1.00  0.00     0.202 C 
BRANCH   3   4
ATOM      4  C   UNL A   1      34.017  25.999  25.121  1.00  0.00     0.261 C 
BRANCH   4   5
ATOM      5  O   UNL A   1      33.518  26.653  23.937  1.00  0.00    -0.463 OA
BRANCH   5   6
ATOM      6  C   UNL A   1      32.175  26.628  23.758  1.00  0.00     0.313 C 
ATOM      7  O   UNL A   1      31.416  27.467  24.240  1.00  0.00    -0.252 OA
BRANCH   6   8
ATOM      8  C   UNL A   1      31.652  25.520  22.835  1.00  0.00     0.126 C 
ATOM      9  C   UNL A   1      32.198  25.807  21.429  1.00  0.00     0.025 C 
BRANCH   8  10
ATOM     10  C   UNL A   1      31.802  24.061  23.269  1.00  0.00    -0.034 A 
ATOM     11  C   UNL A   1      31.220  23.633  24.471  1.00  0.00     0.005 A 
ATOM     12  C   UNL A   1      32.446  23.082  22.491  1.00  0.00     0.005 A 
ATOM     13  C   UNL A   1      31.323  22.300  24.896  1.00  0.00     0.004 A 
ATOM     14  C   UNL A   1      32.592  21.761  22.946  1.00  0.00     0.004 A 
ATOM     15  C   UNL A   1      32.066  21.360  24.176  1.00  0.00    -0.048 A 
BRANCH  15  16
ATOM     16  C   UNL A   1      32.251  19.933  24.651  1.00  0.00     0.041 C 
BRANCH  16  17
ATOM     17  C   UNL A   1      33.265  19.032  23.919  1.00  0.00     0.022 C 
ATOM     18  C   UNL A   1      34.564  18.707  24.672  1.00  0.00     0.007 C 
ATOM     19  C   UNL A   1      32.750  17.673  23.441  1.00  0.00     0.117 C 
ATOM     20  C   UNL A   1      34.938  17.275  24.267  1.00  0.00     0.003 C 
ATOM     21  C   UNL A   1      34.031  16.928  23.096  1.00  0.00     0.032 C 
BRANCH  19  22
ATOM     22  O   UNL A   1      31.878  17.787  22.333  1.00  0.00    -0.393 OA
ATOM     23  H   UNL A   1      31.102  18.310  22.585  1.00  0.00     0.210 HD
ENDBRANCH  19  22
ENDBRANCH  16  17
ENDBRANCH  15  16
ENDBRANCH   8  10
ENDBRANCH   6   8
ENDBRANCH   5   6
ENDBRANCH   4   5
ENDBRANCH   3   4
ENDBRANCH   2   3
ENDBRANCH   1   2
BRANCH   1  24
ATOM     24  C   UNL A   1      38.196  23.387  26.131  1.00  0.00     0.188 C 
BRANCH  24  25
ATOM     25  O   UNL A   1      38.915  22.174  26.121  1.00  0.00    -0.376 OA
BRANCH  25  26
ATOM     26  C   UNL A   1      38.451  21.061  25.389  1.00  0.00     0.202 C 
BRANCH  26  27
ATOM     27  C   UNL A   1      39.247  19.753  25.374  1.00  0.00     0.261 C 
BRANCH  27  28
ATOM     28  O   UNL A   1      40.091  19.543  26.515  1.00  0.00    -0.460 OA
BRANCH  28  29
ATOM     29  C   UNL A   1      41.412  19.469  26.248  1.00  0.00     0.338 C 
ATOM     30  O   UNL A   1      42.030  18.518  25.759  1.00  0.00    -0.246 OA
BRANCH  29  31
ATOM     31  C   UNL A   1      42.041  20.775  26.474  1.00  0.00     0.060 A 
ATOM     32  C   UNL A   1      42.178  21.237  27.789  1.00  0.00     0.016 A 
ATOM     33  C   UNL A   1      42.420  21.575  25.397  1.00  0.00     0.016 A 
ATOM     34  C   UNL A   1      42.677  22.514  28.036  1.00  0.00     0.010 A 
ATOM     35  C   UNL A   1      42.902  22.862  25.642  1.00  0.00     0.010 A 
ATOM     36  C   UNL A   1      43.006  23.348  26.960  1.00  0.00    -0.014 A 
BRANCH  36  37
ATOM     37  C   UNL A   1      43.294  24.782  27.194  1.00  0.00     0.031 A 
ATOM     38  C   UNL A   1      44.681  25.291  26.920  1.00  0.00     0.074 A 
ATOM     39  C   UNL A   1      42.343  25.619  27.641  1.00  0.00     0.049 A 
ATOM     40  N   UNL A   1      45.202  26.465  27.168  1.00  0.00    -0.248 NA
ATOM     41  C   UNL A   1      45.607  24.342  26.282  1.00  0.00     0.031 C 
ATOM     42  C   UNL A   1      40.949  25.260  27.887  1.00  0.00     0.029 A 
ATOM     43  N   UNL A   1      42.418  26.946  27.986  1.00  0.00    -0.354 N 
ATOM     44  C   UNL A   1      46.519  26.390  26.733  1.00  0.00     0.074 A 
ATOM     45  C   UNL A   1      46.724  25.050  26.227  1.00  0.00     0.031 C 
ATOM     46  C   UNL A   1      40.301  26.337  28.365  1.00  0.00     0.029 A 
ATOM     47  C   UNL A   1      41.247  27.443  28.501  1.00  0.00     0.049 A 
ATOM     48  H   UNL A   1      43.232  27.488  27.874  1.00  0.00     0.167 HD
ATOM     49  C   UNL A   1      47.468  27.355  26.752  1.00  0.00     0.037 A 
ATOM     50  C   UNL A   1      40.984  28.644  29.054  1.00  0.00     0.037 A 
ATOM     51  C   UNL A   1      47.260  28.686  27.258  1.00  0.00     0.049 A 
ATOM     52  C   UNL A   1      42.081  29.675  29.142  1.00  0.00     0.074 A 
ATOM     53  C   UNL A   1      48.158  29.737  27.319  1.00  0.00     0.029 A 
ATOM     54  N   UNL A   1      46.068  29.147  27.795  1.00  0.00    -0.354 N 
ATOM     55  N   UNL A   1      43.325  29.601  28.733  1.00  0.00    -0.248 NA
ATOM     56  C   UNL A   1      41.736  30.958  29.772  1.00  0.00     0.031 C 
ATOM     57  C   UNL A   1      47.524  30.818  27.941  1.00  0.00     0.029 A 
ATOM     58  C   UNL A   1      46.213  30.461  28.213  1.00  0.00     0.049 A 
ATOM     59  H   UNL A   1      45.239  28.619  27.870  1.00  0.00     0.167 HD
ATOM     60  C   UNL A   1      43.900  30.832  29.028  1.00  0.00     0.074 A 
ATOM     61  C   UNL A   1      42.866  31.638  29.640  1.00  0.00     0.031 C 
ATOM     62  C   UNL A   1      45.171  31.255  28.812  1.00  0.00     0.037 A 
BRANCH  49  63
ATOM     63  C   UNL A   1      48.833  26.990  26.242  1.00  0.00     0.064 A 
ATOM     64  C   UNL A   1      49.812  26.437  27.081  1.00  0.00     0.173 A 
ATOM     65  C   UNL A   1      49.158  27.177  24.890  1.00  0.00     0.173 A 
ATOM     66  F   UNL A   1      49.557  26.253  28.386  1.00  0.00    -0.203 F 
ATOM     67  C   UNL A   1      51.074  26.112  26.591  1.00  0.00     0.198 A 
ATOM     68  C   UNL A   1      50.410  26.824  24.397  1.00  0.00     0.198 A 
ATOM     69  F   UNL A   1      48.258  27.701  24.045  1.00  0.00    -0.203 F 
ATOM     70  F   UNL A   1      52.011  25.635  27.422  1.00  0.00    -0.200 F 
ATOM     71  C   UNL A   1      51.369  26.299  25.249  1.00  0.00     0.200 A 
ATOM     72  F   UNL A   1      50.689  26.993  23.097  1.00  0.00    -0.200 F 
ATOM     73  F   UNL A   1      52.584  25.982  24.778  1.00  0.00    -0.200 F 
ENDBRANCH  49  63
BRANCH  50  74
ATOM     74  C   UNL A   1      39.630  28.930  29.597  1.00  0.00     0.064 A 
ATOM     75  C   UNL A   1      38.623  29.470  28.785  1.00  0.00     0.173 A 
ATOM     76  C   UNL A   1      39.324  28.692  30.945  1.00  0.00     0.173 A 
ATOM     77  F   UNL A   1      38.877  29.743  27.497  1.00  0.00    -0.203 F 
ATOM     78  C   UNL A   1      37.368  29.778  29.305  1.00  0.00     0.198 A 
ATOM     79  C   UNL A   1      38.058  28.972  31.457  1.00  0.00     0.198 A 
ATOM     80  F   UNL A   1      40.254  28.182  31.766  1.00  0.00    -0.203 F 
ATOM     81  F   UNL A   1      36.440  30.342  28.520  1.00  0.00    -0.200 F 
ATOM     82  C   UNL A   1      37.084  29.523  30.638  1.00  0.00     0.200 A 
ATOM     83  F   UNL A   1      37.785  28.714  32.743  1.00  0.00    -0.200 F 
ATOM     84  F   UNL A   1      35.876  29.818  31.138  1.00  0.00    -0.200 F 
ENDBRANCH  50  74
BRANCH  62  85
ATOM     85  C   UNL A   1      45.505  32.669  29.196  1.00  0.00     0.064 A 
ATOM     86  C   UNL A   1      46.038  32.988  30.452  1.00  0.00     0.173 A 
ATOM     87  C   UNL A   1      45.333  33.713  28.272  1.00  0.00     0.173 A 
ATOM     88  F   UNL A   1      46.210  32.030  31.376  1.00  0.00    -0.203 F 
ATOM     89  C   UNL A   1      46.362  34.302  30.780  1.00  0.00     0.198 A 
ATOM     90  C   UNL A   1      45.687  35.021  28.592  1.00  0.00     0.198 A 
ATOM     91  F   UNL A   1      44.834  33.461  27.053  1.00  0.00    -0.203 F 
ATOM     92  F   UNL A   1      46.825  34.590  32.004  1.00  0.00    -0.200 F 
ATOM     93  C   UNL A   1      46.194  35.315  29.848  1.00  0.00     0.200 A 
ATOM     94  F   UNL A   1      45.539  35.994  27.684  1.00  0.00    -0.200 F 
ATOM     95  F   UNL A   1      46.514  36.578  30.163  1.00  0.00    -0.200 F 
ENDBRANCH  62  85
ENDBRANCH  36  37
ENDBRANCH  29  31
ENDBRANCH  28  29
ENDBRANCH  27  28
ENDBRANCH  26  27
ENDBRANCH  25  26
ENDBRANCH  24  25
ENDBRANCH   1  24
TORSDOF 21
ENDMDL
