MODEL 1
REMARK VINA RESULT:     -10.5      0.000      0.000
REMARK SMILES C[C@@H]1[C@@H](C(=O)OCCOCCOCCOC(=O)c2ccc(-c3c4nc(c(-c5c(F)c(F)c(F)c(F)c5F)c5ccc([nH]5)c(-c5c(F)c(F)c(F)c(F)c5F)c5nc(c(-c6c(F)c(F)c(F)c(F)c6F)c6ccc3[nH]6)C=C5)C=C4)cc2)CCN1C(=O)N1CCC[C@H]2CCC[C@@H]21
REMARK SMILES IDX 10 1 9 2 8 3 7 4 6 5 4 6 5 7 3 8 1 9 2 10 83 11 81 12 82 13
REMARK SMILES IDX 84 14 85 15 86 16 87 17 94 18 88 19 90 20 93 21 89 22 91 23
REMARK SMILES IDX 92 24 11 25 12 26 13 27 14 28 15 29 16 30 17 31 18 32 19 33
REMARK SMILES IDX 80 34 20 35 79 36 21 37 22 38 23 39 73 40 24 41 78 42 72 43
REMARK SMILES IDX 74 44 25 45 77 46 71 47 70 48 26 50 58 51 38 52 57 53 39 54
REMARK SMILES IDX 42 55 56 56 75 57 40 58 41 59 55 61 76 62 43 63 27 64 28 65
REMARK SMILES IDX 36 66 29 67 30 68 34 69 37 70 31 71 32 72 35 73 33 74 59 75
REMARK SMILES IDX 60 76 68 77 61 78 62 79 66 80 69 81 63 82 64 83 67 84 65 85
REMARK SMILES IDX 44 86 45 87 53 88 46 89 47 90 51 91 54 92 48 93 49 94 52 95
REMARK SMILES IDX 50 96
REMARK H PARENT 74 49 42 60
REMARK Flexibility Score: inf
ROOT
ATOM      1  C   UNL A   1      35.105  31.699  28.584  1.00  0.00     0.188 C 
ENDROOT
BRANCH   1   2
ATOM      2  O   UNL A   1      34.441  31.540  27.341  1.00  0.00    -0.376 OA
BRANCH   2   3
ATOM      3  C   UNL A   1      33.237  30.791  27.262  1.00  0.00     0.202 C 
BRANCH   3   4
ATOM      4  C   UNL A   1      33.009  29.819  26.101  1.00  0.00     0.261 C 
BRANCH   4   5
ATOM      5  O   UNL A   1      32.034  28.802  26.372  1.00  0.00    -0.463 OA
BRANCH   5   6
ATOM      6  C   UNL A   1      32.428  27.535  26.059  1.00  0.00     0.311 C 
ATOM      7  O   UNL A   1      33.591  27.167  26.013  1.00  0.00    -0.252 OA
BRANCH   6   8
ATOM      8  C   UNL A   1      31.226  26.633  25.851  1.00  0.00     0.123 C 
ATOM      9  C   UNL A   1      30.647  24.187  25.932  1.00  0.00     0.032 C 
ATOM     10  C   UNL A   1      31.692  25.216  25.488  1.00  0.00     0.098 C 
ATOM     11  N   UNL A   1      31.855  25.285  24.029  1.00  0.00    -0.321 N 
ATOM     12  C   UNL A   1      30.389  27.051  24.652  1.00  0.00     0.039 C 
ATOM     13  C   UNL A   1      31.113  26.409  23.475  1.00  0.00     0.122 C 
BRANCH  11  14
ATOM     14  C   UNL A   1      32.983  24.853  23.334  1.00  0.00     0.320 C 
ATOM     15  O   UNL A   1      33.656  25.601  22.629  1.00  0.00    -0.248 OA
BRANCH  14  16
ATOM     16  N   UNL A   1      33.347  23.548  23.570  1.00  0.00    -0.321 N 
ATOM     17  C   UNL A   1      32.795  22.479  22.747  1.00  0.00     0.121 C 
ATOM     18  C   UNL A   1      34.601  23.202  24.214  1.00  0.00     0.090 C 
ATOM     19  C   UNL A   1      32.547  21.221  23.578  1.00  0.00     0.022 C 
ATOM     20  C   UNL A   1      34.294  22.054  25.180  1.00  0.00     0.012 C 
ATOM     21  C   UNL A   1      35.297  24.194  25.140  1.00  0.00     0.025 C 
ATOM     22  C   UNL A   1      33.775  20.843  24.417  1.00  0.00     0.007 C 
ATOM     23  C   UNL A   1      35.590  21.885  25.953  1.00  0.00     0.006 C 
ATOM     24  C   UNL A   1      36.129  23.315  26.088  1.00  0.00     0.002 C 
ENDBRANCH  14  16
ENDBRANCH  11  14
ENDBRANCH   6   8
ENDBRANCH   5   6
ENDBRANCH   4   5
ENDBRANCH   3   4
ENDBRANCH   2   3
ENDBRANCH   1   2
BRANCH   1  25
ATOM     25  C   UNL A   1      34.637  32.748  29.615  1.00  0.00     0.188 C 
BRANCH  25  26
ATOM     26  O   UNL A   1      34.993  34.089  29.403  1.00  0.00    -0.376 OA
BRANCH  26  27
ATOM     27  C   UNL A   1      34.067  35.023  28.876  1.00  0.00     0.202 C 
BRANCH  27  28
ATOM     28  C   UNL A   1      32.907  35.686  29.643  1.00  0.00     0.261 C 
BRANCH  28  29
ATOM     29  O   UNL A   1      33.191  36.298  30.902  1.00  0.00    -0.460 OA
BRANCH  29  30
ATOM     30  C   UNL A   1      32.795  35.588  31.988  1.00  0.00     0.338 C 
ATOM     31  O   UNL A   1      31.657  35.377  32.364  1.00  0.00    -0.246 OA
BRANCH  30  32
ATOM     32  C   UNL A   1      33.971  34.937  32.591  1.00  0.00     0.060 A 
ATOM     33  C   UNL A   1      35.206  35.596  32.533  1.00  0.00     0.016 A 
ATOM     34  C   UNL A   1      33.867  33.664  33.150  1.00  0.00     0.016 A 
ATOM     35  C   UNL A   1      36.352  34.968  33.023  1.00  0.00     0.010 A 
ATOM     36  C   UNL A   1      35.020  33.027  33.616  1.00  0.00     0.010 A 
ATOM     37  C   UNL A   1      36.270  33.664  33.530  1.00  0.00    -0.014 A 
BRANCH  37  38
ATOM     38  C   UNL A   1      37.508  32.899  33.814  1.00  0.00     0.031 A 
ATOM     39  C   UNL A   1      38.204  33.115  35.126  1.00  0.00     0.074 A 
ATOM     40  C   UNL A   1      38.025  32.048  32.912  1.00  0.00     0.049 A 
ATOM     41  N   UNL A   1      39.327  32.605  35.562  1.00  0.00    -0.248 NA
ATOM     42  C   UNL A   1      37.561  34.053  36.058  1.00  0.00     0.031 C 
ATOM     43  C   UNL A   1      37.458  31.780  31.596  1.00  0.00     0.029 A 
ATOM     44  N   UNL A   1      39.151  31.261  32.964  1.00  0.00    -0.354 N 
ATOM     45  C   UNL A   1      39.540  33.181  36.807  1.00  0.00     0.074 A 
ATOM     46  C   UNL A   1      38.435  34.082  37.054  1.00  0.00     0.031 C 
ATOM     47  C   UNL A   1      38.237  30.884  30.966  1.00  0.00     0.029 A 
ATOM     48  C   UNL A   1      39.348  30.507  31.834  1.00  0.00     0.049 A 
ATOM     49  H   UNL A   1      39.758  31.241  33.738  1.00  0.00     0.167 HD
ATOM     50  C   UNL A   1      40.573  32.985  37.659  1.00  0.00     0.037 A 
ATOM     51  C   UNL A   1      40.310  29.612  31.535  1.00  0.00     0.037 A 
ATOM     52  C   UNL A   1      41.678  32.099  37.407  1.00  0.00     0.049 A 
ATOM     53  C   UNL A   1      41.436  29.396  32.513  1.00  0.00     0.074 A 
ATOM     54  C   UNL A   1      42.777  31.838  38.209  1.00  0.00     0.029 A 
ATOM     55  N   UNL A   1      41.829  31.330  36.262  1.00  0.00    -0.354 N 
ATOM     56  N   UNL A   1      41.620  29.930  33.697  1.00  0.00    -0.248 NA
ATOM     57  C   UNL A   1      42.506  28.476  32.099  1.00  0.00     0.031 C 
ATOM     58  C   UNL A   1      43.612  30.944  37.531  1.00  0.00     0.029 A 
ATOM     59  C   UNL A   1      43.009  30.605  36.332  1.00  0.00     0.049 A 
ATOM     60  H   UNL A   1      41.193  31.302  35.512  1.00  0.00     0.167 HD
ATOM     61  C   UNL A   1      42.818  29.410  34.168  1.00  0.00     0.074 A 
ATOM     62  C   UNL A   1      43.301  28.489  33.161  1.00  0.00     0.031 C 
ATOM     63  C   UNL A   1      43.472  29.688  35.322  1.00  0.00     0.037 A 
BRANCH  50  64
ATOM     64  C   UNL A   1      40.571  33.776  38.932  1.00  0.00     0.064 A 
ATOM     65  C   UNL A   1      39.893  33.329  40.077  1.00  0.00     0.173 A 
ATOM     66  C   UNL A   1      41.274  34.988  39.015  1.00  0.00     0.173 A 
ATOM     67  F   UNL A   1      39.190  32.187  40.041  1.00  0.00    -0.203 F 
ATOM     68  C   UNL A   1      39.902  34.077  41.250  1.00  0.00     0.198 A 
ATOM     69  C   UNL A   1      41.304  35.718  40.198  1.00  0.00     0.198 A 
ATOM     70  F   UNL A   1      41.937  35.459  37.948  1.00  0.00    -0.203 F 
ATOM     71  F   UNL A   1      39.208  33.656  42.316  1.00  0.00    -0.200 F 
ATOM     72  C   UNL A   1      40.612  35.268  41.312  1.00  0.00     0.200 A 
ATOM     73  F   UNL A   1      41.999  36.863  40.260  1.00  0.00    -0.200 F 
ATOM     74  F   UNL A   1      40.624  35.983  42.445  1.00  0.00    -0.200 F 
ENDBRANCH  50  64
BRANCH  51  75
ATOM     75  C   UNL A   1      40.254  28.830  30.268  1.00  0.00     0.064 A 
ATOM     76  C   UNL A   1      40.855  29.322  29.099  1.00  0.00     0.173 A 
ATOM     77  C   UNL A   1      39.587  27.600  30.183  1.00  0.00     0.173 A 
ATOM     78  F   UNL A   1      41.485  30.507  29.118  1.00  0.00    -0.203 F 
ATOM     79  C   UNL A   1      40.771  28.628  27.894  1.00  0.00     0.198 A 
ATOM     80  C   UNL A   1      39.535  26.887  28.987  1.00  0.00     0.198 A 
ATOM     81  F   UNL A   1      38.993  27.083  31.269  1.00  0.00    -0.203 F 
ATOM     82  F   UNL A   1      41.305  29.151  26.782  1.00  0.00    -0.200 F 
ATOM     83  C   UNL A   1      40.117  27.407  27.840  1.00  0.00     0.200 A 
ATOM     84  F   UNL A   1      38.914  25.701  28.943  1.00  0.00    -0.200 F 
ATOM     85  F   UNL A   1      40.037  26.738  26.683  1.00  0.00    -0.200 F 
ENDBRANCH  51  75
BRANCH  63  86
ATOM     86  C   UNL A   1      44.770  28.974  35.568  1.00  0.00     0.064 A 
ATOM     87  C   UNL A   1      45.997  29.518  35.158  1.00  0.00     0.173 A 
ATOM     88  C   UNL A   1      44.791  27.753  36.258  1.00  0.00     0.173 A 
ATOM     89  F   UNL A   1      46.029  30.676  34.482  1.00  0.00    -0.203 F 
ATOM     90  C   UNL A   1      47.194  28.851  35.407  1.00  0.00     0.198 A 
ATOM     91  C   UNL A   1      45.992  27.104  36.531  1.00  0.00     0.198 A 
ATOM     92  F   UNL A   1      43.646  27.194  36.678  1.00  0.00    -0.203 F 
ATOM     93  F   UNL A   1      48.349  29.367  34.965  1.00  0.00    -0.200 F 
ATOM     94  C   UNL A   1      47.191  27.650  36.099  1.00  0.00     0.200 A 
ATOM     95  F   UNL A   1      45.989  25.950  37.212  1.00  0.00    -0.200 F 
ATOM     96  F   UNL A   1      48.345  27.013  36.344  1.00  0.00    -0.200 F 
ENDBRANCH  63  86
ENDBRANCH  37  38
ENDBRANCH  30  32
ENDBRANCH  29  30
ENDBRANCH  28  29
ENDBRANCH  27  28
ENDBRANCH  26  27
ENDBRANCH  25  26
ENDBRANCH   1  25
TORSDOF 19
ENDMDL
MODEL 2
REMARK VINA RESULT:     -10.5      0.813      2.152
REMARK SMILES C[C@@H]1[C@@H](C(=O)OCCOCCOCCOC(=O)c2ccc(-c3c4nc(c(-c5c(F)c(F)c(F)c(F)c5F)c5ccc([nH]5)c(-c5c(F)c(F)c(F)c(F)c5F)c5nc(c(-c6c(F)c(F)c(F)c(F)c6F)c6ccc3[nH]6)C=C5)C=C4)cc2)CCN1C(=O)N1CCC[C@H]2CCC[C@@H]21
REMARK SMILES IDX 10 1 9 2 8 3 7 4 6 5 4 6 5 7 3 8 1 9 2 10 83 11 81 12 82 13
REMARK SMILES IDX 84 14 85 15 86 16 87 17 94 18 88 19 90 20 93 21 89 22 91 23
REMARK SMILES IDX 92 24 11 25 12 26 13 27 14 28 15 29 16 30 17 31 18 32 19 33
REMARK SMILES IDX 80 34 20 35 79 36 21 37 22 38 23 39 73 40 24 41 78 42 72 43
REMARK SMILES IDX 74 44 25 45 77 46 71 47 70 48 26 50 58 51 38 52 57 53 39 54
REMARK SMILES IDX 42 55 56 56 75 57 40 58 41 59 55 61 76 62 43 63 27 64 28 65
REMARK SMILES IDX 36 66 29 67 30 68 34 69 37 70 31 71 32 72 35 73 33 74 59 75
REMARK SMILES IDX 60 76 68 77 61 78 62 79 66 80 69 81 63 82 64 83 67 84 65 85
REMARK SMILES IDX 44 86 45 87 53 88 46 89 47 90 51 91 54 92 48 93 49 94 52 95
REMARK SMILES IDX 50 96
REMARK H PARENT 74 49 42 60
REMARK Flexibility Score: inf
ROOT
ATOM      1  C   UNL A   1      34.801  31.744  27.672  1.00  0.00     0.188 C 
ENDROOT
BRANCH   1   2
ATOM      2  O   UNL A   1      34.307  30.424  27.520  1.00  0.00    -0.376 OA
BRANCH   2   3
ATOM      3  C   UNL A   1      32.984  30.203  27.054  1.00  0.00     0.202 C 
BRANCH   3   4
ATOM      4  C   UNL A   1      32.378  28.797  27.091  1.00  0.00     0.261 C 
BRANCH   4   5
ATOM      5  O   UNL A   1      31.796  28.378  25.848  1.00  0.00    -0.463 OA
BRANCH   5   6
ATOM      6  C   UNL A   1      31.254  27.128  25.865  1.00  0.00     0.311 C 
ATOM      7  O   UNL A   1      30.777  26.597  26.855  1.00  0.00    -0.252 OA
BRANCH   6   8
ATOM      8  C   UNL A   1      31.255  26.522  24.474  1.00  0.00     0.123 C 
ATOM      9  C   UNL A   1      30.533  24.407  23.320  1.00  0.00     0.032 C 
ATOM     10  C   UNL A   1      31.198  24.990  24.571  1.00  0.00     0.098 C 
ATOM     11  N   UNL A   1      32.613  24.615  24.705  1.00  0.00    -0.321 N 
ATOM     12  C   UNL A   1      32.556  26.783  23.730  1.00  0.00     0.039 C 
ATOM     13  C   UNL A   1      33.482  25.688  24.243  1.00  0.00     0.122 C 
BRANCH  11  14
ATOM     14  C   UNL A   1      33.118  23.749  25.673  1.00  0.00     0.320 C 
ATOM     15  O   UNL A   1      33.152  24.036  26.868  1.00  0.00    -0.248 OA
BRANCH  14  16
ATOM     16  N   UNL A   1      33.487  22.509  25.209  1.00  0.00    -0.321 N 
ATOM     17  C   UNL A   1      32.475  21.592  24.700  1.00  0.00     0.121 C 
ATOM     18  C   UNL A   1      34.824  22.238  24.711  1.00  0.00     0.090 C 
ATOM     19  C   UNL A   1      32.814  20.147  25.065  1.00  0.00     0.022 C 
ATOM     20  C   UNL A   1      35.217  20.857  25.240  1.00  0.00     0.012 C 
ATOM     21  C   UNL A   1      36.008  23.082  25.171  1.00  0.00     0.025 C 
ATOM     22  C   UNL A   1      34.263  19.795  24.709  1.00  0.00     0.007 C 
ATOM     23  C   UNL A   1      36.680  20.731  24.855  1.00  0.00     0.006 C 
ATOM     24  C   UNL A   1      37.225  22.158  25.007  1.00  0.00     0.002 C 
ENDBRANCH  14  16
ENDBRANCH  11  14
ENDBRANCH   6   8
ENDBRANCH   5   6
ENDBRANCH   4   5
ENDBRANCH   3   4
ENDBRANCH   2   3
ENDBRANCH   1   2
BRANCH   1  25
ATOM     25  C   UNL A   1      34.782  32.453  29.043  1.00  0.00     0.188 C 
BRANCH  25  26
ATOM     26  O   UNL A   1      33.729  33.340  29.317  1.00  0.00    -0.376 OA
BRANCH  26  27
ATOM     27  C   UNL A   1      33.887  34.740  29.169  1.00  0.00     0.202 C 
BRANCH  27  28
ATOM     28  C   UNL A   1      32.928  35.825  29.695  1.00  0.00     0.261 C 
BRANCH  28  29
ATOM     29  O   UNL A   1      33.176  36.376  30.989  1.00  0.00    -0.460 OA
BRANCH  29  30
ATOM     30  C   UNL A   1      32.773  35.603  32.030  1.00  0.00     0.338 C 
ATOM     31  O   UNL A   1      31.633  35.351  32.371  1.00  0.00    -0.246 OA
BRANCH  30  32
ATOM     32  C   UNL A   1      33.950  34.943  32.621  1.00  0.00     0.060 A 
ATOM     33  C   UNL A   1      35.184  35.606  32.575  1.00  0.00     0.016 A 
ATOM     34  C   UNL A   1      33.848  33.661  33.159  1.00  0.00     0.016 A 
ATOM     35  C   UNL A   1      36.332  34.971  33.054  1.00  0.00     0.010 A 
ATOM     36  C   UNL A   1      35.002  33.018  33.614  1.00  0.00     0.010 A 
ATOM     37  C   UNL A   1      36.251  33.659  33.539  1.00  0.00    -0.014 A 
BRANCH  37  38
ATOM     38  C   UNL A   1      37.490  32.891  33.810  1.00  0.00     0.031 A 
ATOM     39  C   UNL A   1      38.199  33.102  35.116  1.00  0.00     0.074 A 
ATOM     40  C   UNL A   1      37.998  32.042  32.901  1.00  0.00     0.049 A 
ATOM     41  N   UNL A   1      39.324  32.589  35.541  1.00  0.00    -0.248 NA
ATOM     42  C   UNL A   1      37.565  34.038  36.056  1.00  0.00     0.031 C 
ATOM     43  C   UNL A   1      37.419  31.778  31.589  1.00  0.00     0.029 A 
ATOM     44  N   UNL A   1      39.123  31.252  32.941  1.00  0.00    -0.354 N 
ATOM     45  C   UNL A   1      39.549  33.161  36.785  1.00  0.00     0.074 A 
ATOM     46  C   UNL A   1      38.447  34.063  37.044  1.00  0.00     0.031 C 
ATOM     47  C   UNL A   1      38.191  30.883  30.950  1.00  0.00     0.029 A 
ATOM     48  C   UNL A   1      39.309  30.501  31.807  1.00  0.00     0.049 A 
ATOM     49  H   UNL A   1      39.737  31.229  33.709  1.00  0.00     0.167 HD
ATOM     50  C   UNL A   1      40.589  32.961  37.628  1.00  0.00     0.037 A 
ATOM     51  C   UNL A   1      40.267  29.605  31.497  1.00  0.00     0.037 A 
ATOM     52  C   UNL A   1      41.690  32.073  37.364  1.00  0.00     0.049 A 
ATOM     53  C   UNL A   1      41.401  29.385  32.465  1.00  0.00     0.074 A 
ATOM     54  C   UNL A   1      42.796  31.809  38.155  1.00  0.00     0.029 A 
ATOM     55  N   UNL A   1      41.830  31.307  36.215  1.00  0.00    -0.354 N 
ATOM     56  N   UNL A   1      41.596  29.915  33.648  1.00  0.00    -0.248 NA
ATOM     57  C   UNL A   1      42.466  28.464  32.039  1.00  0.00     0.031 C 
ATOM     58  C   UNL A   1      43.623  30.915  37.468  1.00  0.00     0.029 A 
ATOM     59  C   UNL A   1      43.009  30.581  36.272  1.00  0.00     0.049 A 
ATOM     60  H   UNL A   1      41.187  31.282  35.471  1.00  0.00     0.167 HD
ATOM     61  C   UNL A   1      42.798  29.392  34.107  1.00  0.00     0.074 A 
ATOM     62  C   UNL A   1      43.270  28.473  33.093  1.00  0.00     0.031 C 
ATOM     63  C   UNL A   1      43.462  29.665  35.256  1.00  0.00     0.037 A 
BRANCH  50  64
ATOM     64  C   UNL A   1      40.600  33.748  38.903  1.00  0.00     0.064 A 
ATOM     65  C   UNL A   1      41.320  34.945  39.025  1.00  0.00     0.173 A 
ATOM     66  C   UNL A   1      39.861  33.309  40.013  1.00  0.00     0.173 A 
ATOM     67  F   UNL A   1      42.058  35.395  37.998  1.00  0.00    -0.203 F 
ATOM     68  C   UNL A   1      41.319  35.663  40.217  1.00  0.00     0.198 A 
ATOM     69  C   UNL A   1      39.840  34.044  41.194  1.00  0.00     0.198 A 
ATOM     70  F   UNL A   1      39.156  32.170  39.948  1.00  0.00    -0.203 F 
ATOM     71  F   UNL A   1      42.053  36.778  40.326  1.00  0.00    -0.200 F 
ATOM     72  C   UNL A   1      40.573  35.216  41.298  1.00  0.00     0.200 A 
ATOM     73  F   UNL A   1      39.111  33.616  42.234  1.00  0.00    -0.200 F 
ATOM     74  F   UNL A   1      40.569  35.912  42.444  1.00  0.00    -0.200 F 
ENDBRANCH  50  64
BRANCH  51  75
ATOM     75  C   UNL A   1      40.198  28.828  30.228  1.00  0.00     0.064 A 
ATOM     76  C   UNL A   1      39.540  27.588  30.185  1.00  0.00     0.173 A 
ATOM     77  C   UNL A   1      40.799  29.282  29.046  1.00  0.00     0.173 A 
ATOM     78  F   UNL A   1      38.969  27.095  31.295  1.00  0.00    -0.203 F 
ATOM     79  C   UNL A   1      39.506  26.826  29.019  1.00  0.00     0.198 A 
ATOM     80  C   UNL A   1      40.733  28.537  27.870  1.00  0.00     0.198 A 
ATOM     81  F   UNL A   1      41.443  30.458  29.029  1.00  0.00    -0.203 F 
ATOM     82  F   UNL A   1      38.921  25.621  29.025  1.00  0.00    -0.200 F 
ATOM     83  C   UNL A   1      40.097  27.303  27.860  1.00  0.00     0.200 A 
ATOM     84  F   UNL A   1      41.293  29.009  26.748  1.00  0.00    -0.200 F 
ATOM     85  F   UNL A   1      40.064  26.572  26.738  1.00  0.00    -0.200 F 
ENDBRANCH  51  75
BRANCH  63  86
ATOM     86  C   UNL A   1      44.761  28.948  35.489  1.00  0.00     0.064 A 
ATOM     87  C   UNL A   1      44.808  27.708  36.145  1.00  0.00     0.173 A 
ATOM     88  C   UNL A   1      45.966  29.486  35.014  1.00  0.00     0.173 A 
ATOM     89  F   UNL A   1      43.685  27.159  36.631  1.00  0.00    -0.203 F 
ATOM     90  C   UNL A   1      46.018  27.048  36.339  1.00  0.00     0.198 A 
ATOM     91  C   UNL A   1      47.170  28.808  35.184  1.00  0.00     0.198 A 
ATOM     92  F   UNL A   1      45.974  30.664  34.373  1.00  0.00    -0.203 F 
ATOM     93  F   UNL A   1      46.045  25.888  37.011  1.00  0.00    -0.200 F 
ATOM     94  C   UNL A   1      47.196  27.594  35.853  1.00  0.00     0.200 A 
ATOM     95  F   UNL A   1      48.305  29.331  34.701  1.00  0.00    -0.200 F 
ATOM     96  F   UNL A   1      48.359  26.953  36.035  1.00  0.00    -0.200 F 
ENDBRANCH  63  86
ENDBRANCH  37  38
ENDBRANCH  30  32
ENDBRANCH  29  30
ENDBRANCH  28  29
ENDBRANCH  27  28
ENDBRANCH  26  27
ENDBRANCH  25  26
ENDBRANCH   1  25
TORSDOF 19
ENDMDL
MODEL 3
REMARK VINA RESULT:     -10.3      6.663     12.399
REMARK SMILES C[C@@H]1[C@@H](C(=O)OCCOCCOCCOC(=O)c2ccc(-c3c4nc(c(-c5c(F)c(F)c(F)c(F)c5F)c5ccc([nH]5)c(-c5c(F)c(F)c(F)c(F)c5F)c5nc(c(-c6c(F)c(F)c(F)c(F)c6F)c6ccc3[nH]6)C=C5)C=C4)cc2)CCN1C(=O)N1CCC[C@H]2CCC[C@@H]21
REMARK SMILES IDX 10 1 9 2 8 3 7 4 6 5 4 6 5 7 3 8 1 9 2 10 83 11 81 12 82 13
REMARK SMILES IDX 84 14 85 15 86 16 87 17 94 18 88 19 90 20 93 21 89 22 91 23
REMARK SMILES IDX 92 24 11 25 12 26 13 27 14 28 15 29 16 30 17 31 18 32 19 33
REMARK SMILES IDX 80 34 20 35 79 36 21 37 22 38 23 39 73 40 24 41 78 42 72 43
REMARK SMILES IDX 74 44 25 45 77 46 71 47 70 48 26 50 58 51 38 52 57 53 39 54
REMARK SMILES IDX 42 55 56 56 75 57 40 58 41 59 55 61 76 62 43 63 27 64 28 65
REMARK SMILES IDX 36 66 29 67 30 68 34 69 37 70 31 71 32 72 35 73 33 74 59 75
REMARK SMILES IDX 60 76 68 77 61 78 62 79 66 80 69 81 63 82 64 83 67 84 65 85
REMARK SMILES IDX 44 86 45 87 53 88 46 89 47 90 51 91 54 92 48 93 49 94 52 95
REMARK SMILES IDX 50 96
REMARK H PARENT 74 49 42 60
REMARK Flexibility Score: inf
ROOT
ATOM      1  C   UNL A   1      39.477  22.042  26.254  1.00  0.00     0.188 C 
ENDROOT
BRANCH   1   2
ATOM      2  O   UNL A   1      38.413  21.496  25.491  1.00  0.00    -0.376 OA
BRANCH   2   3
ATOM      3  C   UNL A   1      37.154  22.148  25.448  1.00  0.00     0.202 C 
BRANCH   3   4
ATOM      4  C   UNL A   1      36.435  22.350  24.111  1.00  0.00     0.261 C 
BRANCH   4   5
ATOM      5  O   UNL A   1      35.042  22.008  24.137  1.00  0.00    -0.463 OA
BRANCH   5   6
ATOM      6  C   UNL A   1      34.236  22.843  23.423  1.00  0.00     0.311 C 
ATOM      7  O   UNL A   1      34.556  23.382  22.376  1.00  0.00    -0.252 OA
BRANCH   6   8
ATOM      8  C   UNL A   1      32.866  22.950  24.067  1.00  0.00     0.123 C 
ATOM      9  C   UNL A   1      30.629  24.007  23.615  1.00  0.00     0.032 C 
ATOM     10  C   UNL A   1      32.147  24.209  23.561  1.00  0.00     0.098 C 
ATOM     11  N   UNL A   1      32.627  25.254  24.477  1.00  0.00    -0.321 N 
ATOM     12  C   UNL A   1      32.949  23.167  25.570  1.00  0.00     0.039 C 
ATOM     13  C   UNL A   1      33.161  24.670  25.699  1.00  0.00     0.122 C 
BRANCH  11  14
ATOM     14  C   UNL A   1      33.135  26.489  24.077  1.00  0.00     0.320 C 
ATOM     15  O   UNL A   1      34.029  26.600  23.241  1.00  0.00    -0.248 OA
BRANCH  14  16
ATOM     16  N   UNL A   1      32.498  27.581  24.615  1.00  0.00    -0.321 N 
ATOM     17  C   UNL A   1      31.105  27.848  24.282  1.00  0.00     0.121 C 
ATOM     18  C   UNL A   1      32.927  28.187  25.863  1.00  0.00     0.090 C 
ATOM     19  C   UNL A   1      30.846  29.350  24.172  1.00  0.00     0.022 C 
ATOM     20  C   UNL A   1      32.831  29.702  25.670  1.00  0.00     0.012 C 
ATOM     21  C   UNL A   1      34.366  28.037  26.344  1.00  0.00     0.025 C 
ATOM     22  C   UNL A   1      31.392  30.111  25.386  1.00  0.00     0.007 C 
ATOM     23  C   UNL A   1      33.477  30.262  26.925  1.00  0.00     0.006 C 
ATOM     24  C   UNL A   1      34.603  29.266  27.236  1.00  0.00     0.002 C 
ENDBRANCH  14  16
ENDBRANCH  11  14
ENDBRANCH   6   8
ENDBRANCH   5   6
ENDBRANCH   4   5
ENDBRANCH   3   4
ENDBRANCH   2   3
ENDBRANCH   1   2
BRANCH   1  25
ATOM     25  C   UNL A   1      40.535  21.136  26.918  1.00  0.00     0.188 C 
BRANCH  25  26
ATOM     26  O   UNL A   1      41.238  20.233  26.106  1.00  0.00    -0.376 OA
BRANCH  26  27
ATOM     27  C   UNL A   1      42.295  19.444  26.624  1.00  0.00     0.202 C 
BRANCH  27  28
ATOM     28  C   UNL A   1      43.169  18.457  25.828  1.00  0.00     0.261 C 
BRANCH  28  29
ATOM     29  O   UNL A   1      44.475  18.878  25.432  1.00  0.00    -0.460 OA
BRANCH  29  30
ATOM     30  C   UNL A   1      44.526  19.579  24.271  1.00  0.00     0.338 C 
ATOM     31  O   UNL A   1      44.181  19.210  23.165  1.00  0.00    -0.246 OA
BRANCH  30  32
ATOM     32  C   UNL A   1      44.919  20.968  24.566  1.00  0.00     0.060 A 
ATOM     33  C   UNL A   1      45.621  21.229  25.751  1.00  0.00     0.016 A 
ATOM     34  C   UNL A   1      44.545  22.006  23.714  1.00  0.00     0.016 A 
ATOM     35  C   UNL A   1      45.934  22.545  26.097  1.00  0.00     0.010 A 
ATOM     36  C   UNL A   1      44.838  23.324  24.075  1.00  0.00     0.010 A 
ATOM     37  C   UNL A   1      45.509  23.601  25.279  1.00  0.00    -0.014 A 
BRANCH  37  38
ATOM     38  C   UNL A   1      45.613  24.999  25.759  1.00  0.00     0.031 A 
ATOM     39  C   UNL A   1      46.931  25.708  25.639  1.00  0.00     0.074 A 
ATOM     40  C   UNL A   1      44.565  25.623  26.323  1.00  0.00     0.049 A 
ATOM     41  N   UNL A   1      47.269  26.904  26.046  1.00  0.00    -0.248 NA
ATOM     42  C   UNL A   1      48.018  24.954  24.998  1.00  0.00     0.031 C 
ATOM     43  C   UNL A   1      43.248  25.030  26.523  1.00  0.00     0.029 A 
ATOM     44  N   UNL A   1      44.447  26.892  26.839  1.00  0.00    -0.354 N 
ATOM     45  C   UNL A   1      48.615  27.037  25.736  1.00  0.00     0.074 A 
ATOM     46  C   UNL A   1      49.033  25.799  25.113  1.00  0.00     0.031 C 
ATOM     47  C   UNL A   1      42.453  25.937  27.114  1.00  0.00     0.029 A 
ATOM     48  C   UNL A   1      43.195  27.175  27.324  1.00  0.00     0.049 A 
ATOM     49  H   UNL A   1      45.192  27.535  26.859  1.00  0.00     0.167 HD
ATOM     50  C   UNL A   1      49.431  28.092  25.965  1.00  0.00     0.037 A 
ATOM     51  C   UNL A   1      42.703  28.305  27.871  1.00  0.00     0.037 A 
ATOM     52  C   UNL A   1      49.018  29.318  26.596  1.00  0.00     0.049 A 
ATOM     53  C   UNL A   1      43.628  29.473  28.093  1.00  0.00     0.074 A 
ATOM     54  C   UNL A   1      49.775  30.442  26.877  1.00  0.00     0.029 A 
ATOM     55  N   UNL A   1      47.733  29.578  27.050  1.00  0.00    -0.354 N 
ATOM     56  N   UNL A   1      44.895  29.598  27.779  1.00  0.00    -0.248 NA
ATOM     57  C   UNL A   1      43.062  30.647  28.774  1.00  0.00     0.031 C 
ATOM     58  C   UNL A   1      48.959  31.366  27.538  1.00  0.00     0.029 A 
ATOM     59  C   UNL A   1      47.681  30.840  27.620  1.00  0.00     0.049 A 
ATOM     60  H   UNL A   1      46.971  28.960  26.977  1.00  0.00     0.167 HD
ATOM     61  C   UNL A   1      45.275  30.859  28.220  1.00  0.00     0.074 A 
ATOM     62  C   UNL A   1      44.096  31.477  28.788  1.00  0.00     0.031 C 
ATOM     63  C   UNL A   1      46.496  31.444  28.177  1.00  0.00     0.037 A 
BRANCH  50  64
ATOM     64  C   UNL A   1      50.866  27.949  25.560  1.00  0.00     0.064 A 
ATOM     65  C   UNL A   1      51.294  28.217  24.250  1.00  0.00     0.173 A 
ATOM     66  C   UNL A   1      51.833  27.558  26.500  1.00  0.00     0.173 A 
ATOM     67  F   UNL A   1      50.404  28.573  23.311  1.00  0.00    -0.203 F 
ATOM     68  C   UNL A   1      52.631  28.078  23.892  1.00  0.00     0.198 A 
ATOM     69  C   UNL A   1      53.173  27.448  26.145  1.00  0.00     0.198 A 
ATOM     70  F   UNL A   1      51.475  27.290  27.765  1.00  0.00    -0.203 F 
ATOM     71  F   UNL A   1      53.009  28.291  22.625  1.00  0.00    -0.200 F 
ATOM     72  C   UNL A   1      53.571  27.701  24.841  1.00  0.00     0.200 A 
ATOM     73  F   UNL A   1      54.081  27.094  27.065  1.00  0.00    -0.200 F 
ATOM     74  F   UNL A   1      54.859  27.573  24.495  1.00  0.00    -0.200 F 
ENDBRANCH  50  64
BRANCH  51  75
ATOM     75  C   UNL A   1      41.261  28.407  28.233  1.00  0.00     0.064 A 
ATOM     76  C   UNL A   1      40.808  27.973  29.489  1.00  0.00     0.173 A 
ATOM     77  C   UNL A   1      40.305  28.911  27.339  1.00  0.00     0.173 A 
ATOM     78  F   UNL A   1      41.676  27.460  30.373  1.00  0.00    -0.203 F 
ATOM     79  C   UNL A   1      39.456  28.018  29.826  1.00  0.00     0.198 A 
ATOM     80  C   UNL A   1      38.959  28.990  27.690  1.00  0.00     0.198 A 
ATOM     81  F   UNL A   1      40.681  29.337  26.125  1.00  0.00    -0.203 F 
ATOM     82  F   UNL A   1      39.047  27.543  31.010  1.00  0.00    -0.200 F 
ATOM     83  C   UNL A   1      38.533  28.532  28.929  1.00  0.00     0.200 A 
ATOM     84  F   UNL A   1      38.073  29.502  26.826  1.00  0.00    -0.200 F 
ATOM     85  F   UNL A   1      37.234  28.578  29.253  1.00  0.00    -0.200 F 
ENDBRANCH  51  75
BRANCH  63  86
ATOM     86  C   UNL A   1      46.617  32.830  28.743  1.00  0.00     0.064 A 
ATOM     87  C   UNL A   1      46.399  33.968  27.951  1.00  0.00     0.173 A 
ATOM     88  C   UNL A   1      46.913  33.021  30.100  1.00  0.00     0.173 A 
ATOM     89  F   UNL A   1      46.127  33.838  26.643  1.00  0.00    -0.203 F 
ATOM     90  C   UNL A   1      46.498  35.246  28.493  1.00  0.00     0.198 A 
ATOM     91  C   UNL A   1      46.982  34.301  30.645  1.00  0.00     0.198 A 
ATOM     92  F   UNL A   1      47.122  31.967  30.902  1.00  0.00    -0.203 F 
ATOM     93  F   UNL A   1      46.333  36.319  27.707  1.00  0.00    -0.200 F 
ATOM     94  C   UNL A   1      46.783  35.411  29.840  1.00  0.00     0.200 A 
ATOM     95  F   UNL A   1      47.243  34.458  31.950  1.00  0.00    -0.200 F 
ATOM     96  F   UNL A   1      46.872  36.643  30.361  1.00  0.00    -0.200 F 
ENDBRANCH  63  86
ENDBRANCH  37  38
ENDBRANCH  30  32
ENDBRANCH  29  30
ENDBRANCH  28  29
ENDBRANCH  27  28
ENDBRANCH  26  27
ENDBRANCH  25  26
ENDBRANCH   1  25
TORSDOF 19
ENDMDL
