MODEL 1
REMARK VINA RESULT:     -10.8      0.000      0.000
REMARK SMILES Nc1cc(C(=O)OCCOCCOCCOC(=O)c2ccc(-c3c4nc(c(-c5c(F)c(F)c(F)c(F)c5F)c5ccc([nH]5)c(-c5c(F)c(F)c(F)c(F)c5F)c5nc(c(-c6c(F)c(F)c(F)c(F)c6F)c6ccc3[nH]6)C=C5)C=C4)cc2)nc2ccc(F)cc12
REMARK SMILES IDX 12 1 11 2 10 3 9 4 8 5 7 6 5 7 6 8 4 9 2 10 3 11 89 12 83 13
REMARK SMILES IDX 88 14 82 15 84 16 86 17 85 18 87 19 1 20 13 23 14 24 15 25
REMARK SMILES IDX 16 26 17 27 18 28 19 29 20 30 81 31 21 32 80 33 22 34 23 35
REMARK SMILES IDX 24 36 74 37 25 38 79 39 73 40 75 41 26 42 78 43 72 44 71 45
REMARK SMILES IDX 27 47 59 48 39 49 58 50 40 51 43 52 57 53 76 54 41 55 42 56
REMARK SMILES IDX 56 58 77 59 44 60 28 61 29 62 37 63 30 64 31 65 35 66 38 67
REMARK SMILES IDX 32 68 33 69 36 70 34 71 60 72 61 73 69 74 62 75 63 76 67 77
REMARK SMILES IDX 70 78 64 79 65 80 68 81 66 82 45 83 46 84 54 85 47 86 48 87
REMARK SMILES IDX 52 88 55 89 49 90 50 91 53 92 51 93
REMARK H PARENT 1 21 1 22 75 46 43 57
REMARK Flexibility Score: inf
ROOT
ATOM      1  C   UNL A   1      40.537  20.927  26.702  1.00  0.00     0.188 C 
ENDROOT
BRANCH   1   2
ATOM      2  C   UNL A   1      39.418  21.833  26.147  1.00  0.00     0.188 C 
BRANCH   2   3
ATOM      3  O   UNL A   1      38.375  21.278  25.376  1.00  0.00    -0.376 OA
BRANCH   3   4
ATOM      4  C   UNL A   1      37.031  21.687  25.570  1.00  0.00     0.202 C 
BRANCH   4   5
ATOM      5  C   UNL A   1      36.586  23.150  25.710  1.00  0.00     0.261 C 
BRANCH   5   6
ATOM      6  O   UNL A   1      35.218  23.364  26.076  1.00  0.00    -0.459 OA
BRANCH   6   7
ATOM      7  C   UNL A   1      34.345  23.424  25.031  1.00  0.00     0.357 C 
ATOM      8  O   UNL A   1      34.179  22.568  24.176  1.00  0.00    -0.244 OA
BRANCH   7   9
ATOM      9  C   UNL A   1      33.479  24.625  25.180  1.00  0.00     0.151 A 
ATOM     10  C   UNL A   1      31.462  25.696  25.866  1.00  0.00     0.043 A 
ATOM     11  C   UNL A   1      32.226  24.535  25.758  1.00  0.00     0.062 A 
ATOM     12  C   UNL A   1      32.022  26.931  25.446  1.00  0.00     0.026 A 
ATOM     13  C   UNL A   1      33.289  26.898  24.817  1.00  0.00     0.073 A 
ATOM     14  C   UNL A   1      31.393  28.186  25.621  1.00  0.00     0.051 A 
ATOM     15  N   UNL A   1      33.998  25.774  24.677  1.00  0.00    -0.241 NA
ATOM     16  C   UNL A   1      33.840  28.077  24.327  1.00  0.00     0.032 A 
ATOM     17  C   UNL A   1      31.988  29.350  25.151  1.00  0.00     0.124 A 
ATOM     18  C   UNL A   1      33.200  29.306  24.487  1.00  0.00     0.041 A 
ATOM     19  F   UNL A   1      31.381  30.528  25.345  1.00  0.00    -0.207 F 
BRANCH  10  20
ATOM     20  N   UNL A   1      30.222  25.616  26.502  1.00  0.00    -0.398 N 
ATOM     21  H   UNL A   1      29.963  26.298  27.164  1.00  0.00     0.156 HD
ATOM     22  H   UNL A   1      29.606  24.878  26.288  1.00  0.00     0.156 HD
ENDBRANCH  10  20
ENDBRANCH   7   9
ENDBRANCH   6   7
ENDBRANCH   5   6
ENDBRANCH   4   5
ENDBRANCH   3   4
ENDBRANCH   2   3
ENDBRANCH   1   2
BRANCH   1  23
ATOM     23  O   UNL A   1      41.425  20.273  25.823  1.00  0.00    -0.376 OA
BRANCH  23  24
ATOM     24  C   UNL A   1      42.828  20.450  25.955  1.00  0.00     0.202 C 
BRANCH  24  25
ATOM     25  C   UNL A   1      43.615  21.636  25.372  1.00  0.00     0.261 C 
BRANCH  25  26
ATOM     26  O   UNL A   1      42.878  22.833  25.104  1.00  0.00    -0.460 OA
BRANCH  26  27
ATOM     27  C   UNL A   1      43.613  23.977  25.102  1.00  0.00     0.338 C 
ATOM     28  O   UNL A   1      44.490  24.296  24.330  1.00  0.00    -0.246 OA
BRANCH  27  29
ATOM     29  C   UNL A   1      43.036  24.895  26.104  1.00  0.00     0.060 A 
ATOM     30  C   UNL A   1      42.024  24.461  26.958  1.00  0.00     0.016 A 
ATOM     31  C   UNL A   1      43.523  26.208  26.177  1.00  0.00     0.016 A 
ATOM     32  C   UNL A   1      41.504  25.347  27.902  1.00  0.00     0.010 A 
ATOM     33  C   UNL A   1      42.987  27.097  27.107  1.00  0.00     0.010 A 
ATOM     34  C   UNL A   1      41.988  26.667  27.990  1.00  0.00    -0.014 A 
BRANCH  34  35
ATOM     35  C   UNL A   1      41.566  27.535  29.116  1.00  0.00     0.031 A 
ATOM     36  C   UNL A   1      40.375  28.437  29.023  1.00  0.00     0.074 A 
ATOM     37  C   UNL A   1      42.298  27.497  30.243  1.00  0.00     0.049 A 
ATOM     38  N   UNL A   1      39.842  29.189  29.953  1.00  0.00    -0.248 NA
ATOM     39  C   UNL A   1      39.698  28.513  27.722  1.00  0.00     0.031 C 
ATOM     40  C   UNL A   1      43.495  26.677  30.432  1.00  0.00     0.029 A 
ATOM     41  N   UNL A   1      42.142  28.145  31.441  1.00  0.00    -0.354 N 
ATOM     42  C   UNL A   1      38.748  29.805  29.365  1.00  0.00     0.074 A 
ATOM     43  C   UNL A   1      38.726  29.383  27.978  1.00  0.00     0.031 C 
ATOM     44  C   UNL A   1      43.945  26.845  31.684  1.00  0.00     0.029 A 
ATOM     45  C   UNL A   1      43.087  27.803  32.375  1.00  0.00     0.049 A 
ATOM     46  H   UNL A   1      41.421  28.795  31.614  1.00  0.00     0.167 HD
ATOM     47  C   UNL A   1      37.836  30.628  29.940  1.00  0.00     0.037 A 
ATOM     48  C   UNL A   1      43.242  28.207  33.650  1.00  0.00     0.037 A 
ATOM     49  C   UNL A   1      37.884  31.066  31.315  1.00  0.00     0.049 A 
ATOM     50  C   UNL A   1      42.251  29.168  34.243  1.00  0.00     0.074 A 
ATOM     51  C   UNL A   1      36.992  31.883  31.991  1.00  0.00     0.029 A 
ATOM     52  N   UNL A   1      38.883  30.739  32.221  1.00  0.00    -0.354 N 
ATOM     53  N   UNL A   1      41.179  29.690  33.700  1.00  0.00    -0.248 NA
ATOM     54  C   UNL A   1      42.490  29.589  35.629  1.00  0.00     0.031 C 
ATOM     55  C   UNL A   1      37.482  32.097  33.284  1.00  0.00     0.029 A 
ATOM     56  C   UNL A   1      38.646  31.362  33.439  1.00  0.00     0.049 A 
ATOM     57  H   UNL A   1      39.649  30.150  32.029  1.00  0.00     0.167 HD
ATOM     58  C   UNL A   1      40.600  30.480  34.684  1.00  0.00     0.074 A 
ATOM     59  C   UNL A   1      41.431  30.355  35.863  1.00  0.00     0.031 C 
ATOM     60  C   UNL A   1      39.478  31.238  34.610  1.00  0.00     0.037 A 
BRANCH  47  61
ATOM     61  C   UNL A   1      36.693  31.108  29.091  1.00  0.00     0.064 A 
ATOM     62  C   UNL A   1      35.627  30.257  28.756  1.00  0.00     0.173 A 
ATOM     63  C   UNL A   1      36.613  32.447  28.681  1.00  0.00     0.173 A 
ATOM     64  F   UNL A   1      35.651  28.967  29.125  1.00  0.00    -0.203 F 
ATOM     65  C   UNL A   1      34.537  30.724  28.026  1.00  0.00     0.198 A 
ATOM     66  C   UNL A   1      35.507  32.919  27.978  1.00  0.00     0.198 A 
ATOM     67  F   UNL A   1      37.596  33.309  28.988  1.00  0.00    -0.203 F 
ATOM     68  F   UNL A   1      33.546  29.886  27.693  1.00  0.00    -0.200 F 
ATOM     69  C   UNL A   1      34.473  32.057  27.647  1.00  0.00     0.200 A 
ATOM     70  F   UNL A   1      35.436  34.211  27.632  1.00  0.00    -0.200 F 
ATOM     71  F   UNL A   1      33.413  32.511  26.962  1.00  0.00    -0.200 F 
ENDBRANCH  47  61
BRANCH  48  72
ATOM     72  C   UNL A   1      44.355  27.649  34.456  1.00  0.00     0.064 A 
ATOM     73  C   UNL A   1      45.567  28.340  34.579  1.00  0.00     0.173 A 
ATOM     74  C   UNL A   1      44.216  26.442  35.158  1.00  0.00     0.173 A 
ATOM     75  F   UNL A   1      45.752  29.491  33.913  1.00  0.00    -0.203 F 
ATOM     76  C   UNL A   1      46.601  27.844  35.369  1.00  0.00     0.198 A 
ATOM     77  C   UNL A   1      45.241  25.962  35.970  1.00  0.00     0.198 A 
ATOM     78  F   UNL A   1      43.072  25.747  35.078  1.00  0.00    -0.203 F 
ATOM     79  F   UNL A   1      47.761  28.511  35.446  1.00  0.00    -0.200 F 
ATOM     80  C   UNL A   1      46.433  26.660  36.072  1.00  0.00     0.200 A 
ATOM     81  F   UNL A   1      45.067  24.828  36.663  1.00  0.00    -0.200 F 
ATOM     82  F   UNL A   1      47.422  26.194  36.846  1.00  0.00    -0.200 F 
ENDBRANCH  48  72
BRANCH  60  83
ATOM     83  C   UNL A   1      39.064  31.986  35.848  1.00  0.00     0.064 A 
ATOM     84  C   UNL A   1      39.459  33.314  36.073  1.00  0.00     0.173 A 
ATOM     85  C   UNL A   1      38.217  31.386  36.794  1.00  0.00     0.173 A 
ATOM     86  F   UNL A   1      40.280  33.930  35.210  1.00  0.00    -0.203 F 
ATOM     87  C   UNL A   1      39.040  34.003  37.210  1.00  0.00     0.198 A 
ATOM     88  C   UNL A   1      37.773  32.090  37.910  1.00  0.00     0.198 A 
ATOM     89  F   UNL A   1      37.804  30.120  36.625  1.00  0.00    -0.203 F 
ATOM     90  F   UNL A   1      39.467  35.255  37.426  1.00  0.00    -0.200 F 
ATOM     91  C   UNL A   1      38.189  33.395  38.120  1.00  0.00     0.200 A 
ATOM     92  F   UNL A   1      36.939  31.505  38.781  1.00  0.00    -0.200 F 
ATOM     93  F   UNL A   1      37.776  34.065  39.204  1.00  0.00    -0.200 F 
ENDBRANCH  60  83
ENDBRANCH  34  35
ENDBRANCH  27  29
ENDBRANCH  26  27
ENDBRANCH  25  26
ENDBRANCH  24  25
ENDBRANCH  23  24
ENDBRANCH   1  23
TORSDOF 18
ENDMDL
MODEL 2
REMARK VINA RESULT:     -10.7      3.331      8.790
REMARK SMILES Nc1cc(C(=O)OCCOCCOCCOC(=O)c2ccc(-c3c4nc(c(-c5c(F)c(F)c(F)c(F)c5F)c5ccc([nH]5)c(-c5c(F)c(F)c(F)c(F)c5F)c5nc(c(-c6c(F)c(F)c(F)c(F)c6F)c6ccc3[nH]6)C=C5)C=C4)cc2)nc2ccc(F)cc12
REMARK SMILES IDX 12 1 11 2 10 3 9 4 8 5 7 6 5 7 6 8 4 9 2 10 3 11 89 12 83 13
REMARK SMILES IDX 88 14 82 15 84 16 86 17 85 18 87 19 1 20 13 23 14 24 15 25
REMARK SMILES IDX 16 26 17 27 18 28 19 29 20 30 81 31 21 32 80 33 22 34 23 35
REMARK SMILES IDX 24 36 74 37 25 38 79 39 73 40 75 41 26 42 78 43 72 44 71 45
REMARK SMILES IDX 27 47 59 48 39 49 58 50 40 51 43 52 57 53 76 54 41 55 42 56
REMARK SMILES IDX 56 58 77 59 44 60 28 61 29 62 37 63 30 64 31 65 35 66 38 67
REMARK SMILES IDX 32 68 33 69 36 70 34 71 60 72 61 73 69 74 62 75 63 76 67 77
REMARK SMILES IDX 70 78 64 79 65 80 68 81 66 82 45 83 46 84 54 85 47 86 48 87
REMARK SMILES IDX 52 88 55 89 49 90 50 91 53 92 51 93
REMARK H PARENT 1 21 1 22 75 46 43 57
REMARK Flexibility Score: inf
ROOT
ATOM      1  C   UNL A   1      32.828  29.224  26.851  1.00  0.00     0.188 C 
ENDROOT
BRANCH   1   2
ATOM      2  C   UNL A   1      34.089  28.515  26.314  1.00  0.00     0.188 C 
BRANCH   2   3
ATOM      3  O   UNL A   1      33.991  27.223  25.755  1.00  0.00    -0.376 OA
BRANCH   3   4
ATOM      4  C   UNL A   1      32.941  26.347  26.132  1.00  0.00     0.202 C 
BRANCH   4   5
ATOM      5  C   UNL A   1      32.856  24.872  25.711  1.00  0.00     0.261 C 
BRANCH   5   6
ATOM      6  O   UNL A   1      31.956  24.570  24.639  1.00  0.00    -0.459 OA
BRANCH   6   7
ATOM      7  C   UNL A   1      32.093  25.356  23.534  1.00  0.00     0.357 C 
ATOM      8  O   UNL A   1      32.970  25.272  22.689  1.00  0.00    -0.244 OA
BRANCH   7   9
ATOM      9  C   UNL A   1      30.899  26.235  23.403  1.00  0.00     0.151 A 
ATOM     10  C   UNL A   1      28.583  26.706  23.722  1.00  0.00     0.043 A 
ATOM     11  C   UNL A   1      29.663  25.836  23.876  1.00  0.00     0.062 A 
ATOM     12  C   UNL A   1      28.806  27.986  23.152  1.00  0.00     0.026 A 
ATOM     13  C   UNL A   1      30.099  28.267  22.651  1.00  0.00     0.073 A 
ATOM     14  C   UNL A   1      27.817  28.995  23.059  1.00  0.00     0.051 A 
ATOM     15  N   UNL A   1      31.120  27.412  22.764  1.00  0.00    -0.241 NA
ATOM     16  C   UNL A   1      30.339  29.483  22.022  1.00  0.00     0.032 A 
ATOM     17  C   UNL A   1      28.101  30.213  22.455  1.00  0.00     0.124 A 
ATOM     18  C   UNL A   1      29.350  30.462  21.917  1.00  0.00     0.041 A 
ATOM     19  F   UNL A   1      27.154  31.158  22.396  1.00  0.00    -0.207 F 
BRANCH  10  20
ATOM     20  N   UNL A   1      27.348  26.328  24.251  1.00  0.00    -0.398 N 
ATOM     21  H   UNL A   1      27.068  25.384  24.224  1.00  0.00     0.156 HD
ATOM     22  H   UNL A   1      26.756  27.006  24.652  1.00  0.00     0.156 HD
ENDBRANCH  10  20
ENDBRANCH   7   9
ENDBRANCH   6   7
ENDBRANCH   5   6
ENDBRANCH   4   5
ENDBRANCH   3   4
ENDBRANCH   2   3
ENDBRANCH   1   2
BRANCH   1  23
ATOM     23  O   UNL A   1      32.874  30.588  27.205  1.00  0.00    -0.376 OA
BRANCH  23  24
ATOM     24  C   UNL A   1      31.821  31.464  26.831  1.00  0.00     0.202 C 
BRANCH  24  25
ATOM     25  C   UNL A   1      31.841  32.988  27.034  1.00  0.00     0.261 C 
BRANCH  25  26
ATOM     26  O   UNL A   1      33.122  33.603  27.199  1.00  0.00    -0.460 OA
BRANCH  26  27
ATOM     27  C   UNL A   1      33.268  34.346  28.328  1.00  0.00     0.338 C 
ATOM     28  O   UNL A   1      32.528  35.205  28.754  1.00  0.00    -0.246 OA
BRANCH  27  29
ATOM     29  C   UNL A   1      34.408  33.802  29.092  1.00  0.00     0.060 A 
ATOM     30  C   UNL A   1      34.203  32.831  30.071  1.00  0.00     0.016 A 
ATOM     31  C   UNL A   1      35.696  34.281  28.815  1.00  0.00     0.016 A 
ATOM     32  C   UNL A   1      35.300  32.328  30.771  1.00  0.00     0.010 A 
ATOM     33  C   UNL A   1      36.788  33.791  29.531  1.00  0.00     0.010 A 
ATOM     34  C   UNL A   1      36.600  32.796  30.499  1.00  0.00    -0.014 A 
BRANCH  34  35
ATOM     35  C   UNL A   1      37.771  32.121  31.109  1.00  0.00     0.031 A 
ATOM     36  C   UNL A   1      38.253  32.453  32.487  1.00  0.00     0.074 A 
ATOM     37  C   UNL A   1      38.407  31.190  30.376  1.00  0.00     0.049 A 
ATOM     38  N   UNL A   1      39.211  31.887  33.178  1.00  0.00    -0.248 NA
ATOM     39  C   UNL A   1      37.582  33.562  33.178  1.00  0.00     0.031 C 
ATOM     40  C   UNL A   1      38.041  30.810  29.012  1.00  0.00     0.029 A 
ATOM     41  N   UNL A   1      39.478  30.387  30.674  1.00  0.00    -0.354 N 
ATOM     42  C   UNL A   1      39.241  32.546  34.397  1.00  0.00     0.074 A 
ATOM     43  C   UNL A   1      38.242  33.595  34.330  1.00  0.00     0.031 C 
ATOM     44  C   UNL A   1      38.852  29.823  28.602  1.00  0.00     0.029 A 
ATOM     45  C   UNL A   1      39.809  29.521  29.662  1.00  0.00     0.049 A 
ATOM     46  H   UNL A   1      39.963  30.429  31.530  1.00  0.00     0.167 HD
ATOM     47  C   UNL A   1      40.018  32.282  35.477  1.00  0.00     0.037 A 
ATOM     48  C   UNL A   1      40.770  28.581  29.597  1.00  0.00     0.037 A 
ATOM     49  C   UNL A   1      41.031  31.254  35.523  1.00  0.00     0.049 A 
ATOM     50  C   UNL A   1      41.658  28.352  30.787  1.00  0.00     0.074 A 
ATOM     51  C   UNL A   1      41.853  30.900  36.581  1.00  0.00     0.029 A 
ATOM     52  N   UNL A   1      41.374  30.427  34.462  1.00  0.00    -0.354 N 
ATOM     53  N   UNL A   1      41.633  28.932  31.962  1.00  0.00    -0.248 NA
ATOM     54  C   UNL A   1      42.703  27.330  30.643  1.00  0.00     0.031 C 
ATOM     55  C   UNL A   1      42.730  29.902  36.143  1.00  0.00     0.029 A 
ATOM     56  C   UNL A   1      42.415  29.585  34.832  1.00  0.00     0.049 A 
ATOM     57  H   UNL A   1      40.943  30.434  33.578  1.00  0.00     0.167 HD
ATOM     58  C   UNL A   1      42.637  28.329  32.706  1.00  0.00     0.074 A 
ATOM     59  C   UNL A   1      43.243  27.327  31.855  1.00  0.00     0.031 C 
ATOM     60  C   UNL A   1      43.019  28.589  33.981  1.00  0.00     0.037 A 
BRANCH  47  61
ATOM     61  C   UNL A   1      39.802  33.108  36.714  1.00  0.00     0.064 A 
ATOM     62  C   UNL A   1      40.536  34.283  36.942  1.00  0.00     0.173 A 
ATOM     63  C   UNL A   1      38.796  32.777  37.634  1.00  0.00     0.173 A 
ATOM     64  F   UNL A   1      41.508  34.647  36.093  1.00  0.00    -0.203 F 
ATOM     65  C   UNL A   1      40.286  35.081  38.056  1.00  0.00     0.198 A 
ATOM     66  C   UNL A   1      38.526  33.595  38.729  1.00  0.00     0.198 A 
ATOM     67  F   UNL A   1      38.051  31.674  37.457  1.00  0.00    -0.203 F 
ATOM     68  F   UNL A   1      41.020  36.182  38.268  1.00  0.00    -0.200 F 
ATOM     69  C   UNL A   1      39.274  34.742  38.942  1.00  0.00     0.200 A 
ATOM     70  F   UNL A   1      37.534  33.278  39.573  1.00  0.00    -0.200 F 
ATOM     71  F   UNL A   1      39.020  35.523  40.002  1.00  0.00    -0.200 F 
ENDBRANCH  47  61
BRANCH  48  72
ATOM     72  C   UNL A   1      40.894  27.755  28.371  1.00  0.00     0.064 A 
ATOM     73  C   UNL A   1      41.698  28.173  27.303  1.00  0.00     0.173 A 
ATOM     74  C   UNL A   1      40.251  26.512  28.258  1.00  0.00     0.173 A 
ATOM     75  F   UNL A   1      42.320  29.361  27.358  1.00  0.00    -0.203 F 
ATOM     76  C   UNL A   1      41.853  27.383  26.167  1.00  0.00     0.198 A 
ATOM     77  C   UNL A   1      40.429  25.711  27.133  1.00  0.00     0.198 A 
ATOM     78  F   UNL A   1      39.475  26.066  29.256  1.00  0.00    -0.203 F 
ATOM     79  F   UNL A   1      42.606  27.819  25.147  1.00  0.00    -0.200 F 
ATOM     80  C   UNL A   1      41.226  26.148  26.088  1.00  0.00     0.200 A 
ATOM     81  F   UNL A   1      39.838  24.510  27.069  1.00  0.00    -0.200 F 
ATOM     82  F   UNL A   1      41.391  25.381  25.001  1.00  0.00    -0.200 F 
ENDBRANCH  48  72
BRANCH  60  83
ATOM     83  C   UNL A   1      44.138  27.763  34.552  1.00  0.00     0.064 A 
ATOM     84  C   UNL A   1      45.466  28.216  34.547  1.00  0.00     0.173 A 
ATOM     85  C   UNL A   1      43.872  26.525  35.161  1.00  0.00     0.173 A 
ATOM     86  F   UNL A   1      45.778  29.383  33.964  1.00  0.00    -0.203 F 
ATOM     87  C   UNL A   1      46.487  27.453  35.109  1.00  0.00     0.198 A 
ATOM     88  C   UNL A   1      44.890  25.782  35.753  1.00  0.00     0.198 A 
ATOM     89  F   UNL A   1      42.619  26.046  35.200  1.00  0.00    -0.203 F 
ATOM     90  F   UNL A   1      47.754  27.886  35.051  1.00  0.00    -0.200 F 
ATOM     91  C   UNL A   1      46.197  26.243  35.721  1.00  0.00     0.200 A 
ATOM     92  F   UNL A   1      44.605  24.620  36.357  1.00  0.00    -0.200 F 
ATOM     93  F   UNL A   1      47.178  25.518  36.274  1.00  0.00    -0.200 F 
ENDBRANCH  60  83
ENDBRANCH  34  35
ENDBRANCH  27  29
ENDBRANCH  26  27
ENDBRANCH  25  26
ENDBRANCH  24  25
ENDBRANCH  23  24
ENDBRANCH   1  23
TORSDOF 18
ENDMDL
MODEL 3
REMARK VINA RESULT:     -10.6      7.599     13.170
REMARK SMILES Nc1cc(C(=O)OCCOCCOCCOC(=O)c2ccc(-c3c4nc(c(-c5c(F)c(F)c(F)c(F)c5F)c5ccc([nH]5)c(-c5c(F)c(F)c(F)c(F)c5F)c5nc(c(-c6c(F)c(F)c(F)c(F)c6F)c6ccc3[nH]6)C=C5)C=C4)cc2)nc2ccc(F)cc12
REMARK SMILES IDX 12 1 11 2 10 3 9 4 8 5 7 6 5 7 6 8 4 9 2 10 3 11 89 12 83 13
REMARK SMILES IDX 88 14 82 15 84 16 86 17 85 18 87 19 1 20 13 23 14 24 15 25
REMARK SMILES IDX 16 26 17 27 18 28 19 29 20 30 81 31 21 32 80 33 22 34 23 35
REMARK SMILES IDX 24 36 74 37 25 38 79 39 73 40 75 41 26 42 78 43 72 44 71 45
REMARK SMILES IDX 27 47 59 48 39 49 58 50 40 51 43 52 57 53 76 54 41 55 42 56
REMARK SMILES IDX 56 58 77 59 44 60 28 61 29 62 37 63 30 64 31 65 35 66 38 67
REMARK SMILES IDX 32 68 33 69 36 70 34 71 60 72 61 73 69 74 62 75 63 76 67 77
REMARK SMILES IDX 70 78 64 79 65 80 68 81 66 82 45 83 46 84 54 85 47 86 48 87
REMARK SMILES IDX 52 88 55 89 49 90 50 91 53 92 51 93
REMARK H PARENT 1 21 1 22 75 46 43 57
REMARK Flexibility Score: inf
ROOT
ATOM      1  C   UNL A   1      47.021  20.895  39.135  1.00  0.00     0.188 C 
ENDROOT
BRANCH   1   2
ATOM      2  C   UNL A   1      46.529  19.468  38.815  1.00  0.00     0.188 C 
BRANCH   2   3
ATOM      3  O   UNL A   1      46.988  18.374  39.578  1.00  0.00    -0.376 OA
BRANCH   3   4
ATOM      4  C   UNL A   1      46.156  17.770  40.555  1.00  0.00     0.202 C 
BRANCH   4   5
ATOM      5  C   UNL A   1      45.032  16.774  40.234  1.00  0.00     0.261 C 
BRANCH   5   6
ATOM      6  O   UNL A   1      43.748  17.065  40.799  1.00  0.00    -0.459 OA
BRANCH   6   7
ATOM      7  C   UNL A   1      43.604  16.721  42.109  1.00  0.00     0.357 C 
ATOM      8  O   UNL A   1      43.778  17.450  43.073  1.00  0.00    -0.244 OA
BRANCH   7   9
ATOM      9  C   UNL A   1      43.022  15.354  42.201  1.00  0.00     0.151 A 
ATOM     10  C   UNL A   1      41.595  13.615  41.411  1.00  0.00     0.043 A 
ATOM     11  C   UNL A   1      42.104  14.905  41.270  1.00  0.00     0.062 A 
ATOM     12  C   UNL A   1      42.086  12.791  42.457  1.00  0.00     0.026 A 
ATOM     13  C   UNL A   1      42.983  13.372  43.386  1.00  0.00     0.073 A 
ATOM     14  C   UNL A   1      41.738  11.430  42.624  1.00  0.00     0.051 A 
ATOM     15  N   UNL A   1      43.435  14.624  43.268  1.00  0.00    -0.241 NA
ATOM     16  C   UNL A   1      43.432  12.619  44.465  1.00  0.00     0.032 A 
ATOM     17  C   UNL A   1      42.233  10.696  43.695  1.00  0.00     0.124 A 
ATOM     18  C   UNL A   1      43.065  11.284  44.630  1.00  0.00     0.041 A 
ATOM     19  F   UNL A   1      41.903   9.404  43.820  1.00  0.00    -0.207 F 
BRANCH  10  20
ATOM     20  N   UNL A   1      40.712  13.141  40.440  1.00  0.00    -0.398 N 
ATOM     21  H   UNL A   1      39.748  13.326  40.518  1.00  0.00     0.156 HD
ATOM     22  H   UNL A   1      41.053  12.621  39.676  1.00  0.00     0.156 HD
ENDBRANCH  10  20
ENDBRANCH   7   9
ENDBRANCH   6   7
ENDBRANCH   5   6
ENDBRANCH   4   5
ENDBRANCH   3   4
ENDBRANCH   2   3
ENDBRANCH   1   2
BRANCH   1  23
ATOM     23  O   UNL A   1      46.213  22.012  38.834  1.00  0.00    -0.376 OA
BRANCH  23  24
ATOM     24  C   UNL A   1      46.294  23.191  39.620  1.00  0.00     0.202 C 
BRANCH  24  25
ATOM     25  C   UNL A   1      46.504  24.605  39.052  1.00  0.00     0.261 C 
BRANCH  25  26
ATOM     26  O   UNL A   1      46.436  24.748  37.631  1.00  0.00    -0.460 OA
BRANCH  26  27
ATOM     27  C   UNL A   1      46.908  25.927  37.143  1.00  0.00     0.338 C 
ATOM     28  O   UNL A   1      48.004  26.415  37.311  1.00  0.00    -0.246 OA
BRANCH  27  29
ATOM     29  C   UNL A   1      45.917  26.458  36.188  1.00  0.00     0.060 A 
ATOM     30  C   UNL A   1      44.677  25.839  36.040  1.00  0.00     0.016 A 
ATOM     31  C   UNL A   1      46.247  27.592  35.432  1.00  0.00     0.016 A 
ATOM     32  C   UNL A   1      43.755  26.369  35.136  1.00  0.00     0.010 A 
ATOM     33  C   UNL A   1      45.332  28.107  34.515  1.00  0.00     0.010 A 
ATOM     34  C   UNL A   1      44.072  27.510  34.375  1.00  0.00    -0.014 A 
BRANCH  34  35
ATOM     35  C   UNL A   1      43.022  28.173  33.565  1.00  0.00     0.031 A 
ATOM     36  C   UNL A   1      42.833  27.876  32.110  1.00  0.00     0.074 A 
ATOM     37  C   UNL A   1      42.231  29.071  34.179  1.00  0.00     0.049 A 
ATOM     38  N   UNL A   1      41.905  28.317  31.297  1.00  0.00    -0.248 NA
ATOM     39  C   UNL A   1      43.809  26.976  31.482  1.00  0.00     0.031 C 
ATOM     40  C   UNL A   1      42.347  29.459  35.585  1.00  0.00     0.029 A 
ATOM     41  N   UNL A   1      41.173  29.807  33.713  1.00  0.00    -0.354 N 
ATOM     42  C   UNL A   1      42.162  27.727  30.070  1.00  0.00     0.074 A 
ATOM     43  C   UNL A   1      43.369  26.939  30.229  1.00  0.00     0.031 C 
ATOM     44  C   UNL A   1      41.375  30.336  35.877  1.00  0.00     0.029 A 
ATOM     45  C   UNL A   1      40.588  30.592  34.674  1.00  0.00     0.049 A 
ATOM     46  H   UNL A   1      40.863  29.776  32.778  1.00  0.00     0.167 HD
ATOM     47  C   UNL A   1      41.441  27.820  28.924  1.00  0.00     0.037 A 
ATOM     48  C   UNL A   1      39.528  31.419  34.601  1.00  0.00     0.037 A 
ATOM     49  C   UNL A   1      40.258  28.632  28.768  1.00  0.00     0.049 A 
ATOM     50  C   UNL A   1      38.785  31.550  33.302  1.00  0.00     0.074 A 
ATOM     51  C   UNL A   1      39.450  28.772  27.650  1.00  0.00     0.029 A 
ATOM     52  N   UNL A   1      39.720  29.453  29.749  1.00  0.00    -0.354 N 
ATOM     53  N   UNL A   1      38.993  30.933  32.165  1.00  0.00    -0.248 NA
ATOM     54  C   UNL A   1      37.655  32.488  33.280  1.00  0.00     0.031 C 
ATOM     55  C   UNL A   1      38.462  29.720  27.937  1.00  0.00     0.029 A 
ATOM     56  C   UNL A   1      38.610  30.125  29.253  1.00  0.00     0.049 A 
ATOM     57  H   UNL A   1      40.072  29.546  30.663  1.00  0.00     0.167 HD
ATOM     58  C   UNL A   1      38.006  31.386  31.300  1.00  0.00     0.074 A 
ATOM     59  C   UNL A   1      37.189  32.318  32.049  1.00  0.00     0.031 C 
ATOM     60  C   UNL A   1      37.801  31.055  30.001  1.00  0.00     0.037 A 
BRANCH  47  61
ATOM     61  C   UNL A   1      41.901  27.015  27.741  1.00  0.00     0.064 A 
ATOM     62  C   UNL A   1      42.886  27.502  26.867  1.00  0.00     0.173 A 
ATOM     63  C   UNL A   1      41.422  25.714  27.526  1.00  0.00     0.173 A 
ATOM     64  F   UNL A   1      43.379  28.739  27.029  1.00  0.00    -0.203 F 
ATOM     65  C   UNL A   1      43.357  26.725  25.811  1.00  0.00     0.198 A 
ATOM     66  C   UNL A   1      41.918  24.927  26.489  1.00  0.00     0.198 A 
ATOM     67  F   UNL A   1      40.492  25.190  28.341  1.00  0.00    -0.203 F 
ATOM     68  F   UNL A   1      44.275  27.223  24.972  1.00  0.00    -0.200 F 
ATOM     69  C   UNL A   1      42.880  25.435  25.630  1.00  0.00     0.200 A 
ATOM     70  F   UNL A   1      41.473  23.674  26.328  1.00  0.00    -0.200 F 
ATOM     71  F   UNL A   1      43.350  24.680  24.626  1.00  0.00    -0.200 F 
ENDBRANCH  47  61
BRANCH  48  72
ATOM     72  C   UNL A   1      39.085  32.140  35.820  1.00  0.00     0.064 A 
ATOM     73  C   UNL A   1      39.488  33.460  36.058  1.00  0.00     0.173 A 
ATOM     74  C   UNL A   1      38.216  31.544  36.746  1.00  0.00     0.173 A 
ATOM     75  F   UNL A   1      40.332  34.066  35.209  1.00  0.00    -0.203 F 
ATOM     76  C   UNL A   1      39.042  34.157  37.178  1.00  0.00     0.198 A 
ATOM     77  C   UNL A   1      37.748  32.252  37.851  1.00  0.00     0.198 A 
ATOM     78  F   UNL A   1      37.797  30.284  36.559  1.00  0.00    -0.203 F 
ATOM     79  F   UNL A   1      39.466  35.410  37.397  1.00  0.00    -0.200 F 
ATOM     80  C   UNL A   1      38.165  33.556  38.068  1.00  0.00     0.200 A 
ATOM     81  F   UNL A   1      36.885  31.674  38.697  1.00  0.00    -0.200 F 
ATOM     82  F   UNL A   1      37.722  34.234  39.136  1.00  0.00    -0.200 F 
ENDBRANCH  48  72
BRANCH  60  83
ATOM     83  C   UNL A   1      36.631  31.689  29.300  1.00  0.00     0.064 A 
ATOM     84  C   UNL A   1      35.492  30.948  28.949  1.00  0.00     0.173 A 
ATOM     85  C   UNL A   1      36.626  33.066  29.024  1.00  0.00     0.173 A 
ATOM     86  F   UNL A   1      35.450  29.627  29.174  1.00  0.00    -0.203 F 
ATOM     87  C   UNL A   1      34.403  31.558  28.329  1.00  0.00     0.198 A 
ATOM     88  C   UNL A   1      35.522  33.678  28.436  1.00  0.00     0.198 A 
ATOM     89  F   UNL A   1      37.686  33.824  29.344  1.00  0.00    -0.203 F 
ATOM     90  F   UNL A   1      33.346  30.821  27.962  1.00  0.00    -0.200 F 
ATOM     91  C   UNL A   1      34.414  32.922  28.083  1.00  0.00     0.200 A 
ATOM     92  F   UNL A   1      35.529  34.999  28.214  1.00  0.00    -0.200 F 
ATOM     93  F   UNL A   1      33.360  33.509  27.501  1.00  0.00    -0.200 F 
ENDBRANCH  60  83
ENDBRANCH  34  35
ENDBRANCH  27  29
ENDBRANCH  26  27
ENDBRANCH  25  26
ENDBRANCH  24  25
ENDBRANCH  23  24
ENDBRANCH   1  23
TORSDOF 18
ENDMDL
