MODEL 1
REMARK VINA RESULT:     -11.4      0.000      0.000
REMARK SMILES CCc1ncc(C[N@H+]2CCC[C@@H](c3cccc(C(=O)OCCOCCOCCOC(=O)c4ccc(-c5c6nc(c(-c7c(F)c(F)c(F)c(F)c7F)c7ccc([nH]7)c(-c7c(F)c(F)c(F)c(F)c7F)c7nc(c(-c8c(F)c(F)c(F)c(F)c8F)c8ccc5[nH]8)C=C7)C=C6)cc4)c3)C2)cn1
REMARK SMILES IDX 24 1 23 2 22 3 21 4 20 5 18 6 19 7 17 8 13 9 14 10 95 11
REMARK SMILES IDX 15 12 16 13 12 14 8 15 9 16 96 17 10 19 11 20 7 21 6 22 3 23
REMARK SMILES IDX 4 24 98 25 5 26 97 27 2 28 1 29 25 30 26 31 27 32 28 33
REMARK SMILES IDX 29 34 30 35 31 36 32 37 33 38 94 39 34 40 93 41 35 42 36 43
REMARK SMILES IDX 37 44 87 45 38 46 92 47 86 48 88 49 39 50 91 51 85 52 84 53
REMARK SMILES IDX 40 55 72 56 52 57 71 58 53 59 56 60 70 61 89 62 54 63 55 64
REMARK SMILES IDX 69 66 90 67 57 68 41 69 42 70 50 71 43 72 44 73 48 74 51 75
REMARK SMILES IDX 45 76 46 77 49 78 47 79 73 80 74 81 82 82 75 83 76 84 80 85
REMARK SMILES IDX 83 86 77 87 78 88 81 89 79 90 58 91 59 92 67 93 60 94 61 95
REMARK SMILES IDX 65 96 68 97 62 98 63 99 66 100 64 101
REMARK H PARENT 8 18 88 54 56 65
REMARK Flexibility Score: inf
ROOT
ATOM      1  C   UNL A   1      41.141  20.010  27.295  1.00  0.00     0.188 C 
ENDROOT
BRANCH   1   2
ATOM      2  O   UNL A   1      40.474  21.259  27.345  1.00  0.00    -0.376 OA
BRANCH   2   3
ATOM      3  C   UNL A   1      39.821  21.768  26.190  1.00  0.00     0.202 C 
BRANCH   3   4
ATOM      4  C   UNL A   1      38.566  21.108  25.589  1.00  0.00     0.261 C 
BRANCH   4   5
ATOM      5  O   UNL A   1      37.742  21.968  24.793  1.00  0.00    -0.460 OA
BRANCH   5   6
ATOM      6  C   UNL A   1      36.741  22.603  25.455  1.00  0.00     0.338 C 
ATOM      7  O   UNL A   1      36.851  23.522  26.248  1.00  0.00    -0.246 OA
BRANCH   6   8
ATOM      8  C   UNL A   1      35.441  22.182  24.883  1.00  0.00     0.060 A 
ATOM      9  C   UNL A   1      33.372  22.637  23.691  1.00  0.00    -0.038 A 
ATOM     10  C   UNL A   1      32.942  21.333  24.001  1.00  0.00     0.004 A 
ATOM     11  C   UNL A   1      34.631  23.059  24.151  1.00  0.00     0.020 A 
ATOM     12  C   UNL A   1      33.748  20.464  24.736  1.00  0.00     0.001 A 
ATOM     13  C   UNL A   1      35.003  20.882  25.165  1.00  0.00     0.016 A 
BRANCH   9  14
ATOM     14  C   UNL A   1      32.580  23.530  22.741  1.00  0.00     0.074 C 
ATOM     15  N   UNL A   1      30.889  25.407  22.847  1.00  0.00    -0.331 N 
ATOM     16  C   UNL A   1      31.727  26.227  21.962  1.00  0.00     0.262 C 
ATOM     17  C   UNL A   1      31.689  24.441  23.608  1.00  0.00     0.270 C 
ATOM     18  H   UNL A   1      30.265  24.880  22.237  1.00  0.00     0.348 HD
ATOM     19  C   UNL A   1      32.561  25.359  21.015  1.00  0.00     0.062 C 
ATOM     20  C   UNL A   1      33.439  24.374  21.787  1.00  0.00     0.020 C 
BRANCH  15  21
ATOM     21  C   UNL A   1      30.011  26.211  23.728  1.00  0.00     0.302 C 
BRANCH  21  22
ATOM     22  C   UNL A   1      30.645  27.406  24.382  1.00  0.00     0.043 A 
ATOM     23  C   UNL A   1      31.530  29.595  25.737  1.00  0.00     0.127 A 
ATOM     24  N   UNL A   1      31.780  28.382  26.265  1.00  0.00    -0.241 NA
ATOM     25  N   UNL A   1      30.919  29.795  24.555  1.00  0.00    -0.241 NA
ATOM     26  C   UNL A   1      31.343  27.316  25.566  1.00  0.00     0.124 A 
ATOM     27  C   UNL A   1      30.507  28.692  23.899  1.00  0.00     0.124 A 
BRANCH  23  28
ATOM     28  C   UNL A   1      31.804  30.818  26.571  1.00  0.00     0.074 C 
ATOM     29  C   UNL A   1      31.021  32.049  26.143  1.00  0.00     0.012 C 
ENDBRANCH  23  28
ENDBRANCH  21  22
ENDBRANCH  15  21
ENDBRANCH   9  14
ENDBRANCH   6   8
ENDBRANCH   5   6
ENDBRANCH   4   5
ENDBRANCH   3   4
ENDBRANCH   2   3
ENDBRANCH   1   2
BRANCH   1  30
ATOM     30  C   UNL A   1      41.953  19.609  26.045  1.00  0.00     0.188 C 
BRANCH  30  31
ATOM     31  O   UNL A   1      42.771  20.600  25.478  1.00  0.00    -0.376 OA
BRANCH  31  32
ATOM     32  C   UNL A   1      44.175  20.417  25.415  1.00  0.00     0.202 C 
BRANCH  32  33
ATOM     33  C   UNL A   1      45.248  21.523  25.521  1.00  0.00     0.261 C 
BRANCH  33  34
ATOM     34  O   UNL A   1      44.955  22.700  26.280  1.00  0.00    -0.460 OA
BRANCH  34  35
ATOM     35  C   UNL A   1      44.554  23.780  25.563  1.00  0.00     0.338 C 
ATOM     36  O   UNL A   1      44.610  23.933  24.359  1.00  0.00    -0.246 OA
BRANCH  35  37
ATOM     37  C   UNL A   1      43.859  24.717  26.468  1.00  0.00     0.060 A 
ATOM     38  C   UNL A   1      44.270  26.057  26.497  1.00  0.00     0.016 A 
ATOM     39  C   UNL A   1      42.844  24.268  27.312  1.00  0.00     0.016 A 
ATOM     40  C   UNL A   1      43.674  26.952  27.387  1.00  0.00     0.010 A 
ATOM     41  C   UNL A   1      42.262  25.161  28.218  1.00  0.00     0.010 A 
ATOM     42  C   UNL A   1      42.691  26.500  28.278  1.00  0.00    -0.014 A 
BRANCH  42  43
ATOM     43  C   UNL A   1      42.222  27.384  29.376  1.00  0.00     0.031 A 
ATOM     44  C   UNL A   1      42.923  27.322  30.705  1.00  0.00     0.074 A 
ATOM     45  C   UNL A   1      41.199  28.239  29.193  1.00  0.00     0.049 A 
ATOM     46  N   UNL A   1      42.646  27.943  31.823  1.00  0.00    -0.248 NA
ATOM     47  C   UNL A   1      44.098  26.439  30.782  1.00  0.00     0.031 C 
ATOM     48  C   UNL A   1      40.466  28.425  27.944  1.00  0.00     0.029 A 
ATOM     49  N   UNL A   1      40.594  29.104  30.072  1.00  0.00    -0.354 N 
ATOM     50  C   UNL A   1      43.606  27.524  32.735  1.00  0.00     0.074 A 
ATOM     51  C   UNL A   1      44.454  26.571  32.052  1.00  0.00     0.031 C 
ATOM     52  C   UNL A   1      39.493  29.333  28.140  1.00  0.00     0.029 A 
ATOM     53  C   UNL A   1      39.514  29.764  29.538  1.00  0.00     0.049 A 
ATOM     54  H   UNL A   1      40.904  29.238  30.996  1.00  0.00     0.167 HD
ATOM     55  C   UNL A   1      43.772  27.908  34.024  1.00  0.00     0.037 A 
ATOM     56  C   UNL A   1      38.627  30.595  30.121  1.00  0.00     0.037 A 
ATOM     57  C   UNL A   1      42.925  28.852  34.705  1.00  0.00     0.049 A 
ATOM     58  C   UNL A   1      38.783  30.936  31.584  1.00  0.00     0.074 A 
ATOM     59  C   UNL A   1      43.016  29.307  36.008  1.00  0.00     0.029 A 
ATOM     60  N   UNL A   1      41.827  29.480  34.139  1.00  0.00    -0.354 N 
ATOM     61  N   UNL A   1      39.707  30.556  32.433  1.00  0.00    -0.248 NA
ATOM     62  C   UNL A   1      37.771  31.829  32.169  1.00  0.00     0.031 C 
ATOM     63  C   UNL A   1      41.941  30.167  36.249  1.00  0.00     0.029 A 
ATOM     64  C   UNL A   1      41.217  30.301  35.075  1.00  0.00     0.049 A 
ATOM     65  H   UNL A   1      41.524  29.361  33.209  1.00  0.00     0.167 HD
ATOM     66  C   UNL A   1      39.410  31.190  33.634  1.00  0.00     0.074 A 
ATOM     67  C   UNL A   1      38.230  31.994  33.400  1.00  0.00     0.031 C 
ATOM     68  C   UNL A   1      40.054  31.113  34.824  1.00  0.00     0.037 A 
BRANCH  55  69
ATOM     69  C   UNL A   1      44.905  27.296  34.794  1.00  0.00     0.064 A 
ATOM     70  C   UNL A   1      46.151  27.932  34.901  1.00  0.00     0.173 A 
ATOM     71  C   UNL A   1      44.723  26.089  35.488  1.00  0.00     0.173 A 
ATOM     72  F   UNL A   1      46.382  29.081  34.248  1.00  0.00    -0.203 F 
ATOM     73  C   UNL A   1      47.177  27.375  35.660  1.00  0.00     0.198 A 
ATOM     74  C   UNL A   1      45.741  25.551  36.271  1.00  0.00     0.198 A 
ATOM     75  F   UNL A   1      43.550  25.442  35.423  1.00  0.00    -0.203 F 
ATOM     76  F   UNL A   1      48.371  27.981  35.718  1.00  0.00    -0.200 F 
ATOM     77  C   UNL A   1      46.968  26.191  36.353  1.00  0.00     0.200 A 
ATOM     78  F   UNL A   1      45.531  24.416  36.951  1.00  0.00    -0.200 F 
ATOM     79  F   UNL A   1      47.951  25.665  37.096  1.00  0.00    -0.200 F 
ENDBRANCH  55  69
BRANCH  56  80
ATOM     80  C   UNL A   1      37.484  31.148  29.341  1.00  0.00     0.064 A 
ATOM     81  C   UNL A   1      37.439  32.501  28.980  1.00  0.00     0.173 A 
ATOM     82  C   UNL A   1      36.383  30.347  28.999  1.00  0.00     0.173 A 
ATOM     83  F   UNL A   1      38.452  33.317  29.309  1.00  0.00    -0.203 F 
ATOM     84  C   UNL A   1      36.323  33.041  28.341  1.00  0.00     0.198 A 
ATOM     85  C   UNL A   1      35.285  30.879  28.327  1.00  0.00     0.198 A 
ATOM     86  F   UNL A   1      36.371  29.046  29.325  1.00  0.00    -0.203 F 
ATOM     87  F   UNL A   1      36.277  34.353  28.075  1.00  0.00    -0.200 F 
ATOM     88  C   UNL A   1      35.249  32.228  28.011  1.00  0.00     0.200 A 
ATOM     89  F   UNL A   1      34.254  30.087  28.002  1.00  0.00    -0.200 F 
ATOM     90  F   UNL A   1      34.173  32.749  27.405  1.00  0.00    -0.200 F 
ENDBRANCH  56  80
BRANCH  68  91
ATOM     91  C   UNL A   1      39.536  31.960  35.954  1.00  0.00     0.064 A 
ATOM     92  C   UNL A   1      40.025  33.252  36.198  1.00  0.00     0.173 A 
ATOM     93  C   UNL A   1      38.506  31.484  36.781  1.00  0.00     0.173 A 
ATOM     94  F   UNL A   1      41.017  33.752  35.445  1.00  0.00    -0.203 F 
ATOM     95  C   UNL A   1      39.527  34.022  37.247  1.00  0.00     0.198 A 
ATOM     96  C   UNL A   1      37.985  32.270  37.805  1.00  0.00     0.198 A 
ATOM     97  F   UNL A   1      37.993  30.260  36.586  1.00  0.00    -0.203 F 
ATOM     98  F   UNL A   1      40.049  35.230  37.495  1.00  0.00    -0.200 F 
ATOM     99  C   UNL A   1      38.503  33.533  38.044  1.00  0.00     0.200 A 
ATOM    100  F   UNL A   1      36.982  31.803  38.562  1.00  0.00    -0.200 F 
ATOM    101  F   UNL A   1      38.018  34.278  39.047  1.00  0.00    -0.200 F 
ENDBRANCH  68  91
ENDBRANCH  42  43
ENDBRANCH  35  37
ENDBRANCH  34  35
ENDBRANCH  33  34
ENDBRANCH  32  33
ENDBRANCH  31  32
ENDBRANCH  30  31
ENDBRANCH   1  30
TORSDOF 21
ENDMDL
MODEL 2
REMARK VINA RESULT:     -10.9      4.793      8.354
REMARK SMILES CCc1ncc(C[N@H+]2CCC[C@@H](c3cccc(C(=O)OCCOCCOCCOC(=O)c4ccc(-c5c6nc(c(-c7c(F)c(F)c(F)c(F)c7F)c7ccc([nH]7)c(-c7c(F)c(F)c(F)c(F)c7F)c7nc(c(-c8c(F)c(F)c(F)c(F)c8F)c8ccc5[nH]8)C=C7)C=C6)cc4)c3)C2)cn1
REMARK SMILES IDX 24 1 23 2 22 3 21 4 20 5 18 6 19 7 17 8 13 9 14 10 95 11
REMARK SMILES IDX 15 12 16 13 12 14 8 15 9 16 96 17 10 19 11 20 7 21 6 22 3 23
REMARK SMILES IDX 4 24 98 25 5 26 97 27 2 28 1 29 25 30 26 31 27 32 28 33
REMARK SMILES IDX 29 34 30 35 31 36 32 37 33 38 94 39 34 40 93 41 35 42 36 43
REMARK SMILES IDX 37 44 87 45 38 46 92 47 86 48 88 49 39 50 91 51 85 52 84 53
REMARK SMILES IDX 40 55 72 56 52 57 71 58 53 59 56 60 70 61 89 62 54 63 55 64
REMARK SMILES IDX 69 66 90 67 57 68 41 69 42 70 50 71 43 72 44 73 48 74 51 75
REMARK SMILES IDX 45 76 46 77 49 78 47 79 73 80 74 81 82 82 75 83 76 84 80 85
REMARK SMILES IDX 83 86 77 87 78 88 81 89 79 90 58 91 59 92 67 93 60 94 61 95
REMARK SMILES IDX 65 96 68 97 62 98 63 99 66 100 64 101
REMARK H PARENT 8 18 88 54 56 65
REMARK Flexibility Score: inf
ROOT
ATOM      1  C   UNL A   1      44.679  19.491  24.508  1.00  0.00     0.188 C 
ENDROOT
BRANCH   1   2
ATOM      2  O   UNL A   1      44.018  18.438  25.183  1.00  0.00    -0.376 OA
BRANCH   2   3
ATOM      3  C   UNL A   1      43.022  18.725  26.155  1.00  0.00     0.202 C 
BRANCH   3   4
ATOM      4  C   UNL A   1      41.805  19.619  25.854  1.00  0.00     0.261 C 
BRANCH   4   5
ATOM      5  O   UNL A   1      41.195  20.232  26.998  1.00  0.00    -0.460 OA
BRANCH   5   6
ATOM      6  C   UNL A   1      40.437  21.330  26.743  1.00  0.00     0.338 C 
ATOM      7  O   UNL A   1      39.337  21.358  26.220  1.00  0.00    -0.246 OA
BRANCH   6   8
ATOM      8  C   UNL A   1      41.036  22.498  27.429  1.00  0.00     0.060 A 
ATOM      9  C   UNL A   1      41.202  24.887  27.851  1.00  0.00    -0.038 A 
ATOM     10  C   UNL A   1      42.344  24.637  28.635  1.00  0.00     0.004 A 
ATOM     11  C   UNL A   1      40.556  23.800  27.237  1.00  0.00     0.020 A 
ATOM     12  C   UNL A   1      42.824  23.340  28.818  1.00  0.00     0.001 A 
ATOM     13  C   UNL A   1      42.163  22.269  28.227  1.00  0.00     0.016 A 
BRANCH   9  14
ATOM     14  C   UNL A   1      40.568  26.272  27.790  1.00  0.00     0.074 C 
ATOM     15  N   UNL A   1      40.283  28.310  29.259  1.00  0.00    -0.331 N 
ATOM     16  C   UNL A   1      40.823  29.167  28.195  1.00  0.00     0.262 C 
ATOM     17  C   UNL A   1      40.793  26.938  29.161  1.00  0.00     0.270 C 
ATOM     18  H   UNL A   1      39.274  28.277  29.111  1.00  0.00     0.348 HD
ATOM     19  C   UNL A   1      40.536  28.587  26.807  1.00  0.00     0.062 C 
ATOM     20  C   UNL A   1      41.099  27.173  26.664  1.00  0.00     0.020 C 
BRANCH  15  21
ATOM     21  C   UNL A   1      40.474  28.874  30.615  1.00  0.00     0.302 C 
BRANCH  21  22
ATOM     22  C   UNL A   1      39.814  30.198  30.879  1.00  0.00     0.043 A 
ATOM     23  C   UNL A   1      38.648  32.652  31.048  1.00  0.00     0.127 A 
ATOM     24  N   UNL A   1      37.857  31.594  30.794  1.00  0.00    -0.241 NA
ATOM     25  N   UNL A   1      39.972  32.570  31.279  1.00  0.00    -0.241 NA
ATOM     26  C   UNL A   1      38.458  30.389  30.730  1.00  0.00     0.124 A 
ATOM     27  C   UNL A   1      40.518  31.340  31.205  1.00  0.00     0.124 A 
BRANCH  23  28
ATOM     28  C   UNL A   1      38.070  34.036  30.921  1.00  0.00     0.074 C 
ATOM     29  C   UNL A   1      38.829  34.941  29.963  1.00  0.00     0.012 C 
ENDBRANCH  23  28
ENDBRANCH  21  22
ENDBRANCH  15  21
ENDBRANCH   9  14
ENDBRANCH   6   8
ENDBRANCH   5   6
ENDBRANCH   4   5
ENDBRANCH   3   4
ENDBRANCH   2   3
ENDBRANCH   1   2
BRANCH   1  30
ATOM     30  C   UNL A   1      46.029  20.028  25.030  1.00  0.00     0.188 C 
BRANCH  30  31
ATOM     31  O   UNL A   1      46.005  21.271  25.683  1.00  0.00    -0.376 OA
BRANCH  31  32
ATOM     32  C   UNL A   1      45.867  22.467  24.936  1.00  0.00     0.202 C 
BRANCH  32  33
ATOM     33  C   UNL A   1      46.361  23.870  25.355  1.00  0.00     0.261 C 
BRANCH  33  34
ATOM     34  O   UNL A   1      45.829  25.018  24.686  1.00  0.00    -0.460 OA
BRANCH  34  35
ATOM     35  C   UNL A   1      46.623  26.118  24.681  1.00  0.00     0.338 C 
ATOM     36  O   UNL A   1      47.527  26.377  23.911  1.00  0.00    -0.246 OA
BRANCH  35  37
ATOM     37  C   UNL A   1      46.111  27.076  25.681  1.00  0.00     0.060 A 
ATOM     38  C   UNL A   1      47.000  27.609  26.624  1.00  0.00     0.016 A 
ATOM     39  C   UNL A   1      44.757  27.409  25.715  1.00  0.00     0.016 A 
ATOM     40  C   UNL A   1      46.532  28.468  27.619  1.00  0.00     0.010 A 
ATOM     41  C   UNL A   1      44.286  28.253  26.727  1.00  0.00     0.010 A 
ATOM     42  C   UNL A   1      45.165  28.766  27.698  1.00  0.00    -0.014 A 
BRANCH  42  43
ATOM     43  C   UNL A   1      44.631  29.487  28.882  1.00  0.00     0.031 A 
ATOM     44  C   UNL A   1      44.479  30.982  28.811  1.00  0.00     0.074 A 
ATOM     45  C   UNL A   1      44.273  28.826  29.997  1.00  0.00     0.049 A 
ATOM     46  N   UNL A   1      44.105  31.826  29.738  1.00  0.00    -0.248 NA
ATOM     47  C   UNL A   1      44.793  31.609  27.517  1.00  0.00     0.031 C 
ATOM     48  C   UNL A   1      44.330  27.377  30.176  1.00  0.00     0.029 A 
ATOM     49  N   UNL A   1      43.799  29.295  31.198  1.00  0.00    -0.354 N 
ATOM     50  C   UNL A   1      44.141  33.080  29.143  1.00  0.00     0.074 A 
ATOM     51  C   UNL A   1      44.606  32.893  27.786  1.00  0.00     0.031 C 
ATOM     52  C   UNL A   1      43.927  27.076  31.423  1.00  0.00     0.029 A 
ATOM     53  C   UNL A   1      43.619  28.313  32.141  1.00  0.00     0.049 A 
ATOM     54  H   UNL A   1      43.607  30.246  31.367  1.00  0.00     0.167 HD
ATOM     55  C   UNL A   1      43.807  34.280  29.678  1.00  0.00     0.037 A 
ATOM     56  C   UNL A   1      43.275  28.407  33.441  1.00  0.00     0.037 A 
ATOM     57  C   UNL A   1      43.350  34.466  31.030  1.00  0.00     0.049 A 
ATOM     58  C   UNL A   1      42.994  29.767  34.036  1.00  0.00     0.074 A 
ATOM     59  C   UNL A   1      42.984  35.642  31.662  1.00  0.00     0.029 A 
ATOM     60  N   UNL A   1      43.204  33.450  31.962  1.00  0.00    -0.354 N 
ATOM     61  N   UNL A   1      43.007  30.946  33.461  1.00  0.00    -0.248 NA
ATOM     62  C   UNL A   1      42.646  29.807  35.465  1.00  0.00     0.031 C 
ATOM     63  C   UNL A   1      42.670  35.346  32.991  1.00  0.00     0.029 A 
ATOM     64  C   UNL A   1      42.776  33.976  33.171  1.00  0.00     0.049 A 
ATOM     65  H   UNL A   1      43.379  32.496  31.792  1.00  0.00     0.167 HD
ATOM     66  C   UNL A   1      42.634  31.856  34.443  1.00  0.00     0.074 A 
ATOM     67  C   UNL A   1      42.384  31.092  35.646  1.00  0.00     0.031 C 
ATOM     68  C   UNL A   1      42.511  33.204  34.357  1.00  0.00     0.037 A 
BRANCH  55  69
ATOM     69  C   UNL A   1      43.937  35.494  28.805  1.00  0.00     0.064 A 
ATOM     70  C   UNL A   1      45.178  36.110  28.582  1.00  0.00     0.173 A 
ATOM     71  C   UNL A   1      42.819  36.008  28.131  1.00  0.00     0.173 A 
ATOM     72  F   UNL A   1      46.276  35.665  29.212  1.00  0.00    -0.203 F 
ATOM     73  C   UNL A   1      45.290  37.205  27.731  1.00  0.00     0.198 A 
ATOM     74  C   UNL A   1      42.940  37.084  27.256  1.00  0.00     0.198 A 
ATOM     75  F   UNL A   1      41.610  35.454  28.305  1.00  0.00    -0.203 F 
ATOM     76  F   UNL A   1      46.479  37.802  27.562  1.00  0.00    -0.200 F 
ATOM     77  C   UNL A   1      44.175  37.685  27.061  1.00  0.00     0.200 A 
ATOM     78  F   UNL A   1      41.864  37.535  26.598  1.00  0.00    -0.200 F 
ATOM     79  F   UNL A   1      44.288  38.729  26.228  1.00  0.00    -0.200 F 
ENDBRANCH  55  69
BRANCH  56  80
ATOM     80  C   UNL A   1      43.202  27.188  34.293  1.00  0.00     0.064 A 
ATOM     81  C   UNL A   1      41.973  26.585  34.595  1.00  0.00     0.173 A 
ATOM     82  C   UNL A   1      44.355  26.639  34.876  1.00  0.00     0.173 A 
ATOM     83  F   UNL A   1      40.837  27.088  34.088  1.00  0.00    -0.203 F 
ATOM     84  C   UNL A   1      41.894  25.507  35.475  1.00  0.00     0.198 A 
ATOM     85  C   UNL A   1      44.280  25.538  35.726  1.00  0.00     0.198 A 
ATOM     86  F   UNL A   1      45.556  27.179  34.626  1.00  0.00    -0.203 F 
ATOM     87  F   UNL A   1      40.699  24.999  35.804  1.00  0.00    -0.200 F 
ATOM     88  C   UNL A   1      43.049  24.981  36.037  1.00  0.00     0.200 A 
ATOM     89  F   UNL A   1      45.398  25.028  36.258  1.00  0.00    -0.200 F 
ATOM     90  F   UNL A   1      42.972  23.951  36.889  1.00  0.00    -0.200 F 
ENDBRANCH  56  80
BRANCH  68  91
ATOM     91  C   UNL A   1      42.033  33.938  35.579  1.00  0.00     0.064 A 
ATOM     92  C   UNL A   1      40.669  34.119  35.851  1.00  0.00     0.173 A 
ATOM     93  C   UNL A   1      42.957  34.436  36.513  1.00  0.00     0.173 A 
ATOM     94  F   UNL A   1      39.744  33.674  34.987  1.00  0.00    -0.203 F 
ATOM     95  C   UNL A   1      40.248  34.799  36.992  1.00  0.00     0.198 A 
ATOM     96  C   UNL A   1      42.532  35.083  37.670  1.00  0.00     0.198 A 
ATOM     97  F   UNL A   1      44.274  34.282  36.309  1.00  0.00    -0.203 F 
ATOM     98  F   UNL A   1      38.941  35.009  37.200  1.00  0.00    -0.200 F 
ATOM     99  C   UNL A   1      41.179  35.273  37.903  1.00  0.00     0.200 A 
ATOM    100  F   UNL A   1      43.434  35.523  38.559  1.00  0.00    -0.200 F 
ATOM    101  F   UNL A   1      40.773  35.919  39.005  1.00  0.00    -0.200 F 
ENDBRANCH  68  91
ENDBRANCH  42  43
ENDBRANCH  35  37
ENDBRANCH  34  35
ENDBRANCH  33  34
ENDBRANCH  32  33
ENDBRANCH  31  32
ENDBRANCH  30  31
ENDBRANCH   1  30
TORSDOF 21
ENDMDL
MODEL 3
REMARK VINA RESULT:     -10.6      4.620      8.170
REMARK SMILES CCc1ncc(C[N@H+]2CCC[C@@H](c3cccc(C(=O)OCCOCCOCCOC(=O)c4ccc(-c5c6nc(c(-c7c(F)c(F)c(F)c(F)c7F)c7ccc([nH]7)c(-c7c(F)c(F)c(F)c(F)c7F)c7nc(c(-c8c(F)c(F)c(F)c(F)c8F)c8ccc5[nH]8)C=C7)C=C6)cc4)c3)C2)cn1
REMARK SMILES IDX 24 1 23 2 22 3 21 4 20 5 18 6 19 7 17 8 13 9 14 10 95 11
REMARK SMILES IDX 15 12 16 13 12 14 8 15 9 16 96 17 10 19 11 20 7 21 6 22 3 23
REMARK SMILES IDX 4 24 98 25 5 26 97 27 2 28 1 29 25 30 26 31 27 32 28 33
REMARK SMILES IDX 29 34 30 35 31 36 32 37 33 38 94 39 34 40 93 41 35 42 36 43
REMARK SMILES IDX 37 44 87 45 38 46 92 47 86 48 88 49 39 50 91 51 85 52 84 53
REMARK SMILES IDX 40 55 72 56 52 57 71 58 53 59 56 60 70 61 89 62 54 63 55 64
REMARK SMILES IDX 69 66 90 67 57 68 41 69 42 70 50 71 43 72 44 73 48 74 51 75
REMARK SMILES IDX 45 76 46 77 49 78 47 79 73 80 74 81 82 82 75 83 76 84 80 85
REMARK SMILES IDX 83 86 77 87 78 88 81 89 79 90 58 91 59 92 67 93 60 94 61 95
REMARK SMILES IDX 65 96 68 97 62 98 63 99 66 100 64 101
REMARK H PARENT 8 18 88 54 56 65
REMARK Flexibility Score: inf
ROOT
ATOM      1  C   UNL A   1      44.521  19.531  24.574  1.00  0.00     0.188 C 
ENDROOT
BRANCH   1   2
ATOM      2  O   UNL A   1      43.899  18.465  25.267  1.00  0.00    -0.376 OA
BRANCH   2   3
ATOM      3  C   UNL A   1      42.999  18.735  26.334  1.00  0.00     0.202 C 
BRANCH   3   4
ATOM      4  C   UNL A   1      41.642  19.429  26.118  1.00  0.00     0.261 C 
BRANCH   4   5
ATOM      5  O   UNL A   1      41.323  20.460  27.061  1.00  0.00    -0.460 OA
BRANCH   5   6
ATOM      6  C   UNL A   1      40.437  21.395  26.632  1.00  0.00     0.338 C 
ATOM      7  O   UNL A   1      39.251  21.235  26.404  1.00  0.00    -0.246 OA
BRANCH   6   8
ATOM      8  C   UNL A   1      41.069  22.733  26.719  1.00  0.00     0.060 A 
ATOM      9  C   UNL A   1      40.954  25.157  26.851  1.00  0.00    -0.038 A 
ATOM     10  C   UNL A   1      42.352  25.202  26.700  1.00  0.00     0.004 A 
ATOM     11  C   UNL A   1      40.314  23.905  26.848  1.00  0.00     0.020 A 
ATOM     12  C   UNL A   1      43.100  24.032  26.566  1.00  0.00     0.001 A 
ATOM     13  C   UNL A   1      42.462  22.797  26.589  1.00  0.00     0.016 A 
BRANCH   9  14
ATOM     14  C   UNL A   1      40.149  26.411  27.176  1.00  0.00     0.074 C 
ATOM     15  N   UNL A   1      39.185  27.594  29.193  1.00  0.00    -0.331 N 
ATOM     16  C   UNL A   1      39.841  28.844  28.788  1.00  0.00     0.262 C 
ATOM     17  C   UNL A   1      39.910  26.417  28.699  1.00  0.00     0.270 C 
ATOM     18  H   UNL A   1      38.266  27.600  28.751  1.00  0.00     0.348 HD
ATOM     19  C   UNL A   1      40.013  28.922  27.268  1.00  0.00     0.062 C 
ATOM     20  C   UNL A   1      40.806  27.728  26.734  1.00  0.00     0.020 C 
BRANCH  15  21
ATOM     21  C   UNL A   1      38.932  27.513  30.650  1.00  0.00     0.302 C 
BRANCH  21  22
ATOM     22  C   UNL A   1      38.404  28.761  31.299  1.00  0.00     0.043 A 
ATOM     23  C   UNL A   1      37.379  30.841  32.725  1.00  0.00     0.127 A 
ATOM     24  N   UNL A   1      38.688  30.563  32.867  1.00  0.00    -0.241 NA
ATOM     25  N   UNL A   1      36.555  30.193  31.881  1.00  0.00    -0.241 NA
ATOM     26  C   UNL A   1      39.172  29.538  32.140  1.00  0.00     0.124 A 
ATOM     27  C   UNL A   1      37.094  29.179  31.176  1.00  0.00     0.124 A 
BRANCH  23  28
ATOM     28  C   UNL A   1      36.742  31.831  33.664  1.00  0.00     0.074 C 
ATOM     29  C   UNL A   1      35.712  32.736  33.007  1.00  0.00     0.012 C 
ENDBRANCH  23  28
ENDBRANCH  21  22
ENDBRANCH  15  21
ENDBRANCH   9  14
ENDBRANCH   6   8
ENDBRANCH   5   6
ENDBRANCH   4   5
ENDBRANCH   3   4
ENDBRANCH   2   3
ENDBRANCH   1   2
BRANCH   1  30
ATOM     30  C   UNL A   1      45.912  20.039  25.008  1.00  0.00     0.188 C 
BRANCH  30  31
ATOM     31  O   UNL A   1      45.964  21.309  25.606  1.00  0.00    -0.376 OA
BRANCH  31  32
ATOM     32  C   UNL A   1      46.061  22.472  24.802  1.00  0.00     0.202 C 
BRANCH  32  33
ATOM     33  C   UNL A   1      46.459  23.885  25.282  1.00  0.00     0.261 C 
BRANCH  33  34
ATOM     34  O   UNL A   1      45.892  25.024  24.626  1.00  0.00    -0.460 OA
BRANCH  34  35
ATOM     35  C   UNL A   1      46.659  26.142  24.617  1.00  0.00     0.338 C 
ATOM     36  O   UNL A   1      47.566  26.415  23.854  1.00  0.00    -0.246 OA
BRANCH  35  37
ATOM     37  C   UNL A   1      46.111  27.100  25.598  1.00  0.00     0.060 A 
ATOM     38  C   UNL A   1      46.973  27.654  26.555  1.00  0.00     0.016 A 
ATOM     39  C   UNL A   1      44.752  27.411  25.603  1.00  0.00     0.016 A 
ATOM     40  C   UNL A   1      46.471  28.513  27.534  1.00  0.00     0.010 A 
ATOM     41  C   UNL A   1      44.247  28.256  26.598  1.00  0.00     0.010 A 
ATOM     42  C   UNL A   1      45.098  28.790  27.582  1.00  0.00    -0.014 A 
BRANCH  42  43
ATOM     43  C   UNL A   1      44.528  29.511  28.750  1.00  0.00     0.031 A 
ATOM     44  C   UNL A   1      44.329  30.999  28.654  1.00  0.00     0.074 A 
ATOM     45  C   UNL A   1      44.180  28.855  29.871  1.00  0.00     0.049 A 
ATOM     46  N   UNL A   1      43.918  31.844  29.565  1.00  0.00    -0.248 NA
ATOM     47  C   UNL A   1      44.636  31.616  27.354  1.00  0.00     0.031 C 
ATOM     48  C   UNL A   1      44.282  27.412  30.074  1.00  0.00     0.029 A 
ATOM     49  N   UNL A   1      43.678  29.328  31.059  1.00  0.00    -0.354 N 
ATOM     50  C   UNL A   1      43.921  33.090  28.950  1.00  0.00     0.074 A 
ATOM     51  C   UNL A   1      44.405  32.898  27.601  1.00  0.00     0.031 C 
ATOM     52  C   UNL A   1      43.875  27.117  31.321  1.00  0.00     0.029 A 
ATOM     53  C   UNL A   1      43.519  28.355  32.016  1.00  0.00     0.049 A 
ATOM     54  H   UNL A   1      43.454  30.274  31.212  1.00  0.00     0.167 HD
ATOM     55  C   UNL A   1      43.542  34.286  29.463  1.00  0.00     0.037 A 
ATOM     56  C   UNL A   1      43.159  28.457  33.311  1.00  0.00     0.037 A 
ATOM     57  C   UNL A   1      43.066  34.478  30.807  1.00  0.00     0.049 A 
ATOM     58  C   UNL A   1      42.829  29.816  33.882  1.00  0.00     0.074 A 
ATOM     59  C   UNL A   1      42.655  35.651  31.417  1.00  0.00     0.029 A 
ATOM     60  N   UNL A   1      42.943  33.473  31.754  1.00  0.00    -0.354 N 
ATOM     61  N   UNL A   1      42.809  30.986  33.289  1.00  0.00    -0.248 NA
ATOM     62  C   UNL A   1      42.465  29.867  35.306  1.00  0.00     0.031 C 
ATOM     63  C   UNL A   1      42.337  35.365  32.748  1.00  0.00     0.029 A 
ATOM     64  C   UNL A   1      42.485  34.003  32.950  1.00  0.00     0.049 A 
ATOM     65  H   UNL A   1      43.149  32.522  31.600  1.00  0.00     0.167 HD
ATOM     66  C   UNL A   1      42.397  31.898  34.252  1.00  0.00     0.074 A 
ATOM     67  C   UNL A   1      42.160  31.145  35.465  1.00  0.00     0.031 C 
ATOM     68  C   UNL A   1      42.232  33.240  34.145  1.00  0.00     0.037 A 
BRANCH  55  69
ATOM     69  C   UNL A   1      43.643  35.490  28.573  1.00  0.00     0.064 A 
ATOM     70  C   UNL A   1      42.512  36.044  27.953  1.00  0.00     0.173 A 
ATOM     71  C   UNL A   1      44.874  36.138  28.390  1.00  0.00     0.173 A 
ATOM     72  F   UNL A   1      41.313  35.456  28.086  1.00  0.00    -0.203 F 
ATOM     73  C   UNL A   1      42.614  37.190  27.170  1.00  0.00     0.198 A 
ATOM     74  C   UNL A   1      44.967  37.302  27.631  1.00  0.00     0.198 A 
ATOM     75  F   UNL A   1      45.986  35.653  28.963  1.00  0.00    -0.203 F 
ATOM     76  F   UNL A   1      41.527  37.680  26.557  1.00  0.00    -0.200 F 
ATOM     77  C   UNL A   1      43.839  37.824  27.018  1.00  0.00     0.200 A 
ATOM     78  F   UNL A   1      46.148  37.921  27.500  1.00  0.00    -0.200 F 
ATOM     79  F   UNL A   1      43.932  38.937  26.278  1.00  0.00    -0.200 F 
ENDBRANCH  55  69
BRANCH  56  80
ATOM     80  C   UNL A   1      43.116  27.249  34.181  1.00  0.00     0.064 A 
ATOM     81  C   UNL A   1      44.292  26.676  34.685  1.00  0.00     0.173 A 
ATOM     82  C   UNL A   1      41.903  26.607  34.473  1.00  0.00     0.173 A 
ATOM     83  F   UNL A   1      45.481  27.233  34.410  1.00  0.00    -0.203 F 
ATOM     84  C   UNL A   1      44.261  25.487  35.413  1.00  0.00     0.198 A 
ATOM     85  C   UNL A   1      41.869  25.440  35.234  1.00  0.00     0.198 A 
ATOM     86  F   UNL A   1      40.749  27.109  34.013  1.00  0.00    -0.203 F 
ATOM     87  F   UNL A   1      45.406  24.922  35.818  1.00  0.00    -0.200 F 
ATOM     88  C   UNL A   1      43.049  24.873  35.691  1.00  0.00     0.200 A 
ATOM     89  F   UNL A   1      40.695  24.855  35.508  1.00  0.00    -0.200 F 
ATOM     90  F   UNL A   1      43.020  23.726  36.384  1.00  0.00    -0.200 F 
ENDBRANCH  56  80
BRANCH  68  91
ATOM     91  C   UNL A   1      41.718  33.977  35.351  1.00  0.00     0.064 A 
ATOM     92  C   UNL A   1      42.582  34.552  36.295  1.00  0.00     0.173 A 
ATOM     93  C   UNL A   1      40.337  34.143  35.544  1.00  0.00     0.173 A 
ATOM     94  F   UNL A   1      43.911  34.414  36.165  1.00  0.00    -0.203 F 
ATOM     95  C   UNL A   1      42.084  35.235  37.402  1.00  0.00     0.198 A 
ATOM     96  C   UNL A   1      39.844  34.858  36.632  1.00  0.00     0.198 A 
ATOM     97  F   UNL A   1      39.465  33.624  34.666  1.00  0.00    -0.203 F 
ATOM     98  F   UNL A   1      42.929  35.725  38.319  1.00  0.00    -0.200 F 
ATOM     99  C   UNL A   1      40.717  35.394  37.565  1.00  0.00     0.200 A 
ATOM    100  F   UNL A   1      38.521  35.026  36.776  1.00  0.00    -0.200 F 
ATOM    101  F   UNL A   1      40.239  36.058  38.626  1.00  0.00    -0.200 F 
ENDBRANCH  68  91
ENDBRANCH  42  43
ENDBRANCH  35  37
ENDBRANCH  34  35
ENDBRANCH  33  34
ENDBRANCH  32  33
ENDBRANCH  31  32
ENDBRANCH  30  31
ENDBRANCH   1  30
TORSDOF 21
ENDMDL
