MODEL 1
REMARK VINA RESULT:     -11.6      0.000      0.000
REMARK SMILES Cc1nc(-c2ccc(S(=O)(=O)N3CC[NH2+][C@H](C(=O)OCCOCCOCCOC(=O)c4ccc(-c5c6nc(c(-c7c(F)c(F)c(F)c(F)c7F)c7ccc([nH]7)c(-c7c(F)c(F)c(F)c(F)c7F)c7nc(c(-c8c(F)c(F)c(F)c(F)c8F)c8ccc5[nH]8)C=C7)C=C6)cc4)C3)s2)cs1
REMARK SMILES IDX 23 1 22 2 21 3 20 4 19 5 17 6 18 7 16 8 12 9 13 10 94 11
REMARK SMILES IDX 14 12 15 13 9 16 10 17 11 18 8 19 5 20 6 21 95 22 7 23 4 24
REMARK SMILES IDX 1 25 2 26 3 27 97 28 96 29 24 30 25 31 26 32 27 33 28 34
REMARK SMILES IDX 29 35 30 36 31 37 32 38 93 39 33 40 92 41 34 42 35 43 36 44
REMARK SMILES IDX 86 45 37 46 91 47 85 48 87 49 38 50 90 51 84 52 83 53 39 55
REMARK SMILES IDX 71 56 51 57 70 58 52 59 55 60 69 61 88 62 53 63 54 64 68 66
REMARK SMILES IDX 89 67 56 68 40 69 41 70 49 71 42 72 43 73 47 74 50 75 44 76
REMARK SMILES IDX 45 77 48 78 46 79 72 80 73 81 81 82 74 83 75 84 79 85 82 86
REMARK SMILES IDX 76 87 77 88 80 89 78 90 57 91 58 92 66 93 59 94 60 95 64 96
REMARK SMILES IDX 67 97 61 98 62 99 65 100 63 101
REMARK H PARENT 15 14 15 15 87 54 55 65
REMARK Flexibility Score: inf
ROOT
ATOM      1  C   UNL A   1      33.072  27.794  25.948  1.00  0.00     0.188 C 
ENDROOT
BRANCH   1   2
ATOM      2  O   UNL A   1      33.876  27.350  24.863  1.00  0.00    -0.376 OA
BRANCH   2   3
ATOM      3  C   UNL A   1      33.240  26.896  23.677  1.00  0.00     0.202 C 
BRANCH   3   4
ATOM      4  C   UNL A   1      34.082  26.011  22.757  1.00  0.00     0.261 C 
BRANCH   4   5
ATOM      5  O   UNL A   1      33.708  24.621  22.833  1.00  0.00    -0.459 OA
BRANCH   5   6
ATOM      6  C   UNL A   1      34.653  23.798  23.354  1.00  0.00     0.366 C 
ATOM      7  O   UNL A   1      35.799  23.696  22.929  1.00  0.00    -0.245 OA
BRANCH   6   8
ATOM      8  C   UNL A   1      34.175  23.025  24.578  1.00  0.00     0.308 C 
ATOM      9  N   UNL A   1      32.942  23.050  26.676  1.00  0.00    -0.185 NA
ATOM     10  C   UNL A   1      33.726  21.913  27.222  1.00  0.00     0.164 C 
ATOM     11  C   UNL A   1      33.741  23.899  25.751  1.00  0.00     0.180 C 
ATOM     12  C   UNL A   1      34.546  21.160  26.148  1.00  0.00     0.278 C 
ATOM     13  N   UNL A   1      35.109  21.940  25.019  1.00  0.00    -0.332 N 
ATOM     14  H   UNL A   1      35.280  21.311  24.235  1.00  0.00     0.347 HD
ATOM     15  H   UNL A   1      35.976  22.374  25.334  1.00  0.00     0.347 HD
BRANCH   9  16
ATOM     16  S   UNL A   1      31.274  22.889  26.372  1.00  0.00     0.253 S 
ATOM     17  O   UNL A   1      30.604  23.314  27.582  1.00  0.00    -0.206 OA
ATOM     18  O   UNL A   1      31.056  21.578  25.798  1.00  0.00    -0.206 OA
BRANCH  16  19
ATOM     19  C   UNL A   1      30.711  24.022  25.092  1.00  0.00     0.135 A 
ATOM     20  C   UNL A   1      29.747  26.035  24.010  1.00  0.00     0.055 A 
ATOM     21  C   UNL A   1      30.185  25.111  23.092  1.00  0.00     0.023 A 
ATOM     22  S   UNL A   1      30.054  25.532  25.609  1.00  0.00    -0.121 S 
ATOM     23  C   UNL A   1      30.663  23.936  23.713  1.00  0.00     0.034 A 
BRANCH  20  24
ATOM     24  C   UNL A   1      29.051  27.276  23.551  1.00  0.00     0.091 A 
ATOM     25  C   UNL A   1      29.510  30.368  21.678  1.00  0.00     0.079 C 
ATOM     26  C   UNL A   1      29.020  29.221  22.488  1.00  0.00     0.090 A 
ATOM     27  N   UNL A   1      29.801  28.261  22.925  1.00  0.00    -0.241 NA
ATOM     28  S   UNL A   1      27.363  29.062  22.909  1.00  0.00    -0.127 S 
ATOM     29  C   UNL A   1      27.704  27.545  23.651  1.00  0.00     0.096 A 
ENDBRANCH  20  24
ENDBRANCH  16  19
ENDBRANCH   9  16
ENDBRANCH   6   8
ENDBRANCH   5   6
ENDBRANCH   4   5
ENDBRANCH   3   4
ENDBRANCH   2   3
ENDBRANCH   1   2
BRANCH   1  30
ATOM     30  C   UNL A   1      31.961  28.830  25.689  1.00  0.00     0.188 C 
BRANCH  30  31
ATOM     31  O   UNL A   1      32.278  30.211  25.646  1.00  0.00    -0.376 OA
BRANCH  31  32
ATOM     32  C   UNL A   1      32.304  30.930  26.870  1.00  0.00     0.202 C 
BRANCH  32  33
ATOM     33  C   UNL A   1      33.521  30.662  27.756  1.00  0.00     0.261 C 
BRANCH  33  34
ATOM     34  O   UNL A   1      34.146  31.884  28.192  1.00  0.00    -0.460 OA
BRANCH  34  35
ATOM     35  C   UNL A   1      34.790  31.834  29.382  1.00  0.00     0.338 C 
ATOM     36  O   UNL A   1      34.439  32.337  30.437  1.00  0.00    -0.246 OA
BRANCH  35  37
ATOM     37  C   UNL A   1      35.953  30.929  29.280  1.00  0.00     0.060 A 
ATOM     38  C   UNL A   1      36.449  30.343  30.453  1.00  0.00     0.016 A 
ATOM     39  C   UNL A   1      36.593  30.716  28.057  1.00  0.00     0.016 A 
ATOM     40  C   UNL A   1      37.619  29.582  30.416  1.00  0.00     0.010 A 
ATOM     41  C   UNL A   1      37.772  29.966  28.025  1.00  0.00     0.010 A 
ATOM     42  C   UNL A   1      38.308  29.428  29.207  1.00  0.00    -0.014 A 
BRANCH  42  43
ATOM     43  C   UNL A   1      39.678  28.861  29.176  1.00  0.00     0.031 A 
ATOM     44  C   UNL A   1      40.840  29.786  29.399  1.00  0.00     0.074 A 
ATOM     45  C   UNL A   1      39.890  27.563  28.905  1.00  0.00     0.049 A 
ATOM     46  N   UNL A   1      42.120  29.572  29.229  1.00  0.00    -0.248 NA
ATOM     47  C   UNL A   1      40.512  31.140  29.874  1.00  0.00     0.031 C 
ATOM     48  C   UNL A   1      38.849  26.552  28.735  1.00  0.00     0.029 A 
ATOM     49  N   UNL A   1      41.064  26.881  28.698  1.00  0.00    -0.354 N 
ATOM     50  C   UNL A   1      42.746  30.767  29.555  1.00  0.00     0.074 A 
ATOM     51  C   UNL A   1      41.709  31.705  29.928  1.00  0.00     0.031 C 
ATOM     52  C   UNL A   1      39.430  25.382  28.415  1.00  0.00     0.029 A 
ATOM     53  C   UNL A   1      40.876  25.577  28.313  1.00  0.00     0.049 A 
ATOM     54  H   UNL A   1      41.953  27.289  28.814  1.00  0.00     0.167 HD
ATOM     55  C   UNL A   1      44.068  31.056  29.538  1.00  0.00     0.037 A 
ATOM     56  C   UNL A   1      41.769  24.663  27.884  1.00  0.00     0.037 A 
ATOM     57  C   UNL A   1      45.097  30.125  29.162  1.00  0.00     0.049 A 
ATOM     58  C   UNL A   1      43.227  25.035  27.784  1.00  0.00     0.074 A 
ATOM     59  C   UNL A   1      46.465  30.324  29.113  1.00  0.00     0.029 A 
ATOM     60  N   UNL A   1      44.865  28.818  28.762  1.00  0.00    -0.354 N 
ATOM     61  N   UNL A   1      43.816  26.166  28.086  1.00  0.00    -0.248 NA
ATOM     62  C   UNL A   1      44.143  24.004  27.270  1.00  0.00     0.031 C 
ATOM     63  C   UNL A   1      47.059  29.148  28.643  1.00  0.00     0.029 A 
ATOM     64  C   UNL A   1      46.064  28.204  28.444  1.00  0.00     0.049 A 
ATOM     65  H   UNL A   1      43.980  28.391  28.713  1.00  0.00     0.167 HD
ATOM     66  C   UNL A   1      45.169  25.975  27.832  1.00  0.00     0.074 A 
ATOM     67  C   UNL A   1      45.316  24.618  27.348  1.00  0.00     0.031 C 
ATOM     68  C   UNL A   1      46.195  26.844  27.988  1.00  0.00     0.037 A 
BRANCH  55  69
ATOM     69  C   UNL A   1      44.473  32.452  29.903  1.00  0.00     0.064 A 
ATOM     70  C   UNL A   1      44.616  33.454  28.933  1.00  0.00     0.173 A 
ATOM     71  C   UNL A   1      44.693  32.797  31.245  1.00  0.00     0.173 A 
ATOM     72  F   UNL A   1      44.434  33.169  27.635  1.00  0.00    -0.203 F 
ATOM     73  C   UNL A   1      44.985  34.748  29.293  1.00  0.00     0.198 A 
ATOM     74  C   UNL A   1      45.038  34.097  31.603  1.00  0.00     0.198 A 
ATOM     75  F   UNL A   1      44.567  31.873  32.210  1.00  0.00    -0.203 F 
ATOM     76  F   UNL A   1      45.156  35.682  28.347  1.00  0.00    -0.200 F 
ATOM     77  C   UNL A   1      45.188  35.070  30.627  1.00  0.00     0.200 A 
ATOM     78  F   UNL A   1      45.226  34.408  32.893  1.00  0.00    -0.200 F 
ATOM     79  F   UNL A   1      45.539  36.317  30.971  1.00  0.00    -0.200 F 
ENDBRANCH  55  69
BRANCH  56  80
ATOM     80  C   UNL A   1      41.306  23.311  27.477  1.00  0.00     0.064 A 
ATOM     81  C   UNL A   1      41.873  22.157  28.035  1.00  0.00     0.173 A 
ATOM     82  C   UNL A   1      40.305  23.145  26.509  1.00  0.00     0.173 A 
ATOM     83  F   UNL A   1      42.856  22.265  28.942  1.00  0.00    -0.203 F 
ATOM     84  C   UNL A   1      41.464  20.888  27.633  1.00  0.00     0.198 A 
ATOM     85  C   UNL A   1      39.880  21.875  26.125  1.00  0.00     0.198 A 
ATOM     86  F   UNL A   1      39.738  24.217  25.939  1.00  0.00    -0.203 F 
ATOM     87  F   UNL A   1      42.051  19.801  28.152  1.00  0.00    -0.200 F 
ATOM     88  C   UNL A   1      40.464  20.748  26.681  1.00  0.00     0.200 A 
ATOM     89  F   UNL A   1      38.911  21.744  25.208  1.00  0.00    -0.200 F 
ATOM     90  F   UNL A   1      40.073  19.527  26.293  1.00  0.00    -0.200 F 
ENDBRANCH  56  80
BRANCH  68  91
ATOM     91  C   UNL A   1      47.580  26.353  27.687  1.00  0.00     0.064 A 
ATOM     92  C   UNL A   1      48.362  25.711  28.657  1.00  0.00     0.173 A 
ATOM     93  C   UNL A   1      48.095  26.450  26.384  1.00  0.00     0.173 A 
ATOM     94  F   UNL A   1      47.918  25.606  29.919  1.00  0.00    -0.203 F 
ATOM     95  C   UNL A   1      49.613  25.192  28.337  1.00  0.00     0.198 A 
ATOM     96  C   UNL A   1      49.335  25.908  26.061  1.00  0.00     0.198 A 
ATOM     97  F   UNL A   1      47.380  27.048  25.419  1.00  0.00    -0.203 F 
ATOM     98  F   UNL A   1      50.356  24.603  29.285  1.00  0.00    -0.200 F 
ATOM     99  C   UNL A   1      50.094  25.282  27.038  1.00  0.00     0.200 A 
ATOM    100  F   UNL A   1      49.792  25.985  24.804  1.00  0.00    -0.200 F 
ATOM    101  F   UNL A   1      51.290  24.763  26.727  1.00  0.00    -0.200 F 
ENDBRANCH  68  91
ENDBRANCH  42  43
ENDBRANCH  35  37
ENDBRANCH  34  35
ENDBRANCH  33  34
ENDBRANCH  32  33
ENDBRANCH  31  32
ENDBRANCH  30  31
ENDBRANCH   1  30
TORSDOF 20
ENDMDL
MODEL 2
REMARK VINA RESULT:     -11.5      4.798      9.693
REMARK SMILES Cc1nc(-c2ccc(S(=O)(=O)N3CC[NH2+][C@H](C(=O)OCCOCCOCCOC(=O)c4ccc(-c5c6nc(c(-c7c(F)c(F)c(F)c(F)c7F)c7ccc([nH]7)c(-c7c(F)c(F)c(F)c(F)c7F)c7nc(c(-c8c(F)c(F)c(F)c(F)c8F)c8ccc5[nH]8)C=C7)C=C6)cc4)C3)s2)cs1
REMARK SMILES IDX 23 1 22 2 21 3 20 4 19 5 17 6 18 7 16 8 12 9 13 10 94 11
REMARK SMILES IDX 14 12 15 13 9 16 10 17 11 18 8 19 5 20 6 21 95 22 7 23 4 24
REMARK SMILES IDX 1 25 2 26 3 27 97 28 96 29 24 30 25 31 26 32 27 33 28 34
REMARK SMILES IDX 29 35 30 36 31 37 32 38 93 39 33 40 92 41 34 42 35 43 36 44
REMARK SMILES IDX 86 45 37 46 91 47 85 48 87 49 38 50 90 51 84 52 83 53 39 55
REMARK SMILES IDX 71 56 51 57 70 58 52 59 55 60 69 61 88 62 53 63 54 64 68 66
REMARK SMILES IDX 89 67 56 68 40 69 41 70 49 71 42 72 43 73 47 74 50 75 44 76
REMARK SMILES IDX 45 77 48 78 46 79 72 80 73 81 81 82 74 83 75 84 79 85 82 86
REMARK SMILES IDX 76 87 77 88 80 89 78 90 57 91 58 92 66 93 59 94 60 95 64 96
REMARK SMILES IDX 67 97 61 98 62 99 65 100 63 101
REMARK H PARENT 15 14 15 15 87 54 55 65
REMARK Flexibility Score: inf
ROOT
ATOM      1  C   UNL A   1      33.471  28.036  25.545  1.00  0.00     0.188 C 
ENDROOT
BRANCH   1   2
ATOM      2  O   UNL A   1      33.250  27.689  24.183  1.00  0.00    -0.376 OA
BRANCH   2   3
ATOM      3  C   UNL A   1      32.387  28.499  23.399  1.00  0.00     0.202 C 
BRANCH   3   4
ATOM      4  C   UNL A   1      30.910  28.103  23.394  1.00  0.00     0.261 C 
BRANCH   4   5
ATOM      5  O   UNL A   1      30.531  27.363  24.571  1.00  0.00    -0.459 OA
BRANCH   5   6
ATOM      6  C   UNL A   1      30.003  26.135  24.335  1.00  0.00     0.366 C 
ATOM      7  O   UNL A   1      28.994  25.927  23.669  1.00  0.00    -0.245 OA
BRANCH   6   8
ATOM      8  C   UNL A   1      30.818  24.998  24.940  1.00  0.00     0.308 C 
ATOM      9  N   UNL A   1      32.575  23.340  24.645  1.00  0.00    -0.185 NA
ATOM     10  C   UNL A   1      32.001  22.455  25.690  1.00  0.00     0.164 C 
ATOM     11  C   UNL A   1      31.531  24.115  23.920  1.00  0.00     0.180 C 
ATOM     12  C   UNL A   1      30.941  23.154  26.573  1.00  0.00     0.278 C 
ATOM     13  N   UNL A   1      30.070  24.179  25.947  1.00  0.00    -0.332 N 
ATOM     14  H   UNL A   1      29.710  24.797  26.674  1.00  0.00     0.347 HD
ATOM     15  H   UNL A   1      29.310  23.699  25.466  1.00  0.00     0.347 HD
BRANCH   9  16
ATOM     16  S   UNL A   1      34.101  24.065  24.861  1.00  0.00     0.253 S 
ATOM     17  O   UNL A   1      34.043  24.747  26.136  1.00  0.00    -0.206 OA
ATOM     18  O   UNL A   1      34.435  24.761  23.636  1.00  0.00    -0.206 OA
BRANCH  16  19
ATOM     19  C   UNL A   1      35.408  22.841  25.034  1.00  0.00     0.135 A 
ATOM     20  C   UNL A   1      37.605  21.825  25.581  1.00  0.00     0.055 A 
ATOM     21  C   UNL A   1      36.721  20.906  25.071  1.00  0.00     0.023 A 
ATOM     22  S   UNL A   1      36.897  23.369  25.731  1.00  0.00    -0.121 S 
ATOM     23  C   UNL A   1      35.498  21.504  24.691  1.00  0.00     0.034 A 
BRANCH  20  24
ATOM     24  C   UNL A   1      39.012  21.423  25.886  1.00  0.00     0.091 A 
ATOM     25  C   UNL A   1      42.183  22.637  27.206  1.00  0.00     0.079 C 
ATOM     26  C   UNL A   1      41.054  21.863  26.626  1.00  0.00     0.090 A 
ATOM     27  N   UNL A   1      39.906  22.402  26.292  1.00  0.00    -0.241 NA
ATOM     28  S   UNL A   1      41.171  20.171  26.357  1.00  0.00    -0.127 S 
ATOM     29  C   UNL A   1      39.527  20.146  25.843  1.00  0.00     0.096 A 
ENDBRANCH  20  24
ENDBRANCH  16  19
ENDBRANCH   9  16
ENDBRANCH   6   8
ENDBRANCH   5   6
ENDBRANCH   4   5
ENDBRANCH   3   4
ENDBRANCH   2   3
ENDBRANCH   1   2
BRANCH   1  30
ATOM     30  C   UNL A   1      33.676  29.516  25.921  1.00  0.00     0.188 C 
BRANCH  30  31
ATOM     31  O   UNL A   1      33.191  30.005  27.159  1.00  0.00    -0.376 OA
BRANCH  31  32
ATOM     32  C   UNL A   1      33.704  31.238  27.640  1.00  0.00     0.202 C 
BRANCH  32  33
ATOM     33  C   UNL A   1      32.692  32.383  27.706  1.00  0.00     0.261 C 
BRANCH  33  34
ATOM     34  O   UNL A   1      33.317  33.663  27.497  1.00  0.00    -0.460 OA
BRANCH  34  35
ATOM     35  C   UNL A   1      33.316  34.509  28.554  1.00  0.00     0.338 C 
ATOM     36  O   UNL A   1      32.436  35.288  28.881  1.00  0.00    -0.246 OA
BRANCH  35  37
ATOM     37  C   UNL A   1      34.507  34.257  29.391  1.00  0.00     0.060 A 
ATOM     38  C   UNL A   1      35.772  34.528  28.851  1.00  0.00     0.016 A 
ATOM     39  C   UNL A   1      34.387  33.693  30.663  1.00  0.00     0.016 A 
ATOM     40  C   UNL A   1      36.925  34.188  29.562  1.00  0.00     0.010 A 
ATOM     41  C   UNL A   1      35.542  33.341  31.366  1.00  0.00     0.010 A 
ATOM     42  C   UNL A   1      36.813  33.553  30.804  1.00  0.00    -0.014 A 
BRANCH  42  43
ATOM     43  C   UNL A   1      37.994  32.942  31.458  1.00  0.00     0.031 A 
ATOM     44  C   UNL A   1      38.617  31.732  30.825  1.00  0.00     0.074 A 
ATOM     45  C   UNL A   1      38.474  33.419  32.619  1.00  0.00     0.049 A 
ATOM     46  N   UNL A   1      39.521  30.913  31.300  1.00  0.00    -0.248 NA
ATOM     47  C   UNL A   1      38.153  31.395  29.469  1.00  0.00     0.031 C 
ATOM     48  C   UNL A   1      38.001  34.621  33.301  1.00  0.00     0.029 A 
ATOM     49  N   UNL A   1      39.454  32.924  33.443  1.00  0.00    -0.354 N 
ATOM     50  C   UNL A   1      39.717  29.956  30.314  1.00  0.00     0.074 A 
ATOM     51  C   UNL A   1      38.837  30.290  29.215  1.00  0.00     0.031 C 
ATOM     52  C   UNL A   1      38.669  34.753  34.460  1.00  0.00     0.029 A 
ATOM     53  C   UNL A   1      39.581  33.620  34.619  1.00  0.00     0.049 A 
ATOM     54  H   UNL A   1      40.011  32.144  33.213  1.00  0.00     0.167 HD
ATOM     55  C   UNL A   1      40.553  28.892  30.328  1.00  0.00     0.037 A 
ATOM     56  C   UNL A   1      40.316  33.344  35.715  1.00  0.00     0.037 A 
ATOM     57  C   UNL A   1      41.423  28.559  31.423  1.00  0.00     0.049 A 
ATOM     58  C   UNL A   1      41.169  32.102  35.746  1.00  0.00     0.074 A 
ATOM     59  C   UNL A   1      42.307  27.501  31.532  1.00  0.00     0.029 A 
ATOM     60  N   UNL A   1      41.511  29.280  32.604  1.00  0.00    -0.354 N 
ATOM     61  N   UNL A   1      41.349  31.196  34.817  1.00  0.00    -0.248 NA
ATOM     62  C   UNL A   1      41.915  31.838  36.987  1.00  0.00     0.031 C 
ATOM     63  C   UNL A   1      42.900  27.558  32.797  1.00  0.00     0.029 A 
ATOM     64  C   UNL A   1      42.418  28.678  33.457  1.00  0.00     0.049 A 
ATOM     65  H   UNL A   1      41.002  30.099  32.805  1.00  0.00     0.167 HD
ATOM     66  C   UNL A   1      42.247  30.276  35.344  1.00  0.00     0.074 A 
ATOM     67  C   UNL A   1      42.578  30.732  36.678  1.00  0.00     0.031 C 
ATOM     68  C   UNL A   1      42.754  29.158  34.772  1.00  0.00     0.037 A 
BRANCH  55  69
ATOM     69  C   UNL A   1      40.537  27.987  29.134  1.00  0.00     0.064 A 
ATOM     70  C   UNL A   1      39.717  26.851  29.082  1.00  0.00     0.173 A 
ATOM     71  C   UNL A   1      41.332  28.277  28.015  1.00  0.00     0.173 A 
ATOM     72  F   UNL A   1      38.951  26.523  30.133  1.00  0.00    -0.203 F 
ATOM     73  C   UNL A   1      39.709  26.027  27.960  1.00  0.00     0.198 A 
ATOM     74  C   UNL A   1      41.304  27.465  26.886  1.00  0.00     0.198 A 
ATOM     75  F   UNL A   1      42.134  29.354  28.017  1.00  0.00    -0.203 F 
ATOM     76  F   UNL A   1      38.948  24.924  27.946  1.00  0.00    -0.200 F 
ATOM     77  C   UNL A   1      40.497  26.338  26.860  1.00  0.00     0.200 A 
ATOM     78  F   UNL A   1      42.060  27.771  25.822  1.00  0.00    -0.200 F 
ATOM     79  F   UNL A   1      40.484  25.545  25.780  1.00  0.00    -0.200 F 
ENDBRANCH  55  69
BRANCH  56  80
ATOM     80  C   UNL A   1      40.248  34.243  36.896  1.00  0.00     0.064 A 
ATOM     81  C   UNL A   1      41.090  35.360  37.000  1.00  0.00     0.173 A 
ATOM     82  C   UNL A   1      39.359  33.995  37.952  1.00  0.00     0.173 A 
ATOM     83  F   UNL A   1      41.979  35.621  36.030  1.00  0.00    -0.203 F 
ATOM     84  C   UNL A   1      41.052  36.187  38.120  1.00  0.00     0.198 A 
ATOM     85  C   UNL A   1      39.306  34.836  39.060  1.00  0.00     0.198 A 
ATOM     86  F   UNL A   1      38.540  32.934  37.904  1.00  0.00    -0.203 F 
ATOM     87  F   UNL A   1      41.895  37.224  38.214  1.00  0.00    -0.200 F 
ATOM     88  C   UNL A   1      40.156  35.927  39.148  1.00  0.00     0.200 A 
ATOM     89  F   UNL A   1      38.436  34.584  40.049  1.00  0.00    -0.200 F 
ATOM     90  F   UNL A   1      40.123  36.722  40.225  1.00  0.00    -0.200 F 
ENDBRANCH  56  80
BRANCH  68  91
ATOM     91  C   UNL A   1      43.761  28.368  35.555  1.00  0.00     0.064 A 
ATOM     92  C   UNL A   1      45.134  28.634  35.469  1.00  0.00     0.173 A 
ATOM     93  C   UNL A   1      43.334  27.389  36.467  1.00  0.00     0.173 A 
ATOM     94  F   UNL A   1      45.591  29.550  34.603  1.00  0.00    -0.203 F 
ATOM     95  C   UNL A   1      46.046  27.943  36.263  1.00  0.00     0.198 A 
ATOM     96  C   UNL A   1      44.245  26.717  37.276  1.00  0.00     0.198 A 
ATOM     97  F   UNL A   1      42.029  27.105  36.590  1.00  0.00    -0.203 F 
ATOM     98  F   UNL A   1      47.358  28.194  36.149  1.00  0.00    -0.200 F 
ATOM     99  C   UNL A   1      45.600  26.993  37.172  1.00  0.00     0.200 A 
ATOM    100  F   UNL A   1      43.812  25.811  38.162  1.00  0.00    -0.200 F 
ATOM    101  F   UNL A   1      46.478  26.343  37.948  1.00  0.00    -0.200 F 
ENDBRANCH  68  91
ENDBRANCH  42  43
ENDBRANCH  35  37
ENDBRANCH  34  35
ENDBRANCH  33  34
ENDBRANCH  32  33
ENDBRANCH  31  32
ENDBRANCH  30  31
ENDBRANCH   1  30
TORSDOF 20
ENDMDL
MODEL 3
REMARK VINA RESULT:     -11.2      1.906      2.309
REMARK SMILES Cc1nc(-c2ccc(S(=O)(=O)N3CC[NH2+][C@H](C(=O)OCCOCCOCCOC(=O)c4ccc(-c5c6nc(c(-c7c(F)c(F)c(F)c(F)c7F)c7ccc([nH]7)c(-c7c(F)c(F)c(F)c(F)c7F)c7nc(c(-c8c(F)c(F)c(F)c(F)c8F)c8ccc5[nH]8)C=C7)C=C6)cc4)C3)s2)cs1
REMARK SMILES IDX 23 1 22 2 21 3 20 4 19 5 17 6 18 7 16 8 12 9 13 10 94 11
REMARK SMILES IDX 14 12 15 13 9 16 10 17 11 18 8 19 5 20 6 21 95 22 7 23 4 24
REMARK SMILES IDX 1 25 2 26 3 27 97 28 96 29 24 30 25 31 26 32 27 33 28 34
REMARK SMILES IDX 29 35 30 36 31 37 32 38 93 39 33 40 92 41 34 42 35 43 36 44
REMARK SMILES IDX 86 45 37 46 91 47 85 48 87 49 38 50 90 51 84 52 83 53 39 55
REMARK SMILES IDX 71 56 51 57 70 58 52 59 55 60 69 61 88 62 53 63 54 64 68 66
REMARK SMILES IDX 89 67 56 68 40 69 41 70 49 71 42 72 43 73 47 74 50 75 44 76
REMARK SMILES IDX 45 77 48 78 46 79 72 80 73 81 81 82 74 83 75 84 79 85 82 86
REMARK SMILES IDX 76 87 77 88 80 89 78 90 57 91 58 92 66 93 59 94 60 95 64 96
REMARK SMILES IDX 67 97 61 98 62 99 65 100 63 101
REMARK H PARENT 15 14 15 15 87 54 55 65
REMARK Flexibility Score: inf
ROOT
ATOM      1  C   UNL A   1      33.422  27.461  25.887  1.00  0.00     0.188 C 
ENDROOT
BRANCH   1   2
ATOM      2  O   UNL A   1      33.979  26.687  24.832  1.00  0.00    -0.376 OA
BRANCH   2   3
ATOM      3  C   UNL A   1      33.348  26.704  23.560  1.00  0.00     0.202 C 
BRANCH   3   4
ATOM      4  C   UNL A   1      33.962  25.799  22.491  1.00  0.00     0.261 C 
BRANCH   4   5
ATOM      5  O   UNL A   1      33.602  24.414  22.664  1.00  0.00    -0.459 OA
BRANCH   5   6
ATOM      6  C   UNL A   1      34.591  23.617  23.144  1.00  0.00     0.366 C 
ATOM      7  O   UNL A   1      35.730  23.573  22.692  1.00  0.00    -0.245 OA
BRANCH   6   8
ATOM      8  C   UNL A   1      34.171  22.795  24.357  1.00  0.00     0.308 C 
ATOM      9  N   UNL A   1      33.093  22.746  26.538  1.00  0.00    -0.185 NA
ATOM     10  C   UNL A   1      33.870  21.554  26.964  1.00  0.00     0.164 C 
ATOM     11  C   UNL A   1      33.856  23.617  25.603  1.00  0.00     0.180 C 
ATOM     12  C   UNL A   1      34.581  20.834  25.795  1.00  0.00     0.278 C 
ATOM     13  N   UNL A   1      35.092  21.655  24.671  1.00  0.00    -0.332 N 
ATOM     14  H   UNL A   1      35.182  21.065  23.843  1.00  0.00     0.347 HD
ATOM     15  H   UNL A   1      35.996  22.041  24.943  1.00  0.00     0.347 HD
BRANCH   9  16
ATOM     16  S   UNL A   1      31.402  22.659  26.349  1.00  0.00     0.253 S 
ATOM     17  O   UNL A   1      30.836  23.134  27.593  1.00  0.00    -0.206 OA
ATOM     18  O   UNL A   1      31.086  21.352  25.814  1.00  0.00    -0.206 OA
BRANCH  16  19
ATOM     19  C   UNL A   1      30.808  23.798  25.089  1.00  0.00     0.135 A 
ATOM     20  C   UNL A   1      29.846  25.829  24.038  1.00  0.00     0.055 A 
ATOM     21  C   UNL A   1      30.213  24.888  23.107  1.00  0.00     0.023 A 
ATOM     22  S   UNL A   1      30.218  25.330  25.624  1.00  0.00    -0.121 S 
ATOM     23  C   UNL A   1      30.689  23.704  23.714  1.00  0.00     0.034 A 
BRANCH  20  24
ATOM     24  C   UNL A   1      29.162  27.086  23.603  1.00  0.00     0.091 A 
ATOM     25  C   UNL A   1      29.646  30.201  21.775  1.00  0.00     0.079 C 
ATOM     26  C   UNL A   1      29.148  29.048  22.571  1.00  0.00     0.090 A 
ATOM     27  N   UNL A   1      29.920  28.072  22.987  1.00  0.00    -0.241 NA
ATOM     28  S   UNL A   1      27.492  28.902  23.001  1.00  0.00    -0.127 S 
ATOM     29  C   UNL A   1      27.819  27.370  23.717  1.00  0.00     0.096 A 
ENDBRANCH  20  24
ENDBRANCH  16  19
ENDBRANCH   9  16
ENDBRANCH   6   8
ENDBRANCH   5   6
ENDBRANCH   4   5
ENDBRANCH   3   4
ENDBRANCH   2   3
ENDBRANCH   1   2
BRANCH   1  30
ATOM     30  C   UNL A   1      32.325  28.495  25.564  1.00  0.00     0.188 C 
BRANCH  30  31
ATOM     31  O   UNL A   1      32.631  29.879  25.580  1.00  0.00    -0.376 OA
BRANCH  31  32
ATOM     32  C   UNL A   1      32.820  30.509  26.837  1.00  0.00     0.202 C 
BRANCH  32  33
ATOM     33  C   UNL A   1      34.208  30.330  27.453  1.00  0.00     0.261 C 
BRANCH  33  34
ATOM     34  O   UNL A   1      34.763  31.582  27.898  1.00  0.00    -0.460 OA
BRANCH  34  35
ATOM     35  C   UNL A   1      35.243  31.606  29.164  1.00  0.00     0.338 C 
ATOM     36  O   UNL A   1      34.723  32.111  30.145  1.00  0.00    -0.246 OA
BRANCH  35  37
ATOM     37  C   UNL A   1      36.464  30.779  29.247  1.00  0.00     0.060 A 
ATOM     38  C   UNL A   1      36.584  29.870  30.308  1.00  0.00     0.016 A 
ATOM     39  C   UNL A   1      37.510  30.946  28.337  1.00  0.00     0.016 A 
ATOM     40  C   UNL A   1      37.773  29.161  30.492  1.00  0.00     0.010 A 
ATOM     41  C   UNL A   1      38.703  30.247  28.532  1.00  0.00     0.010 A 
ATOM     42  C   UNL A   1      38.852  29.380  29.628  1.00  0.00    -0.014 A 
BRANCH  42  43
ATOM     43  C   UNL A   1      40.202  28.855  29.946  1.00  0.00     0.031 A 
ATOM     44  C   UNL A   1      41.124  29.703  30.774  1.00  0.00     0.074 A 
ATOM     45  C   UNL A   1      40.621  27.672  29.466  1.00  0.00     0.049 A 
ATOM     46  N   UNL A   1      42.400  29.555  31.017  1.00  0.00    -0.248 NA
ATOM     47  C   UNL A   1      40.522  30.886  31.412  1.00  0.00     0.031 C 
ATOM     48  C   UNL A   1      39.805  26.729  28.707  1.00  0.00     0.029 A 
ATOM     49  N   UNL A   1      41.858  27.080  29.527  1.00  0.00    -0.354 N 
ATOM     50  C   UNL A   1      42.759  30.632  31.816  1.00  0.00     0.074 A 
ATOM     51  C   UNL A   1      41.568  31.431  32.014  1.00  0.00     0.031 C 
ATOM     52  C   UNL A   1      40.573  25.687  28.342  1.00  0.00     0.029 A 
ATOM     53  C   UNL A   1      41.942  25.917  28.803  1.00  0.00     0.049 A 
ATOM     54  H   UNL A   1      42.612  27.453  30.040  1.00  0.00     0.167 HD
ATOM     55  C   UNL A   1      43.973  30.930  32.332  1.00  0.00     0.037 A 
ATOM     56  C   UNL A   1      43.014  25.154  28.510  1.00  0.00     0.037 A 
ATOM     57  C   UNL A   1      45.157  30.138  32.130  1.00  0.00     0.049 A 
ATOM     58  C   UNL A   1      44.375  25.555  29.017  1.00  0.00     0.074 A 
ATOM     59  C   UNL A   1      46.435  30.357  32.612  1.00  0.00     0.029 A 
ATOM     60  N   UNL A   1      45.204  28.975  31.377  1.00  0.00    -0.354 N 
ATOM     61  N   UNL A   1      44.714  26.576  29.766  1.00  0.00    -0.248 NA
ATOM     62  C   UNL A   1      45.509  24.701  28.627  1.00  0.00     0.031 C 
ATOM     63  C   UNL A   1      47.266  29.348  32.115  1.00  0.00     0.029 A 
ATOM     64  C   UNL A   1      46.495  28.477  31.362  1.00  0.00     0.049 A 
ATOM     65  H   UNL A   1      44.434  28.566  30.920  1.00  0.00     0.167 HD
ATOM     66  C   UNL A   1      46.085  26.471  29.964  1.00  0.00     0.074 A 
ATOM     67  C   UNL A   1      46.521  25.286  29.255  1.00  0.00     0.031 C 
ATOM     68  C   UNL A   1      46.907  27.282  30.671  1.00  0.00     0.037 A 
BRANCH  55  69
ATOM     69  C   UNL A   1      44.091  32.189  33.136  1.00  0.00     0.064 A 
ATOM     70  C   UNL A   1      44.366  33.424  32.534  1.00  0.00     0.173 A 
ATOM     71  C   UNL A   1      43.897  32.162  34.526  1.00  0.00     0.173 A 
ATOM     72  F   UNL A   1      44.577  33.498  31.211  1.00  0.00    -0.203 F 
ATOM     73  C   UNL A   1      44.463  34.585  33.297  1.00  0.00     0.198 A 
ATOM     74  C   UNL A   1      43.970  33.328  35.281  1.00  0.00     0.198 A 
ATOM     75  F   UNL A   1      43.630  31.003  35.149  1.00  0.00    -0.203 F 
ATOM     76  F   UNL A   1      44.767  35.749  32.706  1.00  0.00    -0.200 F 
ATOM     77  C   UNL A   1      44.258  34.537  34.668  1.00  0.00     0.200 A 
ATOM     78  F   UNL A   1      43.764  33.281  36.605  1.00  0.00    -0.200 F 
ATOM     79  F   UNL A   1      44.347  35.657  35.400  1.00  0.00    -0.200 F 
ENDBRANCH  55  69
BRANCH  56  80
ATOM     80  C   UNL A   1      42.852  23.948  27.657  1.00  0.00     0.064 A 
ATOM     81  C   UNL A   1      42.462  22.721  28.212  1.00  0.00     0.173 A 
ATOM     82  C   UNL A   1      43.103  23.991  26.278  1.00  0.00     0.173 A 
ATOM     83  F   UNL A   1      42.241  22.622  29.532  1.00  0.00    -0.203 F 
ATOM     84  C   UNL A   1      42.340  21.580  27.421  1.00  0.00     0.198 A 
ATOM     85  C   UNL A   1      42.957  22.855  25.485  1.00  0.00     0.198 A 
ATOM     86  F   UNL A   1      43.487  25.138  25.701  1.00  0.00    -0.203 F 
ATOM     87  F   UNL A   1      42.006  20.411  27.983  1.00  0.00    -0.200 F 
ATOM     88  C   UNL A   1      42.583  21.649  26.057  1.00  0.00     0.200 A 
ATOM     89  F   UNL A   1      43.189  22.928  24.166  1.00  0.00    -0.200 F 
ATOM     90  F   UNL A   1      42.467  20.552  25.299  1.00  0.00    -0.200 F 
ENDBRANCH  56  80
BRANCH  68  91
ATOM     91  C   UNL A   1      48.354  26.899  30.767  1.00  0.00     0.064 A 
ATOM     92  C   UNL A   1      48.809  25.963  31.705  1.00  0.00     0.173 A 
ATOM     93  C   UNL A   1      49.281  27.415  29.847  1.00  0.00     0.173 A 
ATOM     94  F   UNL A   1      47.963  25.452  32.612  1.00  0.00    -0.203 F 
ATOM     95  C   UNL A   1      50.142  25.562  31.725  1.00  0.00     0.198 A 
ATOM     96  C   UNL A   1      50.608  26.995  29.854  1.00  0.00     0.198 A 
ATOM     97  F   UNL A   1      48.892  28.309  28.925  1.00  0.00    -0.203 F 
ATOM     98  F   UNL A   1      50.562  24.683  32.646  1.00  0.00    -0.200 F 
ATOM     99  C   UNL A   1      51.038  26.070  30.794  1.00  0.00     0.200 A 
ATOM    100  F   UNL A   1      51.467  27.476  28.947  1.00  0.00    -0.200 F 
ATOM    101  F   UNL A   1      52.316  25.668  30.803  1.00  0.00    -0.200 F 
ENDBRANCH  68  91
ENDBRANCH  42  43
ENDBRANCH  35  37
ENDBRANCH  34  35
ENDBRANCH  33  34
ENDBRANCH  32  33
ENDBRANCH  31  32
ENDBRANCH  30  31
ENDBRANCH   1  30
TORSDOF 20
ENDMDL
