MODEL 1
REMARK VINA RESULT:      -9.8      0.000      0.000
REMARK SMILES CCCCCCNC(=O)Oc1cccc(-c2ccc([C@@H](C)C(=O)OCCOCCOCCOC(=O)c3ccc(-c4c5nc(c(-c6c(F)c(F)c(F)c(F)c6F)c6ccc([nH]6)c(-c6c(F)c(F)c(F)c(F)c6F)c6nc(c(-c7c(F)c(F)c(F)c(F)c7F)c7ccc4[nH]7)C=C6)C=C5)cc3)cc2)c1
REMARK SMILES IDX 25 1 24 2 22 3 23 4 20 5 21 6 19 7 16 8 17 9 100 10 18 11
REMARK SMILES IDX 99 12 15 13 11 14 12 15 101 16 13 17 14 18 10 19 8 20 7 21
REMARK SMILES IDX 9 23 6 24 5 25 4 26 3 27 2 28 1 29 26 30 27 31 28 32 29 33
REMARK SMILES IDX 30 34 31 35 32 36 33 37 34 38 35 39 36 40 37 41 98 42 38 43
REMARK SMILES IDX 97 44 39 45 40 46 41 47 91 48 42 49 96 50 90 51 92 52 43 53
REMARK SMILES IDX 95 54 89 55 88 56 44 58 76 59 56 60 75 61 57 62 60 63 74 64
REMARK SMILES IDX 93 65 58 66 59 67 73 69 94 70 61 71 45 72 46 73 54 74 47 75
REMARK SMILES IDX 48 76 52 77 55 78 49 79 50 80 53 81 51 82 77 83 78 84 86 85
REMARK SMILES IDX 79 86 80 87 84 88 87 89 81 90 82 91 85 92 83 93 62 94 63 95
REMARK SMILES IDX 71 96 64 97 65 98 69 99 72 100 66 101 67 102 70 103 68 104
REMARK H PARENT 7 22 92 57 60 68
REMARK Flexibility Score: inf
ROOT
ATOM      1  C   UNL A   1      31.882  25.059  23.241  1.00  0.00     0.261 C 
ENDROOT
BRANCH   1   2
ATOM      2  O   UNL A   1      30.723  25.831  22.848  1.00  0.00    -0.463 OA
BRANCH   2   3
ATOM      3  C   UNL A   1      30.099  26.534  23.826  1.00  0.00     0.313 C 
ATOM      4  O   UNL A   1      29.314  26.023  24.626  1.00  0.00    -0.252 OA
BRANCH   3   5
ATOM      5  C   UNL A   1      30.431  28.028  23.916  1.00  0.00     0.126 C 
ATOM      6  C   UNL A   1      30.691  28.557  22.507  1.00  0.00     0.025 C 
BRANCH   5   7
ATOM      7  C   UNL A   1      31.486  28.554  24.887  1.00  0.00    -0.034 A 
ATOM      8  C   UNL A   1      33.398  29.637  26.725  1.00  0.00    -0.018 A 
ATOM      9  C   UNL A   1      33.524  28.334  26.211  1.00  0.00     0.009 A 
ATOM     10  C   UNL A   1      32.304  30.396  26.292  1.00  0.00     0.009 A 
ATOM     11  C   UNL A   1      32.593  27.802  25.300  1.00  0.00     0.005 A 
ATOM     12  C   UNL A   1      31.371  29.869  25.385  1.00  0.00     0.005 A 
BRANCH   8  13
ATOM     13  C   UNL A   1      34.410  30.200  27.642  1.00  0.00    -0.015 A 
ATOM     14  C   UNL A   1      35.231  31.946  29.127  1.00  0.00     0.133 A 
ATOM     15  C   UNL A   1      36.406  31.235  29.363  1.00  0.00     0.047 A 
ATOM     16  C   UNL A   1      34.241  31.450  28.267  1.00  0.00     0.056 A 
ATOM     17  C   UNL A   1      36.587  29.999  28.750  1.00  0.00     0.004 A 
ATOM     18  C   UNL A   1      35.600  29.490  27.899  1.00  0.00     0.009 A 
BRANCH  14  19
ATOM     19  O   UNL A   1      35.144  33.229  29.693  1.00  0.00    -0.410 OA
BRANCH  19  20
ATOM     20  C   UNL A   1      35.939  34.222  29.144  1.00  0.00     0.412 C 
ATOM     21  N   UNL A   1      35.229  35.309  28.706  1.00  0.00    -0.321 N 
ATOM     22  H   UNL A   1      35.757  36.079  28.395  1.00  0.00     0.167 HD
ATOM     23  O   UNL A   1      37.159  34.179  29.013  1.00  0.00    -0.224 OA
BRANCH  21  24
ATOM     24  C   UNL A   1      33.786  35.452  28.648  1.00  0.00     0.119 C 
BRANCH  24  25
ATOM     25  C   UNL A   1      33.233  36.309  29.787  1.00  0.00     0.021 C 
BRANCH  25  26
ATOM     26  C   UNL A   1      32.538  35.529  30.911  1.00  0.00     0.002 C 
BRANCH  26  27
ATOM     27  C   UNL A   1      33.100  35.747  32.321  1.00  0.00    -0.000 C 
BRANCH  27  28
ATOM     28  C   UNL A   1      34.568  36.172  32.390  1.00  0.00    -0.003 C 
ATOM     29  C   UNL A   1      35.413  35.285  33.293  1.00  0.00     0.004 C 
ENDBRANCH  27  28
ENDBRANCH  26  27
ENDBRANCH  25  26
ENDBRANCH  24  25
ENDBRANCH  21  24
ENDBRANCH  19  20
ENDBRANCH  14  19
ENDBRANCH   8  13
ENDBRANCH   5   7
ENDBRANCH   3   5
ENDBRANCH   2   3
ENDBRANCH   1   2
BRANCH   1  30
ATOM     30  C   UNL A   1      32.927  24.807  22.140  1.00  0.00     0.202 C 
BRANCH  30  31
ATOM     31  O   UNL A   1      34.269  24.543  22.532  1.00  0.00    -0.376 OA
BRANCH  31  32
ATOM     32  C   UNL A   1      34.517  23.885  23.769  1.00  0.00     0.188 C 
BRANCH  32  33
ATOM     33  C   UNL A   1      34.344  22.362  23.872  1.00  0.00     0.188 C 
BRANCH  33  34
ATOM     34  O   UNL A   1      34.784  21.808  25.092  1.00  0.00    -0.376 OA
BRANCH  34  35
ATOM     35  C   UNL A   1      35.810  20.838  25.010  1.00  0.00     0.202 C 
BRANCH  35  36
ATOM     36  C   UNL A   1      37.187  21.408  24.643  1.00  0.00     0.261 C 
BRANCH  36  37
ATOM     37  O   UNL A   1      37.794  22.258  25.636  1.00  0.00    -0.460 OA
BRANCH  37  38
ATOM     38  C   UNL A   1      38.980  21.860  26.142  1.00  0.00     0.338 C 
ATOM     39  O   UNL A   1      39.526  20.776  25.985  1.00  0.00    -0.246 OA
BRANCH  38  40
ATOM     40  C   UNL A   1      39.645  23.026  26.759  1.00  0.00     0.060 A 
ATOM     41  C   UNL A   1      39.310  24.313  26.313  1.00  0.00     0.016 A 
ATOM     42  C   UNL A   1      40.610  22.853  27.752  1.00  0.00     0.016 A 
ATOM     43  C   UNL A   1      39.977  25.427  26.823  1.00  0.00     0.010 A 
ATOM     44  C   UNL A   1      41.289  23.969  28.251  1.00  0.00     0.010 A 
ATOM     45  C   UNL A   1      41.006  25.257  27.759  1.00  0.00    -0.014 A 
BRANCH  45  46
ATOM     46  C   UNL A   1      41.915  26.390  28.069  1.00  0.00     0.031 A 
ATOM     47  C   UNL A   1      41.447  27.441  29.038  1.00  0.00     0.074 A 
ATOM     48  C   UNL A   1      43.136  26.485  27.517  1.00  0.00     0.049 A 
ATOM     49  N   UNL A   1      42.042  28.539  29.434  1.00  0.00    -0.248 NA
ATOM     50  C   UNL A   1      40.120  27.228  29.634  1.00  0.00     0.031 C 
ATOM     51  C   UNL A   1      43.715  25.525  26.582  1.00  0.00     0.029 A 
ATOM     52  N   UNL A   1      44.102  27.452  27.655  1.00  0.00    -0.354 N 
ATOM     53  C   UNL A   1      41.159  29.147  30.316  1.00  0.00     0.074 A 
ATOM     54  C   UNL A   1      39.972  28.322  30.364  1.00  0.00     0.031 C 
ATOM     55  C   UNL A   1      44.932  25.962  26.211  1.00  0.00     0.029 A 
ATOM     56  C   UNL A   1      45.201  27.245  26.861  1.00  0.00     0.049 A 
ATOM     57  H   UNL A   1      44.013  28.218  28.266  1.00  0.00     0.167 HD
ATOM     58  C   UNL A   1      41.326  30.286  31.033  1.00  0.00     0.037 A 
ATOM     59  C   UNL A   1      46.287  28.017  26.658  1.00  0.00     0.037 A 
ATOM     60  C   UNL A   1      42.505  31.111  30.976  1.00  0.00     0.049 A 
ATOM     61  C   UNL A   1      46.433  29.311  27.418  1.00  0.00     0.074 A 
ATOM     62  C   UNL A   1      42.783  32.267  31.682  1.00  0.00     0.029 A 
ATOM     63  N   UNL A   1      43.594  30.875  30.149  1.00  0.00    -0.354 N 
ATOM     64  N   UNL A   1      45.615  29.861  28.286  1.00  0.00    -0.248 NA
ATOM     65  C   UNL A   1      47.658  30.089  27.180  1.00  0.00     0.031 C 
ATOM     66  C   UNL A   1      44.011  32.769  31.234  1.00  0.00     0.029 A 
ATOM     67  C   UNL A   1      44.533  31.885  30.302  1.00  0.00     0.049 A 
ATOM     68  H   UNL A   1      43.687  30.106  29.542  1.00  0.00     0.167 HD
ATOM     69  C   UNL A   1      46.235  31.030  28.713  1.00  0.00     0.074 A 
ATOM     70  C   UNL A   1      47.504  31.104  28.019  1.00  0.00     0.031 C 
ATOM     71  C   UNL A   1      45.793  31.953  29.604  1.00  0.00     0.037 A 
BRANCH  58  72
ATOM     72  C   UNL A   1      40.183  30.720  31.908  1.00  0.00     0.064 A 
ATOM     73  C   UNL A   1      39.229  31.655  31.475  1.00  0.00     0.173 A 
ATOM     74  C   UNL A   1      40.045  30.200  33.204  1.00  0.00     0.173 A 
ATOM     75  F   UNL A   1      39.318  32.195  30.250  1.00  0.00    -0.203 F 
ATOM     76  C   UNL A   1      38.214  32.090  32.324  1.00  0.00     0.198 A 
ATOM     77  C   UNL A   1      39.006  30.608  34.036  1.00  0.00     0.198 A 
ATOM     78  F   UNL A   1      40.923  29.298  33.669  1.00  0.00    -0.203 F 
ATOM     79  F   UNL A   1      37.362  33.041  31.914  1.00  0.00    -0.200 F 
ATOM     80  C   UNL A   1      38.100  31.564  33.601  1.00  0.00     0.200 A 
ATOM     81  F   UNL A   1      38.888  30.085  35.265  1.00  0.00    -0.200 F 
ATOM     82  F   UNL A   1      37.126  31.986  34.418  1.00  0.00    -0.200 F 
ENDBRANCH  58  72
BRANCH  59  83
ATOM     83  C   UNL A   1      47.318  27.585  25.679  1.00  0.00     0.064 A 
ATOM     84  C   UNL A   1      48.444  26.853  26.078  1.00  0.00     0.173 A 
ATOM     85  C   UNL A   1      47.186  27.884  24.314  1.00  0.00     0.173 A 
ATOM     86  F   UNL A   1      48.631  26.567  27.375  1.00  0.00    -0.203 F 
ATOM     87  C   UNL A   1      49.402  26.444  25.152  1.00  0.00     0.198 A 
ATOM     88  C   UNL A   1      48.128  27.449  23.385  1.00  0.00     0.198 A 
ATOM     89  F   UNL A   1      46.128  28.587  23.880  1.00  0.00    -0.203 F 
ATOM     90  F   UNL A   1      50.489  25.779  25.566  1.00  0.00    -0.200 F 
ATOM     91  C   UNL A   1      49.238  26.733  23.806  1.00  0.00     0.200 A 
ATOM     92  F   UNL A   1      47.958  27.720  22.084  1.00  0.00    -0.200 F 
ATOM     93  F   UNL A   1      50.153  26.326  22.914  1.00  0.00    -0.200 F 
ENDBRANCH  59  83
BRANCH  71  94
ATOM     94  C   UNL A   1      46.701  33.114  29.911  1.00  0.00     0.064 A 
ATOM     95  C   UNL A   1      47.685  33.043  30.908  1.00  0.00     0.173 A 
ATOM     96  C   UNL A   1      46.613  34.298  29.162  1.00  0.00     0.173 A 
ATOM     97  F   UNL A   1      47.806  31.940  31.661  1.00  0.00    -0.203 F 
ATOM     98  C   UNL A   1      48.528  34.124  31.162  1.00  0.00     0.198 A 
ATOM     99  C   UNL A   1      47.480  35.362  29.394  1.00  0.00     0.198 A 
ATOM    100  F   UNL A   1      45.696  34.418  28.189  1.00  0.00    -0.203 F 
ATOM    101  F   UNL A   1      49.427  34.051  32.153  1.00  0.00    -0.200 F 
ATOM    102  C   UNL A   1      48.431  35.278  30.400  1.00  0.00     0.200 A 
ATOM    103  F   UNL A   1      47.396  36.470  28.644  1.00  0.00    -0.200 F 
ATOM    104  F   UNL A   1      49.250  36.312  30.637  1.00  0.00    -0.200 F 
ENDBRANCH  71  94
ENDBRANCH  45  46
ENDBRANCH  38  40
ENDBRANCH  37  38
ENDBRANCH  36  37
ENDBRANCH  35  36
ENDBRANCH  34  35
ENDBRANCH  33  34
ENDBRANCH  32  33
ENDBRANCH  31  32
ENDBRANCH  30  31
ENDBRANCH   1  30
TORSDOF 26
ENDMDL
MODEL 2
REMARK VINA RESULT:      -9.6      1.720      2.656
REMARK SMILES CCCCCCNC(=O)Oc1cccc(-c2ccc([C@@H](C)C(=O)OCCOCCOCCOC(=O)c3ccc(-c4c5nc(c(-c6c(F)c(F)c(F)c(F)c6F)c6ccc([nH]6)c(-c6c(F)c(F)c(F)c(F)c6F)c6nc(c(-c7c(F)c(F)c(F)c(F)c7F)c7ccc4[nH]7)C=C6)C=C5)cc3)cc2)c1
REMARK SMILES IDX 25 1 24 2 22 3 23 4 20 5 21 6 19 7 16 8 17 9 100 10 18 11
REMARK SMILES IDX 99 12 15 13 11 14 12 15 101 16 13 17 14 18 10 19 8 20 7 21
REMARK SMILES IDX 9 23 6 24 5 25 4 26 3 27 2 28 1 29 26 30 27 31 28 32 29 33
REMARK SMILES IDX 30 34 31 35 32 36 33 37 34 38 35 39 36 40 37 41 98 42 38 43
REMARK SMILES IDX 97 44 39 45 40 46 41 47 91 48 42 49 96 50 90 51 92 52 43 53
REMARK SMILES IDX 95 54 89 55 88 56 44 58 76 59 56 60 75 61 57 62 60 63 74 64
REMARK SMILES IDX 93 65 58 66 59 67 73 69 94 70 61 71 45 72 46 73 54 74 47 75
REMARK SMILES IDX 48 76 52 77 55 78 49 79 50 80 53 81 51 82 77 83 78 84 86 85
REMARK SMILES IDX 79 86 80 87 84 88 87 89 81 90 82 91 85 92 83 93 62 94 63 95
REMARK SMILES IDX 71 96 64 97 65 98 69 99 72 100 66 101 67 102 70 103 68 104
REMARK H PARENT 7 22 92 57 60 68
REMARK Flexibility Score: inf
ROOT
ATOM      1  C   UNL A   1      32.495  23.934  24.375  1.00  0.00     0.261 C 
ENDROOT
BRANCH   1   2
ATOM      2  O   UNL A   1      31.155  23.858  24.914  1.00  0.00    -0.463 OA
BRANCH   2   3
ATOM      3  C   UNL A   1      30.937  24.486  26.097  1.00  0.00     0.313 C 
ATOM      4  O   UNL A   1      30.974  23.907  27.182  1.00  0.00    -0.252 OA
BRANCH   3   5
ATOM      5  C   UNL A   1      30.656  25.992  26.032  1.00  0.00     0.126 C 
ATOM      6  C   UNL A   1      30.057  26.320  24.667  1.00  0.00     0.025 C 
BRANCH   5   7
ATOM      7  C   UNL A   1      31.722  27.019  26.408  1.00  0.00    -0.034 A 
ATOM      8  C   UNL A   1      33.645  28.993  27.191  1.00  0.00    -0.018 A 
ATOM      9  C   UNL A   1      33.978  27.944  26.316  1.00  0.00     0.009 A 
ATOM     10  C   UNL A   1      32.326  29.045  27.659  1.00  0.00     0.009 A 
ATOM     11  C   UNL A   1      33.034  26.979  25.920  1.00  0.00     0.005 A 
ATOM     12  C   UNL A   1      31.381  28.084  27.269  1.00  0.00     0.005 A 
BRANCH   8  13
ATOM     13  C   UNL A   1      34.633  30.028  27.558  1.00  0.00    -0.015 A 
ATOM     14  C   UNL A   1      35.251  32.328  28.058  1.00  0.00     0.133 A 
ATOM     15  C   UNL A   1      36.586  31.965  28.231  1.00  0.00     0.047 A 
ATOM     16  C   UNL A   1      34.278  31.381  27.713  1.00  0.00     0.056 A 
ATOM     17  C   UNL A   1      36.951  30.631  28.079  1.00  0.00     0.004 A 
ATOM     18  C   UNL A   1      35.985  29.676  27.746  1.00  0.00     0.009 A 
BRANCH  14  19
ATOM     19  O   UNL A   1      34.957  33.701  28.127  1.00  0.00    -0.410 OA
BRANCH  19  20
ATOM     20  C   UNL A   1      33.773  34.067  28.746  1.00  0.00     0.412 C 
ATOM     21  N   UNL A   1      33.880  34.178  30.106  1.00  0.00    -0.321 N 
ATOM     22  H   UNL A   1      33.092  34.528  30.580  1.00  0.00     0.167 HD
ATOM     23  O   UNL A   1      32.696  34.262  28.187  1.00  0.00    -0.224 OA
BRANCH  21  24
ATOM     24  C   UNL A   1      35.027  33.838  30.929  1.00  0.00     0.119 C 
BRANCH  24  25
ATOM     25  C   UNL A   1      34.782  32.607  31.802  1.00  0.00     0.021 C 
BRANCH  25  26
ATOM     26  C   UNL A   1      36.047  31.871  32.261  1.00  0.00     0.002 C 
BRANCH  26  27
ATOM     27  C   UNL A   1      36.287  30.496  31.625  1.00  0.00    -0.000 C 
BRANCH  27  28
ATOM     28  C   UNL A   1      37.726  29.979  31.689  1.00  0.00    -0.003 C 
ATOM     29  C   UNL A   1      37.876  28.544  31.206  1.00  0.00     0.004 C 
ENDBRANCH  27  28
ENDBRANCH  26  27
ENDBRANCH  25  26
ENDBRANCH  24  25
ENDBRANCH  21  24
ENDBRANCH  19  20
ENDBRANCH  14  19
ENDBRANCH   8  13
ENDBRANCH   5   7
ENDBRANCH   3   5
ENDBRANCH   2   3
ENDBRANCH   1   2
BRANCH   1  30
ATOM     30  C   UNL A   1      32.672  23.420  22.936  1.00  0.00     0.202 C 
BRANCH  30  31
ATOM     31  O   UNL A   1      33.981  23.418  22.376  1.00  0.00    -0.376 OA
BRANCH  31  32
ATOM     32  C   UNL A   1      35.070  22.933  23.153  1.00  0.00     0.188 C 
BRANCH  32  33
ATOM     33  C   UNL A   1      34.835  21.817  24.183  1.00  0.00     0.188 C 
BRANCH  33  34
ATOM     34  O   UNL A   1      35.533  21.988  25.396  1.00  0.00    -0.376 OA
BRANCH  34  35
ATOM     35  C   UNL A   1      36.926  21.745  25.362  1.00  0.00     0.202 C 
BRANCH  35  36
ATOM     36  C   UNL A   1      37.788  23.013  25.437  1.00  0.00     0.261 C 
BRANCH  36  37
ATOM     37  O   UNL A   1      38.467  23.232  26.689  1.00  0.00    -0.460 OA
BRANCH  37  38
ATOM     38  C   UNL A   1      39.797  23.008  26.713  1.00  0.00     0.338 C 
ATOM     39  O   UNL A   1      40.391  22.028  26.285  1.00  0.00    -0.246 OA
BRANCH  38  40
ATOM     40  C   UNL A   1      40.476  24.244  27.154  1.00  0.00     0.060 A 
ATOM     41  C   UNL A   1      40.513  25.344  26.285  1.00  0.00     0.016 A 
ATOM     42  C   UNL A   1      41.093  24.311  28.403  1.00  0.00     0.016 A 
ATOM     43  C   UNL A   1      41.213  26.496  26.643  1.00  0.00     0.010 A 
ATOM     44  C   UNL A   1      41.808  25.460  28.755  1.00  0.00     0.010 A 
ATOM     45  C   UNL A   1      41.906  26.542  27.860  1.00  0.00    -0.014 A 
BRANCH  45  46
ATOM     46  C   UNL A   1      42.892  27.626  28.106  1.00  0.00     0.031 A 
ATOM     47  C   UNL A   1      42.419  28.889  28.771  1.00  0.00     0.074 A 
ATOM     48  C   UNL A   1      44.184  27.494  27.762  1.00  0.00     0.049 A 
ATOM     49  N   UNL A   1      43.079  29.985  29.054  1.00  0.00    -0.248 NA
ATOM     50  C   UNL A   1      41.001  28.923  29.162  1.00  0.00     0.031 C 
ATOM     51  C   UNL A   1      44.773  26.317  27.132  1.00  0.00     0.029 A 
ATOM     52  N   UNL A   1      45.230  28.376  27.882  1.00  0.00    -0.354 N 
ATOM     53  C   UNL A   1      42.156  30.837  29.646  1.00  0.00     0.074 A 
ATOM     54  C   UNL A   1      40.882  30.151  29.641  1.00  0.00     0.031 C 
ATOM     55  C   UNL A   1      46.076  26.556  26.900  1.00  0.00     0.029 A 
ATOM     56  C   UNL A   1      46.402  27.913  27.339  1.00  0.00     0.049 A 
ATOM     57  H   UNL A   1      45.148  29.255  28.318  1.00  0.00     0.167 HD
ATOM     58  C   UNL A   1      42.354  32.076  30.158  1.00  0.00     0.037 A 
ATOM     59  C   UNL A   1      47.593  28.526  27.185  1.00  0.00     0.037 A 
ATOM     60  C   UNL A   1      43.621  32.761  30.152  1.00  0.00     0.049 A 
ATOM     61  C   UNL A   1      47.782  29.927  27.707  1.00  0.00     0.074 A 
ATOM     62  C   UNL A   1      43.932  34.005  30.670  1.00  0.00     0.029 A 
ATOM     63  N   UNL A   1      44.784  32.264  29.580  1.00  0.00    -0.354 N 
ATOM     64  N   UNL A   1      46.919  30.713  28.307  1.00  0.00    -0.248 NA
ATOM     65  C   UNL A   1      49.116  30.524  27.542  1.00  0.00     0.031 C 
ATOM     66  C   UNL A   1      45.265  34.291  30.353  1.00  0.00     0.029 A 
ATOM     67  C   UNL A   1      45.807  33.193  29.702  1.00  0.00     0.049 A 
ATOM     68  H   UNL A   1      44.870  31.383  29.150  1.00  0.00     0.167 HD
ATOM     69  C   UNL A   1      47.608  31.882  28.611  1.00  0.00     0.074 A 
ATOM     70  C   UNL A   1      48.965  31.697  28.142  1.00  0.00     0.031 C 
ATOM     71  C   UNL A   1      47.156  33.003  29.228  1.00  0.00     0.037 A 
BRANCH  58  72
ATOM     72  C   UNL A   1      41.156  32.781  30.731  1.00  0.00     0.064 A 
ATOM     73  C   UNL A   1      40.504  33.818  30.043  1.00  0.00     0.173 A 
ATOM     74  C   UNL A   1      40.658  32.422  31.993  1.00  0.00     0.173 A 
ATOM     75  F   UNL A   1      40.945  34.212  28.838  1.00  0.00    -0.203 F 
ATOM     76  C   UNL A   1      39.434  34.500  30.618  1.00  0.00     0.198 A 
ATOM     77  C   UNL A   1      39.563  33.079  32.548  1.00  0.00     0.198 A 
ATOM     78  F   UNL A   1      41.236  31.435  32.693  1.00  0.00    -0.203 F 
ATOM     79  F   UNL A   1      38.879  35.537  29.975  1.00  0.00    -0.200 F 
ATOM     80  C   UNL A   1      38.962  34.128  31.867  1.00  0.00     0.200 A 
ATOM     81  F   UNL A   1      39.098  32.707  33.748  1.00  0.00    -0.200 F 
ATOM     82  F   UNL A   1      37.935  34.787  32.421  1.00  0.00    -0.200 F 
ENDBRANCH  58  72
BRANCH  59  83
ATOM     83  C   UNL A   1      48.697  27.812  26.492  1.00  0.00     0.064 A 
ATOM     84  C   UNL A   1      48.715  27.673  25.097  1.00  0.00     0.173 A 
ATOM     85  C   UNL A   1      49.769  27.267  27.215  1.00  0.00     0.173 A 
ATOM     86  F   UNL A   1      47.700  28.152  24.364  1.00  0.00    -0.203 F 
ATOM     87  C   UNL A   1      49.759  27.010  24.454  1.00  0.00     0.198 A 
ATOM     88  C   UNL A   1      50.827  26.631  26.568  1.00  0.00     0.198 A 
ATOM     89  F   UNL A   1      49.797  27.368  28.552  1.00  0.00    -0.203 F 
ATOM     90  F   UNL A   1      49.732  26.857  23.123  1.00  0.00    -0.200 F 
ATOM     91  C   UNL A   1      50.818  26.499  25.189  1.00  0.00     0.200 A 
ATOM     92  F   UNL A   1      51.854  26.150  27.282  1.00  0.00    -0.200 F 
ATOM     93  F   UNL A   1      51.828  25.874  24.567  1.00  0.00    -0.200 F 
ENDBRANCH  59  83
BRANCH  71  94
ATOM     94  C   UNL A   1      48.143  34.112  29.467  1.00  0.00     0.064 A 
ATOM     95  C   UNL A   1      48.938  34.164  30.622  1.00  0.00     0.173 A 
ATOM     96  C   UNL A   1      48.330  35.114  28.500  1.00  0.00     0.173 A 
ATOM     97  F   UNL A   1      48.794  33.240  31.583  1.00  0.00    -0.203 F 
ATOM     98  C   UNL A   1      49.861  35.191  30.812  1.00  0.00     0.198 A 
ATOM     99  C   UNL A   1      49.278  36.118  28.677  1.00  0.00     0.198 A 
ATOM    100  F   UNL A   1      47.604  35.108  27.371  1.00  0.00    -0.203 F 
ATOM    101  F   UNL A   1      50.572  35.248  31.947  1.00  0.00    -0.200 F 
ATOM    102  C   UNL A   1      50.036  36.161  29.837  1.00  0.00     0.200 A 
ATOM    103  F   UNL A   1      49.459  37.043  27.724  1.00  0.00    -0.200 F 
ATOM    104  F   UNL A   1      50.932  37.141  30.016  1.00  0.00    -0.200 F 
ENDBRANCH  71  94
ENDBRANCH  45  46
ENDBRANCH  38  40
ENDBRANCH  37  38
ENDBRANCH  36  37
ENDBRANCH  35  36
ENDBRANCH  34  35
ENDBRANCH  33  34
ENDBRANCH  32  33
ENDBRANCH  31  32
ENDBRANCH  30  31
ENDBRANCH   1  30
TORSDOF 26
ENDMDL
MODEL 3
REMARK VINA RESULT:      -9.3      3.280      9.800
REMARK SMILES CCCCCCNC(=O)Oc1cccc(-c2ccc([C@@H](C)C(=O)OCCOCCOCCOC(=O)c3ccc(-c4c5nc(c(-c6c(F)c(F)c(F)c(F)c6F)c6ccc([nH]6)c(-c6c(F)c(F)c(F)c(F)c6F)c6nc(c(-c7c(F)c(F)c(F)c(F)c7F)c7ccc4[nH]7)C=C6)C=C5)cc3)cc2)c1
REMARK SMILES IDX 25 1 24 2 22 3 23 4 20 5 21 6 19 7 16 8 17 9 100 10 18 11
REMARK SMILES IDX 99 12 15 13 11 14 12 15 101 16 13 17 14 18 10 19 8 20 7 21
REMARK SMILES IDX 9 23 6 24 5 25 4 26 3 27 2 28 1 29 26 30 27 31 28 32 29 33
REMARK SMILES IDX 30 34 31 35 32 36 33 37 34 38 35 39 36 40 37 41 98 42 38 43
REMARK SMILES IDX 97 44 39 45 40 46 41 47 91 48 42 49 96 50 90 51 92 52 43 53
REMARK SMILES IDX 95 54 89 55 88 56 44 58 76 59 56 60 75 61 57 62 60 63 74 64
REMARK SMILES IDX 93 65 58 66 59 67 73 69 94 70 61 71 45 72 46 73 54 74 47 75
REMARK SMILES IDX 48 76 52 77 55 78 49 79 50 80 53 81 51 82 77 83 78 84 86 85
REMARK SMILES IDX 79 86 80 87 84 88 87 89 81 90 82 91 85 92 83 93 62 94 63 95
REMARK SMILES IDX 71 96 64 97 65 98 69 99 72 100 66 101 67 102 70 103 68 104
REMARK H PARENT 7 22 92 57 60 68
REMARK Flexibility Score: inf
ROOT
ATOM      1  C   UNL A   1      34.056  33.228  28.270  1.00  0.00     0.261 C 
ENDROOT
BRANCH   1   2
ATOM      2  O   UNL A   1      33.633  31.862  28.493  1.00  0.00    -0.463 OA
BRANCH   2   3
ATOM      3  C   UNL A   1      34.014  30.948  27.566  1.00  0.00     0.313 C 
ATOM      4  O   UNL A   1      35.082  30.338  27.622  1.00  0.00    -0.252 OA
BRANCH   3   5
ATOM      5  C   UNL A   1      33.029  30.678  26.423  1.00  0.00     0.126 C 
ATOM      6  C   UNL A   1      31.627  31.075  26.881  1.00  0.00     0.025 C 
BRANCH   5   7
ATOM      7  C   UNL A   1      32.993  29.332  25.701  1.00  0.00    -0.034 A 
ATOM      8  C   UNL A   1      32.821  26.786  24.399  1.00  0.00    -0.018 A 
ATOM      9  C   UNL A   1      33.838  27.707  24.088  1.00  0.00     0.009 A 
ATOM     10  C   UNL A   1      31.897  27.156  25.384  1.00  0.00     0.009 A 
ATOM     11  C   UNL A   1      33.932  28.954  24.733  1.00  0.00     0.005 A 
ATOM     12  C   UNL A   1      31.986  28.400  26.028  1.00  0.00     0.005 A 
BRANCH   8  13
ATOM     13  C   UNL A   1      32.764  25.461  23.749  1.00  0.00    -0.015 A 
ATOM     14  C   UNL A   1      32.204  23.092  23.745  1.00  0.00     0.133 A 
ATOM     15  C   UNL A   1      32.716  22.942  22.457  1.00  0.00     0.047 A 
ATOM     16  C   UNL A   1      32.233  24.331  24.399  1.00  0.00     0.056 A 
ATOM     17  C   UNL A   1      33.247  24.050  21.804  1.00  0.00     0.004 A 
ATOM     18  C   UNL A   1      33.270  25.294  22.445  1.00  0.00     0.009 A 
BRANCH  14  19
ATOM     19  O   UNL A   1      31.771  21.923  24.393  1.00  0.00    -0.410 OA
BRANCH  19  20
ATOM     20  C   UNL A   1      31.394  22.034  25.722  1.00  0.00     0.412 C 
ATOM     21  N   UNL A   1      32.384  21.683  26.600  1.00  0.00    -0.321 N 
ATOM     22  H   UNL A   1      32.196  21.836  27.554  1.00  0.00     0.167 HD
ATOM     23  O   UNL A   1      30.290  22.383  26.132  1.00  0.00    -0.224 OA
BRANCH  21  24
ATOM     24  C   UNL A   1      33.680  21.110  26.283  1.00  0.00     0.119 C 
BRANCH  24  25
ATOM     25  C   UNL A   1      34.842  21.975  26.773  1.00  0.00     0.021 C 
BRANCH  25  26
ATOM     26  C   UNL A   1      34.713  23.473  26.471  1.00  0.00     0.002 C 
BRANCH  26  27
ATOM     27  C   UNL A   1      35.853  24.090  25.653  1.00  0.00    -0.000 C 
BRANCH  27  28
ATOM     28  C   UNL A   1      36.737  23.097  24.895  1.00  0.00    -0.003 C 
ATOM     29  C   UNL A   1      36.336  22.919  23.438  1.00  0.00     0.004 C 
ENDBRANCH  27  28
ENDBRANCH  26  27
ENDBRANCH  25  26
ENDBRANCH  24  25
ENDBRANCH  21  24
ENDBRANCH  19  20
ENDBRANCH  14  19
ENDBRANCH   8  13
ENDBRANCH   5   7
ENDBRANCH   3   5
ENDBRANCH   2   3
ENDBRANCH   1   2
BRANCH   1  30
ATOM     30  C   UNL A   1      32.944  34.223  27.894  1.00  0.00     0.202 C 
BRANCH  30  31
ATOM     31  O   UNL A   1      32.647  35.278  28.802  1.00  0.00    -0.376 OA
BRANCH  31  32
ATOM     32  C   UNL A   1      33.200  35.245  30.113  1.00  0.00     0.188 C 
BRANCH  32  33
ATOM     33  C   UNL A   1      32.678  36.212  31.186  1.00  0.00     0.188 C 
BRANCH  33  34
ATOM     34  O   UNL A   1      33.686  36.822  31.959  1.00  0.00    -0.376 OA
BRANCH  34  35
ATOM     35  C   UNL A   1      33.912  36.278  33.246  1.00  0.00     0.202 C 
BRANCH  35  36
ATOM     36  C   UNL A   1      35.159  35.389  33.341  1.00  0.00     0.261 C 
BRANCH  36  37
ATOM     37  O   UNL A   1      34.941  34.063  33.862  1.00  0.00    -0.460 OA
BRANCH  37  38
ATOM     38  C   UNL A   1      34.732  33.079  32.963  1.00  0.00     0.338 C 
ATOM     39  O   UNL A   1      33.656  32.680  32.537  1.00  0.00    -0.246 OA
BRANCH  38  40
ATOM     40  C   UNL A   1      36.033  32.677  32.392  1.00  0.00     0.060 A 
ATOM     41  C   UNL A   1      37.007  32.129  33.241  1.00  0.00     0.016 A 
ATOM     42  C   UNL A   1      36.305  32.862  31.035  1.00  0.00     0.016 A 
ATOM     43  C   UNL A   1      38.271  31.812  32.744  1.00  0.00     0.010 A 
ATOM     44  C   UNL A   1      37.577  32.559  30.542  1.00  0.00     0.010 A 
ATOM     45  C   UNL A   1      38.580  32.072  31.402  1.00  0.00    -0.014 A 
BRANCH  45  46
ATOM     46  C   UNL A   1      39.993  32.029  30.949  1.00  0.00     0.031 A 
ATOM     47  C   UNL A   1      40.478  30.803  30.225  1.00  0.00     0.074 A 
ATOM     48  C   UNL A   1      40.833  33.056  31.161  1.00  0.00     0.049 A 
ATOM     49  N   UNL A   1      41.673  30.516  29.770  1.00  0.00    -0.248 NA
ATOM     50  C   UNL A   1      39.477  29.751  29.990  1.00  0.00     0.031 C 
ATOM     51  C   UNL A   1      40.484  34.306  31.831  1.00  0.00     0.029 A 
ATOM     52  N   UNL A   1      42.162  33.198  30.846  1.00  0.00    -0.354 N 
ATOM     53  C   UNL A   1      41.567  29.252  29.206  1.00  0.00     0.074 A 
ATOM     54  C   UNL A   1      40.205  28.809  29.414  1.00  0.00     0.031 C 
ATOM     55  C   UNL A   1      41.580  35.083  31.896  1.00  0.00     0.029 A 
ATOM     56  C   UNL A   1      42.710  34.371  31.299  1.00  0.00     0.049 A 
ATOM     57  H   UNL A   1      42.672  32.524  30.342  1.00  0.00     0.167 HD
ATOM     58  C   UNL A   1      42.515  28.529  28.561  1.00  0.00     0.037 A 
ATOM     59  C   UNL A   1      43.985  34.808  31.264  1.00  0.00     0.037 A 
ATOM     60  C   UNL A   1      43.872  28.968  28.365  1.00  0.00     0.049 A 
ATOM     61  C   UNL A   1      45.042  33.966  30.595  1.00  0.00     0.074 A 
ATOM     62  C   UNL A   1      44.900  28.323  27.702  1.00  0.00     0.029 A 
ATOM     63  N   UNL A   1      44.394  30.159  28.851  1.00  0.00    -0.354 N 
ATOM     64  N   UNL A   1      44.928  32.791  30.022  1.00  0.00    -0.248 NA
ATOM     65  C   UNL A   1      46.405  34.517  30.558  1.00  0.00     0.031 C 
ATOM     66  C   UNL A   1      46.062  29.091  27.844  1.00  0.00     0.029 A 
ATOM     67  C   UNL A   1      45.741  30.252  28.531  1.00  0.00     0.049 A 
ATOM     68  H   UNL A   1      43.884  30.838  29.349  1.00  0.00     0.167 HD
ATOM     69  C   UNL A   1      46.191  32.474  29.537  1.00  0.00     0.074 A 
ATOM     70  C   UNL A   1      47.055  33.587  29.870  1.00  0.00     0.031 C 
ATOM     71  C   UNL A   1      46.595  31.363  28.871  1.00  0.00     0.037 A 
BRANCH  58  72
ATOM     72  C   UNL A   1      42.117  27.169  28.059  1.00  0.00     0.064 A 
ATOM     73  C   UNL A   1      41.452  26.994  26.834  1.00  0.00     0.173 A 
ATOM     74  C   UNL A   1      42.396  26.023  28.819  1.00  0.00     0.173 A 
ATOM     75  F   UNL A   1      41.148  28.056  26.072  1.00  0.00    -0.203 F 
ATOM     76  C   UNL A   1      41.037  25.732  26.416  1.00  0.00     0.198 A 
ATOM     77  C   UNL A   1      42.015  24.758  28.379  1.00  0.00     0.198 A 
ATOM     78  F   UNL A   1      43.035  26.128  29.994  1.00  0.00    -0.203 F 
ATOM     79  F   UNL A   1      40.335  25.600  25.281  1.00  0.00    -0.200 F 
ATOM     80  C   UNL A   1      41.322  24.615  27.186  1.00  0.00     0.200 A 
ATOM     81  F   UNL A   1      42.306  23.677  29.117  1.00  0.00    -0.200 F 
ATOM     82  F   UNL A   1      40.920  23.401  26.785  1.00  0.00    -0.200 F 
ENDBRANCH  58  72
BRANCH  59  83
ATOM     83  C   UNL A   1      44.329  36.108  31.896  1.00  0.00     0.064 A 
ATOM     84  C   UNL A   1      44.815  36.176  33.209  1.00  0.00     0.173 A 
ATOM     85  C   UNL A   1      44.194  37.313  31.188  1.00  0.00     0.173 A 
ATOM     86  F   UNL A   1      44.936  35.057  33.937  1.00  0.00    -0.203 F 
ATOM     87  C   UNL A   1      45.144  37.399  33.792  1.00  0.00     0.198 A 
ATOM     88  C   UNL A   1      44.551  38.531  31.761  1.00  0.00     0.198 A 
ATOM     89  F   UNL A   1      43.729  37.303  29.930  1.00  0.00    -0.203 F 
ATOM     90  F   UNL A   1      45.569  37.440  35.062  1.00  0.00    -0.200 F 
ATOM     91  C   UNL A   1      45.022  38.573  33.064  1.00  0.00     0.200 A 
ATOM     92  F   UNL A   1      44.444  39.661  31.049  1.00  0.00    -0.200 F 
ATOM     93  F   UNL A   1      45.352  39.747  33.621  1.00  0.00    -0.200 F 
ENDBRANCH  59  83
BRANCH  71  94
ATOM     94  C   UNL A   1      48.031  31.303  28.423  1.00  0.00     0.064 A 
ATOM     95  C   UNL A   1      48.477  31.964  27.269  1.00  0.00     0.173 A 
ATOM     96  C   UNL A   1      48.983  30.612  29.190  1.00  0.00     0.173 A 
ATOM     97  F   UNL A   1      47.609  32.630  26.493  1.00  0.00    -0.203 F 
ATOM     98  C   UNL A   1      49.816  31.910  26.884  1.00  0.00     0.198 A 
ATOM     99  C   UNL A   1      50.325  30.590  28.822  1.00  0.00     0.198 A 
ATOM    100  F   UNL A   1      48.614  29.969  30.309  1.00  0.00    -0.203 F 
ATOM    101  F   UNL A   1      50.209  32.507  25.750  1.00  0.00    -0.200 F 
ATOM    102  C   UNL A   1      50.739  31.233  27.665  1.00  0.00     0.200 A 
ATOM    103  F   UNL A   1      51.219  29.950  29.588  1.00  0.00    -0.200 F 
ATOM    104  F   UNL A   1      52.028  31.192  27.300  1.00  0.00    -0.200 F 
ENDBRANCH  71  94
ENDBRANCH  45  46
ENDBRANCH  38  40
ENDBRANCH  37  38
ENDBRANCH  36  37
ENDBRANCH  35  36
ENDBRANCH  34  35
ENDBRANCH  33  34
ENDBRANCH  32  33
ENDBRANCH  31  32
ENDBRANCH  30  31
ENDBRANCH   1  30
TORSDOF 26
ENDMDL
