MODEL 1
REMARK VINA RESULT:     -10.7      0.000      0.000
REMARK SMILES CC(C)C[C@@H]([NH2+][C@H]1CCOC2(CCOCC2)C1)C(=O)OCCOCCOCCOC(=O)c1ccc(-c2c3nc(c(-c4c(F)c(F)c(F)c(F)c4F)c4ccc([nH]4)c(-c4c(F)c(F)c(F)c(F)c4F)c4nc(c(-c5c(F)c(F)c(F)c(F)c5F)c5ccc2[nH]5)C=C4)C=C3)cc1
REMARK SMILES IDX 24 1 23 2 22 3 21 4 20 5 18 6 19 7 5 8 4 9 2 10 1 11 3 12
REMARK SMILES IDX 6 13 7 16 8 17 17 18 9 19 11 20 10 21 12 22 16 23 13 24
REMARK SMILES IDX 15 25 14 26 25 27 26 28 27 29 28 30 29 31 30 32 31 33 32 34
REMARK SMILES IDX 33 35 94 36 34 37 93 38 35 39 36 40 37 41 87 42 38 43 92 44
REMARK SMILES IDX 86 45 88 46 39 47 91 48 85 49 84 50 40 52 72 53 52 54 71 55
REMARK SMILES IDX 53 56 56 57 70 58 89 59 54 60 55 61 69 63 90 64 57 65 41 66
REMARK SMILES IDX 42 67 50 68 43 69 44 70 48 71 51 72 45 73 46 74 49 75 47 76
REMARK SMILES IDX 73 77 74 78 82 79 75 80 76 81 80 82 83 83 77 84 78 85 81 86
REMARK SMILES IDX 79 87 58 88 59 89 67 90 60 91 61 92 65 93 68 94 62 95 63 96
REMARK SMILES IDX 66 97 64 98
REMARK H PARENT 6 14 6 15 88 51 56 62
REMARK Flexibility Score: inf
ROOT
ATOM      1  C   UNL A   1      33.703  35.072  29.434  1.00  0.00     0.188 C 
ENDROOT
BRANCH   1   2
ATOM      2  O   UNL A   1      33.255  33.776  29.110  1.00  0.00    -0.376 OA
BRANCH   2   3
ATOM      3  C   UNL A   1      33.712  33.152  27.921  1.00  0.00     0.202 C 
BRANCH   3   4
ATOM      4  C   UNL A   1      34.022  31.657  27.823  1.00  0.00     0.261 C 
BRANCH   4   5
ATOM      5  O   UNL A   1      33.309  30.823  26.881  1.00  0.00    -0.459 OA
BRANCH   5   6
ATOM      6  C   UNL A   1      33.599  29.491  26.951  1.00  0.00     0.364 C 
ATOM      7  O   UNL A   1      34.317  28.994  27.819  1.00  0.00    -0.245 OA
BRANCH   6   8
ATOM      8  C   UNL A   1      33.061  28.605  25.812  1.00  0.00     0.293 C 
BRANCH   8   9
ATOM      9  C   UNL A   1      32.417  29.391  24.652  1.00  0.00     0.080 C 
BRANCH   9  10
ATOM     10  C   UNL A   1      31.979  28.551  23.423  1.00  0.00    -0.011 C 
ATOM     11  C   UNL A   1      30.653  29.003  22.797  1.00  0.00     0.007 C 
ATOM     12  C   UNL A   1      33.061  28.623  22.335  1.00  0.00     0.007 C 
ENDBRANCH   9  10
ENDBRANCH   8   9
BRANCH   8  13
ATOM     13  N   UNL A   1      34.046  27.549  25.391  1.00  0.00    -0.332 N 
ATOM     14  H   UNL A   1      34.948  27.740  25.829  1.00  0.00     0.347 HD
ATOM     15  H   UNL A   1      34.132  27.569  24.376  1.00  0.00     0.347 HD
BRANCH  13  16
ATOM     16  C   UNL A   1      33.584  26.200  25.801  1.00  0.00     0.188 C 
ATOM     17  C   UNL A   1      32.076  26.025  25.985  1.00  0.00     0.093 C 
ATOM     18  C   UNL A   1      33.978  25.163  24.748  1.00  0.00     0.100 C 
ATOM     19  C   UNL A   1      31.787  24.563  26.381  1.00  0.00     0.167 C 
ATOM     20  C   UNL A   1      33.789  23.734  25.281  1.00  0.00     0.078 C 
ATOM     21  O   UNL A   1      32.377  23.578  25.514  1.00  0.00    -0.374 OA
ATOM     22  C   UNL A   1      34.599  23.405  26.557  1.00  0.00     0.064 C 
ATOM     23  C   UNL A   1      34.242  22.767  24.165  1.00  0.00     0.064 C 
ATOM     24  C   UNL A   1      34.562  21.922  26.882  1.00  0.00     0.163 C 
ATOM     25  C   UNL A   1      34.309  21.318  24.623  1.00  0.00     0.163 C 
ATOM     26  O   UNL A   1      35.109  21.181  25.796  1.00  0.00    -0.381 OA
ENDBRANCH  13  16
ENDBRANCH   8  13
ENDBRANCH   6   8
ENDBRANCH   5   6
ENDBRANCH   4   5
ENDBRANCH   3   4
ENDBRANCH   2   3
ENDBRANCH   1   2
BRANCH   1  27
ATOM     27  C   UNL A   1      33.093  35.739  30.670  1.00  0.00     0.188 C 
BRANCH  27  28
ATOM     28  O   UNL A   1      33.903  36.394  31.617  1.00  0.00    -0.376 OA
BRANCH  28  29
ATOM     29  C   UNL A   1      34.011  35.839  32.916  1.00  0.00     0.202 C 
BRANCH  29  30
ATOM     30  C   UNL A   1      35.017  34.721  33.272  1.00  0.00     0.261 C 
BRANCH  30  31
ATOM     31  O   UNL A   1      35.698  34.052  32.199  1.00  0.00    -0.460 OA
BRANCH  31  32
ATOM     32  C   UNL A   1      35.314  32.776  31.931  1.00  0.00     0.338 C 
ATOM     33  O   UNL A   1      34.174  32.343  31.898  1.00  0.00    -0.246 OA
BRANCH  32  34
ATOM     34  C   UNL A   1      36.497  32.038  31.411  1.00  0.00     0.060 A 
ATOM     35  C   UNL A   1      37.316  31.338  32.319  1.00  0.00     0.016 A 
ATOM     36  C   UNL A   1      36.761  31.971  30.045  1.00  0.00     0.016 A 
ATOM     37  C   UNL A   1      38.378  30.554  31.861  1.00  0.00     0.010 A 
ATOM     38  C   UNL A   1      37.861  31.231  29.593  1.00  0.00     0.010 A 
ATOM     39  C   UNL A   1      38.681  30.526  30.496  1.00  0.00    -0.014 A 
BRANCH  39  40
ATOM     40  C   UNL A   1      39.946  29.918  30.014  1.00  0.00     0.031 A 
ATOM     41  C   UNL A   1      41.158  30.803  29.902  1.00  0.00     0.074 A 
ATOM     42  C   UNL A   1      40.020  28.627  29.644  1.00  0.00     0.049 A 
ATOM     43  N   UNL A   1      42.316  30.562  29.345  1.00  0.00    -0.248 NA
ATOM     44  C   UNL A   1      41.042  32.144  30.499  1.00  0.00     0.031 C 
ATOM     45  C   UNL A   1      38.942  27.649  29.760  1.00  0.00     0.029 A 
ATOM     46  N   UNL A   1      41.050  27.927  29.058  1.00  0.00    -0.354 N 
ATOM     47  C   UNL A   1      43.054  31.728  29.498  1.00  0.00     0.074 A 
ATOM     48  C   UNL A   1      42.218  32.675  30.201  1.00  0.00     0.031 C 
ATOM     49  C   UNL A   1      39.352  26.485  29.221  1.00  0.00     0.029 A 
ATOM     50  C   UNL A   1      40.701  26.653  28.680  1.00  0.00     0.049 A 
ATOM     51  H   UNL A   1      41.950  28.303  28.924  1.00  0.00     0.167 HD
ATOM     52  C   UNL A   1      44.315  31.984  29.080  1.00  0.00     0.037 A 
ATOM     53  C   UNL A   1      41.374  25.749  27.936  1.00  0.00     0.037 A 
ATOM     54  C   UNL A   1      45.151  31.037  28.392  1.00  0.00     0.049 A 
ATOM     55  C   UNL A   1      42.745  26.097  27.405  1.00  0.00     0.074 A 
ATOM     56  C   UNL A   1      46.461  31.192  27.973  1.00  0.00     0.029 A 
ATOM     57  N   UNL A   1      44.754  29.767  28.006  1.00  0.00    -0.354 N 
ATOM     58  N   UNL A   1      43.455  27.185  27.583  1.00  0.00    -0.248 NA
ATOM     59  C   UNL A   1      43.407  25.091  26.558  1.00  0.00     0.031 C 
ATOM     60  C   UNL A   1      46.835  30.041  27.276  1.00  0.00     0.029 A 
ATOM     61  C   UNL A   1      45.780  29.145  27.314  1.00  0.00     0.049 A 
ATOM     62  H   UNL A   1      43.875  29.368  28.197  1.00  0.00     0.167 HD
ATOM     63  C   UNL A   1      44.647  26.985  26.895  1.00  0.00     0.074 A 
ATOM     64  C   UNL A   1      44.577  25.662  26.314  1.00  0.00     0.031 C 
ATOM     65  C   UNL A   1      45.702  27.824  26.748  1.00  0.00     0.037 A 
BRANCH  52  66
ATOM     66  C   UNL A   1      44.870  33.356  29.317  1.00  0.00     0.064 A 
ATOM     67  C   UNL A   1      45.630  33.661  30.454  1.00  0.00     0.173 A 
ATOM     68  C   UNL A   1      44.712  34.353  28.342  1.00  0.00     0.173 A 
ATOM     69  F   UNL A   1      45.798  32.746  31.420  1.00  0.00    -0.203 F 
ATOM     70  C   UNL A   1      46.208  34.919  30.610  1.00  0.00     0.198 A 
ATOM     71  C   UNL A   1      45.313  35.600  28.489  1.00  0.00     0.198 A 
ATOM     72  F   UNL A   1      43.995  34.109  27.236  1.00  0.00    -0.203 F 
ATOM     73  F   UNL A   1      46.911  35.199  31.716  1.00  0.00    -0.200 F 
ATOM     74  C   UNL A   1      46.060  35.882  29.623  1.00  0.00     0.200 A 
ATOM     75  F   UNL A   1      45.180  36.523  27.526  1.00  0.00    -0.200 F 
ATOM     76  F   UNL A   1      46.637  37.083  29.763  1.00  0.00    -0.200 F 
ENDBRANCH  52  66
BRANCH  53  77
ATOM     77  C   UNL A   1      40.746  24.448  27.577  1.00  0.00     0.064 A 
ATOM     78  C   UNL A   1      41.252  23.236  28.068  1.00  0.00     0.173 A 
ATOM     79  C   UNL A   1      39.676  24.383  26.671  1.00  0.00     0.173 A 
ATOM     80  F   UNL A   1      42.297  23.239  28.909  1.00  0.00    -0.203 F 
ATOM     81  C   UNL A   1      40.734  22.012  27.644  1.00  0.00     0.198 A 
ATOM     82  C   UNL A   1      39.136  23.161  26.275  1.00  0.00     0.198 A 
ATOM     83  F   UNL A   1      39.159  25.510  26.158  1.00  0.00    -0.203 F 
ATOM     84  F   UNL A   1      41.286  20.869  28.074  1.00  0.00    -0.200 F 
ATOM     85  C   UNL A   1      39.674  21.976  26.752  1.00  0.00     0.200 A 
ATOM     86  F   UNL A   1      38.105  23.132  25.419  1.00  0.00    -0.200 F 
ATOM     87  F   UNL A   1      39.185  20.799  26.337  1.00  0.00    -0.200 F 
ENDBRANCH  53  77
BRANCH  65  88
ATOM     88  C   UNL A   1      46.880  27.335  25.954  1.00  0.00     0.064 A 
ATOM     89  C   UNL A   1      46.992  27.582  24.578  1.00  0.00     0.173 A 
ATOM     90  C   UNL A   1      47.937  26.664  26.588  1.00  0.00     0.173 A 
ATOM     91  F   UNL A   1      46.003  28.208  23.922  1.00  0.00    -0.203 F 
ATOM     92  C   UNL A   1      48.108  27.158  23.863  1.00  0.00     0.198 A 
ATOM     93  C   UNL A   1      49.066  26.271  25.875  1.00  0.00     0.198 A 
ATOM     94  F   UNL A   1      47.886  26.410  27.904  1.00  0.00    -0.203 F 
ATOM     95  F   UNL A   1      48.174  27.367  22.540  1.00  0.00    -0.200 F 
ATOM     96  C   UNL A   1      49.148  26.511  24.513  1.00  0.00     0.200 A 
ATOM     97  F   UNL A   1      50.079  25.663  26.510  1.00  0.00    -0.200 F 
ATOM     98  F   UNL A   1      50.229  26.116  23.825  1.00  0.00    -0.200 F 
ENDBRANCH  65  88
ENDBRANCH  39  40
ENDBRANCH  32  34
ENDBRANCH  31  32
ENDBRANCH  30  31
ENDBRANCH  29  30
ENDBRANCH  28  29
ENDBRANCH  27  28
ENDBRANCH   1  27
TORSDOF 21
ENDMDL
MODEL 2
REMARK VINA RESULT:     -10.4      1.476      2.435
REMARK SMILES CC(C)C[C@@H]([NH2+][C@H]1CCOC2(CCOCC2)C1)C(=O)OCCOCCOCCOC(=O)c1ccc(-c2c3nc(c(-c4c(F)c(F)c(F)c(F)c4F)c4ccc([nH]4)c(-c4c(F)c(F)c(F)c(F)c4F)c4nc(c(-c5c(F)c(F)c(F)c(F)c5F)c5ccc2[nH]5)C=C4)C=C3)cc1
REMARK SMILES IDX 24 1 23 2 22 3 21 4 20 5 18 6 19 7 5 8 4 9 2 10 1 11 3 12
REMARK SMILES IDX 6 13 7 16 8 17 17 18 9 19 11 20 10 21 12 22 16 23 13 24
REMARK SMILES IDX 15 25 14 26 25 27 26 28 27 29 28 30 29 31 30 32 31 33 32 34
REMARK SMILES IDX 33 35 94 36 34 37 93 38 35 39 36 40 37 41 87 42 38 43 92 44
REMARK SMILES IDX 86 45 88 46 39 47 91 48 85 49 84 50 40 52 72 53 52 54 71 55
REMARK SMILES IDX 53 56 56 57 70 58 89 59 54 60 55 61 69 63 90 64 57 65 41 66
REMARK SMILES IDX 42 67 50 68 43 69 44 70 48 71 51 72 45 73 46 74 49 75 47 76
REMARK SMILES IDX 73 77 74 78 82 79 75 80 76 81 80 82 83 83 77 84 78 85 81 86
REMARK SMILES IDX 79 87 58 88 59 89 67 90 60 91 61 92 65 93 68 94 62 95 63 96
REMARK SMILES IDX 66 97 64 98
REMARK H PARENT 6 14 6 15 88 51 56 62
REMARK Flexibility Score: inf
ROOT
ATOM      1  C   UNL A   1      33.964  29.891  27.668  1.00  0.00     0.188 C 
ENDROOT
BRANCH   1   2
ATOM      2  O   UNL A   1      33.379  28.897  26.858  1.00  0.00    -0.376 OA
BRANCH   2   3
ATOM      3  C   UNL A   1      33.726  28.815  25.486  1.00  0.00     0.202 C 
BRANCH   3   4
ATOM      4  C   UNL A   1      33.644  27.521  24.675  1.00  0.00     0.261 C 
BRANCH   4   5
ATOM      5  O   UNL A   1      33.703  27.558  23.230  1.00  0.00    -0.459 OA
BRANCH   5   6
ATOM      6  C   UNL A   1      33.271  26.425  22.604  1.00  0.00     0.364 C 
ATOM      7  O   UNL A   1      33.948  25.794  21.793  1.00  0.00    -0.245 OA
BRANCH   6   8
ATOM      8  C   UNL A   1      31.817  25.996  22.877  1.00  0.00     0.293 C 
BRANCH   8   9
ATOM      9  C   UNL A   1      30.758  26.999  22.376  1.00  0.00     0.080 C 
BRANCH   9  10
ATOM     10  C   UNL A   1      29.962  27.752  23.475  1.00  0.00    -0.011 C 
ATOM     11  C   UNL A   1      29.058  28.869  22.937  1.00  0.00     0.007 C 
ATOM     12  C   UNL A   1      29.076  26.759  24.243  1.00  0.00     0.007 C 
ENDBRANCH   9  10
ENDBRANCH   8   9
BRANCH   8  13
ATOM     13  N   UNL A   1      31.561  24.563  22.500  1.00  0.00    -0.332 N 
ATOM     14  H   UNL A   1      32.126  24.326  21.684  1.00  0.00     0.347 HD
ATOM     15  H   UNL A   1      30.569  24.453  22.290  1.00  0.00     0.347 HD
BRANCH  13  16
ATOM     16  C   UNL A   1      31.911  23.650  23.615  1.00  0.00     0.188 C 
ATOM     17  C   UNL A   1      30.980  23.669  24.828  1.00  0.00     0.093 C 
ATOM     18  C   UNL A   1      31.906  22.198  23.134  1.00  0.00     0.100 C 
ATOM     19  C   UNL A   1      31.486  22.645  25.864  1.00  0.00     0.167 C 
ATOM     20  C   UNL A   1      32.556  21.269  24.171  1.00  0.00     0.078 C 
ATOM     21  O   UNL A   1      31.718  21.325  25.339  1.00  0.00    -0.374 OA
ATOM     22  C   UNL A   1      34.021  21.617  24.525  1.00  0.00     0.064 C 
ATOM     23  C   UNL A   1      32.532  19.841  23.582  1.00  0.00     0.064 C 
ATOM     24  C   UNL A   1      34.675  20.525  25.355  1.00  0.00     0.163 C 
ATOM     25  C   UNL A   1      33.331  18.843  24.407  1.00  0.00     0.163 C 
ATOM     26  O   UNL A   1      34.664  19.301  24.627  1.00  0.00    -0.381 OA
ENDBRANCH  13  16
ENDBRANCH   8  13
ENDBRANCH   6   8
ENDBRANCH   5   6
ENDBRANCH   4   5
ENDBRANCH   3   4
ENDBRANCH   2   3
ENDBRANCH   1   2
BRANCH   1  27
ATOM     27  C   UNL A   1      33.435  31.320  27.520  1.00  0.00     0.188 C 
BRANCH  27  28
ATOM     28  O   UNL A   1      34.275  32.431  27.729  1.00  0.00    -0.376 OA
BRANCH  28  29
ATOM     29  C   UNL A   1      33.813  33.485  28.557  1.00  0.00     0.202 C 
BRANCH  29  30
ATOM     30  C   UNL A   1      34.217  33.627  30.042  1.00  0.00     0.261 C 
BRANCH  30  31
ATOM     31  O   UNL A   1      34.589  32.441  30.762  1.00  0.00    -0.460 OA
BRANCH  31  32
ATOM     32  C   UNL A   1      35.477  32.596  31.779  1.00  0.00     0.338 C 
ATOM     33  O   UNL A   1      35.224  32.884  32.937  1.00  0.00    -0.246 OA
BRANCH  32  34
ATOM     34  C   UNL A   1      36.798  32.085  31.320  1.00  0.00     0.060 A 
ATOM     35  C   UNL A   1      37.084  32.078  29.942  1.00  0.00     0.016 A 
ATOM     36  C   UNL A   1      37.772  31.685  32.233  1.00  0.00     0.016 A 
ATOM     37  C   UNL A   1      38.346  31.697  29.478  1.00  0.00     0.010 A 
ATOM     38  C   UNL A   1      39.017  31.251  31.763  1.00  0.00     0.010 A 
ATOM     39  C   UNL A   1      39.309  31.245  30.384  1.00  0.00    -0.014 A 
BRANCH  39  40
ATOM     40  C   UNL A   1      40.555  30.596  29.904  1.00  0.00     0.031 A 
ATOM     41  C   UNL A   1      41.768  31.461  29.699  1.00  0.00     0.074 A 
ATOM     42  C   UNL A   1      40.608  29.284  29.615  1.00  0.00     0.049 A 
ATOM     43  N   UNL A   1      42.907  31.175  29.123  1.00  0.00    -0.248 NA
ATOM     44  C   UNL A   1      41.681  32.838  30.212  1.00  0.00     0.031 C 
ATOM     45  C   UNL A   1      39.527  28.324  29.826  1.00  0.00     0.029 A 
ATOM     46  N   UNL A   1      41.615  28.538  29.045  1.00  0.00    -0.354 N 
ATOM     47  C   UNL A   1      43.658  32.341  29.179  1.00  0.00     0.074 A 
ATOM     48  C   UNL A   1      42.850  33.339  29.845  1.00  0.00     0.031 C 
ATOM     49  C   UNL A   1      39.912  27.124  29.351  1.00  0.00     0.029 A 
ATOM     50  C   UNL A   1      41.245  27.245  28.760  1.00  0.00     0.049 A 
ATOM     51  H   UNL A   1      42.512  28.897  28.860  1.00  0.00     0.167 HD
ATOM     52  C   UNL A   1      44.907  32.559  28.707  1.00  0.00     0.037 A 
ATOM     53  C   UNL A   1      41.888  26.290  28.055  1.00  0.00     0.037 A 
ATOM     54  C   UNL A   1      45.715  31.562  28.056  1.00  0.00     0.049 A 
ATOM     55  C   UNL A   1      43.245  26.591  27.462  1.00  0.00     0.074 A 
ATOM     56  C   UNL A   1      47.013  31.679  27.589  1.00  0.00     0.029 A 
ATOM     57  N   UNL A   1      45.297  30.274  27.765  1.00  0.00    -0.354 N 
ATOM     58  N   UNL A   1      43.968  27.682  27.548  1.00  0.00    -0.248 NA
ATOM     59  C   UNL A   1      43.873  25.527  26.661  1.00  0.00     0.031 C 
ATOM     60  C   UNL A   1      47.357  30.482  26.956  1.00  0.00     0.029 A 
ATOM     61  C   UNL A   1      46.297  29.599  27.084  1.00  0.00     0.049 A 
ATOM     62  H   UNL A   1      44.421  29.895  28.008  1.00  0.00     0.167 HD
ATOM     63  C   UNL A   1      45.136  27.427  26.838  1.00  0.00     0.074 A 
ATOM     64  C   UNL A   1      45.039  26.071  26.346  1.00  0.00     0.031 C 
ATOM     65  C   UNL A   1      46.192  28.245  26.606  1.00  0.00     0.037 A 
BRANCH  52  66
ATOM     66  C   UNL A   1      45.479  33.938  28.839  1.00  0.00     0.064 A 
ATOM     67  C   UNL A   1      46.268  34.311  29.935  1.00  0.00     0.173 A 
ATOM     68  C   UNL A   1      45.306  34.869  27.803  1.00  0.00     0.173 A 
ATOM     69  F   UNL A   1      46.452  33.460  30.956  1.00  0.00    -0.203 F 
ATOM     70  C   UNL A   1      46.860  35.570  29.993  1.00  0.00     0.198 A 
ATOM     71  C   UNL A   1      45.920  36.117  27.852  1.00  0.00     0.198 A 
ATOM     72  F   UNL A   1      44.561  34.559  26.733  1.00  0.00    -0.203 F 
ATOM     73  F   UNL A   1      47.592  35.917  31.060  1.00  0.00    -0.200 F 
ATOM     74  C   UNL A   1      46.696  36.467  28.947  1.00  0.00     0.200 A 
ATOM     75  F   UNL A   1      45.772  36.975  26.833  1.00  0.00    -0.200 F 
ATOM     76  F   UNL A   1      47.287  37.669  28.993  1.00  0.00    -0.200 F 
ENDBRANCH  52  66
BRANCH  53  77
ATOM     77  C   UNL A   1      41.240  24.974  27.800  1.00  0.00     0.064 A 
ATOM     78  C   UNL A   1      41.740  23.794  28.369  1.00  0.00     0.173 A 
ATOM     79  C   UNL A   1      40.156  24.858  26.916  1.00  0.00     0.173 A 
ATOM     80  F   UNL A   1      42.798  23.845  29.193  1.00  0.00    -0.203 F 
ATOM     81  C   UNL A   1      41.202  22.550  28.042  1.00  0.00     0.198 A 
ATOM     82  C   UNL A   1      39.596  23.617  26.617  1.00  0.00     0.198 A 
ATOM     83  F   UNL A   1      39.644  25.952  26.331  1.00  0.00    -0.203 F 
ATOM     84  F   UNL A   1      41.748  21.434  28.545  1.00  0.00    -0.200 F 
ATOM     85  C   UNL A   1      40.128  22.463  27.170  1.00  0.00     0.200 A 
ATOM     86  F   UNL A   1      38.553  23.539  25.780  1.00  0.00    -0.200 F 
ATOM     87  F   UNL A   1      39.620  21.265  26.847  1.00  0.00    -0.200 F 
ENDBRANCH  53  77
BRANCH  65  88
ATOM     88  C   UNL A   1      47.341  27.696  25.809  1.00  0.00     0.064 A 
ATOM     89  C   UNL A   1      47.370  27.777  24.410  1.00  0.00     0.173 A 
ATOM     90  C   UNL A   1      48.454  27.137  26.457  1.00  0.00     0.173 A 
ATOM     91  F   UNL A   1      46.327  28.291  23.741  1.00  0.00    -0.203 F 
ATOM     92  C   UNL A   1      48.461  27.300  23.687  1.00  0.00     0.198 A 
ATOM     93  C   UNL A   1      49.556  26.691  25.733  1.00  0.00     0.198 A 
ATOM     94  F   UNL A   1      48.483  27.044  27.795  1.00  0.00    -0.203 F 
ATOM     95  F   UNL A   1      48.447  27.348  22.348  1.00  0.00    -0.200 F 
ATOM     96  C   UNL A   1      49.556  26.766  24.349  1.00  0.00     0.200 A 
ATOM     97  F   UNL A   1      50.621  26.193  26.376  1.00  0.00    -0.200 F 
ATOM     98  F   UNL A   1      50.611  26.321  23.652  1.00  0.00    -0.200 F 
ENDBRANCH  65  88
ENDBRANCH  39  40
ENDBRANCH  32  34
ENDBRANCH  31  32
ENDBRANCH  30  31
ENDBRANCH  29  30
ENDBRANCH  28  29
ENDBRANCH  27  28
ENDBRANCH   1  27
TORSDOF 21
ENDMDL
MODEL 3
REMARK VINA RESULT:     -10.4      1.458      2.150
REMARK SMILES CC(C)C[C@@H]([NH2+][C@H]1CCOC2(CCOCC2)C1)C(=O)OCCOCCOCCOC(=O)c1ccc(-c2c3nc(c(-c4c(F)c(F)c(F)c(F)c4F)c4ccc([nH]4)c(-c4c(F)c(F)c(F)c(F)c4F)c4nc(c(-c5c(F)c(F)c(F)c(F)c5F)c5ccc2[nH]5)C=C4)C=C3)cc1
REMARK SMILES IDX 24 1 23 2 22 3 21 4 20 5 18 6 19 7 5 8 4 9 2 10 1 11 3 12
REMARK SMILES IDX 6 13 7 16 8 17 17 18 9 19 11 20 10 21 12 22 16 23 13 24
REMARK SMILES IDX 15 25 14 26 25 27 26 28 27 29 28 30 29 31 30 32 31 33 32 34
REMARK SMILES IDX 33 35 94 36 34 37 93 38 35 39 36 40 37 41 87 42 38 43 92 44
REMARK SMILES IDX 86 45 88 46 39 47 91 48 85 49 84 50 40 52 72 53 52 54 71 55
REMARK SMILES IDX 53 56 56 57 70 58 89 59 54 60 55 61 69 63 90 64 57 65 41 66
REMARK SMILES IDX 42 67 50 68 43 69 44 70 48 71 51 72 45 73 46 74 49 75 47 76
REMARK SMILES IDX 73 77 74 78 82 79 75 80 76 81 80 82 83 83 77 84 78 85 81 86
REMARK SMILES IDX 79 87 58 88 59 89 67 90 60 91 61 92 65 93 68 94 62 95 63 96
REMARK SMILES IDX 66 97 64 98
REMARK H PARENT 6 14 6 15 88 51 56 62
REMARK Flexibility Score: inf
ROOT
ATOM      1  C   UNL A   1      33.727  35.305  30.044  1.00  0.00     0.188 C 
ENDROOT
BRANCH   1   2
ATOM      2  O   UNL A   1      32.785  34.464  29.420  1.00  0.00    -0.376 OA
BRANCH   2   3
ATOM      3  C   UNL A   1      32.576  34.559  28.020  1.00  0.00     0.202 C 
BRANCH   3   4
ATOM      4  C   UNL A   1      32.631  33.355  27.080  1.00  0.00     0.261 C 
BRANCH   4   5
ATOM      5  O   UNL A   1      32.099  32.076  27.498  1.00  0.00    -0.459 OA
BRANCH   5   6
ATOM      6  C   UNL A   1      32.903  31.003  27.244  1.00  0.00     0.364 C 
ATOM      7  O   UNL A   1      34.056  30.900  27.662  1.00  0.00    -0.245 OA
BRANCH   6   8
ATOM      8  C   UNL A   1      32.339  29.925  26.300  1.00  0.00     0.293 C 
BRANCH   8   9
ATOM      9  C   UNL A   1      31.758  28.693  27.023  1.00  0.00     0.080 C 
BRANCH   9  10
ATOM     10  C   UNL A   1      32.682  27.449  27.096  1.00  0.00    -0.011 C 
ATOM     11  C   UNL A   1      31.986  26.131  26.730  1.00  0.00     0.007 C 
ATOM     12  C   UNL A   1      33.873  27.633  26.143  1.00  0.00     0.007 C 
ENDBRANCH   9  10
ENDBRANCH   8   9
BRANCH   8  13
ATOM     13  N   UNL A   1      31.457  30.504  25.228  1.00  0.00    -0.332 N 
ATOM     14  H   UNL A   1      32.005  31.148  24.657  1.00  0.00     0.347 HD
ATOM     15  H   UNL A   1      30.682  30.996  25.674  1.00  0.00     0.347 HD
BRANCH  13  16
ATOM     16  C   UNL A   1      30.903  29.436  24.361  1.00  0.00     0.188 C 
ATOM     17  C   UNL A   1      29.778  29.847  23.410  1.00  0.00     0.093 C 
ATOM     18  C   UNL A   1      31.998  28.866  23.458  1.00  0.00     0.100 C 
ATOM     19  C   UNL A   1      29.353  28.620  22.578  1.00  0.00     0.167 C 
ATOM     20  C   UNL A   1      31.534  27.568  22.778  1.00  0.00     0.078 C 
ATOM     21  O   UNL A   1      30.436  27.934  21.923  1.00  0.00    -0.374 OA
ATOM     22  C   UNL A   1      31.125  26.438  23.751  1.00  0.00     0.064 C 
ATOM     23  C   UNL A   1      32.713  27.057  21.920  1.00  0.00     0.064 C 
ATOM     24  C   UNL A   1      30.920  25.118  23.027  1.00  0.00     0.163 C 
ATOM     25  C   UNL A   1      32.476  25.666  21.350  1.00  0.00     0.163 C 
ATOM     26  O   UNL A   1      32.128  24.738  22.376  1.00  0.00    -0.381 OA
ENDBRANCH  13  16
ENDBRANCH   8  13
ENDBRANCH   6   8
ENDBRANCH   5   6
ENDBRANCH   4   5
ENDBRANCH   3   4
ENDBRANCH   2   3
ENDBRANCH   1   2
BRANCH   1  27
ATOM     27  C   UNL A   1      33.362  35.875  31.417  1.00  0.00     0.188 C 
BRANCH  27  28
ATOM     28  O   UNL A   1      34.333  36.021  32.426  1.00  0.00    -0.376 OA
BRANCH  28  29
ATOM     29  C   UNL A   1      34.205  35.250  33.608  1.00  0.00     0.202 C 
BRANCH  29  30
ATOM     30  C   UNL A   1      34.899  33.883  33.800  1.00  0.00     0.261 C 
BRANCH  30  31
ATOM     31  O   UNL A   1      35.822  33.441  32.792  1.00  0.00    -0.460 OA
BRANCH  31  32
ATOM     32  C   UNL A   1      35.397  32.451  31.964  1.00  0.00     0.338 C 
ATOM     33  O   UNL A   1      34.265  32.284  31.539  1.00  0.00    -0.246 OA
BRANCH  32  34
ATOM     34  C   UNL A   1      36.595  31.750  31.429  1.00  0.00     0.060 A 
ATOM     35  C   UNL A   1      37.476  31.122  32.331  1.00  0.00     0.016 A 
ATOM     36  C   UNL A   1      36.817  31.645  30.057  1.00  0.00     0.016 A 
ATOM     37  C   UNL A   1      38.558  30.372  31.864  1.00  0.00     0.010 A 
ATOM     38  C   UNL A   1      37.934  30.940  29.593  1.00  0.00     0.010 A 
ATOM     39  C   UNL A   1      38.816  30.308  30.492  1.00  0.00    -0.014 A 
BRANCH  39  40
ATOM     40  C   UNL A   1      40.092  29.742  29.987  1.00  0.00     0.031 A 
ATOM     41  C   UNL A   1      41.264  30.671  29.828  1.00  0.00     0.074 A 
ATOM     42  C   UNL A   1      40.208  28.448  29.638  1.00  0.00     0.049 A 
ATOM     43  N   UNL A   1      42.416  30.467  29.245  1.00  0.00    -0.248 NA
ATOM     44  C   UNL A   1      41.110  32.017  30.405  1.00  0.00     0.031 C 
ATOM     45  C   UNL A   1      39.174  27.430  29.799  1.00  0.00     0.029 A 
ATOM     46  N   UNL A   1      41.250  27.779  29.038  1.00  0.00    -0.354 N 
ATOM     47  C   UNL A   1      43.111  31.663  29.359  1.00  0.00     0.074 A 
ATOM     48  C   UNL A   1      42.256  32.589  30.066  1.00  0.00     0.031 C 
ATOM     49  C   UNL A   1      39.616  26.273  29.270  1.00  0.00     0.029 A 
ATOM     50  C   UNL A   1      40.943  26.485  28.691  1.00  0.00     0.049 A 
ATOM     51  H   UNL A   1      42.130  28.187  28.874  1.00  0.00     0.167 HD
ATOM     52  C   UNL A   1      44.350  31.961  28.903  1.00  0.00     0.037 A 
ATOM     53  C   UNL A   1      41.632  25.595  27.946  1.00  0.00     0.037 A 
ATOM     54  C   UNL A   1      45.205  31.035  28.210  1.00  0.00     0.049 A 
ATOM     55  C   UNL A   1      42.975  25.986  27.373  1.00  0.00     0.074 A 
ATOM     56  C   UNL A   1      46.497  31.235  27.755  1.00  0.00     0.029 A 
ATOM     57  N   UNL A   1      44.849  29.744  27.857  1.00  0.00    -0.354 N 
ATOM     58  N   UNL A   1      43.645  27.105  27.513  1.00  0.00    -0.248 NA
ATOM     59  C   UNL A   1      43.654  24.992  26.526  1.00  0.00     0.031 C 
ATOM     60  C   UNL A   1      46.899  30.086  27.068  1.00  0.00     0.029 A 
ATOM     61  C   UNL A   1      45.881  29.150  27.149  1.00  0.00     0.049 A 
ATOM     62  H   UNL A   1      43.992  29.313  28.078  1.00  0.00     0.167 HD
ATOM     63  C   UNL A   1      44.825  26.939  26.798  1.00  0.00     0.074 A 
ATOM     64  C   UNL A   1      44.794  25.605  26.242  1.00  0.00     0.031 C 
ATOM     65  C   UNL A   1      45.842  27.816  26.609  1.00  0.00     0.037 A 
BRANCH  52  66
ATOM     66  C   UNL A   1      44.856  33.358  29.102  1.00  0.00     0.064 A 
ATOM     67  C   UNL A   1      45.639  33.712  30.208  1.00  0.00     0.173 A 
ATOM     68  C   UNL A   1      44.624  34.333  28.119  1.00  0.00     0.173 A 
ATOM     69  F   UNL A   1      45.877  32.819  31.181  1.00  0.00    -0.203 F 
ATOM     70  C   UNL A   1      46.170  34.994  30.326  1.00  0.00     0.198 A 
ATOM     71  C   UNL A   1      45.177  35.605  28.227  1.00  0.00     0.198 A 
ATOM     72  F   UNL A   1      43.882  34.042  27.041  1.00  0.00    -0.203 F 
ATOM     73  F   UNL A   1      46.897  35.320  31.403  1.00  0.00    -0.200 F 
ATOM     74  C   UNL A   1      45.949  35.935  29.331  1.00  0.00     0.200 A 
ATOM     75  F   UNL A   1      44.975  36.507  27.256  1.00  0.00    -0.200 F 
ATOM     76  F   UNL A   1      46.481  37.161  29.435  1.00  0.00    -0.200 F 
ENDBRANCH  52  66
BRANCH  53  77
ATOM     77  C   UNL A   1      41.048  24.263  27.626  1.00  0.00     0.064 A 
ATOM     78  C   UNL A   1      41.584  23.085  28.164  1.00  0.00     0.173 A 
ATOM     79  C   UNL A   1      39.990  24.135  26.712  1.00  0.00     0.173 A 
ATOM     80  F   UNL A   1      42.620  23.149  29.015  1.00  0.00    -0.203 F 
ATOM     81  C   UNL A   1      41.109  21.832  27.777  1.00  0.00     0.198 A 
ATOM     82  C   UNL A   1      39.492  22.883  26.354  1.00  0.00     0.198 A 
ATOM     83  F   UNL A   1      39.445  25.227  26.155  1.00  0.00    -0.203 F 
ATOM     84  F   UNL A   1      41.691  20.722  28.253  1.00  0.00    -0.200 F 
ATOM     85  C   UNL A   1      40.060  21.733  26.876  1.00  0.00     0.200 A 
ATOM     86  F   UNL A   1      38.472  22.793  25.488  1.00  0.00    -0.200 F 
ATOM     87  F   UNL A   1      39.612  20.528  26.498  1.00  0.00    -0.200 F 
ENDBRANCH  53  77
BRANCH  65  88
ATOM     88  C   UNL A   1      47.018  27.360  25.792  1.00  0.00     0.064 A 
ATOM     89  C   UNL A   1      47.097  27.609  24.415  1.00  0.00     0.173 A 
ATOM     90  C   UNL A   1      48.105  26.720  26.407  1.00  0.00     0.173 A 
ATOM     91  F   UNL A   1      46.079  28.206  23.777  1.00  0.00    -0.203 F 
ATOM     92  C   UNL A   1      48.211  27.215  23.679  1.00  0.00     0.198 A 
ATOM     93  C   UNL A   1      49.232  26.357  25.673  1.00  0.00     0.198 A 
ATOM     94  F   UNL A   1      48.087  26.466  27.724  1.00  0.00    -0.203 F 
ATOM     95  F   UNL A   1      48.246  27.424  22.355  1.00  0.00    -0.200 F 
ATOM     96  C   UNL A   1      49.281  26.599  24.310  1.00  0.00     0.200 A 
ATOM     97  F   UNL A   1      50.273  25.779  26.289  1.00  0.00    -0.200 F 
ATOM     98  F   UNL A   1      50.359  26.234  23.601  1.00  0.00    -0.200 F 
ENDBRANCH  65  88
ENDBRANCH  39  40
ENDBRANCH  32  34
ENDBRANCH  31  32
ENDBRANCH  30  31
ENDBRANCH  29  30
ENDBRANCH  28  29
ENDBRANCH  27  28
ENDBRANCH   1  27
TORSDOF 21
ENDMDL
