MODEL 1
REMARK VINA RESULT:      -9.3      0.000      0.000
REMARK SMILES C[C@H](C(=O)OCCOCCOCCOC(=O)c1ccc(-c2c3nc(c(-c4c(F)c(F)c(F)c(F)c4F)c4ccc([nH]4)c(-c4c(F)c(F)c(F)c(F)c4F)c4nc(c(-c5c(F)c(F)c(F)c(F)c5F)c5ccc2[nH]5)C=C4)C=C3)cc1)c1ccc(C[C@@H]2CCC[C@H]2O)cc1
REMARK SMILES IDX 9 1 8 2 7 3 6 4 5 5 3 6 4 7 2 8 1 9 80 10 81 11 92 12 82 13
REMARK SMILES IDX 91 14 83 15 84 16 85 17 86 18 89 19 87 20 88 21 90 22 10 24
REMARK SMILES IDX 11 25 12 26 13 27 14 28 15 29 16 30 17 31 18 32 79 33 19 34
REMARK SMILES IDX 78 35 20 36 21 37 22 38 72 39 23 40 77 41 71 42 73 43 24 44
REMARK SMILES IDX 76 45 70 46 69 47 25 49 57 50 37 51 56 52 38 53 41 54 55 55
REMARK SMILES IDX 74 56 39 57 40 58 54 60 75 61 42 62 26 63 27 64 35 65 28 66
REMARK SMILES IDX 29 67 33 68 36 69 30 70 31 71 34 72 32 73 58 74 59 75 67 76
REMARK SMILES IDX 60 77 61 78 65 79 68 80 62 81 63 82 66 83 64 84 43 85 44 86
REMARK SMILES IDX 52 87 45 88 46 89 50 90 53 91 47 92 48 93 51 94 49 95
REMARK H PARENT 90 23 73 48 41 59
REMARK Flexibility Score: inf
ROOT
ATOM      1  C   UNL A   1      44.527  19.113  24.727  1.00  0.00     0.188 C 
ENDROOT
BRANCH   1   2
ATOM      2  O   UNL A   1      43.519  18.324  25.311  1.00  0.00    -0.376 OA
BRANCH   2   3
ATOM      3  C   UNL A   1      42.343  18.964  25.771  1.00  0.00     0.202 C 
BRANCH   3   4
ATOM      4  C   UNL A   1      42.286  20.344  26.477  1.00  0.00     0.261 C 
BRANCH   4   5
ATOM      5  O   UNL A   1      41.769  21.483  25.771  1.00  0.00    -0.463 OA
BRANCH   5   6
ATOM      6  C   UNL A   1      42.543  22.605  25.678  1.00  0.00     0.313 C 
ATOM      7  O   UNL A   1      43.030  23.018  24.634  1.00  0.00    -0.252 OA
BRANCH   6   8
ATOM      8  C   UNL A   1      42.694  23.260  27.062  1.00  0.00     0.126 C 
ATOM      9  C   UNL A   1      44.166  23.323  27.454  1.00  0.00     0.025 C 
BRANCH   8  10
ATOM     10  C   UNL A   1      42.051  24.634  27.216  1.00  0.00    -0.034 A 
ATOM     11  C   UNL A   1      41.458  25.269  26.111  1.00  0.00     0.005 A 
ATOM     12  C   UNL A   1      41.968  25.266  28.465  1.00  0.00     0.005 A 
ATOM     13  C   UNL A   1      40.881  26.536  26.239  1.00  0.00     0.004 A 
ATOM     14  C   UNL A   1      41.420  26.542  28.590  1.00  0.00     0.004 A 
ATOM     15  C   UNL A   1      40.945  27.216  27.461  1.00  0.00    -0.048 A 
BRANCH  15  16
ATOM     16  C   UNL A   1      40.726  28.706  27.536  1.00  0.00     0.041 C 
BRANCH  16  17
ATOM     17  C   UNL A   1      39.839  29.188  28.743  1.00  0.00     0.022 C 
ATOM     18  C   UNL A   1      37.998  29.658  28.183  1.00  0.00     0.007 C 
ATOM     19  C   UNL A   1      40.623  30.601  29.867  1.00  0.00     0.117 C 
ATOM     20  C   UNL A   1      37.464  31.395  29.071  1.00  0.00     0.003 C 
ATOM     21  C   UNL A   1      39.238  31.959  30.271  1.00  0.00     0.032 C 
BRANCH  19  22
ATOM     22  O   UNL A   1      41.371  30.407  31.030  1.00  0.00    -0.393 OA
ATOM     23  H   UNL A   1      42.243  30.819  30.925  1.00  0.00     0.210 HD
ENDBRANCH  19  22
ENDBRANCH  16  17
ENDBRANCH  15  16
ENDBRANCH   8  10
ENDBRANCH   6   8
ENDBRANCH   5   6
ENDBRANCH   4   5
ENDBRANCH   3   4
ENDBRANCH   2   3
ENDBRANCH   1   2
BRANCH   1  24
ATOM     24  C   UNL A   1      45.908  18.994  25.380  1.00  0.00     0.188 C 
BRANCH  24  25
ATOM     25  O   UNL A   1      46.745  20.067  25.001  1.00  0.00    -0.376 OA
BRANCH  25  26
ATOM     26  C   UNL A   1      46.106  21.333  24.887  1.00  0.00     0.202 C 
BRANCH  26  27
ATOM     27  C   UNL A   1      46.709  22.505  24.062  1.00  0.00     0.261 C 
BRANCH  27  28
ATOM     28  O   UNL A   1      46.182  23.840  24.252  1.00  0.00    -0.460 OA
BRANCH  28  29
ATOM     29  C   UNL A   1      47.026  24.892  24.407  1.00  0.00     0.338 C 
ATOM     30  O   UNL A   1      47.903  25.250  23.644  1.00  0.00    -0.246 OA
BRANCH  29  31
ATOM     31  C   UNL A   1      46.540  25.687  25.568  1.00  0.00     0.060 A 
ATOM     32  C   UNL A   1      47.745  26.072  26.636  1.00  0.00     0.016 A 
ATOM     33  C   UNL A   1      44.973  26.369  25.622  1.00  0.00     0.016 A 
ATOM     34  C   UNL A   1      47.385  27.238  27.850  1.00  0.00     0.010 A 
ATOM     35  C   UNL A   1      44.428  27.549  26.767  1.00  0.00     0.010 A 
ATOM     36  C   UNL A   1      45.581  28.118  27.992  1.00  0.00    -0.014 A 
BRANCH  36  37
ATOM     37  C   UNL A   1      44.665  29.088  29.048  1.00  0.00     0.031 A 
ATOM     38  C   UNL A   1      44.301  28.503  30.425  1.00  0.00     0.074 A 
ATOM     39  C   UNL A   1      44.276  30.401  28.906  1.00  0.00     0.049 A 
ATOM     40  N   UNL A   1      43.992  29.123  31.543  1.00  0.00    -0.248 NA
ATOM     41  C   UNL A   1      44.309  27.046  30.578  1.00  0.00     0.031 C 
ATOM     42  C   UNL A   1      44.327  31.191  27.702  1.00  0.00     0.029 A 
ATOM     43  N   UNL A   1      43.987  31.396  29.837  1.00  0.00    -0.354 N 
ATOM     44  C   UNL A   1      43.869  28.134  32.515  1.00  0.00     0.074 A 
ATOM     45  C   UNL A   1      44.133  26.874  31.875  1.00  0.00     0.031 C 
ATOM     46  C   UNL A   1      44.536  32.484  27.957  1.00  0.00     0.029 A 
ATOM     47  C   UNL A   1      44.105  32.687  29.320  1.00  0.00     0.049 A 
ATOM     48  H   UNL A   1      43.723  31.207  30.766  1.00  0.00     0.167 HD
ATOM     49  C   UNL A   1      43.510  28.229  33.816  1.00  0.00     0.037 A 
ATOM     50  C   UNL A   1      43.751  33.912  29.766  1.00  0.00     0.037 A 
ATOM     51  C   UNL A   1      43.029  29.438  34.420  1.00  0.00     0.049 A 
ATOM     52  C   UNL A   1      43.148  33.978  31.124  1.00  0.00     0.074 A 
ATOM     53  C   UNL A   1      42.521  29.624  35.693  1.00  0.00     0.029 A 
ATOM     54  N   UNL A   1      42.926  30.657  33.764  1.00  0.00    -0.354 N 
ATOM     55  N   UNL A   1      43.047  33.013  32.001  1.00  0.00    -0.248 NA
ATOM     56  C   UNL A   1      42.577  35.259  31.546  1.00  0.00     0.031 C 
ATOM     57  C   UNL A   1      42.031  30.930  35.776  1.00  0.00     0.029 A 
ATOM     58  C   UNL A   1      42.321  31.587  34.592  1.00  0.00     0.049 A 
ATOM     59  H   UNL A   1      43.239  30.834  32.847  1.00  0.00     0.167 HD
ATOM     60  C   UNL A   1      42.410  33.567  33.091  1.00  0.00     0.074 A 
ATOM     61  C   UNL A   1      42.167  34.962  32.771  1.00  0.00     0.031 C 
ATOM     62  C   UNL A   1      42.068  32.964  34.252  1.00  0.00     0.037 A 
BRANCH  49  63
ATOM     63  C   UNL A   1      43.500  26.952  34.616  1.00  0.00     0.064 A 
ATOM     64  C   UNL A   1      44.678  26.414  35.166  1.00  0.00     0.173 A 
ATOM     65  C   UNL A   1      42.312  26.228  34.789  1.00  0.00     0.173 A 
ATOM     66  F   UNL A   1      45.851  27.043  34.996  1.00  0.00    -0.203 F 
ATOM     67  C   UNL A   1      44.663  25.192  35.838  1.00  0.00     0.198 A 
ATOM     68  C   UNL A   1      42.296  25.022  35.486  1.00  0.00     0.198 A 
ATOM     69  F   UNL A   1      41.163  26.681  34.264  1.00  0.00    -0.203 F 
ATOM     70  F   UNL A   1      45.808  24.668  36.299  1.00  0.00    -0.200 F 
ATOM     71  C   UNL A   1      43.474  24.501  36.002  1.00  0.00     0.200 A 
ATOM     72  F   UNL A   1      41.145  24.354  35.641  1.00  0.00    -0.200 F 
ATOM     73  F   UNL A   1      43.463  23.322  36.639  1.00  0.00    -0.200 F 
ENDBRANCH  49  63
BRANCH  50  74
ATOM     74  C   UNL A   1      43.752  35.104  28.845  1.00  0.00     0.064 A 
ATOM     75  C   UNL A   1      42.590  35.599  28.237  1.00  0.00     0.173 A 
ATOM     76  C   UNL A   1      44.952  35.791  28.566  1.00  0.00     0.173 A 
ATOM     77  F   UNL A   1      41.420  34.966  28.408  1.00  0.00    -0.203 F 
ATOM     78  C   UNL A   1      42.624  36.740  27.424  1.00  0.00     0.198 A 
ATOM     79  C   UNL A   1      44.977  36.955  27.800  1.00  0.00     0.198 A 
ATOM     80  F   UNL A   1      46.111  35.357  29.085  1.00  0.00    -0.203 F 
ATOM     81  F   UNL A   1      41.503  37.171  26.829  1.00  0.00    -0.200 F 
ATOM     82  C   UNL A   1      43.812  37.428  27.224  1.00  0.00     0.200 A 
ATOM     83  F   UNL A   1      46.128  37.623  27.635  1.00  0.00    -0.200 F 
ATOM     84  F   UNL A   1      43.836  38.537  26.471  1.00  0.00    -0.200 F 
ENDBRANCH  50  74
BRANCH  62  85
ATOM     85  C   UNL A   1      41.454  33.842  35.288  1.00  0.00     0.064 A 
ATOM     86  C   UNL A   1      42.225  34.674  36.110  1.00  0.00     0.173 A 
ATOM     87  C   UNL A   1      40.064  33.829  35.465  1.00  0.00     0.173 A 
ATOM     88  F   UNL A   1      43.561  34.694  35.989  1.00  0.00    -0.203 F 
ATOM     89  C   UNL A   1      41.625  35.434  37.106  1.00  0.00     0.198 A 
ATOM     90  C   UNL A   1      39.464  34.622  36.432  1.00  0.00     0.198 A 
ATOM     91  F   UNL A   1      39.290  33.043  34.700  1.00  0.00    -0.203 F 
ATOM     92  F   UNL A   1      42.384  36.163  37.936  1.00  0.00    -0.200 F 
ATOM     93  C   UNL A   1      40.246  35.414  37.260  1.00  0.00     0.200 A 
ATOM     94  F   UNL A   1      38.132  34.613  36.568  1.00  0.00    -0.200 F 
ATOM     95  F   UNL A   1      39.669  36.148  38.221  1.00  0.00    -0.200 F 
ENDBRANCH  62  85
ENDBRANCH  36  37
ENDBRANCH  29  31
ENDBRANCH  28  29
ENDBRANCH  27  28
ENDBRANCH  26  27
ENDBRANCH  25  26
ENDBRANCH  24  25
ENDBRANCH   1  24
TORSDOF 21
ENDMDL
MODEL 2
REMARK VINA RESULT:      -8.9      3.756      7.539
REMARK SMILES C[C@H](C(=O)OCCOCCOCCOC(=O)c1ccc(-c2c3nc(c(-c4c(F)c(F)c(F)c(F)c4F)c4ccc([nH]4)c(-c4c(F)c(F)c(F)c(F)c4F)c4nc(c(-c5c(F)c(F)c(F)c(F)c5F)c5ccc2[nH]5)C=C4)C=C3)cc1)c1ccc(C[C@@H]2CCC[C@H]2O)cc1
REMARK SMILES IDX 9 1 8 2 7 3 6 4 5 5 3 6 4 7 2 8 1 9 80 10 81 11 92 12 82 13
REMARK SMILES IDX 91 14 83 15 84 16 85 17 86 18 89 19 87 20 88 21 90 22 10 24
REMARK SMILES IDX 11 25 12 26 13 27 14 28 15 29 16 30 17 31 18 32 79 33 19 34
REMARK SMILES IDX 78 35 20 36 21 37 22 38 72 39 23 40 77 41 71 42 73 43 24 44
REMARK SMILES IDX 76 45 70 46 69 47 25 49 57 50 37 51 56 52 38 53 41 54 55 55
REMARK SMILES IDX 74 56 39 57 40 58 54 60 75 61 42 62 26 63 27 64 35 65 28 66
REMARK SMILES IDX 29 67 33 68 36 69 30 70 31 71 34 72 32 73 58 74 59 75 67 76
REMARK SMILES IDX 60 77 61 78 65 79 68 80 62 81 63 82 66 83 64 84 43 85 44 86
REMARK SMILES IDX 52 87 45 88 46 89 50 90 53 91 47 92 48 93 51 94 49 95
REMARK H PARENT 90 23 73 48 41 59
REMARK Flexibility Score: inf
ROOT
ATOM      1  C   UNL A   1      44.632  18.877  24.300  1.00  0.00     0.188 C 
ENDROOT
BRANCH   1   2
ATOM      2  O   UNL A   1      43.307  18.806  24.769  1.00  0.00    -0.376 OA
BRANCH   2   3
ATOM      3  C   UNL A   1      43.091  18.533  26.141  1.00  0.00     0.202 C 
BRANCH   3   4
ATOM      4  C   UNL A   1      42.236  19.396  27.107  1.00  0.00     0.261 C 
BRANCH   4   5
ATOM      5  O   UNL A   1      41.004  19.972  26.644  1.00  0.00    -0.463 OA
BRANCH   5   6
ATOM      6  C   UNL A   1      40.994  21.286  26.268  1.00  0.00     0.313 C 
ATOM      7  O   UNL A   1      41.822  21.792  25.523  1.00  0.00    -0.252 OA
BRANCH   6   8
ATOM      8  C   UNL A   1      39.796  22.010  26.908  1.00  0.00     0.126 C 
ATOM      9  C   UNL A   1      40.253  23.317  27.544  1.00  0.00     0.025 C 
BRANCH   8  10
ATOM     10  C   UNL A   1      38.609  22.262  25.985  1.00  0.00    -0.034 A 
ATOM     11  C   UNL A   1      38.031  23.540  25.902  1.00  0.00     0.005 A 
ATOM     12  C   UNL A   1      38.111  21.256  25.144  1.00  0.00     0.005 A 
ATOM     13  C   UNL A   1      36.932  23.777  25.071  1.00  0.00     0.004 A 
ATOM     14  C   UNL A   1      36.996  21.480  24.337  1.00  0.00     0.004 A 
ATOM     15  C   UNL A   1      36.352  22.721  24.357  1.00  0.00    -0.048 A 
BRANCH  15  16
ATOM     16  C   UNL A   1      34.956  22.831  23.801  1.00  0.00     0.041 C 
BRANCH  16  17
ATOM     17  C   UNL A   1      33.842  22.117  24.653  1.00  0.00     0.022 C 
ATOM     18  C   UNL A   1      32.016  22.569  24.036  1.00  0.00     0.007 C 
ATOM     19  C   UNL A   1      34.003  22.315  26.605  1.00  0.00     0.117 C 
ATOM     20  C   UNL A   1      30.856  22.962  25.646  1.00  0.00     0.003 C 
ATOM     21  C   UNL A   1      32.217  22.697  27.373  1.00  0.00     0.032 C 
BRANCH  19  22
ATOM     22  O   UNL A   1      34.652  21.433  27.472  1.00  0.00    -0.393 OA
ATOM     23  H   UNL A   1      34.287  21.532  28.365  1.00  0.00     0.210 HD
ENDBRANCH  19  22
ENDBRANCH  16  17
ENDBRANCH  15  16
ENDBRANCH   8  10
ENDBRANCH   6   8
ENDBRANCH   5   6
ENDBRANCH   4   5
ENDBRANCH   3   4
ENDBRANCH   2   3
ENDBRANCH   1   2
BRANCH   1  24
ATOM     24  C   UNL A   1      45.712  18.630  25.358  1.00  0.00     0.188 C 
BRANCH  24  25
ATOM     25  O   UNL A   1      46.638  19.696  25.399  1.00  0.00    -0.376 OA
BRANCH  25  26
ATOM     26  C   UNL A   1      46.161  20.942  24.904  1.00  0.00     0.202 C 
BRANCH  26  27
ATOM     27  C   UNL A   1      45.043  21.754  25.617  1.00  0.00     0.261 C 
BRANCH  27  28
ATOM     28  O   UNL A   1      45.362  23.060  26.158  1.00  0.00    -0.460 OA
BRANCH  28  29
ATOM     29  C   UNL A   1      44.941  24.183  25.524  1.00  0.00     0.338 C 
ATOM     30  O   UNL A   1      44.604  24.288  24.360  1.00  0.00    -0.246 OA
BRANCH  29  31
ATOM     31  C   UNL A   1      44.730  25.229  26.561  1.00  0.00     0.060 A 
ATOM     32  C   UNL A   1      45.483  26.658  26.199  1.00  0.00     0.016 A 
ATOM     33  C   UNL A   1      43.593  25.052  27.826  1.00  0.00     0.016 A 
ATOM     34  C   UNL A   1      45.072  28.034  27.148  1.00  0.00     0.010 A 
ATOM     35  C   UNL A   1      43.059  26.315  28.884  1.00  0.00     0.010 A 
ATOM     36  C   UNL A   1      43.732  27.942  28.647  1.00  0.00    -0.014 A 
BRANCH  36  37
ATOM     37  C   UNL A   1      43.157  28.857  29.962  1.00  0.00     0.031 A 
ATOM     38  C   UNL A   1      41.733  29.434  29.865  1.00  0.00     0.074 A 
ATOM     39  C   UNL A   1      43.742  29.081  31.187  1.00  0.00     0.049 A 
ATOM     40  N   UNL A   1      40.909  29.795  30.825  1.00  0.00    -0.248 NA
ATOM     41  C   UNL A   1      41.147  29.604  28.533  1.00  0.00     0.031 C 
ATOM     42  C   UNL A   1      45.110  28.810  31.554  1.00  0.00     0.029 A 
ATOM     43  N   UNL A   1      43.206  29.360  32.442  1.00  0.00    -0.354 N 
ATOM     44  C   UNL A   1      39.711  30.134  30.201  1.00  0.00     0.074 A 
ATOM     45  C   UNL A   1      39.897  29.941  28.790  1.00  0.00     0.031 C 
ATOM     46  C   UNL A   1      45.230  28.489  32.844  1.00  0.00     0.029 A 
ATOM     47  C   UNL A   1      44.066  29.044  33.494  1.00  0.00     0.049 A 
ATOM     48  H   UNL A   1      42.309  29.745  32.573  1.00  0.00     0.167 HD
ATOM     49  C   UNL A   1      38.563  30.622  30.726  1.00  0.00     0.037 A 
ATOM     50  C   UNL A   1      44.065  29.309  34.819  1.00  0.00     0.037 A 
ATOM     51  C   UNL A   1      38.426  31.031  32.094  1.00  0.00     0.049 A 
ATOM     52  C   UNL A   1      42.889  30.048  35.350  1.00  0.00     0.074 A 
ATOM     53  C   UNL A   1      37.353  31.653  32.704  1.00  0.00     0.029 A 
ATOM     54  N   UNL A   1      39.428  30.925  33.049  1.00  0.00    -0.354 N 
ATOM     55  N   UNL A   1      41.785  30.351  34.719  1.00  0.00    -0.248 NA
ATOM     56  C   UNL A   1      42.959  30.517  36.735  1.00  0.00     0.031 C 
ATOM     57  C   UNL A   1      37.738  32.003  34.002  1.00  0.00     0.029 A 
ATOM     58  C   UNL A   1      39.012  31.512  34.232  1.00  0.00     0.049 A 
ATOM     59  H   UNL A   1      40.302  30.495  32.907  1.00  0.00     0.167 HD
ATOM     60  C   UNL A   1      41.013  31.040  35.630  1.00  0.00     0.074 A 
ATOM     61  C   UNL A   1      41.771  31.091  36.867  1.00  0.00     0.031 C 
ATOM     62  C   UNL A   1      39.784  31.573  35.447  1.00  0.00     0.037 A 
BRANCH  49  63
ATOM     63  C   UNL A   1      37.425  30.861  29.768  1.00  0.00     0.064 A 
ATOM     64  C   UNL A   1      36.546  29.830  29.390  1.00  0.00     0.173 A 
ATOM     65  C   UNL A   1      37.241  32.120  29.178  1.00  0.00     0.173 A 
ATOM     66  F   UNL A   1      36.700  28.594  29.891  1.00  0.00    -0.203 F 
ATOM     67  C   UNL A   1      35.545  30.050  28.445  1.00  0.00     0.198 A 
ATOM     68  C   UNL A   1      36.221  32.343  28.255  1.00  0.00     0.198 A 
ATOM     69  F   UNL A   1      38.065  33.135  29.482  1.00  0.00    -0.203 F 
ATOM     70  F   UNL A   1      34.760  29.036  28.053  1.00  0.00    -0.200 F 
ATOM     71  C   UNL A   1      35.380  31.306  27.883  1.00  0.00     0.200 A 
ATOM     72  F   UNL A   1      36.066  33.558  27.712  1.00  0.00    -0.200 F 
ATOM     73  F   UNL A   1      34.424  31.513  26.967  1.00  0.00    -0.200 F 
ENDBRANCH  49  63
BRANCH  50  74
ATOM     74  C   UNL A   1      45.295  29.074  35.658  1.00  0.00     0.064 A 
ATOM     75  C   UNL A   1      46.313  30.026  35.802  1.00  0.00     0.173 A 
ATOM     76  C   UNL A   1      45.460  27.861  36.360  1.00  0.00     0.173 A 
ATOM     77  F   UNL A   1      46.255  31.180  35.122  1.00  0.00    -0.203 F 
ATOM     78  C   UNL A   1      47.418  29.790  36.631  1.00  0.00     0.198 A 
ATOM     79  C   UNL A   1      46.533  27.648  37.224  1.00  0.00     0.198 A 
ATOM     80  F   UNL A   1      44.543  26.888  36.245  1.00  0.00    -0.203 F 
ATOM     81  F   UNL A   1      48.393  30.705  36.723  1.00  0.00    -0.200 F 
ATOM     82  C   UNL A   1      47.516  28.611  37.356  1.00  0.00     0.200 A 
ATOM     83  F   UNL A   1      46.602  26.514  37.936  1.00  0.00    -0.200 F 
ATOM     84  F   UNL A   1      48.558  28.400  38.172  1.00  0.00    -0.200 F 
ENDBRANCH  50  74
BRANCH  62  85
ATOM     85  C   UNL A   1      39.158  32.198  36.647  1.00  0.00     0.064 A 
ATOM     86  C   UNL A   1      38.191  31.534  37.412  1.00  0.00     0.173 A 
ATOM     87  C   UNL A   1      39.529  33.497  37.018  1.00  0.00     0.173 A 
ATOM     88  F   UNL A   1      37.790  30.299  37.073  1.00  0.00    -0.203 F 
ATOM     89  C   UNL A   1      37.585  32.169  38.488  1.00  0.00     0.198 A 
ATOM     90  C   UNL A   1      38.953  34.111  38.120  1.00  0.00     0.198 A 
ATOM     91  F   UNL A   1      40.449  34.169  36.309  1.00  0.00    -0.203 F 
ATOM     92  F   UNL A   1      36.604  31.550  39.161  1.00  0.00    -0.200 F 
ATOM     93  C   UNL A   1      37.972  33.452  38.846  1.00  0.00     0.200 A 
ATOM     94  F   UNL A   1      39.339  35.345  38.472  1.00  0.00    -0.200 F 
ATOM     95  F   UNL A   1      37.386  34.063  39.884  1.00  0.00    -0.200 F 
ENDBRANCH  62  85
ENDBRANCH  36  37
ENDBRANCH  29  31
ENDBRANCH  28  29
ENDBRANCH  27  28
ENDBRANCH  26  27
ENDBRANCH  25  26
ENDBRANCH  24  25
ENDBRANCH   1  24
TORSDOF 21
ENDMDL
MODEL 3
REMARK VINA RESULT:      -8.8      4.264      7.896
REMARK SMILES C[C@H](C(=O)OCCOCCOCCOC(=O)c1ccc(-c2c3nc(c(-c4c(F)c(F)c(F)c(F)c4F)c4ccc([nH]4)c(-c4c(F)c(F)c(F)c(F)c4F)c4nc(c(-c5c(F)c(F)c(F)c(F)c5F)c5ccc2[nH]5)C=C4)C=C3)cc1)c1ccc(C[C@@H]2CCC[C@H]2O)cc1
REMARK SMILES IDX 9 1 8 2 7 3 6 4 5 5 3 6 4 7 2 8 1 9 80 10 81 11 92 12 82 13
REMARK SMILES IDX 91 14 83 15 84 16 85 17 86 18 89 19 87 20 88 21 90 22 10 24
REMARK SMILES IDX 11 25 12 26 13 27 14 28 15 29 16 30 17 31 18 32 79 33 19 34
REMARK SMILES IDX 78 35 20 36 21 37 22 38 72 39 23 40 77 41 71 42 73 43 24 44
REMARK SMILES IDX 76 45 70 46 69 47 25 49 57 50 37 51 56 52 38 53 41 54 55 55
REMARK SMILES IDX 74 56 39 57 40 58 54 60 75 61 42 62 26 63 27 64 35 65 28 66
REMARK SMILES IDX 29 67 33 68 36 69 30 70 31 71 34 72 32 73 58 74 59 75 67 76
REMARK SMILES IDX 60 77 61 78 65 79 68 80 62 81 63 82 66 83 64 84 43 85 44 86
REMARK SMILES IDX 52 87 45 88 46 89 50 90 53 91 47 92 48 93 51 94 49 95
REMARK H PARENT 90 23 73 48 41 59
REMARK Flexibility Score: inf
ROOT
ATOM      1  C   UNL A   1      42.247  19.142  25.774  1.00  0.00     0.188 C 
ENDROOT
BRANCH   1   2
ATOM      2  O   UNL A   1      41.905  19.573  27.070  1.00  0.00    -0.376 OA
BRANCH   2   3
ATOM      3  C   UNL A   1      41.348  20.865  27.226  1.00  0.00     0.202 C 
BRANCH   3   4
ATOM      4  C   UNL A   1      40.365  21.547  26.238  1.00  0.00     0.261 C 
BRANCH   4   5
ATOM      5  O   UNL A   1      38.950  21.472  26.478  1.00  0.00    -0.463 OA
BRANCH   5   6
ATOM      6  C   UNL A   1      38.117  22.270  25.746  1.00  0.00     0.313 C 
ATOM      7  O   UNL A   1      37.949  23.463  25.958  1.00  0.00    -0.252 OA
BRANCH   6   8
ATOM      8  C   UNL A   1      37.444  21.450  24.631  1.00  0.00     0.126 C 
ATOM      9  C   UNL A   1      37.555  19.961  24.936  1.00  0.00     0.025 C 
BRANCH   8  10
ATOM     10  C   UNL A   1      35.996  21.817  24.325  1.00  0.00    -0.034 A 
ATOM     11  C   UNL A   1      34.941  21.078  24.886  1.00  0.00     0.005 A 
ATOM     12  C   UNL A   1      35.676  22.937  23.542  1.00  0.00     0.005 A 
ATOM     13  C   UNL A   1      33.610  21.396  24.598  1.00  0.00     0.004 A 
ATOM     14  C   UNL A   1      34.352  23.239  23.228  1.00  0.00     0.004 A 
ATOM     15  C   UNL A   1      33.316  22.421  23.691  1.00  0.00    -0.048 A 
BRANCH  15  16
ATOM     16  C   UNL A   1      31.959  22.520  23.040  1.00  0.00     0.041 C 
BRANCH  16  17
ATOM     17  C   UNL A   1      31.051  23.692  23.569  1.00  0.00     0.022 C 
ATOM     18  C   UNL A   1      31.508  25.431  22.739  1.00  0.00     0.007 C 
ATOM     19  C   UNL A   1      30.917  23.851  25.526  1.00  0.00     0.117 C 
ATOM     20  C   UNL A   1      31.555  26.853  24.177  1.00  0.00     0.003 C 
ATOM     21  C   UNL A   1      31.066  25.758  26.039  1.00  0.00     0.032 C 
BRANCH  19  22
ATOM     22  O   UNL A   1      29.933  23.275  26.334  1.00  0.00    -0.393 OA
ATOM     23  H   UNL A   1      29.059  23.586  26.049  1.00  0.00     0.210 HD
ENDBRANCH  19  22
ENDBRANCH  16  17
ENDBRANCH  15  16
ENDBRANCH   8  10
ENDBRANCH   6   8
ENDBRANCH   5   6
ENDBRANCH   4   5
ENDBRANCH   3   4
ENDBRANCH   2   3
ENDBRANCH   1   2
BRANCH   1  24
ATOM     24  C   UNL A   1      43.750  19.079  25.485  1.00  0.00     0.188 C 
BRANCH  24  25
ATOM     25  O   UNL A   1      44.116  20.009  24.486  1.00  0.00    -0.376 OA
BRANCH  25  26
ATOM     26  C   UNL A   1      44.193  21.365  24.911  1.00  0.00     0.202 C 
BRANCH  26  27
ATOM     27  C   UNL A   1      44.522  22.530  23.935  1.00  0.00     0.261 C 
BRANCH  27  28
ATOM     28  O   UNL A   1      44.252  23.891  24.352  1.00  0.00    -0.460 OA
BRANCH  28  29
ATOM     29  C   UNL A   1      45.205  24.608  24.999  1.00  0.00     0.338 C 
ATOM     30  O   UNL A   1      46.363  24.762  24.664  1.00  0.00    -0.246 OA
BRANCH  29  31
ATOM     31  C   UNL A   1      44.528  25.380  26.077  1.00  0.00     0.060 A 
ATOM     32  C   UNL A   1      43.317  24.528  26.818  1.00  0.00     0.016 A 
ATOM     33  C   UNL A   1      45.139  26.864  26.667  1.00  0.00     0.016 A 
ATOM     34  C   UNL A   1      42.665  25.179  28.272  1.00  0.00     0.010 A 
ATOM     35  C   UNL A   1      44.608  27.671  28.104  1.00  0.00     0.010 A 
ATOM     36  C   UNL A   1      43.325  26.907  29.065  1.00  0.00    -0.014 A 
BRANCH  36  37
ATOM     37  C   UNL A   1      42.921  28.051  30.258  1.00  0.00     0.031 A 
ATOM     38  C   UNL A   1      41.613  28.843  30.077  1.00  0.00     0.074 A 
ATOM     39  C   UNL A   1      43.543  28.313  31.457  1.00  0.00     0.049 A 
ATOM     40  N   UNL A   1      40.868  29.446  30.978  1.00  0.00    -0.248 NA
ATOM     41  C   UNL A   1      41.055  28.953  28.727  1.00  0.00     0.031 C 
ATOM     42  C   UNL A   1      44.848  27.862  31.870  1.00  0.00     0.029 A 
ATOM     43  N   UNL A   1      43.069  28.822  32.664  1.00  0.00    -0.354 N 
ATOM     44  C   UNL A   1      39.740  29.906  30.305  1.00  0.00     0.074 A 
ATOM     45  C   UNL A   1      39.881  29.522  28.927  1.00  0.00     0.031 C 
ATOM     46  C   UNL A   1      44.921  27.676  33.190  1.00  0.00     0.029 A 
ATOM     47  C   UNL A   1      43.871  28.490  33.756  1.00  0.00     0.049 A 
ATOM     48  H   UNL A   1      42.251  29.364  32.739  1.00  0.00     0.167 HD
ATOM     49  C   UNL A   1      38.693  30.637  30.755  1.00  0.00     0.037 A 
ATOM     50  C   UNL A   1      43.924  28.902  35.042  1.00  0.00     0.037 A 
ATOM     51  C   UNL A   1      38.636  31.218  32.065  1.00  0.00     0.049 A 
ATOM     52  C   UNL A   1      42.892  29.884  35.469  1.00  0.00     0.074 A 
ATOM     53  C   UNL A   1      37.687  32.078  32.585  1.00  0.00     0.029 A 
ATOM     54  N   UNL A   1      39.612  31.058  33.038  1.00  0.00    -0.354 N 
ATOM     55  N   UNL A   1      41.850  30.294  34.793  1.00  0.00    -0.248 NA
ATOM     56  C   UNL A   1      43.048  30.493  36.793  1.00  0.00     0.031 C 
ATOM     57  C   UNL A   1      38.133  32.506  33.839  1.00  0.00     0.029 A 
ATOM     58  C   UNL A   1      39.309  31.839  34.141  1.00  0.00     0.049 A 
ATOM     59  H   UNL A   1      40.400  30.474  32.958  1.00  0.00     0.167 HD
ATOM     60  C   UNL A   1      41.211  31.203  35.609  1.00  0.00     0.074 A 
ATOM     61  C   UNL A   1      41.975  31.269  36.842  1.00  0.00     0.031 C 
ATOM     62  C   UNL A   1      40.088  31.909  35.350  1.00  0.00     0.037 A 
BRANCH  49  63
ATOM     63  C   UNL A   1      37.605  30.951  29.761  1.00  0.00     0.064 A 
ATOM     64  C   UNL A   1      37.495  32.218  29.160  1.00  0.00     0.173 A 
ATOM     65  C   UNL A   1      36.629  29.994  29.446  1.00  0.00     0.173 A 
ATOM     66  F   UNL A   1      38.376  33.185  29.456  1.00  0.00    -0.203 F 
ATOM     67  C   UNL A   1      36.437  32.515  28.300  1.00  0.00     0.198 A 
ATOM     68  C   UNL A   1      35.590  30.286  28.564  1.00  0.00     0.198 A 
ATOM     69  F   UNL A   1      36.669  28.777  30.009  1.00  0.00    -0.203 F 
ATOM     70  F   UNL A   1      36.317  33.749  27.789  1.00  0.00    -0.200 F 
ATOM     71  C   UNL A   1      35.490  31.549  27.999  1.00  0.00     0.200 A 
ATOM     72  F   UNL A   1      34.675  29.351  28.276  1.00  0.00    -0.200 F 
ATOM     73  F   UNL A   1      34.470  31.839  27.181  1.00  0.00    -0.200 F 
ENDBRANCH  49  63
BRANCH  50  74
ATOM     74  C   UNL A   1      45.101  28.563  35.919  1.00  0.00     0.064 A 
ATOM     75  C   UNL A   1      45.136  27.431  36.744  1.00  0.00     0.173 A 
ATOM     76  C   UNL A   1      46.247  29.387  35.927  1.00  0.00     0.173 A 
ATOM     77  F   UNL A   1      44.064  26.631  36.834  1.00  0.00    -0.203 F 
ATOM     78  C   UNL A   1      46.270  27.123  37.509  1.00  0.00     0.198 A 
ATOM     79  C   UNL A   1      47.392  29.052  36.647  1.00  0.00     0.198 A 
ATOM     80  F   UNL A   1      46.275  30.506  35.188  1.00  0.00    -0.203 F 
ATOM     81  F   UNL A   1      46.262  26.053  38.315  1.00  0.00    -0.200 F 
ATOM     82  C   UNL A   1      47.403  27.922  37.443  1.00  0.00     0.200 A 
ATOM     83  F   UNL A   1      48.488  29.821  36.556  1.00  0.00    -0.200 F 
ATOM     84  F   UNL A   1      48.497  27.608  38.151  1.00  0.00    -0.200 F 
ENDBRANCH  50  74
BRANCH  62  85
ATOM     85  C   UNL A   1      39.584  32.765  36.462  1.00  0.00     0.064 A 
ATOM     86  C   UNL A   1      38.597  32.323  37.352  1.00  0.00     0.173 A 
ATOM     87  C   UNL A   1      40.095  34.060  36.619  1.00  0.00     0.173 A 
ATOM     88  F   UNL A   1      38.063  31.099  37.217  1.00  0.00    -0.203 F 
ATOM     89  C   UNL A   1      38.107  33.168  38.339  1.00  0.00     0.198 A 
ATOM     90  C   UNL A   1      39.634  34.886  37.634  1.00  0.00     0.198 A 
ATOM     91  F   UNL A   1      41.039  34.523  35.785  1.00  0.00    -0.203 F 
ATOM     92  F   UNL A   1      37.106  32.758  39.131  1.00  0.00    -0.200 F 
ATOM     93  C   UNL A   1      38.631  34.444  38.484  1.00  0.00     0.200 A 
ATOM     94  F   UNL A   1      40.153  36.112  37.782  1.00  0.00    -0.200 F 
ATOM     95  F   UNL A   1      38.158  35.258  39.437  1.00  0.00    -0.200 F 
ENDBRANCH  62  85
ENDBRANCH  36  37
ENDBRANCH  29  31
ENDBRANCH  28  29
ENDBRANCH  27  28
ENDBRANCH  26  27
ENDBRANCH  25  26
ENDBRANCH  24  25
ENDBRANCH   1  24
TORSDOF 21
ENDMDL
