MODEL 1
REMARK VINA RESULT:      -9.9      0.000      0.000
REMARK SMILES C[N@H+](CCS(C)(=O)=O)[C@H](CC(=O)OCCOCCOCCOC(=O)c1ccc(-c2c3nc(c(-c4c(F)c(F)c(F)c(F)c4F)c4ccc([nH]4)c(-c4c(F)c(F)c(F)c(F)c4F)c4nc(c(-c5c(F)c(F)c(F)c(F)c5F)c5ccc2[nH]5)C=C4)C=C3)cc1)c1ccccc1
REMARK SMILES IDX 16 1 15 2 14 3 13 4 11 5 12 6 10 7 9 8 2 9 1 10 3 12 4 13
REMARK SMILES IDX 5 14 6 15 7 16 8 17 88 18 89 19 93 20 90 21 92 22 91 23
REMARK SMILES IDX 17 24 18 25 19 26 20 27 21 28 22 29 23 30 24 31 25 32 26 33
REMARK SMILES IDX 87 34 27 35 86 36 28 37 29 38 30 39 80 40 31 41 85 42 79 43
REMARK SMILES IDX 81 44 32 45 84 46 78 47 77 48 33 50 65 51 45 52 64 53 46 54
REMARK SMILES IDX 49 55 63 56 82 57 47 58 48 59 62 61 83 62 50 63 34 64 35 65
REMARK SMILES IDX 43 66 36 67 37 68 41 69 44 70 38 71 39 72 42 73 40 74 66 75
REMARK SMILES IDX 67 76 75 77 68 78 69 79 73 80 76 81 70 82 71 83 74 84 72 85
REMARK SMILES IDX 51 86 52 87 60 88 53 89 54 90 58 91 61 92 55 93 56 94 59 95
REMARK SMILES IDX 57 96
REMARK H PARENT 2 11 81 49 49 60
REMARK Flexibility Score: inf
ROOT
ATOM      1  O   UNL A   1      35.872  23.367  24.582  1.00  0.00    -0.376 OA
ENDROOT
BRANCH   1   2
ATOM      2  C   UNL A   1      35.551  23.235  25.966  1.00  0.00     0.202 C 
BRANCH   2   3
ATOM      3  C   UNL A   1      34.068  23.431  26.299  1.00  0.00     0.261 C 
BRANCH   3   4
ATOM      4  O   UNL A   1      33.566  24.734  25.920  1.00  0.00    -0.463 OA
BRANCH   4   5
ATOM      5  C   UNL A   1      32.226  24.932  25.897  1.00  0.00     0.312 C 
ATOM      6  O   UNL A   1      31.465  24.595  26.797  1.00  0.00    -0.252 OA
BRANCH   5   7
ATOM      7  C   UNL A   1      31.710  25.430  24.555  1.00  0.00     0.192 C 
BRANCH   7   8
ATOM      8  C   UNL A   1      31.488  26.945  24.260  1.00  0.00     0.226 C 
BRANCH   8   9
ATOM      9  N   UNL A   1      30.096  27.333  23.859  1.00  0.00    -0.330 N 
ATOM     10  C   UNL A   1      29.161  26.230  23.937  1.00  0.00     0.333 C 
ATOM     11  H   UNL A   1      29.807  28.006  24.569  1.00  0.00     0.348 HD
BRANCH   9  12
ATOM     12  C   UNL A   1      29.999  28.087  22.596  1.00  0.00     0.278 C 
BRANCH  12  13
ATOM     13  C   UNL A   1      29.752  29.602  22.641  1.00  0.00     0.197 C 
BRANCH  13  14
ATOM     14  S   UNL A   1      28.083  30.162  22.383  1.00  0.00     0.152 S 
ATOM     15  C   UNL A   1      28.060  31.815  23.026  1.00  0.00     0.158 C 
ATOM     16  O   UNL A   1      27.904  30.266  20.945  1.00  0.00    -0.229 OA
ATOM     17  O   UNL A   1      27.161  29.366  23.166  1.00  0.00    -0.229 OA
ENDBRANCH  13  14
ENDBRANCH  12  13
ENDBRANCH   9  12
ENDBRANCH   8   9
BRANCH   8  18
ATOM     18  C   UNL A   1      32.158  27.894  25.274  1.00  0.00     0.010 A 
ATOM     19  C   UNL A   1      33.537  28.170  25.189  1.00  0.00     0.010 A 
ATOM     20  C   UNL A   1      31.447  28.536  26.303  1.00  0.00     0.010 A 
ATOM     21  C   UNL A   1      34.197  28.912  26.173  1.00  0.00     0.001 A 
ATOM     22  C   UNL A   1      32.105  29.273  27.294  1.00  0.00     0.001 A 
ATOM     23  C   UNL A   1      33.484  29.440  27.242  1.00  0.00     0.000 A 
ENDBRANCH   8  18
ENDBRANCH   7   8
ENDBRANCH   5   7
ENDBRANCH   4   5
ENDBRANCH   3   4
ENDBRANCH   2   3
ENDBRANCH   1   2
BRANCH   1  24
ATOM     24  C   UNL A   1      36.564  22.278  23.978  1.00  0.00     0.188 C 
BRANCH  24  25
ATOM     25  C   UNL A   1      37.474  21.480  24.911  1.00  0.00     0.188 C 
BRANCH  25  26
ATOM     26  O   UNL A   1      37.324  20.067  24.847  1.00  0.00    -0.376 OA
BRANCH  26  27
ATOM     27  C   UNL A   1      38.472  19.300  25.207  1.00  0.00     0.202 C 
BRANCH  27  28
ATOM     28  C   UNL A   1      39.631  20.157  25.718  1.00  0.00     0.261 C 
BRANCH  28  29
ATOM     29  O   UNL A   1      40.483  19.355  26.564  1.00  0.00    -0.460 OA
BRANCH  29  30
ATOM     30  C   UNL A   1      41.781  19.305  26.188  1.00  0.00     0.338 C 
ATOM     31  O   UNL A   1      42.379  18.374  25.686  1.00  0.00    -0.246 OA
BRANCH  30  32
ATOM     32  C   UNL A   1      42.383  20.633  26.355  1.00  0.00     0.060 A 
ATOM     33  C   UNL A   1      42.390  21.198  27.630  1.00  0.00     0.016 A 
ATOM     34  C   UNL A   1      42.798  21.374  25.255  1.00  0.00     0.016 A 
ATOM     35  C   UNL A   1      42.718  22.534  27.814  1.00  0.00     0.010 A 
ATOM     36  C   UNL A   1      43.188  22.702  25.445  1.00  0.00     0.010 A 
ATOM     37  C   UNL A   1      43.113  23.303  26.718  1.00  0.00    -0.014 A 
BRANCH  37  38
ATOM     38  C   UNL A   1      43.360  24.758  26.855  1.00  0.00     0.031 A 
ATOM     39  C   UNL A   1      44.731  25.285  26.547  1.00  0.00     0.074 A 
ATOM     40  C   UNL A   1      42.394  25.600  27.266  1.00  0.00     0.049 A 
ATOM     41  N   UNL A   1      45.298  26.400  26.925  1.00  0.00    -0.248 NA
ATOM     42  C   UNL A   1      45.583  24.424  25.712  1.00  0.00     0.031 C 
ATOM     43  C   UNL A   1      40.992  25.246  27.482  1.00  0.00     0.029 A 
ATOM     44  N   UNL A   1      42.460  26.930  27.597  1.00  0.00    -0.354 N 
ATOM     45  C   UNL A   1      46.599  26.336  26.445  1.00  0.00     0.074 A 
ATOM     46  C   UNL A   1      46.729  25.089  25.723  1.00  0.00     0.031 C 
ATOM     47  C   UNL A   1      40.331  26.329  27.921  1.00  0.00     0.029 A 
ATOM     48  C   UNL A   1      41.283  27.418  28.111  1.00  0.00     0.049 A 
ATOM     49  H   UNL A   1      43.269  27.479  27.479  1.00  0.00     0.167 HD
ATOM     50  C   UNL A   1      47.593  27.238  26.620  1.00  0.00     0.037 A 
ATOM     51  C   UNL A   1      41.023  28.583  28.737  1.00  0.00     0.037 A 
ATOM     52  C   UNL A   1      47.419  28.499  27.291  1.00  0.00     0.049 A 
ATOM     53  C   UNL A   1      42.151  29.552  28.967  1.00  0.00     0.074 A 
ATOM     54  C   UNL A   1      48.353  29.489  27.535  1.00  0.00     0.029 A 
ATOM     55  N   UNL A   1      46.211  28.951  27.805  1.00  0.00    -0.354 N 
ATOM     56  N   UNL A   1      43.412  29.451  28.620  1.00  0.00    -0.248 NA
ATOM     57  C   UNL A   1      41.828  30.782  29.702  1.00  0.00     0.031 C 
ATOM     58  C   UNL A   1      47.716  30.528  28.221  1.00  0.00     0.029 A 
ATOM     59  C   UNL A   1      46.377  30.202  28.370  1.00  0.00     0.049 A 
ATOM     60  H   UNL A   1      45.362  28.453  27.773  1.00  0.00     0.167 HD
ATOM     61  C   UNL A   1      44.028  30.607  29.079  1.00  0.00     0.074 A 
ATOM     62  C   UNL A   1      43.000  31.401  29.721  1.00  0.00     0.031 C 
ATOM     63  C   UNL A   1      45.328  30.976  28.984  1.00  0.00     0.037 A 
BRANCH  50  64
ATOM     64  C   UNL A   1      48.962  26.866  26.135  1.00  0.00     0.064 A 
ATOM     65  C   UNL A   1      49.894  26.215  26.955  1.00  0.00     0.173 A 
ATOM     66  C   UNL A   1      49.336  27.149  24.813  1.00  0.00     0.173 A 
ATOM     67  F   UNL A   1      49.591  25.935  28.231  1.00  0.00    -0.203 F 
ATOM     68  C   UNL A   1      51.159  25.882  26.475  1.00  0.00     0.198 A 
ATOM     69  C   UNL A   1      50.591  26.792  24.327  1.00  0.00     0.198 A 
ATOM     70  F   UNL A   1      48.479  27.769  23.985  1.00  0.00    -0.203 F 
ATOM     71  F   UNL A   1      52.049  25.296  27.286  1.00  0.00    -0.200 F 
ATOM     72  C   UNL A   1      51.503  26.164  25.160  1.00  0.00     0.200 A 
ATOM     73  F   UNL A   1      50.915  27.056  23.054  1.00  0.00    -0.200 F 
ATOM     74  F   UNL A   1      52.717  25.836  24.698  1.00  0.00    -0.200 F 
ENDBRANCH  50  64
BRANCH  51  75
ATOM     75  C   UNL A   1      39.657  28.855  29.254  1.00  0.00     0.064 A 
ATOM     76  C   UNL A   1      38.688  29.461  28.443  1.00  0.00     0.173 A 
ATOM     77  C   UNL A   1      39.287  28.501  30.560  1.00  0.00     0.173 A 
ATOM     78  F   UNL A   1      39.001  29.842  27.197  1.00  0.00    -0.203 F 
ATOM     79  C   UNL A   1      37.403  29.706  28.922  1.00  0.00     0.198 A 
ATOM     80  C   UNL A   1      37.994  28.720  31.028  1.00  0.00     0.198 A 
ATOM     81  F   UNL A   1      40.179  27.922  31.378  1.00  0.00    -0.203 F 
ATOM     82  F   UNL A   1      36.504  30.318  28.139  1.00  0.00    -0.200 F 
ATOM     83  C   UNL A   1      37.054  29.327  30.210  1.00  0.00     0.200 A 
ATOM     84  F   UNL A   1      37.658  28.339  32.268  1.00  0.00    -0.200 F 
ATOM     85  F   UNL A   1      35.813  29.552  30.665  1.00  0.00    -0.200 F 
ENDBRANCH  51  75
BRANCH  63  86
ATOM     86  C   UNL A   1      45.703  32.313  29.543  1.00  0.00     0.064 A 
ATOM     87  C   UNL A   1      46.185  32.452  30.852  1.00  0.00     0.173 A 
ATOM     88  C   UNL A   1      45.638  33.459  28.737  1.00  0.00     0.173 A 
ATOM     89  F   UNL A   1      46.250  31.385  31.664  1.00  0.00    -0.203 F 
ATOM     90  C   UNL A   1      46.578  33.695  31.339  1.00  0.00     0.198 A 
ATOM     91  C   UNL A   1      46.051  34.696  29.219  1.00  0.00     0.198 A 
ATOM     92  F   UNL A   1      45.187  33.373  27.477  1.00  0.00    -0.203 F 
ATOM     93  F   UNL A   1      47.008  33.814  32.602  1.00  0.00    -0.200 F 
ATOM     94  C   UNL A   1      46.518  34.814  30.520  1.00  0.00     0.200 A 
ATOM     95  F   UNL A   1      46.002  35.774  28.425  1.00  0.00    -0.200 F 
ATOM     96  F   UNL A   1      46.907  36.009  30.987  1.00  0.00    -0.200 F 
ENDBRANCH  63  86
ENDBRANCH  37  38
ENDBRANCH  30  32
ENDBRANCH  29  30
ENDBRANCH  28  29
ENDBRANCH  27  28
ENDBRANCH  26  27
ENDBRANCH  25  26
ENDBRANCH  24  25
ENDBRANCH   1  24
TORSDOF 23
ENDMDL
MODEL 2
REMARK VINA RESULT:      -9.7      1.610      2.587
REMARK SMILES C[N@H+](CCS(C)(=O)=O)[C@H](CC(=O)OCCOCCOCCOC(=O)c1ccc(-c2c3nc(c(-c4c(F)c(F)c(F)c(F)c4F)c4ccc([nH]4)c(-c4c(F)c(F)c(F)c(F)c4F)c4nc(c(-c5c(F)c(F)c(F)c(F)c5F)c5ccc2[nH]5)C=C4)C=C3)cc1)c1ccccc1
REMARK SMILES IDX 16 1 15 2 14 3 13 4 11 5 12 6 10 7 9 8 2 9 1 10 3 12 4 13
REMARK SMILES IDX 5 14 6 15 7 16 8 17 88 18 89 19 93 20 90 21 92 22 91 23
REMARK SMILES IDX 17 24 18 25 19 26 20 27 21 28 22 29 23 30 24 31 25 32 26 33
REMARK SMILES IDX 87 34 27 35 86 36 28 37 29 38 30 39 80 40 31 41 85 42 79 43
REMARK SMILES IDX 81 44 32 45 84 46 78 47 77 48 33 50 65 51 45 52 64 53 46 54
REMARK SMILES IDX 49 55 63 56 82 57 47 58 48 59 62 61 83 62 50 63 34 64 35 65
REMARK SMILES IDX 43 66 36 67 37 68 41 69 44 70 38 71 39 72 42 73 40 74 66 75
REMARK SMILES IDX 67 76 75 77 68 78 69 79 73 80 76 81 70 82 71 83 74 84 72 85
REMARK SMILES IDX 51 86 52 87 60 88 53 89 54 90 58 91 61 92 55 93 56 94 59 95
REMARK SMILES IDX 57 96
REMARK H PARENT 2 11 81 49 49 60
REMARK Flexibility Score: inf
ROOT
ATOM      1  O   UNL A   1      35.684  23.552  24.918  1.00  0.00    -0.376 OA
ENDROOT
BRANCH   1   2
ATOM      2  C   UNL A   1      34.495  23.292  24.172  1.00  0.00     0.202 C 
BRANCH   2   3
ATOM      3  C   UNL A   1      34.419  24.009  22.820  1.00  0.00     0.261 C 
BRANCH   3   4
ATOM      4  O   UNL A   1      33.160  24.688  22.604  1.00  0.00    -0.463 OA
BRANCH   4   5
ATOM      5  C   UNL A   1      33.152  25.820  21.861  1.00  0.00     0.312 C 
ATOM      6  O   UNL A   1      33.276  25.843  20.641  1.00  0.00    -0.252 OA
BRANCH   5   7
ATOM      7  C   UNL A   1      33.180  27.092  22.695  1.00  0.00     0.192 C 
BRANCH   7   8
ATOM      8  C   UNL A   1      31.997  27.504  23.623  1.00  0.00     0.226 C 
BRANCH   8   9
ATOM      9  N   UNL A   1      30.890  26.501  23.752  1.00  0.00    -0.330 N 
ATOM     10  C   UNL A   1      29.582  27.074  23.516  1.00  0.00     0.333 C 
ATOM     11  H   UNL A   1      31.057  25.842  22.991  1.00  0.00     0.348 HD
BRANCH   9  12
ATOM     12  C   UNL A   1      30.947  25.663  24.964  1.00  0.00     0.278 C 
BRANCH  12  13
ATOM     13  C   UNL A   1      30.621  24.166  24.861  1.00  0.00     0.197 C 
BRANCH  13  14
ATOM     14  S   UNL A   1      30.677  23.216  26.365  1.00  0.00     0.152 S 
ATOM     15  C   UNL A   1      32.262  23.586  27.069  1.00  0.00     0.158 C 
ATOM     16  O   UNL A   1      29.678  23.791  27.249  1.00  0.00    -0.229 OA
ATOM     17  O   UNL A   1      30.643  21.800  26.064  1.00  0.00    -0.229 OA
ENDBRANCH  13  14
ENDBRANCH  12  13
ENDBRANCH   9  12
ENDBRANCH   8   9
BRANCH   8  18
ATOM     18  C   UNL A   1      32.431  28.163  24.948  1.00  0.00     0.010 A 
ATOM     19  C   UNL A   1      31.589  29.091  25.593  1.00  0.00     0.010 A 
ATOM     20  C   UNL A   1      33.651  27.870  25.583  1.00  0.00     0.010 A 
ATOM     21  C   UNL A   1      32.013  29.807  26.716  1.00  0.00     0.001 A 
ATOM     22  C   UNL A   1      34.082  28.590  26.703  1.00  0.00     0.001 A 
ATOM     23  C   UNL A   1      33.273  29.576  27.255  1.00  0.00     0.000 A 
ENDBRANCH   8  18
ENDBRANCH   7   8
ENDBRANCH   5   7
ENDBRANCH   4   5
ENDBRANCH   3   4
ENDBRANCH   2   3
ENDBRANCH   1   2
BRANCH   1  24
ATOM     24  C   UNL A   1      36.888  22.974  24.425  1.00  0.00     0.188 C 
BRANCH  24  25
ATOM     25  C   UNL A   1      37.455  21.826  25.259  1.00  0.00     0.188 C 
BRANCH  25  26
ATOM     26  O   UNL A   1      37.445  20.551  24.628  1.00  0.00    -0.376 OA
BRANCH  26  27
ATOM     27  C   UNL A   1      38.448  19.633  25.060  1.00  0.00     0.202 C 
BRANCH  27  28
ATOM     28  C   UNL A   1      39.647  20.317  25.718  1.00  0.00     0.261 C 
BRANCH  28  29
ATOM     29  O   UNL A   1      40.373  19.354  26.511  1.00  0.00    -0.460 OA
BRANCH  29  30
ATOM     30  C   UNL A   1      41.694  19.264  26.236  1.00  0.00     0.338 C 
ATOM     31  O   UNL A   1      42.314  18.291  25.855  1.00  0.00    -0.246 OA
BRANCH  30  32
ATOM     32  C   UNL A   1      42.300  20.597  26.341  1.00  0.00     0.060 A 
ATOM     33  C   UNL A   1      42.431  21.163  27.609  1.00  0.00     0.016 A 
ATOM     34  C   UNL A   1      42.597  21.339  25.204  1.00  0.00     0.016 A 
ATOM     35  C   UNL A   1      42.765  22.502  27.757  1.00  0.00     0.010 A 
ATOM     36  C   UNL A   1      42.994  22.670  25.353  1.00  0.00     0.010 A 
ATOM     37  C   UNL A   1      43.043  23.272  26.627  1.00  0.00    -0.014 A 
BRANCH  37  38
ATOM     38  C   UNL A   1      43.292  24.730  26.738  1.00  0.00     0.031 A 
ATOM     39  C   UNL A   1      44.657  25.252  26.397  1.00  0.00     0.074 A 
ATOM     40  C   UNL A   1      42.334  25.577  27.153  1.00  0.00     0.049 A 
ATOM     41  N   UNL A   1      45.230  26.372  26.747  1.00  0.00    -0.248 NA
ATOM     42  C   UNL A   1      45.494  24.378  25.559  1.00  0.00     0.031 C 
ATOM     43  C   UNL A   1      40.935  25.227  27.400  1.00  0.00     0.029 A 
ATOM     44  N   UNL A   1      42.405  26.912  27.464  1.00  0.00    -0.354 N 
ATOM     45  C   UNL A   1      46.522  26.302  26.244  1.00  0.00     0.074 A 
ATOM     46  C   UNL A   1      46.639  25.044  25.539  1.00  0.00     0.031 C 
ATOM     47  C   UNL A   1      40.282  26.316  27.836  1.00  0.00     0.029 A 
ATOM     48  C   UNL A   1      41.237  27.408  27.992  1.00  0.00     0.049 A 
ATOM     49  H   UNL A   1      43.211  27.460  27.322  1.00  0.00     0.167 HD
ATOM     50  C   UNL A   1      47.518  27.207  26.387  1.00  0.00     0.037 A 
ATOM     51  C   UNL A   1      40.989  28.581  28.604  1.00  0.00     0.037 A 
ATOM     52  C   UNL A   1      47.356  28.477  27.042  1.00  0.00     0.049 A 
ATOM     53  C   UNL A   1      42.120  29.554  28.799  1.00  0.00     0.074 A 
ATOM     54  C   UNL A   1      48.294  29.470  27.254  1.00  0.00     0.029 A 
ATOM     55  N   UNL A   1      46.158  28.936  27.572  1.00  0.00    -0.354 N 
ATOM     56  N   UNL A   1      43.374  29.449  28.430  1.00  0.00    -0.248 NA
ATOM     57  C   UNL A   1      41.810  30.795  29.521  1.00  0.00     0.031 C 
ATOM     58  C   UNL A   1      47.670  30.520  27.936  1.00  0.00     0.029 A 
ATOM     59  C   UNL A   1      46.334  30.196  28.114  1.00  0.00     0.049 A 
ATOM     60  H   UNL A   1      45.308  28.438  27.563  1.00  0.00     0.167 HD
ATOM     61  C   UNL A   1      43.998  30.611  28.861  1.00  0.00     0.074 A 
ATOM     62  C   UNL A   1      42.982  31.414  29.510  1.00  0.00     0.031 C 
ATOM     63  C   UNL A   1      45.296  30.979  28.736  1.00  0.00     0.037 A 
BRANCH  50  64
ATOM     64  C   UNL A   1      48.879  26.827  25.883  1.00  0.00     0.064 A 
ATOM     65  C   UNL A   1      49.309  27.141  24.586  1.00  0.00     0.173 A 
ATOM     66  C   UNL A   1      49.775  26.156  26.728  1.00  0.00     0.173 A 
ATOM     67  F   UNL A   1      48.486  27.769  23.735  1.00  0.00    -0.203 F 
ATOM     68  C   UNL A   1      50.580  26.774  24.148  1.00  0.00     0.198 A 
ATOM     69  C   UNL A   1      51.054  25.815  26.296  1.00  0.00     0.198 A 
ATOM     70  F   UNL A   1      49.413  25.836  27.981  1.00  0.00    -0.203 F 
ATOM     71  F   UNL A   1      50.958  27.048  22.892  1.00  0.00    -0.200 F 
ATOM     72  C   UNL A   1      51.453  26.119  25.004  1.00  0.00     0.200 A 
ATOM     73  F   UNL A   1      51.898  25.192  27.130  1.00  0.00    -0.200 F 
ATOM     74  F   UNL A   1      52.678  25.775  24.582  1.00  0.00    -0.200 F 
ENDBRANCH  50  64
BRANCH  51  75
ATOM     75  C   UNL A   1      39.632  28.861  29.142  1.00  0.00     0.064 A 
ATOM     76  C   UNL A   1      38.635  29.415  28.329  1.00  0.00     0.173 A 
ATOM     77  C   UNL A   1      39.300  28.566  30.473  1.00  0.00     0.173 A 
ATOM     78  F   UNL A   1      38.912  29.739  27.058  1.00  0.00    -0.203 F 
ATOM     79  C   UNL A   1      37.358  29.667  28.828  1.00  0.00     0.198 A 
ATOM     80  C   UNL A   1      38.016  28.792  30.963  1.00  0.00     0.198 A 
ATOM     81  F   UNL A   1      40.219  28.038  31.295  1.00  0.00    -0.203 F 
ATOM     82  F   UNL A   1      36.432  30.229  28.039  1.00  0.00    -0.200 F 
ATOM     83  C   UNL A   1      37.047  29.346  30.141  1.00  0.00     0.200 A 
ATOM     84  F   UNL A   1      37.716  28.467  32.228  1.00  0.00    -0.200 F 
ATOM     85  F   UNL A   1      35.815  29.578  30.616  1.00  0.00    -0.200 F 
ENDBRANCH  51  75
BRANCH  63  86
ATOM     86  C   UNL A   1      45.681  32.325  29.268  1.00  0.00     0.064 A 
ATOM     87  C   UNL A   1      46.186  32.483  30.566  1.00  0.00     0.173 A 
ATOM     88  C   UNL A   1      45.601  33.458  28.446  1.00  0.00     0.173 A 
ATOM     89  F   UNL A   1      46.265  31.429  31.393  1.00  0.00    -0.203 F 
ATOM     90  C   UNL A   1      46.587  33.733  31.026  1.00  0.00     0.198 A 
ATOM     91  C   UNL A   1      46.022  34.703  28.902  1.00  0.00     0.198 A 
ATOM     92  F   UNL A   1      45.127  33.353  27.195  1.00  0.00    -0.203 F 
ATOM     93  F   UNL A   1      47.040  33.871  32.280  1.00  0.00    -0.200 F 
ATOM     94  C   UNL A   1      46.513  34.840  30.192  1.00  0.00     0.200 A 
ATOM     95  F   UNL A   1      45.959  35.768  28.092  1.00  0.00    -0.200 F 
ATOM     96  F   UNL A   1      46.910  36.041  30.634  1.00  0.00    -0.200 F 
ENDBRANCH  63  86
ENDBRANCH  37  38
ENDBRANCH  30  32
ENDBRANCH  29  30
ENDBRANCH  28  29
ENDBRANCH  27  28
ENDBRANCH  26  27
ENDBRANCH  25  26
ENDBRANCH  24  25
ENDBRANCH   1  24
TORSDOF 23
ENDMDL
MODEL 3
REMARK VINA RESULT:      -9.4      1.556      2.828
REMARK SMILES C[N@H+](CCS(C)(=O)=O)[C@H](CC(=O)OCCOCCOCCOC(=O)c1ccc(-c2c3nc(c(-c4c(F)c(F)c(F)c(F)c4F)c4ccc([nH]4)c(-c4c(F)c(F)c(F)c(F)c4F)c4nc(c(-c5c(F)c(F)c(F)c(F)c5F)c5ccc2[nH]5)C=C4)C=C3)cc1)c1ccccc1
REMARK SMILES IDX 16 1 15 2 14 3 13 4 11 5 12 6 10 7 9 8 2 9 1 10 3 12 4 13
REMARK SMILES IDX 5 14 6 15 7 16 8 17 88 18 89 19 93 20 90 21 92 22 91 23
REMARK SMILES IDX 17 24 18 25 19 26 20 27 21 28 22 29 23 30 24 31 25 32 26 33
REMARK SMILES IDX 87 34 27 35 86 36 28 37 29 38 30 39 80 40 31 41 85 42 79 43
REMARK SMILES IDX 81 44 32 45 84 46 78 47 77 48 33 50 65 51 45 52 64 53 46 54
REMARK SMILES IDX 49 55 63 56 82 57 47 58 48 59 62 61 83 62 50 63 34 64 35 65
REMARK SMILES IDX 43 66 36 67 37 68 41 69 44 70 38 71 39 72 42 73 40 74 66 75
REMARK SMILES IDX 67 76 75 77 68 78 69 79 73 80 76 81 70 82 71 83 74 84 72 85
REMARK SMILES IDX 51 86 52 87 60 88 53 89 54 90 58 91 61 92 55 93 56 94 59 95
REMARK SMILES IDX 57 96
REMARK H PARENT 2 11 81 49 49 60
REMARK Flexibility Score: inf
ROOT
ATOM      1  O   UNL A   1      35.587  23.540  25.034  1.00  0.00    -0.376 OA
ENDROOT
BRANCH   1   2
ATOM      2  C   UNL A   1      34.513  23.006  24.259  1.00  0.00     0.202 C 
BRANCH   2   3
ATOM      3  C   UNL A   1      34.598  23.302  22.758  1.00  0.00     0.261 C 
BRANCH   3   4
ATOM      4  O   UNL A   1      33.318  23.627  22.168  1.00  0.00    -0.463 OA
BRANCH   4   5
ATOM      5  C   UNL A   1      33.203  24.775  21.459  1.00  0.00     0.312 C 
ATOM      6  O   UNL A   1      33.223  24.834  20.234  1.00  0.00    -0.252 OA
BRANCH   5   7
ATOM      7  C   UNL A   1      33.251  26.028  22.322  1.00  0.00     0.192 C 
BRANCH   7   8
ATOM      8  C   UNL A   1      32.572  26.098  23.724  1.00  0.00     0.226 C 
BRANCH   8   9
ATOM      9  N   UNL A   1      33.429  26.626  24.836  1.00  0.00    -0.330 N 
ATOM     10  C   UNL A   1      33.069  26.082  26.129  1.00  0.00     0.333 C 
ATOM     11  H   UNL A   1      34.362  26.273  24.625  1.00  0.00     0.348 HD
BRANCH   9  12
ATOM     12  C   UNL A   1      33.599  28.090  24.850  1.00  0.00     0.278 C 
BRANCH  12  13
ATOM     13  C   UNL A   1      33.881  28.803  26.181  1.00  0.00     0.197 C 
BRANCH  13  14
ATOM     14  S   UNL A   1      32.574  29.801  26.861  1.00  0.00     0.152 S 
ATOM     15  C   UNL A   1      31.606  30.289  25.456  1.00  0.00     0.158 C 
ATOM     16  O   UNL A   1      31.747  28.908  27.654  1.00  0.00    -0.229 OA
ATOM     17  O   UNL A   1      33.121  30.999  27.463  1.00  0.00    -0.229 OA
ENDBRANCH  13  14
ENDBRANCH  12  13
ENDBRANCH   9  12
ENDBRANCH   8   9
BRANCH   8  18
ATOM     18  C   UNL A   1      31.129  26.643  23.703  1.00  0.00     0.010 A 
ATOM     19  C   UNL A   1      30.098  25.955  24.374  1.00  0.00     0.010 A 
ATOM     20  C   UNL A   1      30.773  27.835  23.049  1.00  0.00     0.010 A 
ATOM     21  C   UNL A   1      28.761  26.346  24.257  1.00  0.00     0.001 A 
ATOM     22  C   UNL A   1      29.435  28.226  22.924  1.00  0.00     0.001 A 
ATOM     23  C   UNL A   1      28.427  27.467  23.507  1.00  0.00     0.000 A 
ENDBRANCH   8  18
ENDBRANCH   7   8
ENDBRANCH   5   7
ENDBRANCH   4   5
ENDBRANCH   3   4
ENDBRANCH   2   3
ENDBRANCH   1   2
BRANCH   1  24
ATOM     24  C   UNL A   1      36.898  23.092  24.706  1.00  0.00     0.188 C 
BRANCH  24  25
ATOM     25  C   UNL A   1      37.376  21.852  25.460  1.00  0.00     0.188 C 
BRANCH  25  26
ATOM     26  O   UNL A   1      37.460  20.662  24.686  1.00  0.00    -0.376 OA
BRANCH  26  27
ATOM     27  C   UNL A   1      38.432  19.708  25.110  1.00  0.00     0.202 C 
BRANCH  27  28
ATOM     28  C   UNL A   1      39.658  20.349  25.764  1.00  0.00     0.261 C 
BRANCH  28  29
ATOM     29  O   UNL A   1      40.395  19.341  26.490  1.00  0.00    -0.460 OA
BRANCH  29  30
ATOM     30  C   UNL A   1      41.713  19.274  26.197  1.00  0.00     0.338 C 
ATOM     31  O   UNL A   1      42.335  18.325  25.762  1.00  0.00    -0.246 OA
BRANCH  30  32
ATOM     32  C   UNL A   1      42.312  20.604  26.360  1.00  0.00     0.060 A 
ATOM     33  C   UNL A   1      42.318  21.172  27.635  1.00  0.00     0.016 A 
ATOM     34  C   UNL A   1      42.725  21.343  25.259  1.00  0.00     0.016 A 
ATOM     35  C   UNL A   1      42.642  22.510  27.815  1.00  0.00     0.010 A 
ATOM     36  C   UNL A   1      43.112  22.672  25.445  1.00  0.00     0.010 A 
ATOM     37  C   UNL A   1      43.035  23.276  26.716  1.00  0.00    -0.014 A 
BRANCH  37  38
ATOM     38  C   UNL A   1      43.279  24.733  26.850  1.00  0.00     0.031 A 
ATOM     39  C   UNL A   1      44.651  25.261  26.550  1.00  0.00     0.074 A 
ATOM     40  C   UNL A   1      42.309  25.574  27.250  1.00  0.00     0.049 A 
ATOM     41  N   UNL A   1      45.213  26.378  26.928  1.00  0.00    -0.248 NA
ATOM     42  C   UNL A   1      45.511  24.398  25.725  1.00  0.00     0.031 C 
ATOM     43  C   UNL A   1      40.905  25.219  27.458  1.00  0.00     0.029 A 
ATOM     44  N   UNL A   1      42.370  26.906  27.578  1.00  0.00    -0.354 N 
ATOM     45  C   UNL A   1      46.518  26.315  26.458  1.00  0.00     0.074 A 
ATOM     46  C   UNL A   1      46.655  25.066  25.741  1.00  0.00     0.031 C 
ATOM     47  C   UNL A   1      40.239  26.303  27.888  1.00  0.00     0.029 A 
ATOM     48  C   UNL A   1      41.188  27.394  28.081  1.00  0.00     0.049 A 
ATOM     49  H   UNL A   1      43.178  27.456  27.463  1.00  0.00     0.167 HD
ATOM     50  C   UNL A   1      47.509  27.220  26.637  1.00  0.00     0.037 A 
ATOM     51  C   UNL A   1      40.922  28.560  28.700  1.00  0.00     0.037 A 
ATOM     52  C   UNL A   1      47.328  28.482  27.301  1.00  0.00     0.049 A 
ATOM     53  C   UNL A   1      42.046  29.532  28.935  1.00  0.00     0.074 A 
ATOM     54  C   UNL A   1      48.258  29.475  27.549  1.00  0.00     0.029 A 
ATOM     55  N   UNL A   1      46.115  28.934  27.805  1.00  0.00    -0.354 N 
ATOM     56  N   UNL A   1      43.310  29.433  28.597  1.00  0.00    -0.248 NA
ATOM     57  C   UNL A   1      41.715  30.765  29.663  1.00  0.00     0.031 C 
ATOM     58  C   UNL A   1      47.615  30.516  28.226  1.00  0.00     0.029 A 
ATOM     59  C   UNL A   1      46.275  30.188  28.366  1.00  0.00     0.049 A 
ATOM     60  H   UNL A   1      45.267  28.435  27.768  1.00  0.00     0.167 HD
ATOM     61  C   UNL A   1      43.920  30.591  29.057  1.00  0.00     0.074 A 
ATOM     62  C   UNL A   1      42.887  31.385  29.688  1.00  0.00     0.031 C 
ATOM     63  C   UNL A   1      45.221  30.962  28.969  1.00  0.00     0.037 A 
BRANCH  50  64
ATOM     64  C   UNL A   1      48.882  26.848  26.163  1.00  0.00     0.064 A 
ATOM     65  C   UNL A   1      49.797  26.171  26.981  1.00  0.00     0.173 A 
ATOM     66  C   UNL A   1      49.278  27.159  24.853  1.00  0.00     0.173 A 
ATOM     67  F   UNL A   1      49.473  25.863  28.245  1.00  0.00    -0.203 F 
ATOM     68  C   UNL A   1      51.066  25.839  26.511  1.00  0.00     0.198 A 
ATOM     69  C   UNL A   1      50.537  26.803  24.377  1.00  0.00     0.198 A 
ATOM     70  F   UNL A   1      48.438  27.805  24.028  1.00  0.00    -0.203 F 
ATOM     71  F   UNL A   1      51.940  25.226  27.321  1.00  0.00    -0.200 F 
ATOM     72  C   UNL A   1      51.432  26.149  25.209  1.00  0.00     0.200 A 
ATOM     73  F   UNL A   1      50.882  27.095  23.116  1.00  0.00    -0.200 F 
ATOM     74  F   UNL A   1      52.650  25.822  24.757  1.00  0.00    -0.200 F 
ENDBRANCH  50  64
BRANCH  51  75
ATOM     75  C   UNL A   1      39.552  28.832  29.206  1.00  0.00     0.064 A 
ATOM     76  C   UNL A   1      39.201  28.535  30.530  1.00  0.00     0.173 A 
ATOM     77  C   UNL A   1      38.571  29.408  28.385  1.00  0.00     0.173 A 
ATOM     78  F   UNL A   1      40.095  27.959  31.345  1.00  0.00    -0.203 F 
ATOM     79  C   UNL A   1      37.920  28.800  31.010  1.00  0.00     0.198 A 
ATOM     80  C   UNL A   1      37.300  29.699  28.874  1.00  0.00     0.198 A 
ATOM     81  F   UNL A   1      38.855  29.708  27.108  1.00  0.00    -0.203 F 
ATOM     82  F   UNL A   1      37.599  28.475  32.270  1.00  0.00    -0.200 F 
ATOM     83  C   UNL A   1      36.974  29.391  30.185  1.00  0.00     0.200 A 
ATOM     84  F   UNL A   1      36.394  30.283  28.077  1.00  0.00    -0.200 F 
ATOM     85  F   UNL A   1      35.746  29.657  30.653  1.00  0.00    -0.200 F 
ENDBRANCH  51  75
BRANCH  63  86
ATOM     86  C   UNL A   1      45.589  32.302  29.527  1.00  0.00     0.064 A 
ATOM     87  C   UNL A   1      45.497  33.468  28.754  1.00  0.00     0.173 A 
ATOM     88  C   UNL A   1      45.977  32.426  30.869  1.00  0.00     0.173 A 
ATOM     89  F   UNL A   1      45.144  33.395  27.461  1.00  0.00    -0.203 F 
ATOM     90  C   UNL A   1      45.793  34.712  29.304  1.00  0.00     0.198 A 
ATOM     91  C   UNL A   1      46.252  33.672  31.421  1.00  0.00     0.198 A 
ATOM     92  F   UNL A   1      46.075  31.337  31.646  1.00  0.00    -0.203 F 
ATOM     93  F   UNL A   1      45.728  35.813  28.542  1.00  0.00    -0.200 F 
ATOM     94  C   UNL A   1      46.162  34.814  30.638  1.00  0.00     0.200 A 
ATOM     95  F   UNL A   1      46.599  33.771  32.711  1.00  0.00    -0.200 F 
ATOM     96  F   UNL A   1      46.436  36.014  31.168  1.00  0.00    -0.200 F 
ENDBRANCH  63  86
ENDBRANCH  37  38
ENDBRANCH  30  32
ENDBRANCH  29  30
ENDBRANCH  28  29
ENDBRANCH  27  28
ENDBRANCH  26  27
ENDBRANCH  25  26
ENDBRANCH  24  25
ENDBRANCH   1  24
TORSDOF 23
ENDMDL
