MODEL 1
REMARK VINA RESULT:     -12.1      0.000      0.000
REMARK SMILES O=C(OCCOCCOCCOC(=O)c1nc(NC[C@H]2c3ccccc3CSc3ccccc32)c2ccccc2n1)c1ccc(-c2c3nc(c(-c4c(F)c(F)c(F)c(F)c4F)c4ccc([nH]4)c(-c4c(F)c(F)c(F)c(F)c4F)c4nc(c(-c5c(F)c(F)c(F)c(F)c5F)c5ccc2[nH]5)C=C4)C=C3)cc1
REMARK SMILES IDX 8 1 7 2 6 3 5 4 4 5 3 6 2 7 1 8 42 9 43 10 104 11 44 12
REMARK SMILES IDX 103 13 45 14 46 15 47 16 97 17 48 18 102 19 96 20 98 21
REMARK SMILES IDX 49 22 101 23 95 24 94 25 50 27 82 28 62 29 81 30 63 31 66 32
REMARK SMILES IDX 80 33 99 34 64 35 65 36 79 38 100 39 67 40 51 41 52 42 60 43
REMARK SMILES IDX 53 44 54 45 58 46 61 47 55 48 56 49 59 50 57 51 83 52 84 53
REMARK SMILES IDX 92 54 85 55 86 56 90 57 93 58 87 59 88 60 91 61 89 62 68 63
REMARK SMILES IDX 69 64 77 65 70 66 71 67 75 68 78 69 72 70 73 71 76 72 74 73
REMARK SMILES IDX 9 74 10 75 11 76 12 77 13 78 14 79 15 80 16 81 41 82 17 83
REMARK SMILES IDX 40 84 35 85 39 86 36 87 38 88 37 89 18 90 19 92 20 93 21 94
REMARK SMILES IDX 34 95 22 96 26 97 29 98 33 99 23 100 25 101 27 102 28 103
REMARK SMILES IDX 30 104 32 105 24 106 31 107
REMARK H PARENT 98 26 66 37 18 91
REMARK Flexibility Score: inf
ROOT
ATOM      1  C   UNL A   1      40.074  21.892  27.166  1.00  0.00     0.188 C 
ENDROOT
BRANCH   1   2
ATOM      2  C   UNL A   1      41.257  21.109  26.587  1.00  0.00     0.188 C 
BRANCH   2   3
ATOM      3  O   UNL A   1      42.062  21.577  25.511  1.00  0.00    -0.376 OA
BRANCH   3   4
ATOM      4  C   UNL A   1      43.446  21.300  25.421  1.00  0.00     0.202 C 
BRANCH   4   5
ATOM      5  C   UNL A   1      44.404  22.364  24.891  1.00  0.00     0.261 C 
BRANCH   5   6
ATOM      6  O   UNL A   1      43.816  23.600  24.508  1.00  0.00    -0.460 OA
BRANCH   6   7
ATOM      7  C   UNL A   1      44.042  24.827  25.003  1.00  0.00     0.338 C 
ATOM      8  O   UNL A   1      45.103  25.348  24.661  1.00  0.00    -0.246 OA
BRANCH   7   9
ATOM      9  C   UNL A   1      43.237  25.518  26.070  1.00  0.00     0.060 A 
ATOM     10  C   UNL A   1      43.647  26.829  26.356  1.00  0.00     0.016 A 
ATOM     11  C   UNL A   1      42.292  24.947  26.919  1.00  0.00     0.016 A 
ATOM     12  C   UNL A   1      43.296  27.477  27.536  1.00  0.00     0.010 A 
ATOM     13  C   UNL A   1      41.891  25.607  28.088  1.00  0.00     0.010 A 
ATOM     14  C   UNL A   1      42.409  26.865  28.412  1.00  0.00    -0.014 A 
BRANCH  14  15
ATOM     15  C   UNL A   1      41.808  27.667  29.491  1.00  0.00     0.031 A 
ATOM     16  C   UNL A   1      40.614  28.540  29.280  1.00  0.00     0.074 A 
ATOM     17  C   UNL A   1      42.414  27.568  30.688  1.00  0.00     0.049 A 
ATOM     18  N   UNL A   1      40.029  29.332  30.143  1.00  0.00    -0.248 NA
ATOM     19  C   UNL A   1      39.987  28.532  27.950  1.00  0.00     0.031 C 
ATOM     20  C   UNL A   1      43.566  26.703  30.968  1.00  0.00     0.029 A 
ATOM     21  N   UNL A   1      42.174  28.200  31.876  1.00  0.00    -0.354 N 
ATOM     22  C   UNL A   1      38.953  29.896  29.474  1.00  0.00     0.074 A 
ATOM     23  C   UNL A   1      38.979  29.385  28.119  1.00  0.00     0.031 C 
ATOM     24  C   UNL A   1      43.961  26.894  32.233  1.00  0.00     0.029 A 
ATOM     25  C   UNL A   1      43.107  27.906  32.837  1.00  0.00     0.049 A 
ATOM     26  H   UNL A   1      41.412  28.805  32.024  1.00  0.00     0.167 HD
ATOM     27  C   UNL A   1      38.021  30.740  29.979  1.00  0.00     0.037 A 
ATOM     28  C   UNL A   1      43.274  28.423  34.066  1.00  0.00     0.037 A 
ATOM     29  C   UNL A   1      38.008  31.205  31.340  1.00  0.00     0.049 A 
ATOM     30  C   UNL A   1      42.272  29.422  34.557  1.00  0.00     0.074 A 
ATOM     31  C   UNL A   1      37.070  32.011  31.959  1.00  0.00     0.029 A 
ATOM     32  N   UNL A   1      38.971  30.897  32.288  1.00  0.00    -0.354 N 
ATOM     33  N   UNL A   1      41.211  29.886  33.942  1.00  0.00    -0.248 NA
ATOM     34  C   UNL A   1      42.471  29.958  35.906  1.00  0.00     0.031 C 
ATOM     35  C   UNL A   1      37.476  32.209  33.280  1.00  0.00     0.029 A 
ATOM     36  C   UNL A   1      38.661  31.518  33.486  1.00  0.00     0.049 A 
ATOM     37  H   UNL A   1      39.756  30.324  32.133  1.00  0.00     0.167 HD
ATOM     38  C   UNL A   1      40.593  30.738  34.842  1.00  0.00     0.074 A 
ATOM     39  C   UNL A   1      41.400  30.729  36.046  1.00  0.00     0.031 C 
ATOM     40  C   UNL A   1      39.460  31.459  34.682  1.00  0.00     0.037 A 
BRANCH  27  41
ATOM     41  C   UNL A   1      36.882  31.167  29.111  1.00  0.00     0.064 A 
ATOM     42  C   UNL A   1      35.846  30.263  28.848  1.00  0.00     0.173 A 
ATOM     43  C   UNL A   1      36.721  32.492  28.689  1.00  0.00     0.173 A 
ATOM     44  F   UNL A   1      35.909  29.019  29.342  1.00  0.00    -0.203 F 
ATOM     45  C   UNL A   1      34.712  30.650  28.141  1.00  0.00     0.198 A 
ATOM     46  C   UNL A   1      35.569  32.888  28.011  1.00  0.00     0.198 A 
ATOM     47  F   UNL A   1      37.653  33.411  28.981  1.00  0.00    -0.203 F 
ATOM     48  F   UNL A   1      33.746  29.757  27.885  1.00  0.00    -0.200 F 
ATOM     49  C   UNL A   1      34.572  31.964  27.725  1.00  0.00     0.200 A 
ATOM     50  F   UNL A   1      35.410  34.170  27.654  1.00  0.00    -0.200 F 
ATOM     51  F   UNL A   1      33.466  32.347  27.074  1.00  0.00    -0.200 F 
ENDBRANCH  27  41
BRANCH  28  52
ATOM     52  C   UNL A   1      44.423  27.976  34.887  1.00  0.00     0.064 A 
ATOM     53  C   UNL A   1      44.301  26.896  35.768  1.00  0.00     0.173 A 
ATOM     54  C   UNL A   1      45.685  28.579  34.759  1.00  0.00     0.173 A 
ATOM     55  F   UNL A   1      43.114  26.292  35.925  1.00  0.00    -0.203 F 
ATOM     56  C   UNL A   1      45.395  26.441  36.501  1.00  0.00     0.198 A 
ATOM     57  C   UNL A   1      46.785  28.105  35.470  1.00  0.00     0.198 A 
ATOM     58  F   UNL A   1      45.858  29.607  33.914  1.00  0.00    -0.203 F 
ATOM     59  F   UNL A   1      45.245  25.424  37.359  1.00  0.00    -0.200 F 
ATOM     60  C   UNL A   1      46.637  27.041  36.346  1.00  0.00     0.200 A 
ATOM     61  F   UNL A   1      47.987  28.672  35.300  1.00  0.00    -0.200 F 
ATOM     62  F   UNL A   1      47.690  26.593  37.042  1.00  0.00    -0.200 F 
ENDBRANCH  28  52
BRANCH  40  63
ATOM     63  C   UNL A   1      38.993  32.283  35.839  1.00  0.00     0.064 A 
ATOM     64  C   UNL A   1      38.226  31.714  36.865  1.00  0.00     0.173 A 
ATOM     65  C   UNL A   1      39.430  33.607  35.988  1.00  0.00     0.173 A 
ATOM     66  F   UNL A   1      37.779  30.454  36.755  1.00  0.00    -0.203 F 
ATOM     67  C   UNL A   1      37.920  32.443  38.008  1.00  0.00     0.198 A 
ATOM     68  C   UNL A   1      39.144  34.324  37.145  1.00  0.00     0.198 A 
ATOM     69  F   UNL A   1      40.175  34.185  35.034  1.00  0.00    -0.203 F 
ATOM     70  F   UNL A   1      37.179  31.886  38.976  1.00  0.00    -0.200 F 
ATOM     71  C   UNL A   1      38.392  33.740  38.155  1.00  0.00     0.200 A 
ATOM     72  F   UNL A   1      39.616  35.568  37.294  1.00  0.00    -0.200 F 
ATOM     73  F   UNL A   1      38.126  34.428  39.274  1.00  0.00    -0.200 F 
ENDBRANCH  40  63
ENDBRANCH  14  15
ENDBRANCH   7   9
ENDBRANCH   6   7
ENDBRANCH   5   6
ENDBRANCH   4   5
ENDBRANCH   3   4
ENDBRANCH   2   3
ENDBRANCH   1   2
BRANCH   1  74
ATOM     74  O   UNL A   1      39.531  23.037  26.524  1.00  0.00    -0.376 OA
BRANCH  74  75
ATOM     75  C   UNL A   1      38.196  23.025  26.064  1.00  0.00     0.202 C 
BRANCH  75  76
ATOM     76  C   UNL A   1      37.727  21.740  25.374  1.00  0.00     0.261 C 
BRANCH  76  77
ATOM     77  O   UNL A   1      36.863  21.951  24.247  1.00  0.00    -0.457 OA
BRANCH  77  78
ATOM     78  C   UNL A   1      35.536  22.067  24.506  1.00  0.00     0.376 C 
ATOM     79  O   UNL A   1      34.814  21.189  25.007  1.00  0.00    -0.242 OA
BRANCH  78  80
ATOM     80  C   UNL A   1      35.044  23.403  24.056  1.00  0.00     0.241 A 
ATOM     81  N   UNL A   1      35.018  24.440  24.944  1.00  0.00    -0.204 NA
ATOM     82  N   UNL A   1      34.550  23.396  22.803  1.00  0.00    -0.222 NA
ATOM     83  C   UNL A   1      34.394  25.559  24.526  1.00  0.00     0.138 A 
ATOM     84  C   UNL A   1      33.918  24.495  22.421  1.00  0.00     0.077 A 
ATOM     85  C   UNL A   1      33.819  25.636  23.230  1.00  0.00     0.043 A 
ATOM     86  C   UNL A   1      33.290  24.479  21.183  1.00  0.00     0.029 A 
ATOM     87  C   UNL A   1      33.135  26.762  22.713  1.00  0.00     0.014 A 
ATOM     88  C   UNL A   1      32.554  25.570  20.724  1.00  0.00     0.002 A 
ATOM     89  C   UNL A   1      32.504  26.730  21.475  1.00  0.00     0.001 A 
BRANCH  83  90
ATOM     90  N   UNL A   1      34.224  26.672  25.369  1.00  0.00    -0.368 N 
ATOM     91  H   UNL A   1      34.782  27.460  25.175  1.00  0.00     0.162 HD
BRANCH  90  92
ATOM     92  C   UNL A   1      33.304  26.782  26.502  1.00  0.00     0.127 C 
BRANCH  92  93
ATOM     93  C   UNL A   1      31.731  26.359  26.236  1.00  0.00     0.070 C 
ATOM     94  C   UNL A   1      31.021  27.448  25.352  1.00  0.00    -0.035 A 
ATOM     95  C   UNL A   1      31.541  24.821  25.965  1.00  0.00    -0.025 A 
ATOM     96  C   UNL A   1      31.493  28.780  25.381  1.00  0.00     0.005 A 
ATOM     97  C   UNL A   1      29.928  27.232  24.486  1.00  0.00    -0.034 A 
ATOM     98  C   UNL A   1      31.072  24.143  24.815  1.00  0.00     0.011 A 
ATOM     99  C   UNL A   1      31.883  23.967  27.044  1.00  0.00     0.005 A 
ATOM    100  C   UNL A   1      31.077  29.752  24.456  1.00  0.00     0.000 A 
ATOM    101  C   UNL A   1      29.572  28.190  23.504  1.00  0.00     0.005 A 
ATOM    102  C   UNL A   1      29.164  25.953  24.440  1.00  0.00     0.110 C 
ATOM    103  S   UNL A   1      30.150  24.821  23.456  1.00  0.00    -0.121 SA
ATOM    104  C   UNL A   1      31.146  22.732  24.711  1.00  0.00     0.015 A 
ATOM    105  C   UNL A   1      31.953  22.570  26.936  1.00  0.00     0.000 A 
ATOM    106  C   UNL A   1      30.176  29.431  23.461  1.00  0.00     0.000 A 
ATOM    107  C   UNL A   1      31.619  21.950  25.750  1.00  0.00     0.001 A 
ENDBRANCH  92  93
ENDBRANCH  90  92
ENDBRANCH  83  90
ENDBRANCH  78  80
ENDBRANCH  77  78
ENDBRANCH  76  77
ENDBRANCH  75  76
ENDBRANCH  74  75
ENDBRANCH   1  74
TORSDOF 20
ENDMDL
MODEL 2
REMARK VINA RESULT:     -11.2      5.878     13.007
REMARK SMILES O=C(OCCOCCOCCOC(=O)c1nc(NC[C@H]2c3ccccc3CSc3ccccc32)c2ccccc2n1)c1ccc(-c2c3nc(c(-c4c(F)c(F)c(F)c(F)c4F)c4ccc([nH]4)c(-c4c(F)c(F)c(F)c(F)c4F)c4nc(c(-c5c(F)c(F)c(F)c(F)c5F)c5ccc2[nH]5)C=C4)C=C3)cc1
REMARK SMILES IDX 8 1 7 2 6 3 5 4 4 5 3 6 2 7 1 8 42 9 43 10 104 11 44 12
REMARK SMILES IDX 103 13 45 14 46 15 47 16 97 17 48 18 102 19 96 20 98 21
REMARK SMILES IDX 49 22 101 23 95 24 94 25 50 27 82 28 62 29 81 30 63 31 66 32
REMARK SMILES IDX 80 33 99 34 64 35 65 36 79 38 100 39 67 40 51 41 52 42 60 43
REMARK SMILES IDX 53 44 54 45 58 46 61 47 55 48 56 49 59 50 57 51 83 52 84 53
REMARK SMILES IDX 92 54 85 55 86 56 90 57 93 58 87 59 88 60 91 61 89 62 68 63
REMARK SMILES IDX 69 64 77 65 70 66 71 67 75 68 78 69 72 70 73 71 76 72 74 73
REMARK SMILES IDX 9 74 10 75 11 76 12 77 13 78 14 79 15 80 16 81 41 82 17 83
REMARK SMILES IDX 40 84 35 85 39 86 36 87 38 88 37 89 18 90 19 92 20 93 21 94
REMARK SMILES IDX 34 95 22 96 26 97 29 98 33 99 23 100 25 101 27 102 28 103
REMARK SMILES IDX 30 104 32 105 24 106 31 107
REMARK H PARENT 98 26 66 37 18 91
REMARK Flexibility Score: inf
ROOT
ATOM      1  C   UNL A   1      33.264  37.131  29.702  1.00  0.00     0.188 C 
ENDROOT
BRANCH   1   2
ATOM      2  C   UNL A   1      33.694  35.840  28.998  1.00  0.00     0.188 C 
BRANCH   2   3
ATOM      3  O   UNL A   1      32.877  34.678  28.911  1.00  0.00    -0.376 OA
BRANCH   3   4
ATOM      4  C   UNL A   1      33.100  33.662  27.953  1.00  0.00     0.202 C 
BRANCH   4   5
ATOM      5  C   UNL A   1      34.241  32.666  28.148  1.00  0.00     0.261 C 
BRANCH   5   6
ATOM      6  O   UNL A   1      33.895  31.292  28.053  1.00  0.00    -0.460 OA
BRANCH   6   7
ATOM      7  C   UNL A   1      34.697  30.236  27.840  1.00  0.00     0.338 C 
ATOM      8  O   UNL A   1      34.178  29.289  27.248  1.00  0.00    -0.246 OA
BRANCH   7   9
ATOM      9  C   UNL A   1      36.069  30.028  28.421  1.00  0.00     0.060 A 
ATOM     10  C   UNL A   1      37.120  30.142  27.498  1.00  0.00     0.016 A 
ATOM     11  C   UNL A   1      36.385  29.550  29.690  1.00  0.00     0.016 A 
ATOM     12  C   UNL A   1      38.386  29.621  27.745  1.00  0.00     0.010 A 
ATOM     13  C   UNL A   1      37.670  29.066  29.971  1.00  0.00     0.010 A 
ATOM     14  C   UNL A   1      38.668  29.079  28.992  1.00  0.00    -0.014 A 
BRANCH  14  15
ATOM     15  C   UNL A   1      40.072  28.814  29.350  1.00  0.00     0.031 A 
ATOM     16  C   UNL A   1      40.923  29.806  30.073  1.00  0.00     0.074 A 
ATOM     17  C   UNL A   1      40.545  27.612  28.974  1.00  0.00     0.049 A 
ATOM     18  N   UNL A   1      42.187  29.704  30.397  1.00  0.00    -0.248 NA
ATOM     19  C   UNL A   1      40.294  31.067  30.497  1.00  0.00     0.031 C 
ATOM     20  C   UNL A   1      39.752  26.582  28.293  1.00  0.00     0.029 A 
ATOM     21  N   UNL A   1      41.790  27.059  29.081  1.00  0.00    -0.354 N 
ATOM     22  C   UNL A   1      42.502  30.869  31.082  1.00  0.00     0.074 A 
ATOM     23  C   UNL A   1      41.306  31.685  31.102  1.00  0.00     0.031 C 
ATOM     24  C   UNL A   1      40.542  25.541  28.003  1.00  0.00     0.029 A 
ATOM     25  C   UNL A   1      41.892  25.843  28.455  1.00  0.00     0.049 A 
ATOM     26  H   UNL A   1      42.537  27.490  29.557  1.00  0.00     0.167 HD
ATOM     27  C   UNL A   1      43.684  31.190  31.659  1.00  0.00     0.037 A 
ATOM     28  C   UNL A   1      42.969  25.068  28.241  1.00  0.00     0.037 A 
ATOM     29  C   UNL A   1      44.844  30.341  31.646  1.00  0.00     0.049 A 
ATOM     30  C   UNL A   1      44.280  25.502  28.821  1.00  0.00     0.074 A 
ATOM     31  C   UNL A   1      46.067  30.553  32.257  1.00  0.00     0.029 A 
ATOM     32  N   UNL A   1      44.920  29.119  30.996  1.00  0.00    -0.354 N 
ATOM     33  N   UNL A   1      44.545  26.567  29.537  1.00  0.00    -0.248 NA
ATOM     34  C   UNL A   1      45.435  24.630  28.585  1.00  0.00     0.031 C 
ATOM     35  C   UNL A   1      46.892  29.466  31.960  1.00  0.00     0.029 A 
ATOM     36  C   UNL A   1      46.180  28.573  31.173  1.00  0.00     0.049 A 
ATOM     37  H   UNL A   1      44.189  28.702  30.486  1.00  0.00     0.167 HD
ATOM     38  C   UNL A   1      45.886  26.477  29.871  1.00  0.00     0.074 A 
ATOM     39  C   UNL A   1      46.382  25.251  29.276  1.00  0.00     0.031 C 
ATOM     40  C   UNL A   1      46.635  27.331  30.604  1.00  0.00     0.037 A 
BRANCH  27  41
ATOM     41  C   UNL A   1      43.792  32.464  32.432  1.00  0.00     0.064 A 
ATOM     42  C   UNL A   1      44.054  33.658  31.750  1.00  0.00     0.173 A 
ATOM     43  C   UNL A   1      43.469  32.541  33.792  1.00  0.00     0.173 A 
ATOM     44  F   UNL A   1      44.246  33.637  30.424  1.00  0.00    -0.203 F 
ATOM     45  C   UNL A   1      44.051  34.883  32.411  1.00  0.00     0.198 A 
ATOM     46  C   UNL A   1      43.433  33.773  34.446  1.00  0.00     0.198 A 
ATOM     47  F   UNL A   1      43.140  31.433  34.471  1.00  0.00    -0.203 F 
ATOM     48  F   UNL A   1      44.328  36.007  31.736  1.00  0.00    -0.200 F 
ATOM     49  C   UNL A   1      43.737  34.940  33.758  1.00  0.00     0.200 A 
ATOM     50  F   UNL A   1      43.078  33.834  35.737  1.00  0.00    -0.200 F 
ATOM     51  F   UNL A   1      43.700  36.122  34.388  1.00  0.00    -0.200 F 
ENDBRANCH  27  41
BRANCH  28  52
ATOM     52  C   UNL A   1      42.816  23.818  27.462  1.00  0.00     0.064 A 
ATOM     53  C   UNL A   1      43.080  23.790  26.088  1.00  0.00     0.173 A 
ATOM     54  C   UNL A   1      42.464  22.610  28.087  1.00  0.00     0.173 A 
ATOM     55  F   UNL A   1      43.416  24.920  25.448  1.00  0.00    -0.203 F 
ATOM     56  C   UNL A   1      42.989  22.603  25.364  1.00  0.00     0.198 A 
ATOM     57  C   UNL A   1      42.401  21.420  27.368  1.00  0.00     0.198 A 
ATOM     58  F   UNL A   1      42.218  22.582  29.405  1.00  0.00    -0.203 F 
ATOM     59  F   UNL A   1      43.219  22.609  24.045  1.00  0.00    -0.200 F 
ATOM     60  C   UNL A   1      42.657  21.419  26.006  1.00  0.00     0.200 A 
ATOM     61  F   UNL A   1      42.102  20.274  27.996  1.00  0.00    -0.200 F 
ATOM     62  F   UNL A   1      42.583  20.277  25.310  1.00  0.00    -0.200 F 
ENDBRANCH  28  52
BRANCH  40  63
ATOM     63  C   UNL A   1      48.067  26.972  30.841  1.00  0.00     0.064 A 
ATOM     64  C   UNL A   1      48.433  26.137  31.905  1.00  0.00     0.173 A 
ATOM     65  C   UNL A   1      49.054  27.353  29.921  1.00  0.00     0.173 A 
ATOM     66  F   UNL A   1      47.521  25.760  32.813  1.00  0.00    -0.203 F 
ATOM     67  C   UNL A   1      49.742  25.686  32.034  1.00  0.00     0.198 A 
ATOM     68  C   UNL A   1      50.356  26.879  30.038  1.00  0.00     0.198 A 
ATOM     69  F   UNL A   1      48.742  28.142  28.882  1.00  0.00    -0.203 F 
ATOM     70  F   UNL A   1      50.077  24.894  33.061  1.00  0.00    -0.200 F 
ATOM     71  C   UNL A   1      50.698  26.044  31.093  1.00  0.00     0.200 A 
ATOM     72  F   UNL A   1      51.273  27.208  29.119  1.00  0.00    -0.200 F 
ATOM     73  F   UNL A   1      51.950  25.578  31.199  1.00  0.00    -0.200 F 
ENDBRANCH  40  63
ENDBRANCH  14  15
ENDBRANCH   7   9
ENDBRANCH   6   7
ENDBRANCH   5   6
ENDBRANCH   4   5
ENDBRANCH   3   4
ENDBRANCH   2   3
ENDBRANCH   1   2
BRANCH   1  74
ATOM     74  O   UNL A   1      32.756  37.142  31.028  1.00  0.00    -0.376 OA
BRANCH  74  75
ATOM     75  C   UNL A   1      33.571  37.579  32.095  1.00  0.00     0.202 C 
BRANCH  75  76
ATOM     76  C   UNL A   1      33.959  36.521  33.132  1.00  0.00     0.261 C 
BRANCH  76  77
ATOM     77  O   UNL A   1      34.932  35.569  32.676  1.00  0.00    -0.457 OA
BRANCH  77  78
ATOM     78  C   UNL A   1      34.769  34.285  33.084  1.00  0.00     0.376 C 
ATOM     79  O   UNL A   1      33.712  33.635  33.036  1.00  0.00    -0.242 OA
BRANCH  78  80
ATOM     80  C   UNL A   1      36.050  33.766  33.651  1.00  0.00     0.241 A 
ATOM     81  N   UNL A   1      36.945  34.642  34.194  1.00  0.00    -0.204 NA
ATOM     82  N   UNL A   1      36.232  32.448  33.442  1.00  0.00    -0.222 NA
ATOM     83  C   UNL A   1      38.150  34.132  34.517  1.00  0.00     0.138 A 
ATOM     84  C   UNL A   1      37.430  31.971  33.741  1.00  0.00     0.077 A 
ATOM     85  C   UNL A   1      38.442  32.758  34.308  1.00  0.00     0.043 A 
ATOM     86  C   UNL A   1      37.692  30.645  33.425  1.00  0.00     0.029 A 
ATOM     87  C   UNL A   1      39.681  32.140  34.604  1.00  0.00     0.014 A 
ATOM     88  C   UNL A   1      38.944  30.075  33.651  1.00  0.00     0.002 A 
ATOM     89  C   UNL A   1      39.933  30.814  34.274  1.00  0.00     0.001 A 
BRANCH  83  90
ATOM     90  N   UNL A   1      39.190  34.940  35.009  1.00  0.00    -0.368 N 
ATOM     91  H   UNL A   1      39.940  35.115  34.395  1.00  0.00     0.162 HD
BRANCH  90  92
ATOM     92  C   UNL A   1      39.273  35.552  36.337  1.00  0.00     0.127 C 
BRANCH  92  93
ATOM     93  C   UNL A   1      40.036  34.685  37.516  1.00  0.00     0.070 C 
ATOM     94  C   UNL A   1      41.314  35.455  38.011  1.00  0.00    -0.035 A 
ATOM     95  C   UNL A   1      39.040  33.999  38.523  1.00  0.00    -0.025 A 
ATOM     96  C   UNL A   1      41.965  36.352  37.135  1.00  0.00     0.005 A 
ATOM     97  C   UNL A   1      41.899  35.357  39.291  1.00  0.00    -0.034 A 
ATOM     98  C   UNL A   1      38.862  34.197  39.913  1.00  0.00     0.011 A 
ATOM     99  C   UNL A   1      38.187  33.017  37.961  1.00  0.00     0.005 A 
ATOM    100  C   UNL A   1      42.957  37.249  37.567  1.00  0.00     0.000 A 
ATOM    101  C   UNL A   1      42.840  36.317  39.741  1.00  0.00     0.005 A 
ATOM    102  C   UNL A   1      41.486  34.342  40.301  1.00  0.00     0.110 C 
ATOM    103  S   UNL A   1      39.983  34.973  41.053  1.00  0.00    -0.121 SA
ATOM    104  C   UNL A   1      37.780  33.602  40.608  1.00  0.00     0.015 A 
ATOM    105  C   UNL A   1      37.117  32.430  38.654  1.00  0.00     0.000 A 
ATOM    106  C   UNL A   1      43.335  37.288  38.894  1.00  0.00     0.000 A 
ATOM    107  C   UNL A   1      36.889  32.753  39.975  1.00  0.00     0.001 A 
ENDBRANCH  92  93
ENDBRANCH  90  92
ENDBRANCH  83  90
ENDBRANCH  78  80
ENDBRANCH  77  78
ENDBRANCH  76  77
ENDBRANCH  75  76
ENDBRANCH  74  75
ENDBRANCH   1  74
TORSDOF 20
ENDMDL
MODEL 3
REMARK VINA RESULT:     -10.7      1.000      6.909
REMARK SMILES O=C(OCCOCCOCCOC(=O)c1nc(NC[C@H]2c3ccccc3CSc3ccccc32)c2ccccc2n1)c1ccc(-c2c3nc(c(-c4c(F)c(F)c(F)c(F)c4F)c4ccc([nH]4)c(-c4c(F)c(F)c(F)c(F)c4F)c4nc(c(-c5c(F)c(F)c(F)c(F)c5F)c5ccc2[nH]5)C=C4)C=C3)cc1
REMARK SMILES IDX 8 1 7 2 6 3 5 4 4 5 3 6 2 7 1 8 42 9 43 10 104 11 44 12
REMARK SMILES IDX 103 13 45 14 46 15 47 16 97 17 48 18 102 19 96 20 98 21
REMARK SMILES IDX 49 22 101 23 95 24 94 25 50 27 82 28 62 29 81 30 63 31 66 32
REMARK SMILES IDX 80 33 99 34 64 35 65 36 79 38 100 39 67 40 51 41 52 42 60 43
REMARK SMILES IDX 53 44 54 45 58 46 61 47 55 48 56 49 59 50 57 51 83 52 84 53
REMARK SMILES IDX 92 54 85 55 86 56 90 57 93 58 87 59 88 60 91 61 89 62 68 63
REMARK SMILES IDX 69 64 77 65 70 66 71 67 75 68 78 69 72 70 73 71 76 72 74 73
REMARK SMILES IDX 9 74 10 75 11 76 12 77 13 78 14 79 15 80 16 81 41 82 17 83
REMARK SMILES IDX 40 84 35 85 39 86 36 87 38 88 37 89 18 90 19 92 20 93 21 94
REMARK SMILES IDX 34 95 22 96 26 97 29 98 33 99 23 100 25 101 27 102 28 103
REMARK SMILES IDX 30 104 32 105 24 106 31 107
REMARK H PARENT 98 26 66 37 18 91
REMARK Flexibility Score: inf
ROOT
ATOM      1  C   UNL A   1      39.889  23.056  27.280  1.00  0.00     0.188 C 
ENDROOT
BRANCH   1   2
ATOM      2  C   UNL A   1      41.406  23.267  27.310  1.00  0.00     0.188 C 
BRANCH   2   3
ATOM      3  O   UNL A   1      42.193  23.508  26.148  1.00  0.00    -0.376 OA
BRANCH   3   4
ATOM      4  C   UNL A   1      43.332  22.735  25.828  1.00  0.00     0.202 C 
BRANCH   4   5
ATOM      5  C   UNL A   1      44.690  23.412  25.657  1.00  0.00     0.261 C 
BRANCH   5   6
ATOM      6  O   UNL A   1      44.696  24.625  24.917  1.00  0.00    -0.460 OA
BRANCH   6   7
ATOM      7  C   UNL A   1      45.188  25.823  25.271  1.00  0.00     0.338 C 
ATOM      8  O   UNL A   1      46.159  26.208  24.619  1.00  0.00    -0.246 OA
BRANCH   7   9
ATOM      9  C   UNL A   1      44.802  26.620  26.487  1.00  0.00     0.060 A 
ATOM     10  C   UNL A   1      43.886  25.984  27.338  1.00  0.00     0.016 A 
ATOM     11  C   UNL A   1      45.088  27.958  26.746  1.00  0.00     0.016 A 
ATOM     12  C   UNL A   1      43.133  26.683  28.276  1.00  0.00     0.010 A 
ATOM     13  C   UNL A   1      44.373  28.666  27.721  1.00  0.00     0.010 A 
ATOM     14  C   UNL A   1      43.377  28.035  28.474  1.00  0.00    -0.014 A 
BRANCH  14  15
ATOM     15  C   UNL A   1      42.807  28.694  29.662  1.00  0.00     0.031 A 
ATOM     16  C   UNL A   1      43.494  28.706  30.988  1.00  0.00     0.074 A 
ATOM     17  C   UNL A   1      41.612  29.283  29.475  1.00  0.00     0.049 A 
ATOM     18  N   UNL A   1      43.064  29.210  32.118  1.00  0.00    -0.248 NA
ATOM     19  C   UNL A   1      44.826  28.088  31.074  1.00  0.00     0.031 C 
ATOM     20  C   UNL A   1      40.902  29.337  28.192  1.00  0.00     0.029 A 
ATOM     21  N   UNL A   1      40.775  29.922  30.347  1.00  0.00    -0.354 N 
ATOM     22  C   UNL A   1      44.077  28.995  33.041  1.00  0.00     0.074 A 
ATOM     23  C   UNL A   1      45.135  28.285  32.354  1.00  0.00     0.031 C 
ATOM     24  C   UNL A   1      39.717  29.933  28.370  1.00  0.00     0.029 A 
ATOM     25  C   UNL A   1      39.579  30.279  29.777  1.00  0.00     0.049 A 
ATOM     26  H   UNL A   1      41.006  30.105  31.286  1.00  0.00     0.167 HD
ATOM     27  C   UNL A   1      44.108  29.394  34.335  1.00  0.00     0.037 A 
ATOM     28  C   UNL A   1      38.476  30.801  30.339  1.00  0.00     0.037 A 
ATOM     29  C   UNL A   1      43.050  30.126  34.978  1.00  0.00     0.049 A 
ATOM     30  C   UNL A   1      38.519  31.147  31.795  1.00  0.00     0.074 A 
ATOM     31  C   UNL A   1      43.018  30.627  36.267  1.00  0.00     0.029 A 
ATOM     32  N   UNL A   1      41.848  30.465  34.378  1.00  0.00    -0.354 N 
ATOM     33  N   UNL A   1      39.513  31.014  32.639  1.00  0.00    -0.248 NA
ATOM     34  C   UNL A   1      37.306  31.729  32.378  1.00  0.00     0.031 C 
ATOM     35  C   UNL A   1      41.785  31.255  36.455  1.00  0.00     0.029 A 
ATOM     36  C   UNL A   1      41.054  31.153  35.281  1.00  0.00     0.049 A 
ATOM     37  H   UNL A   1      41.596  30.250  33.452  1.00  0.00     0.167 HD
ATOM     38  C   UNL A   1      39.062  31.530  33.842  1.00  0.00     0.074 A 
ATOM     39  C   UNL A   1      37.702  31.978  33.620  1.00  0.00     0.031 C 
ATOM     40  C   UNL A   1      39.719  31.624  35.021  1.00  0.00     0.037 A 
BRANCH  27  41
ATOM     41  C   UNL A   1      45.339  29.140  35.143  1.00  0.00     0.064 A 
ATOM     42  C   UNL A   1      46.332  30.124  35.205  1.00  0.00     0.173 A 
ATOM     43  C   UNL A   1      45.463  28.027  35.983  1.00  0.00     0.173 A 
ATOM     44  F   UNL A   1      46.187  31.259  34.507  1.00  0.00    -0.203 F 
ATOM     45  C   UNL A   1      47.441  29.980  36.033  1.00  0.00     0.198 A 
ATOM     46  C   UNL A   1      46.557  27.900  36.839  1.00  0.00     0.198 A 
ATOM     47  F   UNL A   1      44.501  27.093  36.013  1.00  0.00    -0.203 F 
ATOM     48  F   UNL A   1      48.388  30.928  36.054  1.00  0.00    -0.200 F 
ATOM     49  C   UNL A   1      47.551  28.869  36.853  1.00  0.00     0.200 A 
ATOM     50  F   UNL A   1      46.638  26.851  37.670  1.00  0.00    -0.200 F 
ATOM     51  F   UNL A   1      48.601  28.745  37.676  1.00  0.00    -0.200 F 
ENDBRANCH  27  41
BRANCH  28  52
ATOM     52  C   UNL A   1      37.276  31.027  29.500  1.00  0.00     0.064 A 
ATOM     53  C   UNL A   1      37.012  32.285  28.946  1.00  0.00     0.173 A 
ATOM     54  C   UNL A   1      36.404  29.974  29.181  1.00  0.00     0.173 A 
ATOM     55  F   UNL A   1      37.817  33.321  29.226  1.00  0.00    -0.203 F 
ATOM     56  C   UNL A   1      35.914  32.486  28.113  1.00  0.00     0.198 A 
ATOM     57  C   UNL A   1      35.323  30.169  28.325  1.00  0.00     0.198 A 
ATOM     58  F   UNL A   1      36.625  28.745  29.672  1.00  0.00    -0.203 F 
ATOM     59  F   UNL A   1      35.667  33.706  27.619  1.00  0.00    -0.200 F 
ATOM     60  C   UNL A   1      35.075  31.426  27.798  1.00  0.00     0.200 A 
ATOM     61  F   UNL A   1      34.529  29.138  28.005  1.00  0.00    -0.200 F 
ATOM     62  F   UNL A   1      34.027  31.619  26.986  1.00  0.00    -0.200 F 
ENDBRANCH  28  52
BRANCH  40  63
ATOM     63  C   UNL A   1      38.999  32.260  36.167  1.00  0.00     0.064 A 
ATOM     64  C   UNL A   1      38.182  31.501  37.015  1.00  0.00     0.173 A 
ATOM     65  C   UNL A   1      39.240  33.602  36.497  1.00  0.00     0.173 A 
ATOM     66  F   UNL A   1      37.918  30.217  36.727  1.00  0.00    -0.203 F 
ATOM     67  C   UNL A   1      37.635  32.063  38.162  1.00  0.00     0.198 A 
ATOM     68  C   UNL A   1      38.712  34.153  37.660  1.00  0.00     0.198 A 
ATOM     69  F   UNL A   1      40.025  34.360  35.718  1.00  0.00    -0.203 F 
ATOM     70  F   UNL A   1      36.849  31.324  38.958  1.00  0.00    -0.200 F 
ATOM     71  C   UNL A   1      37.913  33.383  38.492  1.00  0.00     0.200 A 
ATOM     72  F   UNL A   1      38.997  35.420  37.988  1.00  0.00    -0.200 F 
ATOM     73  F   UNL A   1      37.414  33.911  39.618  1.00  0.00    -0.200 F 
ENDBRANCH  40  63
ENDBRANCH  14  15
ENDBRANCH   7   9
ENDBRANCH   6   7
ENDBRANCH   5   6
ENDBRANCH   4   5
ENDBRANCH   3   4
ENDBRANCH   2   3
ENDBRANCH   1   2
BRANCH   1  74
ATOM     74  O   UNL A   1      39.183  22.776  26.080  1.00  0.00    -0.376 OA
BRANCH  74  75
ATOM     75  C   UNL A   1      37.827  22.386  26.130  1.00  0.00     0.202 C 
BRANCH  75  76
ATOM     76  C   UNL A   1      37.405  21.272  25.166  1.00  0.00     0.261 C 
BRANCH  76  77
ATOM     77  O   UNL A   1      36.486  21.686  24.144  1.00  0.00    -0.457 OA
BRANCH  77  78
ATOM     78  C   UNL A   1      35.217  21.963  24.538  1.00  0.00     0.376 C 
ATOM     79  O   UNL A   1      34.471  21.203  25.177  1.00  0.00    -0.242 OA
BRANCH  78  80
ATOM     80  C   UNL A   1      34.817  23.316  24.048  1.00  0.00     0.241 A 
ATOM     81  N   UNL A   1      34.815  24.369  24.917  1.00  0.00    -0.204 NA
ATOM     82  N   UNL A   1      34.369  23.314  22.777  1.00  0.00    -0.222 NA
ATOM     83  C   UNL A   1      34.270  25.513  24.458  1.00  0.00     0.138 A 
ATOM     84  C   UNL A   1      33.814  24.439  22.354  1.00  0.00     0.077 A 
ATOM     85  C   UNL A   1      33.748  25.597  23.140  1.00  0.00     0.043 A 
ATOM     86  C   UNL A   1      33.232  24.434  21.094  1.00  0.00     0.029 A 
ATOM     87  C   UNL A   1      33.148  26.750  22.580  1.00  0.00     0.014 A 
ATOM     88  C   UNL A   1      32.575  25.555  20.590  1.00  0.00     0.002 A 
ATOM     89  C   UNL A   1      32.561  26.730  21.320  1.00  0.00     0.001 A 
BRANCH  83  90
ATOM     90  N   UNL A   1      34.131  26.648  25.276  1.00  0.00    -0.368 N 
ATOM     91  H   UNL A   1      34.739  27.400  25.092  1.00  0.00     0.162 HD
BRANCH  90  92
ATOM     92  C   UNL A   1      33.175  26.830  26.371  1.00  0.00     0.127 C 
BRANCH  92  93
ATOM     93  C   UNL A   1      31.604  26.425  26.071  1.00  0.00     0.070 C 
ATOM     94  C   UNL A   1      30.941  27.495  25.130  1.00  0.00    -0.035 A 
ATOM     95  C   UNL A   1      31.395  24.881  25.845  1.00  0.00    -0.025 A 
ATOM     96  C   UNL A   1      31.435  28.819  25.130  1.00  0.00     0.005 A 
ATOM     97  C   UNL A   1      29.871  27.269  24.239  1.00  0.00    -0.034 A 
ATOM     98  C   UNL A   1      30.949  24.174  24.703  1.00  0.00     0.011 A 
ATOM     99  C   UNL A   1      31.688  24.058  26.961  1.00  0.00     0.005 A 
ATOM    100  C   UNL A   1      31.065  29.767  24.161  1.00  0.00     0.000 A 
ATOM    101  C   UNL A   1      29.561  28.200  23.215  1.00  0.00     0.005 A 
ATOM    102  C   UNL A   1      29.086  26.003  24.211  1.00  0.00     0.110 C 
ATOM    103  S   UNL A   1      30.080  24.822  23.295  1.00  0.00    -0.121 SA
ATOM    104  C   UNL A   1      31.000  22.759  24.648  1.00  0.00     0.015 A 
ATOM    105  C   UNL A   1      31.737  22.657  26.901  1.00  0.00     0.000 A 
ATOM    106  C   UNL A   1      30.188  29.428  23.150  1.00  0.00     0.000 A 
ATOM    107  C   UNL A   1      31.427  22.005  25.727  1.00  0.00     0.001 A 
ENDBRANCH  92  93
ENDBRANCH  90  92
ENDBRANCH  83  90
ENDBRANCH  78  80
ENDBRANCH  77  78
ENDBRANCH  76  77
ENDBRANCH  75  76
ENDBRANCH  74  75
ENDBRANCH   1  74
TORSDOF 20
ENDMDL
