MODEL 1
REMARK VINA RESULT:     -11.4      0.000      0.000
REMARK SMILES Cc1sc(NC(=O)C[C@@H]2CCCCO2)c(C(=O)OCCOCCOCCOC(=O)c2ccc(-c3c4nc(c(-c5c(F)c(F)c(F)c(F)c5F)c5ccc([nH]5)c(-c5c(F)c(F)c(F)c(F)c5F)c5nc(c(-c6c(F)c(F)c(F)c(F)c6F)c6ccc3[nH]6)C=C5)C=C4)cc2)c1C
REMARK SMILES IDX 22 1 21 2 20 3 19 4 18 5 16 6 17 7 15 8 1 9 2 10 3 11 93 12
REMARK SMILES IDX 4 13 94 14 5 15 6 16 7 18 8 19 9 20 10 21 14 22 11 23 13 24
REMARK SMILES IDX 12 25 23 26 24 27 25 28 26 29 27 30 28 31 29 32 30 33 31 34
REMARK SMILES IDX 92 35 32 36 91 37 33 38 34 39 35 40 85 41 36 42 90 43 84 44
REMARK SMILES IDX 86 45 37 46 89 47 83 48 82 49 38 51 70 52 50 53 69 54 51 55
REMARK SMILES IDX 54 56 68 57 87 58 52 59 53 60 67 62 88 63 55 64 39 65 40 66
REMARK SMILES IDX 48 67 41 68 42 69 46 70 49 71 43 72 44 73 47 74 45 75 71 76
REMARK SMILES IDX 72 77 80 78 73 79 74 80 78 81 81 82 75 83 76 84 79 85 77 86
REMARK SMILES IDX 56 87 57 88 65 89 58 90 59 91 63 92 66 93 60 94 61 95 64 96
REMARK SMILES IDX 62 97
REMARK H PARENT 5 17 86 50 54 61
REMARK Flexibility Score: inf
ROOT
ATOM      1  C   UNL A   1      39.955  21.648  26.292  1.00  0.00     0.188 C 
ENDROOT
BRANCH   1   2
ATOM      2  O   UNL A   1      38.543  21.775  26.125  1.00  0.00    -0.376 OA
BRANCH   2   3
ATOM      3  C   UNL A   1      38.058  23.112  26.236  1.00  0.00     0.202 C 
BRANCH   3   4
ATOM      4  C   UNL A   1      37.764  23.700  24.856  1.00  0.00     0.261 C 
BRANCH   4   5
ATOM      5  O   UNL A   1      36.345  23.696  24.602  1.00  0.00    -0.460 OA
BRANCH   5   6
ATOM      6  C   UNL A   1      35.918  23.146  23.439  1.00  0.00     0.341 C 
ATOM      7  O   UNL A   1      36.615  23.017  22.444  1.00  0.00    -0.246 OA
BRANCH   6   8
ATOM      8  C   UNL A   1      34.560  22.601  23.513  1.00  0.00     0.098 A 
ATOM      9  C   UNL A   1      32.199  19.926  24.903  1.00  0.00     0.057 C 
ATOM     10  C   UNL A   1      32.945  21.002  24.181  1.00  0.00     0.007 A 
ATOM     11  S   UNL A   1      32.212  21.784  22.867  1.00  0.00    -0.122 S 
ATOM     12  C   UNL A   1      34.228  21.474  24.399  1.00  0.00    -0.021 A 
ATOM     13  C   UNL A   1      33.439  22.979  22.792  1.00  0.00     0.110 A 
ATOM     14  C   UNL A   1      35.151  20.930  25.450  1.00  0.00     0.046 C 
BRANCH  13  15
ATOM     15  N   UNL A   1      33.002  23.966  21.939  1.00  0.00    -0.317 N 
ATOM     16  C   UNL A   1      32.732  25.280  22.176  1.00  0.00     0.227 C 
ATOM     17  H   UNL A   1      32.862  23.676  21.009  1.00  0.00     0.170 HD
ATOM     18  O   UNL A   1      31.844  25.778  21.467  1.00  0.00    -0.275 OA
BRANCH  16  19
ATOM     19  C   UNL A   1      33.464  26.171  23.140  1.00  0.00     0.132 C 
BRANCH  19  20
ATOM     20  C   UNL A   1      32.879  26.548  24.506  1.00  0.00     0.127 C 
ATOM     21  C   UNL A   1      33.557  26.128  25.808  1.00  0.00     0.033 C 
ATOM     22  O   UNL A   1      31.472  26.241  24.569  1.00  0.00    -0.378 OA
ATOM     23  C   UNL A   1      33.286  24.681  26.183  1.00  0.00     0.005 C 
ATOM     24  C   UNL A   1      31.179  24.875  24.858  1.00  0.00     0.160 C 
ATOM     25  C   UNL A   1      31.784  24.442  26.186  1.00  0.00     0.029 C 
ENDBRANCH  19  20
ENDBRANCH  16  19
ENDBRANCH  13  15
ENDBRANCH   6   8
ENDBRANCH   5   6
ENDBRANCH   4   5
ENDBRANCH   3   4
ENDBRANCH   2   3
ENDBRANCH   1   2
BRANCH   1  26
ATOM     26  C   UNL A   1      40.397  20.189  26.219  1.00  0.00     0.188 C 
BRANCH  26  27
ATOM     27  O   UNL A   1      41.730  20.099  25.718  1.00  0.00    -0.376 OA
BRANCH  27  28
ATOM     28  C   UNL A   1      42.692  20.929  26.369  1.00  0.00     0.202 C 
BRANCH  28  29
ATOM     29  C   UNL A   1      43.601  21.798  25.480  1.00  0.00     0.261 C 
BRANCH  29  30
ATOM     30  O   UNL A   1      42.988  23.011  25.042  1.00  0.00    -0.460 OA
BRANCH  30  31
ATOM     31  C   UNL A   1      43.773  24.115  25.115  1.00  0.00     0.338 C 
ATOM     32  O   UNL A   1      44.727  24.389  24.410  1.00  0.00    -0.246 OA
BRANCH  31  33
ATOM     33  C   UNL A   1      43.156  25.046  26.094  1.00  0.00     0.060 A 
ATOM     34  C   UNL A   1      43.622  26.366  26.139  1.00  0.00     0.016 A 
ATOM     35  C   UNL A   1      42.056  24.662  26.875  1.00  0.00     0.016 A 
ATOM     36  C   UNL A   1      43.013  27.294  26.988  1.00  0.00     0.010 A 
ATOM     37  C   UNL A   1      41.441  25.591  27.712  1.00  0.00     0.010 A 
ATOM     38  C   UNL A   1      41.939  26.900  27.800  1.00  0.00    -0.014 A 
BRANCH  38  39
ATOM     39  C   UNL A   1      41.492  27.760  28.918  1.00  0.00     0.031 A 
ATOM     40  C   UNL A   1      42.238  27.648  30.218  1.00  0.00     0.074 A 
ATOM     41  C   UNL A   1      40.441  28.590  28.806  1.00  0.00     0.049 A 
ATOM     42  N   UNL A   1      42.011  28.231  31.365  1.00  0.00    -0.248 NA
ATOM     43  C   UNL A   1      43.396  26.737  30.222  1.00  0.00     0.031 C 
ATOM     44  C   UNL A   1      39.644  28.796  27.599  1.00  0.00     0.029 A 
ATOM     45  N   UNL A   1      39.856  29.405  29.743  1.00  0.00    -0.354 N 
ATOM     46  C   UNL A   1      42.995  27.760  32.222  1.00  0.00     0.074 A 
ATOM     47  C   UNL A   1      43.797  26.814  31.480  1.00  0.00     0.031 C 
ATOM     48  C   UNL A   1      38.661  29.673  27.875  1.00  0.00     0.029 A 
ATOM     49  C   UNL A   1      38.746  30.067  29.281  1.00  0.00     0.049 A 
ATOM     50  H   UNL A   1      40.199  29.505  30.661  1.00  0.00     0.167 HD
ATOM     51  C   UNL A   1      43.220  28.092  33.515  1.00  0.00     0.037 A 
ATOM     52  C   UNL A   1      37.891  30.881  29.931  1.00  0.00     0.037 A 
ATOM     53  C   UNL A   1      42.414  29.017  34.262  1.00  0.00     0.049 A 
ATOM     54  C   UNL A   1      38.120  31.185  31.392  1.00  0.00     0.074 A 
ATOM     55  C   UNL A   1      42.566  29.433  35.571  1.00  0.00     0.029 A 
ATOM     56  N   UNL A   1      41.291  29.658  33.762  1.00  0.00    -0.354 N 
ATOM     57  N   UNL A   1      39.079  30.774  32.185  1.00  0.00    -0.248 NA
ATOM     58  C   UNL A   1      37.144  32.070  32.046  1.00  0.00     0.031 C 
ATOM     59  C   UNL A   1      41.507  30.293  35.880  1.00  0.00     0.029 A 
ATOM     60  C   UNL A   1      40.725  30.451  34.746  1.00  0.00     0.049 A 
ATOM     61  H   UNL A   1      40.948  29.566  32.843  1.00  0.00     0.167 HD
ATOM     62  C   UNL A   1      38.839  31.368  33.419  1.00  0.00     0.074 A 
ATOM     63  C   UNL A   1      37.648  32.177  33.268  1.00  0.00     0.031 C 
ATOM     64  C   UNL A   1      39.544  31.256  34.573  1.00  0.00     0.037 A 
BRANCH  51  65
ATOM     65  C   UNL A   1      44.373  27.421  34.197  1.00  0.00     0.064 A 
ATOM     66  C   UNL A   1      44.223  26.187  34.849  1.00  0.00     0.173 A 
ATOM     67  C   UNL A   1      45.637  28.027  34.215  1.00  0.00     0.173 A 
ATOM     68  F   UNL A   1      43.025  25.582  34.880  1.00  0.00    -0.203 F 
ATOM     69  C   UNL A   1      45.290  25.598  35.519  1.00  0.00     0.198 A 
ATOM     70  C   UNL A   1      46.709  27.421  34.863  1.00  0.00     0.198 A 
ATOM     71  F   UNL A   1      45.829  29.209  33.612  1.00  0.00    -0.203 F 
ATOM     72  F   UNL A   1      45.110  24.449  36.184  1.00  0.00    -0.200 F 
ATOM     73  C   UNL A   1      46.534  26.213  35.522  1.00  0.00     0.200 A 
ATOM     74  F   UNL A   1      47.911  28.014  34.862  1.00  0.00    -0.200 F 
ATOM     75  F   UNL A   1      47.560  25.649  36.172  1.00  0.00    -0.200 F 
ENDBRANCH  51  65
BRANCH  52  76
ATOM     76  C   UNL A   1      36.730  31.469  29.213  1.00  0.00     0.064 A 
ATOM     77  C   UNL A   1      36.693  32.834  28.896  1.00  0.00     0.173 A 
ATOM     78  C   UNL A   1      35.624  30.686  28.854  1.00  0.00     0.173 A 
ATOM     79  F   UNL A   1      37.715  33.629  29.247  1.00  0.00    -0.203 F 
ATOM     80  C   UNL A   1      35.587  33.397  28.261  1.00  0.00     0.198 A 
ATOM     81  C   UNL A   1      34.529  31.244  28.197  1.00  0.00     0.198 A 
ATOM     82  F   UNL A   1      35.607  29.376  29.140  1.00  0.00    -0.203 F 
ATOM     83  F   UNL A   1      35.559  34.713  28.011  1.00  0.00    -0.200 F 
ATOM     84  C   UNL A   1      34.508  32.601  27.907  1.00  0.00     0.200 A 
ATOM     85  F   UNL A   1      33.491  30.471  27.852  1.00  0.00    -0.200 F 
ATOM     86  F   UNL A   1      33.445  33.142  27.298  1.00  0.00    -0.200 F 
ENDBRANCH  52  76
BRANCH  64  87
ATOM     87  C   UNL A   1      39.072  32.053  35.754  1.00  0.00     0.064 A 
ATOM     88  C   UNL A   1      38.259  31.487  36.747  1.00  0.00     0.173 A 
ATOM     89  C   UNL A   1      39.496  33.380  35.928  1.00  0.00     0.173 A 
ATOM     90  F   UNL A   1      37.819  30.227  36.620  1.00  0.00    -0.203 F 
ATOM     91  C   UNL A   1      37.871  32.228  37.861  1.00  0.00     0.198 A 
ATOM     92  C   UNL A   1      39.130  34.108  37.055  1.00  0.00     0.198 A 
ATOM     93  F   UNL A   1      40.282  33.963  35.011  1.00  0.00    -0.203 F 
ATOM     94  F   UNL A   1      37.064  31.680  38.779  1.00  0.00    -0.200 F 
ATOM     95  C   UNL A   1      38.314  33.533  38.019  1.00  0.00     0.200 A 
ATOM     96  F   UNL A   1      39.569  35.364  37.213  1.00  0.00    -0.200 F 
ATOM     97  F   UNL A   1      37.950  34.239  39.098  1.00  0.00    -0.200 F 
ENDBRANCH  64  87
ENDBRANCH  38  39
ENDBRANCH  31  33
ENDBRANCH  30  31
ENDBRANCH  29  30
ENDBRANCH  28  29
ENDBRANCH  27  28
ENDBRANCH  26  27
ENDBRANCH   1  26
TORSDOF 20
ENDMDL
MODEL 2
REMARK VINA RESULT:     -10.9      3.997      9.335
REMARK SMILES Cc1sc(NC(=O)C[C@@H]2CCCCO2)c(C(=O)OCCOCCOCCOC(=O)c2ccc(-c3c4nc(c(-c5c(F)c(F)c(F)c(F)c5F)c5ccc([nH]5)c(-c5c(F)c(F)c(F)c(F)c5F)c5nc(c(-c6c(F)c(F)c(F)c(F)c6F)c6ccc3[nH]6)C=C5)C=C4)cc2)c1C
REMARK SMILES IDX 22 1 21 2 20 3 19 4 18 5 16 6 17 7 15 8 1 9 2 10 3 11 93 12
REMARK SMILES IDX 4 13 94 14 5 15 6 16 7 18 8 19 9 20 10 21 14 22 11 23 13 24
REMARK SMILES IDX 12 25 23 26 24 27 25 28 26 29 27 30 28 31 29 32 30 33 31 34
REMARK SMILES IDX 92 35 32 36 91 37 33 38 34 39 35 40 85 41 36 42 90 43 84 44
REMARK SMILES IDX 86 45 37 46 89 47 83 48 82 49 38 51 70 52 50 53 69 54 51 55
REMARK SMILES IDX 54 56 68 57 87 58 52 59 53 60 67 62 88 63 55 64 39 65 40 66
REMARK SMILES IDX 48 67 41 68 42 69 46 70 49 71 43 72 44 73 47 74 45 75 71 76
REMARK SMILES IDX 72 77 80 78 73 79 74 80 78 81 81 82 75 83 76 84 79 85 77 86
REMARK SMILES IDX 56 87 57 88 65 89 58 90 59 91 63 92 66 93 60 94 61 95 64 96
REMARK SMILES IDX 62 97
REMARK H PARENT 5 17 86 50 54 61
REMARK Flexibility Score: inf
ROOT
ATOM      1  C   UNL A   1      34.409  32.196  28.586  1.00  0.00     0.188 C 
ENDROOT
BRANCH   1   2
ATOM      2  O   UNL A   1      34.267  31.077  27.711  1.00  0.00    -0.376 OA
BRANCH   2   3
ATOM      3  C   UNL A   1      32.934  30.860  27.252  1.00  0.00     0.202 C 
BRANCH   3   4
ATOM      4  C   UNL A   1      32.595  29.369  27.252  1.00  0.00     0.261 C 
BRANCH   4   5
ATOM      5  O   UNL A   1      31.585  29.085  26.263  1.00  0.00    -0.460 OA
BRANCH   5   6
ATOM      6  C   UNL A   1      31.889  29.334  24.966  1.00  0.00     0.341 C 
ATOM      7  O   UNL A   1      33.024  29.335  24.516  1.00  0.00    -0.246 OA
BRANCH   6   8
ATOM      8  C   UNL A   1      30.711  29.490  24.108  1.00  0.00     0.098 A 
ATOM      9  C   UNL A   1      27.657  31.579  23.126  1.00  0.00     0.057 C 
ATOM     10  C   UNL A   1      28.726  30.572  23.400  1.00  0.00     0.007 A 
ATOM     11  S   UNL A   1      28.567  29.000  22.782  1.00  0.00    -0.122 S 
ATOM     12  C   UNL A   1      29.882  30.706  24.151  1.00  0.00    -0.021 A 
ATOM     13  C   UNL A   1      30.175  28.585  23.207  1.00  0.00     0.110 A 
ATOM     14  C   UNL A   1      30.265  31.960  24.879  1.00  0.00     0.046 C 
BRANCH  13  15
ATOM     15  N   UNL A   1      30.466  27.387  22.597  1.00  0.00    -0.317 N 
ATOM     16  C   UNL A   1      30.697  26.157  23.135  1.00  0.00     0.227 C 
ATOM     17  H   UNL A   1      30.515  27.424  21.615  1.00  0.00     0.170 HD
ATOM     18  O   UNL A   1      31.475  25.432  22.495  1.00  0.00    -0.275 OA
BRANCH  16  19
ATOM     19  C   UNL A   1      30.035  25.591  24.360  1.00  0.00     0.132 C 
BRANCH  19  20
ATOM     20  C   UNL A   1      30.684  25.671  25.747  1.00  0.00     0.127 C 
ATOM     21  C   UNL A   1      32.200  25.725  25.917  1.00  0.00     0.033 C 
ATOM     22  O   UNL A   1      30.130  24.681  26.636  1.00  0.00    -0.378 OA
ATOM     23  C   UNL A   1      32.866  24.367  25.774  1.00  0.00     0.005 C 
ATOM     24  C   UNL A   1      30.689  23.377  26.486  1.00  0.00     0.160 C 
ATOM     25  C   UNL A   1      32.193  23.383  26.717  1.00  0.00     0.029 C 
ENDBRANCH  19  20
ENDBRANCH  16  19
ENDBRANCH  13  15
ENDBRANCH   6   8
ENDBRANCH   5   6
ENDBRANCH   4   5
ENDBRANCH   3   4
ENDBRANCH   2   3
ENDBRANCH   1   2
BRANCH   1  26
ATOM     26  C   UNL A   1      35.368  33.234  28.012  1.00  0.00     0.188 C 
BRANCH  26  27
ATOM     27  O   UNL A   1      34.744  34.516  27.967  1.00  0.00    -0.376 OA
BRANCH  27  28
ATOM     28  C   UNL A   1      33.398  34.565  28.443  1.00  0.00     0.202 C 
BRANCH  28  29
ATOM     29  C   UNL A   1      33.043  35.662  29.464  1.00  0.00     0.261 C 
BRANCH  29  30
ATOM     30  O   UNL A   1      32.342  35.178  30.610  1.00  0.00    -0.460 OA
BRANCH  30  31
ATOM     31  C   UNL A   1      32.717  35.727  31.792  1.00  0.00     0.338 C 
ATOM     32  O   UNL A   1      32.125  36.578  32.430  1.00  0.00    -0.246 OA
BRANCH  31  33
ATOM     33  C   UNL A   1      33.897  34.974  32.288  1.00  0.00     0.060 A 
ATOM     34  C   UNL A   1      35.147  35.605  32.260  1.00  0.00     0.016 A 
ATOM     35  C   UNL A   1      33.761  33.710  32.880  1.00  0.00     0.016 A 
ATOM     36  C   UNL A   1      36.267  34.961  32.792  1.00  0.00     0.010 A 
ATOM     37  C   UNL A   1      34.876  33.072  33.422  1.00  0.00     0.010 A 
ATOM     38  C   UNL A   1      36.139  33.679  33.347  1.00  0.00    -0.014 A 
BRANCH  38  39
ATOM     39  C   UNL A   1      37.341  32.860  33.622  1.00  0.00     0.031 A 
ATOM     40  C   UNL A   1      38.088  33.135  34.897  1.00  0.00     0.074 A 
ATOM     41  C   UNL A   1      37.781  31.925  32.763  1.00  0.00     0.049 A 
ATOM     42  N   UNL A   1      39.201  32.614  35.342  1.00  0.00    -0.248 NA
ATOM     43  C   UNL A   1      37.500  34.153  35.785  1.00  0.00     0.031 C 
ATOM     44  C   UNL A   1      37.141  31.558  31.503  1.00  0.00     0.029 A 
ATOM     45  N   UNL A   1      38.895  31.124  32.824  1.00  0.00    -0.354 N 
ATOM     46  C   UNL A   1      39.443  33.238  36.558  1.00  0.00     0.074 A 
ATOM     47  C   UNL A   1      38.387  34.204  36.764  1.00  0.00     0.031 C 
ATOM     48  C   UNL A   1      37.882  30.611  30.900  1.00  0.00     0.029 A 
ATOM     49  C   UNL A   1      39.060  30.325  31.721  1.00  0.00     0.049 A 
ATOM     50  H   UNL A   1      39.516  31.122  33.588  1.00  0.00     0.167 HD
ATOM     51  C   UNL A   1      40.451  33.021  37.434  1.00  0.00     0.037 A 
ATOM     52  C   UNL A   1      40.061  29.479  31.407  1.00  0.00     0.037 A 
ATOM     53  C   UNL A   1      41.511  32.075  37.225  1.00  0.00     0.049 A 
ATOM     54  C   UNL A   1      41.212  29.301  32.368  1.00  0.00     0.074 A 
ATOM     55  C   UNL A   1      42.572  31.769  38.057  1.00  0.00     0.029 A 
ATOM     56  N   UNL A   1      41.651  31.294  36.088  1.00  0.00    -0.354 N 
ATOM     57  N   UNL A   1      41.412  29.859  33.537  1.00  0.00    -0.248 NA
ATOM     58  C   UNL A   1      42.278  28.373  31.961  1.00  0.00     0.031 C 
ATOM     59  C   UNL A   1      43.380  30.833  37.404  1.00  0.00     0.029 A 
ATOM     60  C   UNL A   1      42.795  30.520  36.186  1.00  0.00     0.049 A 
ATOM     61  H   UNL A   1      41.028  31.288  35.325  1.00  0.00     0.167 HD
ATOM     62  C   UNL A   1      42.605  29.332  34.016  1.00  0.00     0.074 A 
ATOM     63  C   UNL A   1      43.082  28.402  33.014  1.00  0.00     0.031 C 
ATOM     64  C   UNL A   1      43.247  29.592  35.182  1.00  0.00     0.037 A 
BRANCH  51  65
ATOM     65  C   UNL A   1      40.454  33.847  38.684  1.00  0.00     0.064 A 
ATOM     66  C   UNL A   1      41.212  35.025  38.783  1.00  0.00     0.173 A 
ATOM     67  C   UNL A   1      39.706  33.449  39.800  1.00  0.00     0.173 A 
ATOM     68  F   UNL A   1      41.963  35.432  37.748  1.00  0.00    -0.203 F 
ATOM     69  C   UNL A   1      41.243  35.757  39.965  1.00  0.00     0.198 A 
ATOM     70  C   UNL A   1      39.718  34.199  40.972  1.00  0.00     0.198 A 
ATOM     71  F   UNL A   1      38.971  32.328  39.757  1.00  0.00    -0.203 F 
ATOM     72  F   UNL A   1      42.019  36.846  40.056  1.00  0.00    -0.200 F 
ATOM     73  C   UNL A   1      40.493  35.346  41.058  1.00  0.00     0.200 A 
ATOM     74  F   UNL A   1      38.990  33.804  42.025  1.00  0.00    -0.200 F 
ATOM     75  F   UNL A   1      40.527  36.049  42.198  1.00  0.00    -0.200 F 
ENDBRANCH  51  65
BRANCH  52  76
ATOM     76  C   UNL A   1      40.030  28.732  30.123  1.00  0.00     0.064 A 
ATOM     77  C   UNL A   1      39.435  27.465  30.039  1.00  0.00     0.173 A 
ATOM     78  C   UNL A   1      40.618  29.254  28.962  1.00  0.00     0.173 A 
ATOM     79  F   UNL A   1      38.886  26.911  31.131  1.00  0.00    -0.203 F 
ATOM     80  C   UNL A   1      39.441  26.743  28.847  1.00  0.00     0.198 A 
ATOM     81  C   UNL A   1      40.602  28.542  27.764  1.00  0.00     0.198 A 
ATOM     82  F   UNL A   1      41.206  30.458  28.992  1.00  0.00    -0.203 F 
ATOM     83  F   UNL A   1      38.905  25.516  28.806  1.00  0.00    -0.200 F 
ATOM     84  C   UNL A   1      40.021  27.284  27.709  1.00  0.00     0.200 A 
ATOM     85  F   UNL A   1      41.159  29.071  26.666  1.00  0.00    -0.200 F 
ATOM     86  F   UNL A   1      40.028  26.589  26.563  1.00  0.00    -0.200 F 
ENDBRANCH  52  76
BRANCH  64  87
ATOM     87  C   UNL A   1      44.515  28.838  35.461  1.00  0.00     0.064 A 
ATOM     88  C   UNL A   1      45.770  29.348  35.101  1.00  0.00     0.173 A 
ATOM     89  C   UNL A   1      44.474  27.619  36.156  1.00  0.00     0.173 A 
ATOM     90  F   UNL A   1      45.860  30.503  34.424  1.00  0.00    -0.203 F 
ATOM     91  C   UNL A   1      46.938  28.657  35.411  1.00  0.00     0.198 A 
ATOM     92  C   UNL A   1      45.645  26.945  36.489  1.00  0.00     0.198 A 
ATOM     93  F   UNL A   1      43.299  27.094  36.531  1.00  0.00    -0.203 F 
ATOM     94  F   UNL A   1      48.126  29.144  35.025  1.00  0.00    -0.200 F 
ATOM     95  C   UNL A   1      46.876  27.461  36.112  1.00  0.00     0.200 A 
ATOM     96  F   UNL A   1      45.583  25.797  37.178  1.00  0.00    -0.200 F 
ATOM     97  F   UNL A   1      48.002  26.804  36.420  1.00  0.00    -0.200 F 
ENDBRANCH  64  87
ENDBRANCH  38  39
ENDBRANCH  31  33
ENDBRANCH  30  31
ENDBRANCH  29  30
ENDBRANCH  28  29
ENDBRANCH  27  28
ENDBRANCH  26  27
ENDBRANCH   1  26
TORSDOF 20
ENDMDL
MODEL 3
REMARK VINA RESULT:     -10.7      2.985      8.832
REMARK SMILES Cc1sc(NC(=O)C[C@@H]2CCCCO2)c(C(=O)OCCOCCOCCOC(=O)c2ccc(-c3c4nc(c(-c5c(F)c(F)c(F)c(F)c5F)c5ccc([nH]5)c(-c5c(F)c(F)c(F)c(F)c5F)c5nc(c(-c6c(F)c(F)c(F)c(F)c6F)c6ccc3[nH]6)C=C5)C=C4)cc2)c1C
REMARK SMILES IDX 22 1 21 2 20 3 19 4 18 5 16 6 17 7 15 8 1 9 2 10 3 11 93 12
REMARK SMILES IDX 4 13 94 14 5 15 6 16 7 18 8 19 9 20 10 21 14 22 11 23 13 24
REMARK SMILES IDX 12 25 23 26 24 27 25 28 26 29 27 30 28 31 29 32 30 33 31 34
REMARK SMILES IDX 92 35 32 36 91 37 33 38 34 39 35 40 85 41 36 42 90 43 84 44
REMARK SMILES IDX 86 45 37 46 89 47 83 48 82 49 38 51 70 52 50 53 69 54 51 55
REMARK SMILES IDX 54 56 68 57 87 58 52 59 53 60 67 62 88 63 55 64 39 65 40 66
REMARK SMILES IDX 48 67 41 68 42 69 46 70 49 71 43 72 44 73 47 74 45 75 71 76
REMARK SMILES IDX 72 77 80 78 73 79 74 80 78 81 81 82 75 83 76 84 79 85 77 86
REMARK SMILES IDX 56 87 57 88 65 89 58 90 59 91 63 92 66 93 60 94 61 95 64 96
REMARK SMILES IDX 62 97
REMARK H PARENT 5 17 86 50 54 61
REMARK Flexibility Score: inf
ROOT
ATOM      1  C   UNL A   1      31.825  28.985  27.168  1.00  0.00     0.188 C 
ENDROOT
BRANCH   1   2
ATOM      2  O   UNL A   1      32.731  27.884  27.227  1.00  0.00    -0.376 OA
BRANCH   2   3
ATOM      3  C   UNL A   1      33.900  28.046  26.426  1.00  0.00     0.202 C 
BRANCH   3   4
ATOM      4  C   UNL A   1      33.779  27.256  25.122  1.00  0.00     0.261 C 
BRANCH   4   5
ATOM      5  O   UNL A   1      33.733  28.155  23.995  1.00  0.00    -0.460 OA
BRANCH   5   6
ATOM      6  C   UNL A   1      33.283  27.659  22.816  1.00  0.00     0.341 C 
ATOM      7  O   UNL A   1      33.908  27.704  21.769  1.00  0.00    -0.246 OA
BRANCH   6   8
ATOM      8  C   UNL A   1      32.007  26.945  22.931  1.00  0.00     0.098 A 
ATOM      9  C   UNL A   1      28.278  27.068  23.787  1.00  0.00     0.057 C 
ATOM     10  C   UNL A   1      29.713  26.771  23.493  1.00  0.00     0.007 A 
ATOM     11  S   UNL A   1      30.242  25.160  23.471  1.00  0.00    -0.122 S 
ATOM     12  C   UNL A   1      30.756  27.650  23.255  1.00  0.00    -0.021 A 
ATOM     13  C   UNL A   1      31.767  25.586  22.813  1.00  0.00     0.110 A 
ATOM     14  C   UNL A   1      30.613  29.143  23.277  1.00  0.00     0.046 C 
BRANCH  13  15
ATOM     15  N   UNL A   1      32.388  24.422  22.424  1.00  0.00    -0.317 N 
ATOM     16  C   UNL A   1      33.653  23.977  22.663  1.00  0.00     0.227 C 
ATOM     17  H   UNL A   1      31.829  23.814  21.890  1.00  0.00     0.170 HD
ATOM     18  O   UNL A   1      34.140  23.256  21.777  1.00  0.00    -0.275 OA
BRANCH  16  19
ATOM     19  C   UNL A   1      34.449  24.209  23.916  1.00  0.00     0.132 C 
BRANCH  19  20
ATOM     20  C   UNL A   1      34.805  23.070  24.878  1.00  0.00     0.127 C 
ATOM     21  C   UNL A   1      35.575  23.327  26.170  1.00  0.00     0.033 C 
ATOM     22  O   UNL A   1      35.398  21.962  24.172  1.00  0.00    -0.378 OA
ATOM     23  C   UNL A   1      37.069  23.500  25.952  1.00  0.00     0.005 C 
ATOM     24  C   UNL A   1      36.789  22.117  23.893  1.00  0.00     0.160 C 
ATOM     25  C   UNL A   1      37.597  22.308  25.169  1.00  0.00     0.029 C 
ENDBRANCH  19  20
ENDBRANCH  16  19
ENDBRANCH  13  15
ENDBRANCH   6   8
ENDBRANCH   5   6
ENDBRANCH   4   5
ENDBRANCH   3   4
ENDBRANCH   2   3
ENDBRANCH   1   2
BRANCH   1  26
ATOM     26  C   UNL A   1      32.568  30.312  27.037  1.00  0.00     0.188 C 
BRANCH  26  27
ATOM     27  O   UNL A   1      31.837  31.210  26.203  1.00  0.00    -0.376 OA
BRANCH  27  28
ATOM     28  C   UNL A   1      31.459  32.446  26.809  1.00  0.00     0.202 C 
BRANCH  28  29
ATOM     29  C   UNL A   1      32.585  33.419  27.207  1.00  0.00     0.261 C 
BRANCH  29  30
ATOM     30  O   UNL A   1      32.298  34.185  28.378  1.00  0.00    -0.460 OA
BRANCH  30  31
ATOM     31  C   UNL A   1      33.227  35.119  28.700  1.00  0.00     0.338 C 
ATOM     32  O   UNL A   1      33.095  36.329  28.676  1.00  0.00    -0.246 OA
BRANCH  31  33
ATOM     33  C   UNL A   1      34.398  34.412  29.279  1.00  0.00     0.060 A 
ATOM     34  C   UNL A   1      34.166  33.425  30.246  1.00  0.00     0.016 A 
ATOM     35  C   UNL A   1      35.696  34.631  28.797  1.00  0.00     0.016 A 
ATOM     36  C   UNL A   1      35.233  32.681  30.755  1.00  0.00     0.010 A 
ATOM     37  C   UNL A   1      36.759  33.880  29.296  1.00  0.00     0.010 A 
ATOM     38  C   UNL A   1      36.537  32.928  30.303  1.00  0.00    -0.014 A 
BRANCH  38  39
ATOM     39  C   UNL A   1      37.701  32.388  31.042  1.00  0.00     0.031 A 
ATOM     40  C   UNL A   1      38.474  31.274  30.395  1.00  0.00     0.074 A 
ATOM     41  C   UNL A   1      38.047  32.840  32.259  1.00  0.00     0.049 A 
ATOM     42  N   UNL A   1      39.484  30.582  30.852  1.00  0.00    -0.248 NA
ATOM     43  C   UNL A   1      38.034  30.881  29.045  1.00  0.00     0.031 C 
ATOM     44  C   UNL A   1      37.386  33.920  32.986  1.00  0.00     0.029 A 
ATOM     45  N   UNL A   1      39.045  32.422  33.105  1.00  0.00    -0.354 N 
ATOM     46  C   UNL A   1      39.798  29.676  29.849  1.00  0.00     0.074 A 
ATOM     47  C   UNL A   1      38.850  29.876  28.776  1.00  0.00     0.031 C 
ATOM     48  C   UNL A   1      37.988  34.070  34.181  1.00  0.00     0.029 A 
ATOM     49  C   UNL A   1      39.059  33.081  34.308  1.00  0.00     0.049 A 
ATOM     50  H   UNL A   1      39.690  31.715  32.870  1.00  0.00     0.167 HD
ATOM     51  C   UNL A   1      40.795  28.761  29.817  1.00  0.00     0.037 A 
ATOM     52  C   UNL A   1      39.837  32.888  35.392  1.00  0.00     0.037 A 
ATOM     53  C   UNL A   1      41.727  28.547  30.889  1.00  0.00     0.049 A 
ATOM     54  C   UNL A   1      40.899  31.816  35.362  1.00  0.00     0.074 A 
ATOM     55  C   UNL A   1      42.782  27.656  30.951  1.00  0.00     0.029 A 
ATOM     56  N   UNL A   1      41.701  29.226  32.097  1.00  0.00    -0.354 N 
ATOM     57  N   UNL A   1      41.222  30.993  34.394  1.00  0.00    -0.248 NA
ATOM     58  C   UNL A   1      41.706  31.647  36.581  1.00  0.00     0.031 C 
ATOM     59  C   UNL A   1      43.368  27.764  32.216  1.00  0.00     0.029 A 
ATOM     60  C   UNL A   1      42.708  28.758  32.923  1.00  0.00     0.049 A 
ATOM     61  H   UNL A   1      41.061  29.938  32.333  1.00  0.00     0.167 HD
ATOM     62  C   UNL A   1      42.282  30.232  34.873  1.00  0.00     0.074 A 
ATOM     63  C   UNL A   1      42.555  30.696  36.217  1.00  0.00     0.031 C 
ATOM     64  C   UNL A   1      42.970  29.240  34.254  1.00  0.00     0.037 A 
BRANCH  51  65
ATOM     65  C   UNL A   1      40.899  27.913  28.587  1.00  0.00     0.064 A 
ATOM     66  C   UNL A   1      41.639  28.330  27.469  1.00  0.00     0.173 A 
ATOM     67  C   UNL A   1      40.238  26.679  28.517  1.00  0.00     0.173 A 
ATOM     68  F   UNL A   1      42.267  29.516  27.480  1.00  0.00    -0.203 F 
ATOM     69  C   UNL A   1      41.688  27.554  26.315  1.00  0.00     0.198 A 
ATOM     70  C   UNL A   1      40.312  25.893  27.371  1.00  0.00     0.198 A 
ATOM     71  F   UNL A   1      39.514  26.241  29.557  1.00  0.00    -0.203 F 
ATOM     72  F   UNL A   1      42.352  27.999  25.239  1.00  0.00    -0.200 F 
ATOM     73  C   UNL A   1      41.028  26.335  26.268  1.00  0.00     0.200 A 
ATOM     74  F   UNL A   1      39.678  24.714  27.329  1.00  0.00    -0.200 F 
ATOM     75  F   UNL A   1      41.072  25.590  25.156  1.00  0.00    -0.200 F 
ENDBRANCH  51  65
BRANCH  52  76
ATOM     76  C   UNL A   1      39.645  33.723  36.606  1.00  0.00     0.064 A 
ATOM     77  C   UNL A   1      38.826  33.288  37.658  1.00  0.00     0.173 A 
ATOM     78  C   UNL A   1      40.251  34.981  36.729  1.00  0.00     0.173 A 
ATOM     79  F   UNL A   1      38.201  32.104  37.573  1.00  0.00    -0.203 F 
ATOM     80  C   UNL A   1      38.609  34.086  38.780  1.00  0.00     0.198 A 
ATOM     81  C   UNL A   1      40.053  35.769  37.862  1.00  0.00     0.198 A 
ATOM     82  F   UNL A   1      41.037  35.446  35.748  1.00  0.00    -0.203 F 
ATOM     83  F   UNL A   1      37.785  33.666  39.750  1.00  0.00    -0.200 F 
ATOM     84  C   UNL A   1      39.226  35.324  38.883  1.00  0.00     0.200 A 
ATOM     85  F   UNL A   1      40.655  36.962  37.960  1.00  0.00    -0.200 F 
ATOM     86  F   UNL A   1      39.016  36.092  39.961  1.00  0.00    -0.200 F 
ENDBRANCH  52  76
BRANCH  64  87
ATOM     87  C   UNL A   1      44.108  28.612  35.005  1.00  0.00     0.064 A 
ATOM     88  C   UNL A   1      45.411  29.124  34.931  1.00  0.00     0.173 A 
ATOM     89  C   UNL A   1      43.876  27.523  35.860  1.00  0.00     0.173 A 
ATOM     90  F   UNL A   1      45.685  30.156  34.118  1.00  0.00    -0.203 F 
ATOM     91  C   UNL A   1      46.445  28.557  35.672  1.00  0.00     0.198 A 
ATOM     92  C   UNL A   1      44.906  26.977  36.620  1.00  0.00     0.198 A 
ATOM     93  F   UNL A   1      42.646  27.002  35.973  1.00  0.00    -0.203 F 
ATOM     94  F   UNL A   1      47.690  29.039  35.558  1.00  0.00    -0.200 F 
ATOM     95  C   UNL A   1      46.190  27.491  36.522  1.00  0.00     0.200 A 
ATOM     96  F   UNL A   1      44.655  25.956  37.451  1.00  0.00    -0.200 F 
ATOM     97  F   UNL A   1      47.184  26.956  37.244  1.00  0.00    -0.200 F 
ENDBRANCH  64  87
ENDBRANCH  38  39
ENDBRANCH  31  33
ENDBRANCH  30  31
ENDBRANCH  29  30
ENDBRANCH  28  29
ENDBRANCH  27  28
ENDBRANCH  26  27
ENDBRANCH   1  26
TORSDOF 20
ENDMDL
