MODEL 1
REMARK VINA RESULT:     -11.6      0.000      0.000
REMARK SMILES O=C(OCCOCCOCCOC(=O)[C@H]1CC2(CC[NH+](C(=O)c3cc4ccccc4[nH]3)CC2)CN1C(=O)C1CC1)c1ccc(-c2c3nc(c(-c4c(F)c(F)c(F)c(F)c4F)c4ccc([nH]4)c(-c4c(F)c(F)c(F)c(F)c4F)c4nc(c(-c5c(F)c(F)c(F)c(F)c5F)c5ccc2[nH]5)C=C4)C=C3)cc1
REMARK SMILES IDX 7 1 6 2 5 3 4 4 3 5 2 6 1 7 41 8 42 9 103 10 43 11 102 12
REMARK SMILES IDX 44 13 45 14 46 15 96 16 47 17 101 18 95 19 97 20 48 21
REMARK SMILES IDX 100 22 94 23 93 24 49 26 81 27 61 28 80 29 62 30 65 31 79 32
REMARK SMILES IDX 98 33 63 34 64 35 78 37 99 38 66 39 50 40 51 41 59 42 52 43
REMARK SMILES IDX 53 44 57 45 60 46 54 47 55 48 58 49 56 50 82 51 83 52 91 53
REMARK SMILES IDX 84 54 85 55 89 56 92 57 86 58 87 59 90 60 88 61 67 62 68 63
REMARK SMILES IDX 76 64 69 65 70 66 74 67 77 68 71 69 72 70 75 71 73 72 8 73
REMARK SMILES IDX 9 74 10 75 11 76 12 77 13 78 14 79 15 80 16 81 35 82 17 83
REMARK SMILES IDX 34 84 18 85 33 86 19 87 32 88 20 89 36 91 37 92 38 93 39 94
REMARK SMILES IDX 40 95 21 96 22 97 23 98 24 99 31 100 25 101 30 102 26 104
REMARK SMILES IDX 29 105 27 106 28 107
REMARK H PARENT 97 25 65 36 20 90 31 103
REMARK Flexibility Score: inf
ROOT
ATOM      1  C   UNL A   1      38.285  19.669  24.876  1.00  0.00     0.188 C 
ENDROOT
BRANCH   1   2
ATOM      2  O   UNL A   1      39.358  18.939  25.482  1.00  0.00    -0.376 OA
BRANCH   2   3
ATOM      3  C   UNL A   1      40.389  19.756  26.011  1.00  0.00     0.202 C 
BRANCH   3   4
ATOM      4  C   UNL A   1      41.739  19.059  26.176  1.00  0.00     0.261 C 
BRANCH   4   5
ATOM      5  O   UNL A   1      42.640  19.216  25.071  1.00  0.00    -0.460 OA
BRANCH   5   6
ATOM      6  C   UNL A   1      43.828  19.857  24.978  1.00  0.00     0.338 C 
ATOM      7  O   UNL A   1      44.816  19.175  24.696  1.00  0.00    -0.246 OA
BRANCH   6   8
ATOM      8  C   UNL A   1      44.064  21.315  25.254  1.00  0.00     0.060 A 
ATOM      9  C   UNL A   1      44.187  22.342  24.314  1.00  0.00     0.016 A 
ATOM     10  C   UNL A   1      44.228  21.662  26.613  1.00  0.00     0.016 A 
ATOM     11  C   UNL A   1      44.407  23.673  24.717  1.00  0.00     0.010 A 
ATOM     12  C   UNL A   1      44.458  22.985  27.022  1.00  0.00     0.010 A 
ATOM     13  C   UNL A   1      44.538  24.006  26.073  1.00  0.00    -0.014 A 
BRANCH  13  14
ATOM     14  C   UNL A   1      45.038  25.347  26.473  1.00  0.00     0.031 A 
ATOM     15  C   UNL A   1      44.022  26.302  27.008  1.00  0.00     0.074 A 
ATOM     16  C   UNL A   1      46.322  25.732  26.353  1.00  0.00     0.049 A 
ATOM     17  N   UNL A   1      44.178  27.511  27.475  1.00  0.00    -0.248 NA
ATOM     18  C   UNL A   1      42.632  25.816  27.023  1.00  0.00     0.031 C 
ATOM     19  C   UNL A   1      47.394  24.895  25.843  1.00  0.00     0.029 A 
ATOM     20  N   UNL A   1      46.949  26.921  26.639  1.00  0.00    -0.354 N 
ATOM     21  C   UNL A   1      42.913  27.914  27.869  1.00  0.00     0.074 A 
ATOM     22  C   UNL A   1      41.997  26.838  27.564  1.00  0.00     0.031 C 
ATOM     23  C   UNL A   1      48.552  25.576  25.861  1.00  0.00     0.029 A 
ATOM     24  C   UNL A   1      48.290  26.932  26.329  1.00  0.00     0.049 A 
ATOM     25  H   UNL A   1      46.481  27.694  27.029  1.00  0.00     0.167 HD
ATOM     26  C   UNL A   1      42.541  29.087  28.425  1.00  0.00     0.037 A 
ATOM     27  C   UNL A   1      49.191  27.936  26.387  1.00  0.00     0.037 A 
ATOM     28  C   UNL A   1      43.423  30.205  28.583  1.00  0.00     0.049 A 
ATOM     29  C   UNL A   1      48.727  29.285  26.876  1.00  0.00     0.074 A 
ATOM     30  C   UNL A   1      43.134  31.478  29.033  1.00  0.00     0.029 A 
ATOM     31  N   UNL A   1      44.768  30.190  28.235  1.00  0.00    -0.354 N 
ATOM     32  N   UNL A   1      47.541  29.639  27.311  1.00  0.00    -0.248 NA
ATOM     33  C   UNL A   1      49.713  30.375  26.879  1.00  0.00     0.031 C 
ATOM     34  C   UNL A   1      44.292  32.252  28.899  1.00  0.00     0.029 A 
ATOM     35  C   UNL A   1      45.317  31.443  28.430  1.00  0.00     0.049 A 
ATOM     36  H   UNL A   1      45.256  29.403  27.901  1.00  0.00     0.167 HD
ATOM     37  C   UNL A   1      47.644  30.975  27.669  1.00  0.00     0.074 A 
ATOM     38  C   UNL A   1      49.011  31.373  27.400  1.00  0.00     0.031 C 
ATOM     39  C   UNL A   1      46.694  31.796  28.180  1.00  0.00     0.037 A 
BRANCH  26  40
ATOM     40  C   UNL A   1      41.092  29.197  28.780  1.00  0.00     0.064 A 
ATOM     41  C   UNL A   1      40.653  29.010  30.101  1.00  0.00     0.173 A 
ATOM     42  C   UNL A   1      40.125  29.328  27.774  1.00  0.00     0.173 A 
ATOM     43  F   UNL A   1      41.544  28.836  31.090  1.00  0.00    -0.203 F 
ATOM     44  C   UNL A   1      39.298  28.890  30.391  1.00  0.00     0.198 A 
ATOM     45  C   UNL A   1      38.770  29.235  28.073  1.00  0.00     0.198 A 
ATOM     46  F   UNL A   1      40.498  29.488  26.495  1.00  0.00    -0.203 F 
ATOM     47  F   UNL A   1      38.904  28.611  31.641  1.00  0.00    -0.200 F 
ATOM     48  C   UNL A   1      38.358  28.997  29.376  1.00  0.00     0.200 A 
ATOM     49  F   UNL A   1      37.863  29.328  27.091  1.00  0.00    -0.200 F 
ATOM     50  F   UNL A   1      37.056  28.840  29.649  1.00  0.00    -0.200 F 
ENDBRANCH  26  40
BRANCH  27  51
ATOM     51  C   UNL A   1      50.601  27.721  25.948  1.00  0.00     0.064 A 
ATOM     52  C   UNL A   1      51.609  27.400  26.869  1.00  0.00     0.173 A 
ATOM     53  C   UNL A   1      50.976  27.848  24.601  1.00  0.00     0.173 A 
ATOM     54  F   UNL A   1      51.313  27.282  28.171  1.00  0.00    -0.203 F 
ATOM     55  C   UNL A   1      52.935  27.231  26.464  1.00  0.00     0.198 A 
ATOM     56  C   UNL A   1      52.295  27.653  24.193  1.00  0.00     0.198 A 
ATOM     57  F   UNL A   1      50.056  28.150  23.673  1.00  0.00    -0.203 F 
ATOM     58  F   UNL A   1      53.881  26.960  27.372  1.00  0.00    -0.200 F 
ATOM     59  C   UNL A   1      53.276  27.352  25.125  1.00  0.00     0.200 A 
ATOM     60  F   UNL A   1      52.614  27.750  22.896  1.00  0.00    -0.200 F 
ATOM     61  F   UNL A   1      54.546  27.181  24.736  1.00  0.00    -0.200 F 
ENDBRANCH  27  51
BRANCH  39  62
ATOM     62  C   UNL A   1      47.100  33.192  28.545  1.00  0.00     0.064 A 
ATOM     63  C   UNL A   1      47.641  33.501  29.799  1.00  0.00     0.173 A 
ATOM     64  C   UNL A   1      47.062  34.202  27.572  1.00  0.00     0.173 A 
ATOM     65  F   UNL A   1      47.685  32.570  30.764  1.00  0.00    -0.203 F 
ATOM     66  C   UNL A   1      48.137  34.774  30.065  1.00  0.00     0.198 A 
ATOM     67  C   UNL A   1      47.583  35.464  27.832  1.00  0.00     0.198 A 
ATOM     68  F   UNL A   1      46.556  33.949  26.354  1.00  0.00    -0.203 F 
ATOM     69  F   UNL A   1      48.641  35.056  31.275  1.00  0.00    -0.200 F 
ATOM     70  C   UNL A   1      48.122  35.748  29.077  1.00  0.00     0.200 A 
ATOM     71  F   UNL A   1      47.583  36.399  26.871  1.00  0.00    -0.200 F 
ATOM     72  F   UNL A   1      48.632  36.963  29.325  1.00  0.00    -0.200 F 
ENDBRANCH  39  62
ENDBRANCH  13  14
ENDBRANCH   6   8
ENDBRANCH   5   6
ENDBRANCH   4   5
ENDBRANCH   3   4
ENDBRANCH   2   3
ENDBRANCH   1   2
BRANCH   1  73
ATOM     73  C   UNL A   1      38.293  21.104  25.404  1.00  0.00     0.188 C 
BRANCH  73  74
ATOM     74  O   UNL A   1      37.477  21.987  24.625  1.00  0.00    -0.376 OA
BRANCH  74  75
ATOM     75  C   UNL A   1      36.764  22.983  25.358  1.00  0.00     0.202 C 
BRANCH  75  76
ATOM     76  C   UNL A   1      35.634  22.406  26.225  1.00  0.00     0.261 C 
BRANCH  76  77
ATOM     77  O   UNL A   1      34.859  21.418  25.522  1.00  0.00    -0.462 OA
BRANCH  77  78
ATOM     78  C   UNL A   1      33.712  21.001  26.108  1.00  0.00     0.328 C 
ATOM     79  O   UNL A   1      33.657  20.499  27.224  1.00  0.00    -0.250 OA
BRANCH  78  80
ATOM     80  C   UNL A   1      32.499  21.321  25.209  1.00  0.00     0.195 C 
ATOM     81  C   UNL A   1      32.644  22.828  24.871  1.00  0.00     0.046 C 
ATOM     82  N   UNL A   1      32.476  20.709  23.886  1.00  0.00    -0.328 N 
ATOM     83  C   UNL A   1      32.097  23.049  23.450  1.00  0.00     0.001 C 
ATOM     84  C   UNL A   1      32.097  21.654  22.846  1.00  0.00     0.128 C 
ATOM     85  C   UNL A   1      33.021  23.937  22.589  1.00  0.00     0.071 C 
ATOM     86  C   UNL A   1      30.694  23.690  23.486  1.00  0.00     0.071 C 
ATOM     87  C   UNL A   1      33.076  25.360  23.110  1.00  0.00     0.271 C 
ATOM     88  C   UNL A   1      30.743  25.162  23.919  1.00  0.00     0.271 C 
ATOM     89  N   UNL A   1      31.728  25.925  23.153  1.00  0.00    -0.266 N 
ATOM     90  H   UNL A   1      31.339  26.764  22.816  1.00  0.00     0.357 HD
BRANCH  82  91
ATOM     91  C   UNL A   1      32.568  19.401  23.465  1.00  0.00     0.226 C 
ATOM     92  O   UNL A   1      32.152  19.143  22.336  1.00  0.00    -0.275 OA
BRANCH  91  93
ATOM     93  C   UNL A   1      33.034  18.235  24.250  1.00  0.00     0.079 C 
ATOM     94  C   UNL A   1      33.503  16.850  23.964  1.00  0.00     0.014 C 
ATOM     95  C   UNL A   1      34.516  17.902  24.246  1.00  0.00     0.014 C 
ENDBRANCH  91  93
ENDBRANCH  82  91
BRANCH  89  96
ATOM     96  C   UNL A   1      31.407  27.224  22.753  1.00  0.00     0.360 C 
ATOM     97  O   UNL A   1      30.942  27.465  21.641  1.00  0.00    -0.224 OA
BRANCH  96  98
ATOM     98  C   UNL A   1      31.627  28.274  23.720  1.00  0.00     0.145 A 
ATOM     99  C   UNL A   1      30.835  29.374  23.985  1.00  0.00     0.046 A 
ATOM    100  N   UNL A   1      32.724  28.364  24.547  1.00  0.00    -0.347 N 
ATOM    101  C   UNL A   1      31.409  30.082  25.074  1.00  0.00     0.000 A 
ATOM    102  C   UNL A   1      32.589  29.422  25.417  1.00  0.00     0.046 A 
ATOM    103  H   UNL A   1      33.498  27.757  24.518  1.00  0.00     0.167 HD
ATOM    104  C   UNL A   1      31.029  31.220  25.809  1.00  0.00     0.010 A 
ATOM    105  C   UNL A   1      33.412  29.843  26.468  1.00  0.00     0.026 A 
ATOM    106  C   UNL A   1      31.838  31.653  26.865  1.00  0.00     0.001 A 
ATOM    107  C   UNL A   1      33.010  30.972  27.188  1.00  0.00     0.002 A 
ENDBRANCH  96  98
ENDBRANCH  89  96
ENDBRANCH  78  80
ENDBRANCH  77  78
ENDBRANCH  76  77
ENDBRANCH  75  76
ENDBRANCH  74  75
ENDBRANCH  73  74
ENDBRANCH   1  73
TORSDOF 21
ENDMDL
MODEL 2
REMARK VINA RESULT:     -11.1      5.595     11.662
REMARK SMILES O=C(OCCOCCOCCOC(=O)[C@H]1CC2(CC[NH+](C(=O)c3cc4ccccc4[nH]3)CC2)CN1C(=O)C1CC1)c1ccc(-c2c3nc(c(-c4c(F)c(F)c(F)c(F)c4F)c4ccc([nH]4)c(-c4c(F)c(F)c(F)c(F)c4F)c4nc(c(-c5c(F)c(F)c(F)c(F)c5F)c5ccc2[nH]5)C=C4)C=C3)cc1
REMARK SMILES IDX 7 1 6 2 5 3 4 4 3 5 2 6 1 7 41 8 42 9 103 10 43 11 102 12
REMARK SMILES IDX 44 13 45 14 46 15 96 16 47 17 101 18 95 19 97 20 48 21
REMARK SMILES IDX 100 22 94 23 93 24 49 26 81 27 61 28 80 29 62 30 65 31 79 32
REMARK SMILES IDX 98 33 63 34 64 35 78 37 99 38 66 39 50 40 51 41 59 42 52 43
REMARK SMILES IDX 53 44 57 45 60 46 54 47 55 48 58 49 56 50 82 51 83 52 91 53
REMARK SMILES IDX 84 54 85 55 89 56 92 57 86 58 87 59 90 60 88 61 67 62 68 63
REMARK SMILES IDX 76 64 69 65 70 66 74 67 77 68 71 69 72 70 75 71 73 72 8 73
REMARK SMILES IDX 9 74 10 75 11 76 12 77 13 78 14 79 15 80 16 81 35 82 17 83
REMARK SMILES IDX 34 84 18 85 33 86 19 87 32 88 20 89 36 91 37 92 38 93 39 94
REMARK SMILES IDX 40 95 21 96 22 97 23 98 24 99 31 100 25 101 30 102 26 104
REMARK SMILES IDX 29 105 27 106 28 107
REMARK H PARENT 97 25 65 36 20 90 31 103
REMARK Flexibility Score: inf
ROOT
ATOM      1  C   UNL A   1      31.299  27.758  26.112  1.00  0.00     0.188 C 
ENDROOT
BRANCH   1   2
ATOM      2  O   UNL A   1      31.366  29.020  25.437  1.00  0.00    -0.376 OA
BRANCH   2   3
ATOM      3  C   UNL A   1      32.470  29.824  25.818  1.00  0.00     0.202 C 
BRANCH   3   4
ATOM      4  C   UNL A   1      32.123  30.999  26.732  1.00  0.00     0.261 C 
BRANCH   4   5
ATOM      5  O   UNL A   1      33.251  31.665  27.316  1.00  0.00    -0.460 OA
BRANCH   5   6
ATOM      6  C   UNL A   1      33.330  32.799  28.051  1.00  0.00     0.338 C 
ATOM      7  O   UNL A   1      32.529  33.698  27.790  1.00  0.00    -0.246 OA
BRANCH   6   8
ATOM      8  C   UNL A   1      34.353  33.087  29.113  1.00  0.00     0.060 A 
ATOM      9  C   UNL A   1      34.562  34.299  29.776  1.00  0.00     0.016 A 
ATOM     10  C   UNL A   1      35.224  32.021  29.430  1.00  0.00     0.016 A 
ATOM     11  C   UNL A   1      35.563  34.427  30.758  1.00  0.00     0.010 A 
ATOM     12  C   UNL A   1      36.231  32.144  30.400  1.00  0.00     0.010 A 
ATOM     13  C   UNL A   1      36.401  33.350  31.082  1.00  0.00    -0.014 A 
BRANCH  13  14
ATOM     14  C   UNL A   1      37.618  33.565  31.907  1.00  0.00     0.031 A 
ATOM     15  C   UNL A   1      38.885  33.835  31.162  1.00  0.00     0.074 A 
ATOM     16  C   UNL A   1      37.630  33.504  33.251  1.00  0.00     0.049 A 
ATOM     17  N   UNL A   1      40.078  34.105  31.618  1.00  0.00    -0.248 NA
ATOM     18  C   UNL A   1      38.784  33.800  29.694  1.00  0.00     0.031 C 
ATOM     19  C   UNL A   1      36.466  33.244  34.080  1.00  0.00     0.029 A 
ATOM     20  N   UNL A   1      38.650  33.644  34.162  1.00  0.00    -0.354 N 
ATOM     21  C   UNL A   1      40.859  34.306  30.492  1.00  0.00     0.074 A 
ATOM     22  C   UNL A   1      40.018  34.100  29.334  1.00  0.00     0.031 C 
ATOM     23  C   UNL A   1      36.817  33.257  35.377  1.00  0.00     0.029 A 
ATOM     24  C   UNL A   1      38.258  33.464  35.469  1.00  0.00     0.049 A 
ATOM     25  H   UNL A   1      39.577  33.853  33.903  1.00  0.00     0.167 HD
ATOM     26  C   UNL A   1      42.170  34.619  30.425  1.00  0.00     0.037 A 
ATOM     27  C   UNL A   1      38.989  33.437  36.604  1.00  0.00     0.037 A 
ATOM     28  C   UNL A   1      43.033  34.670  31.567  1.00  0.00     0.049 A 
ATOM     29  C   UNL A   1      40.479  33.648  36.499  1.00  0.00     0.074 A 
ATOM     30  C   UNL A   1      44.398  34.872  31.612  1.00  0.00     0.029 A 
ATOM     31  N   UNL A   1      42.608  34.458  32.873  1.00  0.00    -0.354 N 
ATOM     32  N   UNL A   1      41.200  33.904  35.434  1.00  0.00    -0.248 NA
ATOM     33  C   UNL A   1      41.259  33.561  37.742  1.00  0.00     0.031 C 
ATOM     34  C   UNL A   1      44.809  34.719  32.941  1.00  0.00     0.029 A 
ATOM     35  C   UNL A   1      43.692  34.491  33.731  1.00  0.00     0.049 A 
ATOM     36  H   UNL A   1      41.674  34.308  33.146  1.00  0.00     0.167 HD
ATOM     37  C   UNL A   1      42.507  34.042  35.877  1.00  0.00     0.074 A 
ATOM     38  C   UNL A   1      42.483  33.839  37.311  1.00  0.00     0.031 C 
ATOM     39  C   UNL A   1      43.626  34.316  35.161  1.00  0.00     0.037 A 
BRANCH  26  40
ATOM     40  C   UNL A   1      42.714  34.813  29.044  1.00  0.00     0.064 A 
ATOM     41  C   UNL A   1      42.437  35.981  28.313  1.00  0.00     0.173 A 
ATOM     42  C   UNL A   1      43.374  33.764  28.391  1.00  0.00     0.173 A 
ATOM     43  F   UNL A   1      41.767  36.993  28.886  1.00  0.00    -0.203 F 
ATOM     44  C   UNL A   1      42.750  36.065  26.961  1.00  0.00     0.198 A 
ATOM     45  C   UNL A   1      43.709  33.864  27.044  1.00  0.00     0.198 A 
ATOM     46  F   UNL A   1      43.641  32.623  29.043  1.00  0.00    -0.203 F 
ATOM     47  F   UNL A   1      42.387  37.145  26.257  1.00  0.00    -0.200 F 
ATOM     48  C   UNL A   1      43.381  35.004  26.326  1.00  0.00     0.200 A 
ATOM     49  F   UNL A   1      44.310  32.836  26.429  1.00  0.00    -0.200 F 
ATOM     50  F   UNL A   1      43.643  35.069  25.014  1.00  0.00    -0.200 F 
ENDBRANCH  26  40
BRANCH  27  51
ATOM     51  C   UNL A   1      38.340  33.175  37.922  1.00  0.00     0.064 A 
ATOM     52  C   UNL A   1      37.750  31.936  38.208  1.00  0.00     0.173 A 
ATOM     53  C   UNL A   1      38.280  34.162  38.917  1.00  0.00     0.173 A 
ATOM     54  F   UNL A   1      37.760  30.960  37.289  1.00  0.00    -0.203 F 
ATOM     55  C   UNL A   1      37.113  31.700  39.429  1.00  0.00     0.198 A 
ATOM     56  C   UNL A   1      37.668  33.918  40.147  1.00  0.00     0.198 A 
ATOM     57  F   UNL A   1      38.830  35.367  38.704  1.00  0.00    -0.203 F 
ATOM     58  F   UNL A   1      36.527  30.518  39.659  1.00  0.00    -0.200 F 
ATOM     59  C   UNL A   1      37.078  32.690  40.399  1.00  0.00     0.200 A 
ATOM     60  F   UNL A   1      37.658  34.871  41.088  1.00  0.00    -0.200 F 
ATOM     61  F   UNL A   1      36.475  32.460  41.573  1.00  0.00    -0.200 F 
ENDBRANCH  27  51
BRANCH  39  62
ATOM     62  C   UNL A   1      44.913  34.479  35.912  1.00  0.00     0.064 A 
ATOM     63  C   UNL A   1      45.311  35.714  36.438  1.00  0.00     0.173 A 
ATOM     64  C   UNL A   1      45.688  33.348  36.213  1.00  0.00     0.173 A 
ATOM     65  F   UNL A   1      44.608  36.824  36.165  1.00  0.00    -0.203 F 
ATOM     66  C   UNL A   1      46.439  35.811  37.248  1.00  0.00     0.198 A 
ATOM     67  C   UNL A   1      46.798  33.444  37.044  1.00  0.00     0.198 A 
ATOM     68  F   UNL A   1      45.341  32.144  35.734  1.00  0.00    -0.203 F 
ATOM     69  F   UNL A   1      46.813  37.003  37.734  1.00  0.00    -0.200 F 
ATOM     70  C   UNL A   1      47.171  34.674  37.562  1.00  0.00     0.200 A 
ATOM     71  F   UNL A   1      47.494  32.343  37.360  1.00  0.00    -0.200 F 
ATOM     72  F   UNL A   1      48.238  34.765  38.370  1.00  0.00    -0.200 F 
ENDBRANCH  39  62
ENDBRANCH  13  14
ENDBRANCH   6   8
ENDBRANCH   5   6
ENDBRANCH   4   5
ENDBRANCH   3   4
ENDBRANCH   2   3
ENDBRANCH   1   2
BRANCH   1  73
ATOM     73  C   UNL A   1      32.471  26.885  25.661  1.00  0.00     0.188 C 
BRANCH  73  74
ATOM     74  O   UNL A   1      32.302  26.372  24.334  1.00  0.00    -0.376 OA
BRANCH  74  75
ATOM     75  C   UNL A   1      33.466  26.397  23.507  1.00  0.00     0.202 C 
BRANCH  75  76
ATOM     76  C   UNL A   1      33.417  25.377  22.359  1.00  0.00     0.261 C 
BRANCH  76  77
ATOM     77  O   UNL A   1      34.197  24.202  22.641  1.00  0.00    -0.462 OA
BRANCH  77  78
ATOM     78  C   UNL A   1      33.549  23.012  22.626  1.00  0.00     0.328 C 
ATOM     79  O   UNL A   1      32.652  22.732  21.842  1.00  0.00    -0.250 OA
BRANCH  78  80
ATOM     80  C   UNL A   1      34.155  22.055  23.674  1.00  0.00     0.195 C 
ATOM     81  C   UNL A   1      35.476  22.736  24.117  1.00  0.00     0.046 C 
ATOM     82  N   UNL A   1      33.440  21.918  24.938  1.00  0.00    -0.328 N 
ATOM     83  C   UNL A   1      35.706  22.405  25.601  1.00  0.00     0.001 C 
ATOM     84  C   UNL A   1      34.334  21.967  26.086  1.00  0.00     0.128 C 
ATOM     85  C   UNL A   1      36.127  23.640  26.427  1.00  0.00     0.071 C 
ATOM     86  C   UNL A   1      36.782  21.312  25.769  1.00  0.00     0.071 C 
ATOM     87  C   UNL A   1      37.498  24.145  26.020  1.00  0.00     0.271 C 
ATOM     88  C   UNL A   1      38.190  21.835  25.455  1.00  0.00     0.271 C 
ATOM     89  N   UNL A   1      38.485  23.077  26.169  1.00  0.00    -0.266 N 
ATOM     90  H   UNL A   1      39.362  23.027  26.613  1.00  0.00     0.357 HD
BRANCH  82  91
ATOM     91  C   UNL A   1      32.139  21.583  25.239  1.00  0.00     0.226 C 
ATOM     92  O   UNL A   1      31.832  20.394  25.158  1.00  0.00    -0.275 OA
BRANCH  91  93
ATOM     93  C   UNL A   1      31.027  22.504  25.570  1.00  0.00     0.079 C 
ATOM     94  C   UNL A   1      30.024  22.647  26.663  1.00  0.00     0.014 C 
ATOM     95  C   UNL A   1      31.230  23.517  26.682  1.00  0.00     0.014 C 
ENDBRANCH  91  93
ENDBRANCH  82  91
BRANCH  89  96
ATOM     96  C   UNL A   1      39.762  23.256  26.706  1.00  0.00     0.360 C 
ATOM     97  O   UNL A   1      40.443  22.308  27.090  1.00  0.00    -0.224 OA
BRANCH  96  98
ATOM     98  C   UNL A   1      40.255  24.611  26.766  1.00  0.00     0.145 A 
ATOM     99  C   UNL A   1      40.216  25.491  27.830  1.00  0.00     0.046 A 
ATOM    100  N   UNL A   1      40.841  25.282  25.716  1.00  0.00    -0.347 N 
ATOM    101  C   UNL A   1      40.896  26.678  27.450  1.00  0.00     0.000 A 
ATOM    102  C   UNL A   1      41.289  26.519  26.121  1.00  0.00     0.046 A 
ATOM    103  H   UNL A   1      40.927  24.926  24.802  1.00  0.00     0.167 HD
ATOM    104  C   UNL A   1      41.223  27.874  28.116  1.00  0.00     0.010 A 
ATOM    105  C   UNL A   1      42.002  27.499  25.421  1.00  0.00     0.026 A 
ATOM    106  C   UNL A   1      41.937  28.864  27.433  1.00  0.00     0.001 A 
ATOM    107  C   UNL A   1      42.321  28.676  26.106  1.00  0.00     0.002 A 
ENDBRANCH  96  98
ENDBRANCH  89  96
ENDBRANCH  78  80
ENDBRANCH  77  78
ENDBRANCH  76  77
ENDBRANCH  75  76
ENDBRANCH  74  75
ENDBRANCH  73  74
ENDBRANCH   1  73
TORSDOF 21
ENDMDL
MODEL 3
REMARK VINA RESULT:     -11.1      4.589      9.057
REMARK SMILES O=C(OCCOCCOCCOC(=O)[C@H]1CC2(CC[NH+](C(=O)c3cc4ccccc4[nH]3)CC2)CN1C(=O)C1CC1)c1ccc(-c2c3nc(c(-c4c(F)c(F)c(F)c(F)c4F)c4ccc([nH]4)c(-c4c(F)c(F)c(F)c(F)c4F)c4nc(c(-c5c(F)c(F)c(F)c(F)c5F)c5ccc2[nH]5)C=C4)C=C3)cc1
REMARK SMILES IDX 7 1 6 2 5 3 4 4 3 5 2 6 1 7 41 8 42 9 103 10 43 11 102 12
REMARK SMILES IDX 44 13 45 14 46 15 96 16 47 17 101 18 95 19 97 20 48 21
REMARK SMILES IDX 100 22 94 23 93 24 49 26 81 27 61 28 80 29 62 30 65 31 79 32
REMARK SMILES IDX 98 33 63 34 64 35 78 37 99 38 66 39 50 40 51 41 59 42 52 43
REMARK SMILES IDX 53 44 57 45 60 46 54 47 55 48 58 49 56 50 82 51 83 52 91 53
REMARK SMILES IDX 84 54 85 55 89 56 92 57 86 58 87 59 90 60 88 61 67 62 68 63
REMARK SMILES IDX 76 64 69 65 70 66 74 67 77 68 71 69 72 70 75 71 73 72 8 73
REMARK SMILES IDX 9 74 10 75 11 76 12 77 13 78 14 79 15 80 16 81 35 82 17 83
REMARK SMILES IDX 34 84 18 85 33 86 19 87 32 88 20 89 36 91 37 92 38 93 39 94
REMARK SMILES IDX 40 95 21 96 22 97 23 98 24 99 31 100 25 101 30 102 26 104
REMARK SMILES IDX 29 105 27 106 28 107
REMARK H PARENT 97 25 65 36 20 90 31 103
REMARK Flexibility Score: inf
ROOT
ATOM      1  C   UNL A   1      41.163  22.947  26.410  1.00  0.00     0.188 C 
ENDROOT
BRANCH   1   2
ATOM      2  O   UNL A   1      42.549  23.218  26.169  1.00  0.00    -0.376 OA
BRANCH   2   3
ATOM      3  C   UNL A   1      43.193  22.256  25.350  1.00  0.00     0.202 C 
BRANCH   3   4
ATOM      4  C   UNL A   1      44.425  22.770  24.605  1.00  0.00     0.261 C 
BRANCH   4   5
ATOM      5  O   UNL A   1      44.470  24.191  24.418  1.00  0.00    -0.460 OA
BRANCH   5   6
ATOM      6  C   UNL A   1      45.104  25.160  25.119  1.00  0.00     0.338 C 
ATOM      7  O   UNL A   1      46.224  25.495  24.732  1.00  0.00    -0.246 OA
BRANCH   6   8
ATOM      8  C   UNL A   1      44.591  25.817  26.369  1.00  0.00     0.060 A 
ATOM      9  C   UNL A   1      43.887  25.212  27.413  1.00  0.00     0.016 A 
ATOM     10  C   UNL A   1      44.809  27.210  26.462  1.00  0.00     0.016 A 
ATOM     11  C   UNL A   1      43.466  25.954  28.533  1.00  0.00     0.010 A 
ATOM     12  C   UNL A   1      44.384  27.959  27.570  1.00  0.00     0.010 A 
ATOM     13  C   UNL A   1      43.716  27.331  28.623  1.00  0.00    -0.014 A 
BRANCH  13  14
ATOM     14  C   UNL A   1      43.039  28.152  29.660  1.00  0.00     0.031 A 
ATOM     15  C   UNL A   1      43.725  28.247  30.984  1.00  0.00     0.074 A 
ATOM     16  C   UNL A   1      41.859  28.771  29.471  1.00  0.00     0.049 A 
ATOM     17  N   UNL A   1      43.393  28.926  32.048  1.00  0.00    -0.248 NA
ATOM     18  C   UNL A   1      44.967  27.467  31.119  1.00  0.00     0.031 C 
ATOM     19  C   UNL A   1      41.099  28.746  28.234  1.00  0.00     0.029 A 
ATOM     20  N   UNL A   1      41.084  29.534  30.311  1.00  0.00    -0.354 N 
ATOM     21  C   UNL A   1      44.403  28.682  32.964  1.00  0.00     0.074 A 
ATOM     22  C   UNL A   1      45.343  27.774  32.346  1.00  0.00     0.031 C 
ATOM     23  C   UNL A   1      39.974  29.468  28.374  1.00  0.00     0.029 A 
ATOM     24  C   UNL A   1      39.903  29.959  29.746  1.00  0.00     0.049 A 
ATOM     25  H   UNL A   1      41.348  29.756  31.233  1.00  0.00     0.167 HD
ATOM     26  C   UNL A   1      44.531  29.160  34.220  1.00  0.00     0.037 A 
ATOM     27  C   UNL A   1      38.870  30.638  30.288  1.00  0.00     0.037 A 
ATOM     28  C   UNL A   1      43.522  29.933  34.881  1.00  0.00     0.049 A 
ATOM     29  C   UNL A   1      38.964  31.043  31.738  1.00  0.00     0.074 A 
ATOM     30  C   UNL A   1      43.493  30.381  36.186  1.00  0.00     0.029 A 
ATOM     31  N   UNL A   1      42.329  30.323  34.288  1.00  0.00    -0.354 N 
ATOM     32  N   UNL A   1      39.955  30.865  32.579  1.00  0.00    -0.248 NA
ATOM     33  C   UNL A   1      37.804  31.734  32.320  1.00  0.00     0.031 C 
ATOM     34  C   UNL A   1      42.251  30.991  36.401  1.00  0.00     0.029 A 
ATOM     35  C   UNL A   1      41.538  30.981  35.212  1.00  0.00     0.049 A 
ATOM     36  H   UNL A   1      42.083  30.157  33.349  1.00  0.00     0.167 HD
ATOM     37  C   UNL A   1      39.557  31.447  33.773  1.00  0.00     0.074 A 
ATOM     38  C   UNL A   1      38.230  31.985  33.551  1.00  0.00     0.031 C 
ATOM     39  C   UNL A   1      40.231  31.532  34.947  1.00  0.00     0.037 A 
BRANCH  26  40
ATOM     40  C   UNL A   1      45.771  28.738  34.944  1.00  0.00     0.064 A 
ATOM     41  C   UNL A   1      45.784  27.588  35.750  1.00  0.00     0.173 A 
ATOM     42  C   UNL A   1      46.897  29.572  34.962  1.00  0.00     0.173 A 
ATOM     43  F   UNL A   1      44.710  26.785  35.798  1.00  0.00    -0.203 F 
ATOM     44  C   UNL A   1      46.858  27.321  36.594  1.00  0.00     0.198 A 
ATOM     45  C   UNL A   1      47.980  29.287  35.787  1.00  0.00     0.198 A 
ATOM     46  F   UNL A   1      46.921  30.692  34.224  1.00  0.00    -0.203 F 
ATOM     47  F   UNL A   1      46.808  26.275  37.429  1.00  0.00    -0.200 F 
ATOM     48  C   UNL A   1      47.952  28.174  36.615  1.00  0.00     0.200 A 
ATOM     49  F   UNL A   1      49.033  30.115  35.815  1.00  0.00    -0.200 F 
ATOM     50  F   UNL A   1      48.967  27.940  37.458  1.00  0.00    -0.200 F 
ENDBRANCH  26  40
BRANCH  27  51
ATOM     51  C   UNL A   1      37.655  30.950  29.480  1.00  0.00     0.064 A 
ATOM     52  C   UNL A   1      37.449  32.228  28.940  1.00  0.00     0.173 A 
ATOM     53  C   UNL A   1      36.664  29.985  29.245  1.00  0.00     0.173 A 
ATOM     54  F   UNL A   1      38.353  33.196  29.147  1.00  0.00    -0.203 F 
ATOM     55  C   UNL A   1      36.296  32.531  28.211  1.00  0.00     0.198 A 
ATOM     56  C   UNL A   1      35.526  30.280  28.495  1.00  0.00     0.198 A 
ATOM     57  F   UNL A   1      36.805  28.743  29.733  1.00  0.00    -0.203 F 
ATOM     58  F   UNL A   1      36.112  33.771  27.739  1.00  0.00    -0.200 F 
ATOM     59  C   UNL A   1      35.338  31.555  27.985  1.00  0.00     0.200 A 
ATOM     60  F   UNL A   1      34.614  29.326  28.260  1.00  0.00    -0.200 F 
ATOM     61  F   UNL A   1      34.237  31.844  27.279  1.00  0.00    -0.200 F 
ENDBRANCH  27  51
BRANCH  39  62
ATOM     62  C   UNL A   1      39.585  32.285  36.070  1.00  0.00     0.064 A 
ATOM     63  C   UNL A   1      39.866  33.635  36.314  1.00  0.00     0.173 A 
ATOM     64  C   UNL A   1      38.576  31.669  36.827  1.00  0.00     0.173 A 
ATOM     65  F   UNL A   1      40.832  34.260  35.624  1.00  0.00    -0.203 F 
ATOM     66  C   UNL A   1      39.152  34.347  37.274  1.00  0.00     0.198 A 
ATOM     67  C   UNL A   1      37.848  32.391  37.765  1.00  0.00     0.198 A 
ATOM     68  F   UNL A   1      38.271  30.378  36.624  1.00  0.00    -0.203 F 
ATOM     69  F   UNL A   1      39.441  35.636  37.502  1.00  0.00    -0.200 F 
ATOM     70  C   UNL A   1      38.134  33.728  37.986  1.00  0.00     0.200 A 
ATOM     71  F   UNL A   1      36.854  31.796  38.441  1.00  0.00    -0.200 F 
ATOM     72  F   UNL A   1      37.426  34.426  38.886  1.00  0.00    -0.200 F 
ENDBRANCH  39  62
ENDBRANCH  13  14
ENDBRANCH   6   8
ENDBRANCH   5   6
ENDBRANCH   4   5
ENDBRANCH   3   4
ENDBRANCH   2   3
ENDBRANCH   1   2
BRANCH   1  73
ATOM     73  C   UNL A   1      40.973  21.443  26.613  1.00  0.00     0.188 C 
BRANCH  73  74
ATOM     74  O   UNL A   1      39.830  20.929  25.919  1.00  0.00    -0.376 OA
BRANCH  74  75
ATOM     75  C   UNL A   1      38.637  21.705  26.029  1.00  0.00     0.202 C 
BRANCH  75  76
ATOM     76  C   UNL A   1      37.640  21.451  24.888  1.00  0.00     0.261 C 
BRANCH  76  77
ATOM     77  O   UNL A   1      36.296  21.821  25.246  1.00  0.00    -0.462 OA
BRANCH  77  78
ATOM     78  C   UNL A   1      35.316  20.927  24.970  1.00  0.00     0.328 C 
ATOM     79  O   UNL A   1      35.514  19.737  24.762  1.00  0.00    -0.250 OA
BRANCH  78  80
ATOM     80  C   UNL A   1      33.932  21.607  25.036  1.00  0.00     0.195 C 
ATOM     81  C   UNL A   1      34.199  23.087  24.655  1.00  0.00     0.046 C 
ATOM     82  N   UNL A   1      32.948  21.204  24.038  1.00  0.00    -0.328 N 
ATOM     83  C   UNL A   1      32.967  23.611  23.898  1.00  0.00     0.001 C 
ATOM     84  C   UNL A   1      32.253  22.343  23.456  1.00  0.00     0.128 C 
ATOM     85  C   UNL A   1      33.342  24.407  22.630  1.00  0.00     0.071 C 
ATOM     86  C   UNL A   1      32.097  24.509  24.802  1.00  0.00     0.071 C 
ATOM     87  C   UNL A   1      34.053  25.703  22.972  1.00  0.00     0.271 C 
ATOM     88  C   UNL A   1      32.760  25.864  25.078  1.00  0.00     0.271 C 
ATOM     89  N   UNL A   1      33.210  26.515  23.848  1.00  0.00    -0.266 N 
ATOM     90  H   UNL A   1      32.916  27.453  23.818  1.00  0.00     0.357 HD
BRANCH  82  91
ATOM     91  C   UNL A   1      32.437  19.977  23.679  1.00  0.00     0.226 C 
ATOM     92  O   UNL A   1      32.121  19.823  22.500  1.00  0.00    -0.275 OA
BRANCH  91  93
ATOM     93  C   UNL A   1      32.138  18.833  24.571  1.00  0.00     0.079 C 
ATOM     94  C   UNL A   1      32.870  17.647  25.099  1.00  0.00     0.014 C 
ATOM     95  C   UNL A   1      32.712  18.838  25.976  1.00  0.00     0.014 C 
ENDBRANCH  91  93
ENDBRANCH  82  91
BRANCH  89  96
ATOM     96  C   UNL A   1      33.040  27.895  23.717  1.00  0.00     0.360 C 
ATOM     97  O   UNL A   1      33.991  28.673  23.753  1.00  0.00    -0.224 OA
BRANCH  96  98
ATOM     98  C   UNL A   1      31.690  28.365  23.511  1.00  0.00     0.145 A 
ATOM     99  C   UNL A   1      30.591  27.649  23.078  1.00  0.00     0.046 A 
ATOM    100  N   UNL A   1      31.274  29.664  23.691  1.00  0.00    -0.347 N 
ATOM    101  C   UNL A   1      29.462  28.509  23.108  1.00  0.00     0.000 A 
ATOM    102  C   UNL A   1      29.914  29.767  23.507  1.00  0.00     0.046 A 
ATOM    103  H   UNL A   1      31.867  30.416  23.919  1.00  0.00     0.167 HD
ATOM    104  C   UNL A   1      28.091  28.333  22.842  1.00  0.00     0.010 A 
ATOM    105  C   UNL A   1      29.058  30.864  23.659  1.00  0.00     0.026 A 
ATOM    106  C   UNL A   1      27.221  29.418  22.991  1.00  0.00     0.001 A 
ATOM    107  C   UNL A   1      27.700  30.663  23.394  1.00  0.00     0.002 A 
ENDBRANCH  96  98
ENDBRANCH  89  96
ENDBRANCH  78  80
ENDBRANCH  77  78
ENDBRANCH  76  77
ENDBRANCH  75  76
ENDBRANCH  74  75
ENDBRANCH  73  74
ENDBRANCH   1  73
TORSDOF 21
ENDMDL
