MODEL 1
REMARK VINA RESULT:     -12.3      0.000      0.000
REMARK SMILES Cc1ccc(S(=O)(=O)n2cc(C(=O)C(=O)N[C@@H](Cc3cnc[nH]3)C(=O)OCCOCCOCCOC(=O)c3ccc(-c4c5nc(c(-c6c(F)c(F)c(F)c(F)c6F)c6ccc([nH]6)c(-c6c(F)c(F)c(F)c(F)c6F)c6nc(c(-c7c(F)c(F)c(F)c(F)c7F)c7ccc4[nH]7)C=C6)C=C5)cc3)c3ccccc32)cc1
REMARK SMILES IDX 29 1 28 2 27 3 26 4 24 5 25 6 17 7 16 8 14 9 15 10 12 12
REMARK SMILES IDX 13 13 11 14 9 15 10 16 106 17 101 18 105 19 102 20 104 21
REMARK SMILES IDX 103 22 6 23 7 24 8 25 5 26 1 27 2 28 3 29 108 30 4 31 107 32
REMARK SMILES IDX 18 33 19 34 20 35 23 36 21 37 22 38 30 40 31 41 32 42 33 43
REMARK SMILES IDX 34 44 35 45 36 46 37 47 38 48 39 49 100 50 40 51 99 52 41 53
REMARK SMILES IDX 42 54 43 55 93 56 44 57 98 58 92 59 94 60 45 61 97 62 91 63
REMARK SMILES IDX 90 64 46 66 78 67 58 68 77 69 59 70 62 71 76 72 95 73 60 74
REMARK SMILES IDX 61 75 75 77 96 78 63 79 47 80 48 81 56 82 49 83 50 84 54 85
REMARK SMILES IDX 57 86 51 87 52 88 55 89 53 90 79 91 80 92 88 93 81 94 82 95
REMARK SMILES IDX 86 96 89 97 83 98 84 99 87 100 85 101 64 102 65 103 73 104
REMARK SMILES IDX 66 105 67 106 71 107 74 108 68 109 69 110 72 111 70 112
REMARK H PARENT 16 11 23 39 94 65 62 76
REMARK Flexibility Score: inf
ROOT
ATOM      1  O   UNL A   1      37.489  21.946  25.855  1.00  0.00    -0.376 OA
ENDROOT
BRANCH   1   2
ATOM      2  C   UNL A   1      37.603  23.363  25.864  1.00  0.00     0.202 C 
BRANCH   2   3
ATOM      3  C   UNL A   1      36.490  24.117  26.627  1.00  0.00     0.261 C 
BRANCH   3   4
ATOM      4  O   UNL A   1      35.169  23.322  26.968  1.00  0.00    -0.462 OA
BRANCH   4   5
ATOM      5  C   UNL A   1      34.171  22.385  26.721  1.00  0.00     0.329 C 
ATOM      6  O   UNL A   1      33.526  22.152  27.752  1.00  0.00    -0.250 OA
BRANCH   5   7
ATOM      7  C   UNL A   1      33.716  21.440  25.265  1.00  0.00     0.198 C 
BRANCH   7   8
ATOM      8  N   UNL A   1      34.773  21.764  24.208  1.00  0.00    -0.335 N 
ATOM      9  C   UNL A   1      34.889  22.703  23.157  1.00  0.00     0.293 C 
ATOM     10  O   UNL A   1      35.981  22.785  22.592  1.00  0.00    -0.265 OA
ATOM     11  H   UNL A   1      35.562  21.178  24.275  1.00  0.00     0.164 HD
BRANCH   9  12
ATOM     12  C   UNL A   1      33.750  23.604  22.615  1.00  0.00     0.252 C 
ATOM     13  O   UNL A   1      33.355  23.278  21.491  1.00  0.00    -0.283 OA
BRANCH  12  14
ATOM     14  C   UNL A   1      33.270  24.895  23.255  1.00  0.00     0.054 A 
ATOM     15  N   UNL A   1      32.890  27.045  23.912  1.00  0.00    -0.240 N 
ATOM     16  C   UNL A   1      33.639  26.231  23.055  1.00  0.00     0.117 A 
ATOM     17  C   UNL A   1      31.920  26.306  24.550  1.00  0.00     0.065 A 
ATOM     18  C   UNL A   1      32.208  24.964  24.254  1.00  0.00     0.012 A 
ATOM     19  C   UNL A   1      30.835  26.680  25.370  1.00  0.00     0.028 A 
ATOM     20  C   UNL A   1      31.420  23.977  24.889  1.00  0.00     0.011 A 
ATOM     21  C   UNL A   1      30.074  25.676  25.964  1.00  0.00     0.002 A 
ATOM     22  C   UNL A   1      30.373  24.340  25.742  1.00  0.00     0.001 A 
BRANCH  15  23
ATOM     23  S   UNL A   1      32.950  28.773  23.978  1.00  0.00     0.268 S 
ATOM     24  O   UNL A   1      33.882  29.142  22.926  1.00  0.00    -0.201 OA
ATOM     25  O   UNL A   1      33.199  29.096  25.368  1.00  0.00    -0.201 OA
BRANCH  23  26
ATOM     26  C   UNL A   1      31.362  29.494  23.540  1.00  0.00     0.088 A 
ATOM     27  C   UNL A   1      27.554  31.370  22.648  1.00  0.00     0.044 C 
ATOM     28  C   UNL A   1      28.881  30.729  22.953  1.00  0.00    -0.051 A 
ATOM     29  C   UNL A   1      29.491  30.922  24.197  1.00  0.00     0.005 A 
ATOM     30  C   UNL A   1      29.522  29.907  22.014  1.00  0.00     0.005 A 
ATOM     31  C   UNL A   1      30.726  30.317  24.488  1.00  0.00     0.022 A 
ATOM     32  C   UNL A   1      30.750  29.283  22.305  1.00  0.00     0.022 A 
ENDBRANCH  23  26
ENDBRANCH  15  23
ENDBRANCH  12  14
ENDBRANCH   9  12
ENDBRANCH   7   8
BRANCH   7  33
ATOM     33  C   UNL A   1      32.785  19.858  24.899  1.00  0.00     0.092 C 
BRANCH  33  34
ATOM     34  C   UNL A   1      33.229  18.065  24.759  1.00  0.00     0.037 A 
ATOM     35  C   UNL A   1      33.547  17.071  23.751  1.00  0.00     0.134 A 
ATOM     36  N   UNL A   1      33.453  17.241  25.868  1.00  0.00    -0.348 N 
ATOM     37  N   UNL A   1      33.974  15.857  24.210  1.00  0.00    -0.245 NA
ATOM     38  C   UNL A   1      33.914  15.997  25.501  1.00  0.00     0.196 A 
ATOM     39  H   UNL A   1      33.299  17.518  26.800  1.00  0.00     0.167 HD
ENDBRANCH  33  34
ENDBRANCH   7  33
ENDBRANCH   5   7
ENDBRANCH   4   5
ENDBRANCH   3   4
ENDBRANCH   2   3
ENDBRANCH   1   2
BRANCH   1  40
ATOM     40  C   UNL A   1      38.684  21.321  25.419  1.00  0.00     0.188 C 
BRANCH  40  41
ATOM     41  C   UNL A   1      39.894  21.767  26.239  1.00  0.00     0.188 C 
BRANCH  41  42
ATOM     42  O   UNL A   1      41.005  20.892  26.211  1.00  0.00    -0.376 OA
BRANCH  42  43
ATOM     43  C   UNL A   1      42.300  21.456  26.440  1.00  0.00     0.202 C 
BRANCH  43  44
ATOM     44  C   UNL A   1      42.144  22.964  26.261  1.00  0.00     0.261 C 
BRANCH  44  45
ATOM     45  O   UNL A   1      42.298  23.612  27.545  1.00  0.00    -0.460 OA
BRANCH  45  46
ATOM     46  C   UNL A   1      43.398  24.427  27.661  1.00  0.00     0.338 C 
ATOM     47  O   UNL A   1      44.531  24.075  27.776  1.00  0.00    -0.246 OA
BRANCH  46  48
ATOM     48  C   UNL A   1      42.893  25.826  27.910  1.00  0.00     0.060 A 
ATOM     49  C   UNL A   1      43.834  26.826  28.113  1.00  0.00     0.016 A 
ATOM     50  C   UNL A   1      41.549  26.098  28.211  1.00  0.00     0.016 A 
ATOM     51  C   UNL A   1      43.448  27.992  28.786  1.00  0.00     0.010 A 
ATOM     52  C   UNL A   1      41.194  27.235  28.957  1.00  0.00     0.010 A 
ATOM     53  C   UNL A   1      42.180  28.120  29.386  1.00  0.00    -0.014 A 
BRANCH  53  54
ATOM     54  C   UNL A   1      41.907  29.082  30.539  1.00  0.00     0.031 A 
ATOM     55  C   UNL A   1      42.170  28.193  32.030  1.00  0.00     0.074 A 
ATOM     56  C   UNL A   1      41.363  30.443  30.276  1.00  0.00     0.049 A 
ATOM     57  N   UNL A   1      41.746  28.446  33.263  1.00  0.00    -0.248 NA
ATOM     58  C   UNL A   1      43.120  27.065  32.119  1.00  0.00     0.031 C 
ATOM     59  C   UNL A   1      41.994  31.828  30.201  1.00  0.00     0.029 A 
ATOM     60  N   UNL A   1      39.984  30.965  30.255  1.00  0.00    -0.354 N 
ATOM     61  C   UNL A   1      42.775  28.142  34.144  1.00  0.00     0.074 A 
ATOM     62  C   UNL A   1      43.381  27.023  33.444  1.00  0.00     0.031 C 
ATOM     63  C   UNL A   1      41.082  32.827  30.481  1.00  0.00     0.029 A 
ATOM     64  C   UNL A   1      39.748  32.285  30.603  1.00  0.00     0.049 A 
ATOM     65  H   UNL A   1      39.236  30.380  29.995  1.00  0.00     0.167 HD
ATOM     66  C   UNL A   1      43.286  29.029  35.099  1.00  0.00     0.037 A 
ATOM     67  C   UNL A   1      38.530  32.778  31.001  1.00  0.00     0.037 A 
ATOM     68  C   UNL A   1      42.533  30.300  35.501  1.00  0.00     0.049 A 
ATOM     69  C   UNL A   1      38.371  32.945  32.531  1.00  0.00     0.074 A 
ATOM     70  C   UNL A   1      43.012  31.592  35.783  1.00  0.00     0.029 A 
ATOM     71  N   UNL A   1      41.139  30.458  35.584  1.00  0.00    -0.354 N 
ATOM     72  N   UNL A   1      39.324  32.810  33.423  1.00  0.00    -0.248 NA
ATOM     73  C   UNL A   1      37.055  33.135  33.163  1.00  0.00     0.031 C 
ATOM     74  C   UNL A   1      41.948  32.510  35.956  1.00  0.00     0.029 A 
ATOM     75  C   UNL A   1      40.777  31.818  35.741  1.00  0.00     0.049 A 
ATOM     76  H   UNL A   1      40.495  29.716  35.538  1.00  0.00     0.167 HD
ATOM     77  C   UNL A   1      38.746  32.684  34.682  1.00  0.00     0.074 A 
ATOM     78  C   UNL A   1      37.339  32.967  34.463  1.00  0.00     0.031 C 
ATOM     79  C   UNL A   1      39.399  32.296  35.827  1.00  0.00     0.037 A 
BRANCH  66  80
ATOM     80  C   UNL A   1      44.820  29.019  35.483  1.00  0.00     0.064 A 
ATOM     81  C   UNL A   1      45.786  29.554  34.587  1.00  0.00     0.173 A 
ATOM     82  C   UNL A   1      45.400  28.289  36.547  1.00  0.00     0.173 A 
ATOM     83  F   UNL A   1      45.424  30.371  33.585  1.00  0.00    -0.203 F 
ATOM     84  C   UNL A   1      47.153  29.237  34.648  1.00  0.00     0.198 A 
ATOM     85  C   UNL A   1      46.782  28.094  36.684  1.00  0.00     0.198 A 
ATOM     86  F   UNL A   1      44.674  27.675  37.485  1.00  0.00    -0.203 F 
ATOM     87  F   UNL A   1      47.974  29.613  33.657  1.00  0.00    -0.200 F 
ATOM     88  C   UNL A   1      47.654  28.516  35.707  1.00  0.00     0.200 A 
ATOM     89  F   UNL A   1      47.253  27.449  37.762  1.00  0.00    -0.200 F 
ATOM     90  F   UNL A   1      48.961  28.234  35.792  1.00  0.00    -0.200 F 
ENDBRANCH  66  80
BRANCH  67  91
ATOM     91  C   UNL A   1      37.356  32.284  30.159  1.00  0.00     0.064 A 
ATOM     92  C   UNL A   1      36.824  33.187  29.218  1.00  0.00     0.173 A 
ATOM     93  C   UNL A   1      36.857  30.969  30.091  1.00  0.00     0.173 A 
ATOM     94  F   UNL A   1      37.205  34.473  29.252  1.00  0.00    -0.203 F 
ATOM     95  C   UNL A   1      35.954  32.784  28.198  1.00  0.00     0.198 A 
ATOM     96  C   UNL A   1      35.981  30.561  29.065  1.00  0.00     0.198 A 
ATOM     97  F   UNL A   1      37.247  30.057  30.990  1.00  0.00    -0.203 F 
ATOM     98  F   UNL A   1      35.553  33.670  27.276  1.00  0.00    -0.200 F 
ATOM     99  C   UNL A   1      35.564  31.461  28.097  1.00  0.00     0.200 A 
ATOM    100  F   UNL A   1      35.567  29.288  28.995  1.00  0.00    -0.200 F 
ATOM    101  F   UNL A   1      34.808  31.062  27.064  1.00  0.00    -0.200 F 
ENDBRANCH  67  91
BRANCH  79 102
ATOM    102  C   UNL A   1      38.867  32.519  37.233  1.00  0.00     0.064 A 
ATOM    103  C   UNL A   1      37.933  31.678  37.866  1.00  0.00     0.173 A 
ATOM    104  C   UNL A   1      39.110  33.752  37.885  1.00  0.00     0.173 A 
ATOM    105  F   UNL A   1      37.505  30.547  37.286  1.00  0.00    -0.203 F 
ATOM    106  C   UNL A   1      37.350  32.012  39.093  1.00  0.00     0.198 A 
ATOM    107  C   UNL A   1      38.469  34.114  39.067  1.00  0.00     0.198 A 
ATOM    108  F   UNL A   1      39.959  34.655  37.374  1.00  0.00    -0.203 F 
ATOM    109  F   UNL A   1      36.506  31.154  39.682  1.00  0.00    -0.200 F 
ATOM    110  C   UNL A   1      37.607  33.234  39.686  1.00  0.00     0.200 A 
ATOM    111  F   UNL A   1      38.681  35.330  39.592  1.00  0.00    -0.200 F 
ATOM    112  F   UNL A   1      37.013  33.571  40.838  1.00  0.00    -0.200 F 
ENDBRANCH  79 102
ENDBRANCH  53  54
ENDBRANCH  46  48
ENDBRANCH  45  46
ENDBRANCH  44  45
ENDBRANCH  43  44
ENDBRANCH  42  43
ENDBRANCH  41  42
ENDBRANCH  40  41
ENDBRANCH   1  40
TORSDOF 24
ENDMDL
MODEL 2
REMARK VINA RESULT:     -10.2      6.386     12.605
REMARK SMILES Cc1ccc(S(=O)(=O)n2cc(C(=O)C(=O)N[C@@H](Cc3cnc[nH]3)C(=O)OCCOCCOCCOC(=O)c3ccc(-c4c5nc(c(-c6c(F)c(F)c(F)c(F)c6F)c6ccc([nH]6)c(-c6c(F)c(F)c(F)c(F)c6F)c6nc(c(-c7c(F)c(F)c(F)c(F)c7F)c7ccc4[nH]7)C=C6)C=C5)cc3)c3ccccc32)cc1
REMARK SMILES IDX 29 1 28 2 27 3 26 4 24 5 25 6 17 7 16 8 14 9 15 10 12 12
REMARK SMILES IDX 13 13 11 14 9 15 10 16 106 17 101 18 105 19 102 20 104 21
REMARK SMILES IDX 103 22 6 23 7 24 8 25 5 26 1 27 2 28 3 29 108 30 4 31 107 32
REMARK SMILES IDX 18 33 19 34 20 35 23 36 21 37 22 38 30 40 31 41 32 42 33 43
REMARK SMILES IDX 34 44 35 45 36 46 37 47 38 48 39 49 100 50 40 51 99 52 41 53
REMARK SMILES IDX 42 54 43 55 93 56 44 57 98 58 92 59 94 60 45 61 97 62 91 63
REMARK SMILES IDX 90 64 46 66 78 67 58 68 77 69 59 70 62 71 76 72 95 73 60 74
REMARK SMILES IDX 61 75 75 77 96 78 63 79 47 80 48 81 56 82 49 83 50 84 54 85
REMARK SMILES IDX 57 86 51 87 52 88 55 89 53 90 79 91 80 92 88 93 81 94 82 95
REMARK SMILES IDX 86 96 89 97 83 98 84 99 87 100 85 101 64 102 65 103 73 104
REMARK SMILES IDX 66 105 67 106 71 107 74 108 68 109 69 110 72 111 70 112
REMARK H PARENT 16 11 23 39 94 65 62 76
REMARK Flexibility Score: inf
ROOT
ATOM      1  O   UNL A   1      40.036  33.105  38.609  1.00  0.00    -0.376 OA
ENDROOT
BRANCH   1   2
ATOM      2  C   UNL A   1      38.647  33.339  38.415  1.00  0.00     0.202 C 
BRANCH   2   3
ATOM      3  C   UNL A   1      37.921  32.322  37.504  1.00  0.00     0.261 C 
BRANCH   3   4
ATOM      4  O   UNL A   1      37.471  32.812  36.072  1.00  0.00    -0.462 OA
BRANCH   4   5
ATOM      5  C   UNL A   1      37.134  32.633  34.735  1.00  0.00     0.329 C 
ATOM      6  O   UNL A   1      37.578  31.558  34.312  1.00  0.00    -0.250 OA
BRANCH   5   7
ATOM      7  C   UNL A   1      36.275  33.664  33.543  1.00  0.00     0.198 C 
BRANCH   7   8
ATOM      8  N   UNL A   1      37.366  34.380  32.744  1.00  0.00    -0.335 N 
ATOM      9  C   UNL A   1      37.858  34.301  31.421  1.00  0.00     0.293 C 
ATOM     10  O   UNL A   1      38.662  35.165  31.066  1.00  0.00    -0.265 OA
ATOM     11  H   UNL A   1      37.840  35.057  33.280  1.00  0.00     0.164 HD
BRANCH   9  12
ATOM     12  C   UNL A   1      37.519  33.194  30.391  1.00  0.00     0.252 C 
ATOM     13  O   UNL A   1      36.405  33.325  29.873  1.00  0.00    -0.283 OA
BRANCH  12  14
ATOM     14  C   UNL A   1      38.335  31.935  30.152  1.00  0.00     0.054 A 
ATOM     15  N   UNL A   1      39.116  29.848  29.670  1.00  0.00    -0.240 N 
ATOM     16  C   UNL A   1      37.973  30.654  29.716  1.00  0.00     0.117 A 
ATOM     17  C   UNL A   1      40.245  30.601  29.900  1.00  0.00     0.065 A 
ATOM     18  C   UNL A   1      39.784  31.861  30.315  1.00  0.00     0.012 A 
ATOM     19  C   UNL A   1      41.619  30.295  29.803  1.00  0.00     0.028 A 
ATOM     20  C   UNL A   1      40.754  32.801  30.729  1.00  0.00     0.011 A 
ATOM     21  C   UNL A   1      42.542  31.256  30.208  1.00  0.00     0.002 A 
ATOM     22  C   UNL A   1      42.117  32.488  30.683  1.00  0.00     0.001 A 
BRANCH  15  23
ATOM     23  S   UNL A   1      39.175  28.206  29.128  1.00  0.00     0.268 S 
ATOM     24  O   UNL A   1      37.992  28.057  28.298  1.00  0.00    -0.201 OA
ATOM     25  O   UNL A   1      39.376  27.413  30.324  1.00  0.00    -0.201 OA
BRANCH  23  26
ATOM     26  C   UNL A   1      40.595  27.927  28.060  1.00  0.00     0.088 A 
ATOM     27  C   UNL A   1      43.967  27.433  25.376  1.00  0.00     0.044 C 
ATOM     28  C   UNL A   1      42.804  27.614  26.313  1.00  0.00    -0.051 A 
ATOM     29  C   UNL A   1      41.746  28.464  25.972  1.00  0.00     0.005 A 
ATOM     30  C   UNL A   1      42.738  26.921  27.530  1.00  0.00     0.005 A 
ATOM     31  C   UNL A   1      40.653  28.627  26.841  1.00  0.00     0.022 A 
ATOM     32  C   UNL A   1      41.638  27.065  28.397  1.00  0.00     0.022 A 
ENDBRANCH  23  26
ENDBRANCH  15  23
ENDBRANCH  12  14
ENDBRANCH   9  12
ENDBRANCH   7   8
BRANCH   7  33
ATOM     33  C   UNL A   1      34.624  33.649  32.663  1.00  0.00     0.092 C 
BRANCH  33  34
ATOM     34  C   UNL A   1      33.650  34.863  31.658  1.00  0.00     0.037 A 
ATOM     35  C   UNL A   1      32.889  36.087  31.820  1.00  0.00     0.134 A 
ATOM     36  N   UNL A   1      33.556  34.803  30.263  1.00  0.00    -0.348 N 
ATOM     37  N   UNL A   1      32.474  36.700  30.671  1.00  0.00    -0.245 NA
ATOM     38  C   UNL A   1      32.904  35.899  29.743  1.00  0.00     0.196 A 
ATOM     39  H   UNL A   1      33.912  34.064  29.717  1.00  0.00     0.167 HD
ENDBRANCH  33  34
ENDBRANCH   7  33
ENDBRANCH   5   7
ENDBRANCH   4   5
ENDBRANCH   3   4
ENDBRANCH   2   3
ENDBRANCH   1   2
BRANCH   1  40
ATOM     40  C   UNL A   1      40.459  33.479  39.909  1.00  0.00     0.188 C 
BRANCH  40  41
ATOM     41  C   UNL A   1      41.105  32.313  40.657  1.00  0.00     0.188 C 
BRANCH  41  42
ATOM     42  O   UNL A   1      42.303  32.620  41.345  1.00  0.00    -0.376 OA
BRANCH  42  43
ATOM     43  C   UNL A   1      42.881  31.595  42.159  1.00  0.00     0.202 C 
BRANCH  43  44
ATOM     44  C   UNL A   1      44.145  32.198  42.767  1.00  0.00     0.261 C 
BRANCH  44  45
ATOM     45  O   UNL A   1      45.272  31.346  42.459  1.00  0.00    -0.460 OA
BRANCH  45  46
ATOM     46  C   UNL A   1      45.240  30.101  43.037  1.00  0.00     0.338 C 
ATOM     47  O   UNL A   1      45.042  29.858  44.187  1.00  0.00    -0.246 OA
BRANCH  46  48
ATOM     48  C   UNL A   1      45.783  29.124  42.024  1.00  0.00     0.060 A 
ATOM     49  C   UNL A   1      46.372  29.642  40.879  1.00  0.00     0.016 A 
ATOM     50  C   UNL A   1      45.479  27.754  42.061  1.00  0.00     0.016 A 
ATOM     51  C   UNL A   1      46.464  28.833  39.739  1.00  0.00     0.010 A 
ATOM     52  C   UNL A   1      45.501  26.980  40.889  1.00  0.00     0.010 A 
ATOM     53  C   UNL A   1      45.851  27.566  39.675  1.00  0.00    -0.014 A 
BRANCH  53  54
ATOM     54  C   UNL A   1      45.462  26.905  38.356  1.00  0.00     0.031 A 
ATOM     55  C   UNL A   1      46.900  26.122  37.723  1.00  0.00     0.074 A 
ATOM     56  C   UNL A   1      44.109  27.122  37.772  1.00  0.00     0.049 A 
ATOM     57  N   UNL A   1      47.185  25.726  36.488  1.00  0.00    -0.248 NA
ATOM     58  C   UNL A   1      47.973  25.613  38.601  1.00  0.00     0.031 C 
ATOM     59  C   UNL A   1      42.831  26.293  37.750  1.00  0.00     0.029 A 
ATOM     60  N   UNL A   1      43.608  28.096  36.784  1.00  0.00    -0.354 N 
ATOM     61  C   UNL A   1      47.846  24.509  36.566  1.00  0.00     0.074 A 
ATOM     62  C   UNL A   1      48.574  24.699  37.808  1.00  0.00     0.031 C 
ATOM     63  C   UNL A   1      42.031  26.605  36.668  1.00  0.00     0.029 A 
ATOM     64  C   UNL A   1      42.555  27.747  35.954  1.00  0.00     0.049 A 
ATOM     65  H   UNL A   1      44.019  28.988  36.715  1.00  0.00     0.167 HD
ATOM     66  C   UNL A   1      47.452  23.349  35.888  1.00  0.00     0.037 A 
ATOM     67  C   UNL A   1      42.259  28.374  34.770  1.00  0.00     0.037 A 
ATOM     68  C   UNL A   1      46.459  23.397  34.723  1.00  0.00     0.049 A 
ATOM     69  C   UNL A   1      42.751  27.628  33.506  1.00  0.00     0.074 A 
ATOM     70  C   UNL A   1      45.413  22.521  34.382  1.00  0.00     0.029 A 
ATOM     71  N   UNL A   1      46.331  24.423  33.772  1.00  0.00    -0.354 N 
ATOM     72  N   UNL A   1      43.263  26.420  33.476  1.00  0.00    -0.248 NA
ATOM     73  C   UNL A   1      42.827  28.286  32.192  1.00  0.00     0.031 C 
ATOM     74  C   UNL A   1      44.639  23.034  33.313  1.00  0.00     0.029 A 
ATOM     75  C   UNL A   1      45.159  24.267  32.991  1.00  0.00     0.049 A 
ATOM     76  H   UNL A   1      46.976  25.158  33.661  1.00  0.00     0.167 HD
ATOM     77  C   UNL A   1      43.900  26.234  32.254  1.00  0.00     0.074 A 
ATOM     78  C   UNL A   1      43.531  27.400  31.472  1.00  0.00     0.031 C 
ATOM     79  C   UNL A   1      44.744  25.194  31.942  1.00  0.00     0.037 A 
BRANCH  66  80
ATOM     80  C   UNL A   1      47.644  21.919  36.536  1.00  0.00     0.064 A 
ATOM     81  C   UNL A   1      46.743  21.459  37.534  1.00  0.00     0.173 A 
ATOM     82  C   UNL A   1      48.797  21.107  36.416  1.00  0.00     0.173 A 
ATOM     83  F   UNL A   1      45.544  22.038  37.705  1.00  0.00    -0.203 F 
ATOM     84  C   UNL A   1      47.048  20.419  38.428  1.00  0.00     0.198 A 
ATOM     85  C   UNL A   1      49.032  19.981  37.219  1.00  0.00     0.198 A 
ATOM     86  F   UNL A   1      49.787  21.376  35.563  1.00  0.00    -0.203 F 
ATOM     87  F   UNL A   1      46.239  20.170  39.468  1.00  0.00    -0.200 F 
ATOM     88  C   UNL A   1      48.190  19.670  38.262  1.00  0.00     0.200 A 
ATOM     89  F   UNL A   1      50.116  19.225  36.992  1.00  0.00    -0.200 F 
ATOM     90  F   UNL A   1      48.476  18.657  39.091  1.00  0.00    -0.200 F 
ENDBRANCH  66  80
BRANCH  67  91
ATOM     91  C   UNL A   1      42.335  29.897  34.837  1.00  0.00     0.064 A 
ATOM     92  C   UNL A   1      43.559  30.489  34.465  1.00  0.00     0.173 A 
ATOM     93  C   UNL A   1      41.269  30.790  35.057  1.00  0.00     0.173 A 
ATOM     94  F   UNL A   1      44.638  29.713  34.292  1.00  0.00    -0.203 F 
ATOM     95  C   UNL A   1      43.682  31.859  34.206  1.00  0.00     0.198 A 
ATOM     96  C   UNL A   1      41.391  32.169  34.796  1.00  0.00     0.198 A 
ATOM     97  F   UNL A   1      40.087  30.329  35.484  1.00  0.00    -0.203 F 
ATOM     98  F   UNL A   1      44.849  32.351  33.767  1.00  0.00    -0.200 F 
ATOM     99  C   UNL A   1      42.587  32.694  34.332  1.00  0.00     0.200 A 
ATOM    100  F   UNL A   1      40.341  32.986  34.963  1.00  0.00    -0.200 F 
ATOM    101  F   UNL A   1      42.687  33.987  33.990  1.00  0.00    -0.200 F 
ENDBRANCH  67  91
BRANCH  79 102
ATOM    102  C   UNL A   1      45.127  24.799  30.525  1.00  0.00     0.064 A 
ATOM    103  C   UNL A   1      46.139  25.427  29.777  1.00  0.00     0.173 A 
ATOM    104  C   UNL A   1      44.290  23.921  29.794  1.00  0.00     0.173 A 
ATOM    105  F   UNL A   1      46.911  26.385  30.312  1.00  0.00    -0.203 F 
ATOM    106  C   UNL A   1      46.346  25.138  28.424  1.00  0.00     0.198 A 
ATOM    107  C   UNL A   1      44.451  23.696  28.429  1.00  0.00     0.198 A 
ATOM    108  F   UNL A   1      43.271  23.278  30.382  1.00  0.00    -0.203 F 
ATOM    109  F   UNL A   1      47.358  25.724  27.768  1.00  0.00    -0.200 F 
ATOM    110  C   UNL A   1      45.494  24.285  27.748  1.00  0.00     0.200 A 
ATOM    111  F   UNL A   1      43.575  22.918  27.777  1.00  0.00    -0.200 F 
ATOM    112  F   UNL A   1      45.667  24.046  26.441  1.00  0.00    -0.200 F 
ENDBRANCH  79 102
ENDBRANCH  53  54
ENDBRANCH  46  48
ENDBRANCH  45  46
ENDBRANCH  44  45
ENDBRANCH  43  44
ENDBRANCH  42  43
ENDBRANCH  41  42
ENDBRANCH  40  41
ENDBRANCH   1  40
TORSDOF 24
ENDMDL
MODEL 3
REMARK VINA RESULT:      -9.9      7.197     13.836
REMARK SMILES Cc1ccc(S(=O)(=O)n2cc(C(=O)C(=O)N[C@@H](Cc3cnc[nH]3)C(=O)OCCOCCOCCOC(=O)c3ccc(-c4c5nc(c(-c6c(F)c(F)c(F)c(F)c6F)c6ccc([nH]6)c(-c6c(F)c(F)c(F)c(F)c6F)c6nc(c(-c7c(F)c(F)c(F)c(F)c7F)c7ccc4[nH]7)C=C6)C=C5)cc3)c3ccccc32)cc1
REMARK SMILES IDX 29 1 28 2 27 3 26 4 24 5 25 6 17 7 16 8 14 9 15 10 12 12
REMARK SMILES IDX 13 13 11 14 9 15 10 16 106 17 101 18 105 19 102 20 104 21
REMARK SMILES IDX 103 22 6 23 7 24 8 25 5 26 1 27 2 28 3 29 108 30 4 31 107 32
REMARK SMILES IDX 18 33 19 34 20 35 23 36 21 37 22 38 30 40 31 41 32 42 33 43
REMARK SMILES IDX 34 44 35 45 36 46 37 47 38 48 39 49 100 50 40 51 99 52 41 53
REMARK SMILES IDX 42 54 43 55 93 56 44 57 98 58 92 59 94 60 45 61 97 62 91 63
REMARK SMILES IDX 90 64 46 66 78 67 58 68 77 69 59 70 62 71 76 72 95 73 60 74
REMARK SMILES IDX 61 75 75 77 96 78 63 79 47 80 48 81 56 82 49 83 50 84 54 85
REMARK SMILES IDX 57 86 51 87 52 88 55 89 53 90 79 91 80 92 88 93 81 94 82 95
REMARK SMILES IDX 86 96 89 97 83 98 84 99 87 100 85 101 64 102 65 103 73 104
REMARK SMILES IDX 66 105 67 106 71 107 74 108 68 109 69 110 72 111 70 112
REMARK H PARENT 16 11 23 39 94 65 62 76
REMARK Flexibility Score: inf
ROOT
ATOM      1  O   UNL A   1      48.006  18.961  39.901  1.00  0.00    -0.376 OA
ENDROOT
BRANCH   1   2
ATOM      2  C   UNL A   1      48.672  18.055  40.770  1.00  0.00     0.202 C 
BRANCH   2   3
ATOM      3  C   UNL A   1      49.860  18.645  41.563  1.00  0.00     0.261 C 
BRANCH   3   4
ATOM      4  O   UNL A   1      50.750  19.735  40.847  1.00  0.00    -0.462 OA
BRANCH   4   5
ATOM      5  C   UNL A   1      51.104  21.035  40.501  1.00  0.00     0.329 C 
ATOM      6  O   UNL A   1      51.857  21.524  41.353  1.00  0.00    -0.250 OA
BRANCH   5   7
ATOM      7  C   UNL A   1      50.629  22.110  39.144  1.00  0.00     0.198 C 
BRANCH   7   8
ATOM      8  N   UNL A   1      51.595  23.296  39.192  1.00  0.00    -0.335 N 
ATOM      9  C   UNL A   1      51.470  24.685  39.425  1.00  0.00     0.293 C 
ATOM     10  O   UNL A   1      52.511  25.332  39.549  1.00  0.00    -0.265 OA
ATOM     11  H   UNL A   1      52.527  23.028  39.020  1.00  0.00     0.164 HD
BRANCH   9  12
ATOM     12  C   UNL A   1      50.140  25.479  39.486  1.00  0.00     0.252 C 
ATOM     13  O   UNL A   1      49.414  25.155  40.432  1.00  0.00    -0.283 OA
BRANCH  12  14
ATOM     14  C   UNL A   1      49.627  26.418  38.408  1.00  0.00     0.054 A 
ATOM     15  N   UNL A   1      49.340  27.848  36.656  1.00  0.00    -0.240 N 
ATOM     16  C   UNL A   1      50.280  27.103  37.376  1.00  0.00     0.117 A 
ATOM     17  C   UNL A   1      48.065  27.545  37.074  1.00  0.00     0.065 A 
ATOM     18  C   UNL A   1      48.219  26.759  38.227  1.00  0.00     0.012 A 
ATOM     19  C   UNL A   1      46.796  27.898  36.567  1.00  0.00     0.028 A 
ATOM     20  C   UNL A   1      47.046  26.403  38.930  1.00  0.00     0.011 A 
ATOM     21  C   UNL A   1      45.665  27.514  37.283  1.00  0.00     0.002 A 
ATOM     22  C   UNL A   1      45.786  26.791  38.460  1.00  0.00     0.001 A 
BRANCH  15  23
ATOM     23  S   UNL A   1      49.666  28.805  35.252  1.00  0.00     0.268 S 
ATOM     24  O   UNL A   1      51.115  28.801  35.141  1.00  0.00    -0.201 OA
ATOM     25  O   UNL A   1      48.917  30.031  35.438  1.00  0.00    -0.201 OA
BRANCH  23  26
ATOM     26  C   UNL A   1      49.031  28.013  33.767  1.00  0.00     0.088 A 
ATOM     27  C   UNL A   1      47.541  25.912  30.276  1.00  0.00     0.044 C 
ATOM     28  C   UNL A   1      48.047  26.638  31.494  1.00  0.00    -0.051 A 
ATOM     29  C   UNL A   1      48.843  25.973  32.434  1.00  0.00     0.005 A 
ATOM     30  C   UNL A   1      47.758  27.994  31.702  1.00  0.00     0.005 A 
ATOM     31  C   UNL A   1      49.325  26.651  33.566  1.00  0.00     0.022 A 
ATOM     32  C   UNL A   1      48.254  28.685  32.824  1.00  0.00     0.022 A 
ENDBRANCH  23  26
ENDBRANCH  15  23
ENDBRANCH  12  14
ENDBRANCH   9  12
ENDBRANCH   7   8
BRANCH   7  33
ATOM     33  C   UNL A   1      49.794  21.922  37.481  1.00  0.00     0.092 C 
BRANCH  33  34
ATOM     34  C   UNL A   1      50.161  21.007  35.912  1.00  0.00     0.037 A 
ATOM     35  C   UNL A   1      49.613  20.808  34.584  1.00  0.00     0.134 A 
ATOM     36  N   UNL A   1      51.334  20.272  35.710  1.00  0.00    -0.348 N 
ATOM     37  N   UNL A   1      50.395  20.118  33.702  1.00  0.00    -0.245 NA
ATOM     38  C   UNL A   1      51.438  19.813  34.415  1.00  0.00     0.196 A 
ATOM     39  H   UNL A   1      52.005  20.101  36.410  1.00  0.00     0.167 HD
ENDBRANCH  33  34
ENDBRANCH   7  33
ENDBRANCH   5   7
ENDBRANCH   4   5
ENDBRANCH   3   4
ENDBRANCH   2   3
ENDBRANCH   1   2
BRANCH   1  40
ATOM     40  C   UNL A   1      46.602  18.766  39.906  1.00  0.00     0.188 C 
BRANCH  40  41
ATOM     41  C   UNL A   1      46.062  18.459  38.510  1.00  0.00     0.188 C 
BRANCH  41  42
ATOM     42  O   UNL A   1      45.942  19.572  37.645  1.00  0.00    -0.376 OA
BRANCH  42  43
ATOM     43  C   UNL A   1      45.728  19.312  36.254  1.00  0.00     0.202 C 
BRANCH  43  44
ATOM     44  C   UNL A   1      46.083  20.603  35.521  1.00  0.00     0.261 C 
BRANCH  44  45
ATOM     45  O   UNL A   1      45.073  21.600  35.800  1.00  0.00    -0.460 OA
BRANCH  45  46
ATOM     46  C   UNL A   1      45.551  22.861  36.059  1.00  0.00     0.338 C 
ATOM     47  O   UNL A   1      45.848  23.301  37.126  1.00  0.00    -0.246 OA
BRANCH  46  48
ATOM     48  C   UNL A   1      45.358  23.678  34.806  1.00  0.00     0.060 A 
ATOM     49  C   UNL A   1      46.043  24.881  34.707  1.00  0.00     0.016 A 
ATOM     50  C   UNL A   1      44.332  23.413  33.885  1.00  0.00     0.016 A 
ATOM     51  C   UNL A   1      45.566  25.862  33.828  1.00  0.00     0.010 A 
ATOM     52  C   UNL A   1      43.815  24.433  33.070  1.00  0.00     0.010 A 
ATOM     53  C   UNL A   1      44.338  25.721  33.152  1.00  0.00    -0.014 A 
BRANCH  53  54
ATOM     54  C   UNL A   1      43.537  26.915  32.641  1.00  0.00     0.031 A 
ATOM     55  C   UNL A   1      42.393  27.351  33.900  1.00  0.00     0.074 A 
ATOM     56  C   UNL A   1      43.706  27.396  31.241  1.00  0.00     0.049 A 
ATOM     57  N   UNL A   1      41.273  28.060  33.829  1.00  0.00    -0.248 NA
ATOM     58  C   UNL A   1      42.664  27.106  35.331  1.00  0.00     0.031 C 
ATOM     59  C   UNL A   1      44.483  28.547  30.614  1.00  0.00     0.029 A 
ATOM     60  N   UNL A   1      42.973  27.088  29.999  1.00  0.00    -0.354 N 
ATOM     61  C   UNL A   1      41.200  28.865  34.957  1.00  0.00     0.074 A 
ATOM     62  C   UNL A   1      41.839  27.994  35.928  1.00  0.00     0.031 C 
ATOM     63  C   UNL A   1      43.933  28.947  29.412  1.00  0.00     0.029 A 
ATOM     64  C   UNL A   1      42.874  28.050  29.008  1.00  0.00     0.049 A 
ATOM     65  H   UNL A   1      42.557  26.205  29.876  1.00  0.00     0.167 HD
ATOM     66  C   UNL A   1      41.023  30.253  34.928  1.00  0.00     0.037 A 
ATOM     67  C   UNL A   1      41.927  28.048  28.015  1.00  0.00     0.037 A 
ATOM     68  C   UNL A   1      40.547  30.978  33.666  1.00  0.00     0.049 A 
ATOM     69  C   UNL A   1      40.733  29.003  28.262  1.00  0.00     0.074 A 
ATOM     70  C   UNL A   1      40.942  32.212  33.120  1.00  0.00     0.029 A 
ATOM     71  N   UNL A   1      39.643  30.487  32.709  1.00  0.00    -0.354 N 
ATOM     72  N   UNL A   1      40.643  29.889  29.225  1.00  0.00    -0.248 NA
ATOM     73  C   UNL A   1      39.480  28.898  27.497  1.00  0.00     0.031 C 
ATOM     74  C   UNL A   1      40.356  32.424  31.848  1.00  0.00     0.029 A 
ATOM     75  C   UNL A   1      39.615  31.303  31.551  1.00  0.00     0.049 A 
ATOM     76  H   UNL A   1      39.097  29.677  32.827  1.00  0.00     0.167 HD
ATOM     77  C   UNL A   1      39.318  30.295  29.339  1.00  0.00     0.074 A 
ATOM     78  C   UNL A   1      38.658  29.700  28.191  1.00  0.00     0.031 C 
ATOM     79  C   UNL A   1      38.793  31.031  30.375  1.00  0.00     0.037 A 
BRANCH  66  80
ATOM     80  C   UNL A   1      41.705  31.185  36.009  1.00  0.00     0.064 A 
ATOM     81  C   UNL A   1      40.936  32.163  36.697  1.00  0.00     0.173 A 
ATOM     82  C   UNL A   1      43.097  31.339  36.206  1.00  0.00     0.173 A 
ATOM     83  F   UNL A   1      39.595  32.101  36.719  1.00  0.00    -0.203 F 
ATOM     84  C   UNL A   1      41.503  33.270  37.351  1.00  0.00     0.198 A 
ATOM     85  C   UNL A   1      43.656  32.367  36.980  1.00  0.00     0.198 A 
ATOM     86  F   UNL A   1      44.003  30.549  35.626  1.00  0.00    -0.203 F 
ATOM     87  F   UNL A   1      40.716  34.256  37.806  1.00  0.00    -0.200 F 
ATOM     88  C   UNL A   1      42.867  33.365  37.503  1.00  0.00     0.200 A 
ATOM     89  F   UNL A   1      44.983  32.399  37.174  1.00  0.00    -0.200 F 
ATOM     90  F   UNL A   1      43.417  34.400  38.151  1.00  0.00    -0.200 F 
ENDBRANCH  66  80
BRANCH  67  91
ATOM     91  C   UNL A   1      41.693  26.679  27.382  1.00  0.00     0.064 A 
ATOM     92  C   UNL A   1      42.557  26.307  26.334  1.00  0.00     0.173 A 
ATOM     93  C   UNL A   1      40.826  25.670  27.844  1.00  0.00     0.173 A 
ATOM     94  F   UNL A   1      43.374  27.226  25.799  1.00  0.00    -0.203 F 
ATOM     95  C   UNL A   1      42.644  24.992  25.863  1.00  0.00     0.198 A 
ATOM     96  C   UNL A   1      40.913  24.345  27.372  1.00  0.00     0.198 A 
ATOM     97  F   UNL A   1      39.918  25.947  28.788  1.00  0.00    -0.203 F 
ATOM     98  F   UNL A   1      43.550  24.679  24.926  1.00  0.00    -0.200 F 
ATOM     99  C   UNL A   1      41.850  24.001  26.411  1.00  0.00     0.200 A 
ATOM    100  F   UNL A   1      40.110  23.394  27.872  1.00  0.00    -0.200 F 
ATOM    101  F   UNL A   1      42.005  22.727  26.024  1.00  0.00    -0.200 F 
ENDBRANCH  67  91
BRANCH  79 102
ATOM    102  C   UNL A   1      37.469  31.775  30.311  1.00  0.00     0.064 A 
ATOM    103  C   UNL A   1      37.225  32.882  29.479  1.00  0.00     0.173 A 
ATOM    104  C   UNL A   1      36.480  31.527  31.294  1.00  0.00     0.173 A 
ATOM    105  F   UNL A   1      38.144  33.312  28.601  1.00  0.00    -0.203 F 
ATOM    106  C   UNL A   1      36.048  33.633  29.573  1.00  0.00     0.198 A 
ATOM    107  C   UNL A   1      35.347  32.324  31.435  1.00  0.00     0.198 A 
ATOM    108  F   UNL A   1      36.603  30.517  32.167  1.00  0.00    -0.203 F 
ATOM    109  F   UNL A   1      35.839  34.647  28.722  1.00  0.00    -0.200 F 
ATOM    110  C   UNL A   1      35.118  33.363  30.559  1.00  0.00     0.200 A 
ATOM    111  F   UNL A   1      34.490  32.088  32.438  1.00  0.00    -0.200 F 
ATOM    112  F   UNL A   1      34.013  34.112  30.675  1.00  0.00    -0.200 F 
ENDBRANCH  79 102
ENDBRANCH  53  54
ENDBRANCH  46  48
ENDBRANCH  45  46
ENDBRANCH  44  45
ENDBRANCH  43  44
ENDBRANCH  42  43
ENDBRANCH  41  42
ENDBRANCH  40  41
ENDBRANCH   1  40
TORSDOF 24
ENDMDL
