MODEL 1
REMARK VINA RESULT:     -11.4      0.000      0.000
REMARK SMILES CC[C@](C)(NC(=O)Cc1cccc(F)c1)C(=O)OCCOCCOCCOC(=O)c1ccc(-c2c3nc(c(-c4c(F)c(F)c(F)c(F)c4F)c4ccc([nH]4)c(-c4c(F)c(F)c(F)c(F)c4F)c4nc(c(-c5c(F)c(F)c(F)c(F)c5F)c5ccc2[nH]5)C=C4)C=C3)cc1
REMARK SMILES IDX 22 1 21 2 20 3 19 4 18 5 16 6 17 7 3 8 4 9 2 10 1 11 5 12
REMARK SMILES IDX 6 13 7 15 8 16 9 17 10 18 15 19 11 20 13 21 12 22 14 23
REMARK SMILES IDX 23 24 24 25 25 26 26 27 27 28 28 29 29 30 30 31 31 32 92 33
REMARK SMILES IDX 32 34 91 35 33 36 34 37 35 38 85 39 36 40 90 41 84 42 86 43
REMARK SMILES IDX 37 44 89 45 83 46 82 47 38 49 70 50 50 51 69 52 51 53 54 54
REMARK SMILES IDX 68 55 87 56 52 57 53 58 67 60 88 61 55 62 39 63 40 64 48 65
REMARK SMILES IDX 41 66 42 67 46 68 49 69 43 70 44 71 47 72 45 73 71 74 72 75
REMARK SMILES IDX 80 76 73 77 74 78 78 79 81 80 75 81 76 82 79 83 77 84 56 85
REMARK SMILES IDX 57 86 65 87 58 88 59 89 63 90 66 91 60 92 61 93 64 94 62 95
REMARK H PARENT 5 14 86 48 54 59
REMARK Flexibility Score: inf
ROOT
ATOM      1  C   UNL A   1      34.492  33.142  28.169  1.00  0.00     0.188 C 
ENDROOT
BRANCH   1   2
ATOM      2  O   UNL A   1      33.705  31.310  28.013  1.00  0.00    -0.376 OA
BRANCH   2   3
ATOM      3  C   UNL A   1      33.304  30.112  27.087  1.00  0.00     0.202 C 
BRANCH   3   4
ATOM      4  C   UNL A   1      31.830  29.838  26.526  1.00  0.00     0.261 C 
BRANCH   4   5
ATOM      5  O   UNL A   1      31.677  28.713  25.598  1.00  0.00    -0.462 OA
BRANCH   5   6
ATOM      6  C   UNL A   1      31.723  27.430  26.062  1.00  0.00     0.331 C 
ATOM      7  O   UNL A   1      31.024  27.053  26.995  1.00  0.00    -0.249 OA
BRANCH   6   8
ATOM      8  C   UNL A   1      32.579  26.439  25.133  1.00  0.00     0.135 C 
ATOM      9  C   UNL A   1      31.877  25.087  24.817  1.00  0.00     0.047 C 
BRANCH   8  10
ATOM     10  C   UNL A   1      33.854  26.057  25.960  1.00  0.00     0.037 C 
ATOM     11  C   UNL A   1      34.618  24.825  25.458  1.00  0.00     0.007 C 
ENDBRANCH   8  10
BRANCH   8  12
ATOM     12  N   UNL A   1      33.045  26.979  23.827  1.00  0.00    -0.340 N 
ATOM     13  C   UNL A   1      32.641  26.772  22.545  1.00  0.00     0.225 C 
ATOM     14  H   UNL A   1      33.795  27.613  23.907  1.00  0.00     0.164 HD
ATOM     15  O   UNL A   1      33.544  26.813  21.699  1.00  0.00    -0.275 OA
BRANCH  13  16
ATOM     16  C   UNL A   1      31.192  26.729  22.118  1.00  0.00     0.135 C 
BRANCH  16  17
ATOM     17  C   UNL A   1      30.246  27.883  22.438  1.00  0.00    -0.036 A 
ATOM     18  C   UNL A   1      28.695  27.383  23.285  1.00  0.00     0.004 A 
ATOM     19  C   UNL A   1      30.390  29.625  21.901  1.00  0.00     0.043 A 
ATOM     20  C   UNL A   1      27.384  28.579  23.562  1.00  0.00     0.003 A 
ATOM     21  C   UNL A   1      29.042  30.784  22.167  1.00  0.00     0.123 A 
ATOM     22  C   UNL A   1      27.576  30.276  23.020  1.00  0.00     0.039 A 
ATOM     23  F   UNL A   1      29.160  32.038  21.707  1.00  0.00    -0.207 F 
ENDBRANCH  16  17
ENDBRANCH  13  16
ENDBRANCH   8  12
ENDBRANCH   6   8
ENDBRANCH   5   6
ENDBRANCH   4   5
ENDBRANCH   3   4
ENDBRANCH   2   3
ENDBRANCH   1   2
BRANCH   1  24
ATOM     24  C   UNL A   1      34.831  34.154  29.477  1.00  0.00     0.188 C 
BRANCH  24  25
ATOM     25  O   UNL A   1      34.185  34.068  30.726  1.00  0.00    -0.376 OA
BRANCH  25  26
ATOM     26  C   UNL A   1      34.585  34.572  31.982  1.00  0.00     0.202 C 
BRANCH  26  27
ATOM     27  C   UNL A   1      34.974  33.698  33.173  1.00  0.00     0.261 C 
BRANCH  27  28
ATOM     28  O   UNL A   1      35.603  32.473  32.831  1.00  0.00    -0.460 OA
BRANCH  28  29
ATOM     29  C   UNL A   1      36.729  32.178  33.538  1.00  0.00     0.338 C 
ATOM     30  O   UNL A   1      36.897  32.235  34.720  1.00  0.00    -0.246 OA
BRANCH  29  31
ATOM     31  C   UNL A   1      37.604  31.482  32.561  1.00  0.00     0.060 A 
ATOM     32  C   UNL A   1      38.579  30.622  33.082  1.00  0.00     0.016 A 
ATOM     33  C   UNL A   1      37.331  31.518  31.188  1.00  0.00     0.016 A 
ATOM     34  C   UNL A   1      39.307  29.813  32.218  1.00  0.00     0.010 A 
ATOM     35  C   UNL A   1      38.082  30.733  30.319  1.00  0.00     0.010 A 
ATOM     36  C   UNL A   1      39.101  29.918  30.834  1.00  0.00    -0.014 A 
BRANCH  36  37
ATOM     37  C   UNL A   1      40.202  29.478  29.956  1.00  0.00     0.031 A 
ATOM     38  C   UNL A   1      41.321  30.466  29.761  1.00  0.00     0.074 A 
ATOM     39  C   UNL A   1      40.261  28.242  29.437  1.00  0.00     0.049 A 
ATOM     40  N   UNL A   1      42.465  30.317  29.152  1.00  0.00    -0.248 NA
ATOM     41  C   UNL A   1      41.127  31.803  30.357  1.00  0.00     0.031 C 
ATOM     42  C   UNL A   1      39.251  27.199  29.596  1.00  0.00     0.029 A 
ATOM     43  N   UNL A   1      41.241  27.655  28.678  1.00  0.00    -0.354 N 
ATOM     44  C   UNL A   1      43.132  31.520  29.325  1.00  0.00     0.074 A 
ATOM     45  C   UNL A   1      42.259  32.410  30.050  1.00  0.00     0.031 C 
ATOM     46  C   UNL A   1      39.669  26.091  28.958  1.00  0.00     0.029 A 
ATOM     47  C   UNL A   1      40.970  26.354  28.340  1.00  0.00     0.049 A 
ATOM     48  H   UNL A   1      42.062  28.124  28.403  1.00  0.00     0.167 HD
ATOM     49  C   UNL A   1      44.381  31.850  28.933  1.00  0.00     0.037 A 
ATOM     50  C   UNL A   1      41.701  25.486  27.614  1.00  0.00     0.037 A 
ATOM     51  C   UNL A   1      45.239  30.977  28.188  1.00  0.00     0.049 A 
ATOM     52  C   UNL A   1      43.052  25.920  27.093  1.00  0.00     0.074 A 
ATOM     53  C   UNL A   1      46.514  31.221  27.718  1.00  0.00     0.029 A 
ATOM     54  N   UNL A   1      44.897  29.692  27.796  1.00  0.00    -0.354 N 
ATOM     55  N   UNL A   1      43.694  27.048  27.287  1.00  0.00    -0.248 NA
ATOM     56  C   UNL A   1      43.781  24.957  26.258  1.00  0.00     0.031 C 
ATOM     57  C   UNL A   1      46.927  30.100  26.995  1.00  0.00     0.029 A 
ATOM     58  C   UNL A   1      45.931  29.138  27.064  1.00  0.00     0.049 A 
ATOM     59  H   UNL A   1      44.048  29.241  28.008  1.00  0.00     0.167 HD
ATOM     60  C   UNL A   1      44.908  26.919  26.622  1.00  0.00     0.074 A 
ATOM     61  C   UNL A   1      44.922  25.594  26.037  1.00  0.00     0.031 C 
ATOM     62  C   UNL A   1      45.920  27.813  26.499  1.00  0.00     0.037 A 
BRANCH  49  63
ATOM     63  C   UNL A   1      44.880  33.213  29.291  1.00  0.00     0.064 A 
ATOM     64  C   UNL A   1      44.646  34.301  28.439  1.00  0.00     0.173 A 
ATOM     65  C   UNL A   1      45.625  33.433  30.460  1.00  0.00     0.173 A 
ATOM     66  F   UNL A   1      43.926  34.140  27.320  1.00  0.00    -0.203 F 
ATOM     67  C   UNL A   1      45.165  35.559  28.732  1.00  0.00     0.198 A 
ATOM     68  C   UNL A   1      46.121  34.697  30.761  1.00  0.00     0.198 A 
ATOM     69  F   UNL A   1      45.843  32.428  31.322  1.00  0.00    -0.203 F 
ATOM     70  F   UNL A   1      44.955  36.579  27.889  1.00  0.00    -0.200 F 
ATOM     71  C   UNL A   1      45.902  35.756  29.891  1.00  0.00     0.200 A 
ATOM     72  F   UNL A   1      46.806  34.894  31.896  1.00  0.00    -0.200 F 
ATOM     73  F   UNL A   1      46.396  36.968  30.172  1.00  0.00    -0.200 F 
ENDBRANCH  49  63
BRANCH  50  74
ATOM     74  C   UNL A   1      41.188  24.119  27.335  1.00  0.00     0.064 A 
ATOM     75  C   UNL A   1      41.763  22.990  27.937  1.00  0.00     0.173 A 
ATOM     76  C   UNL A   1      40.082  23.915  26.498  1.00  0.00     0.173 A 
ATOM     77  F   UNL A   1      42.817  23.128  28.755  1.00  0.00    -0.203 F 
ATOM     78  C   UNL A   1      41.256  21.712  27.709  1.00  0.00     0.198 A 
ATOM     79  C   UNL A   1      39.557  22.641  26.292  1.00  0.00     0.198 A 
ATOM     80  F   UNL A   1      39.477  24.966  25.921  1.00  0.00    -0.203 F 
ATOM     81  F   UNL A   1      41.830  20.650  28.290  1.00  0.00    -0.200 F 
ATOM     82  C   UNL A   1      40.146  21.540  26.894  1.00  0.00     0.200 A 
ATOM     83  F   UNL A   1      38.465  22.483  25.533  1.00  0.00    -0.200 F 
ATOM     84  F   UNL A   1      39.637  20.315  26.703  1.00  0.00    -0.200 F 
ENDBRANCH  50  74
BRANCH  62  85
ATOM     85  C   UNL A   1      47.132  27.395  25.720  1.00  0.00     0.064 A 
ATOM     86  C   UNL A   1      48.226  26.801  26.371  1.00  0.00     0.173 A 
ATOM     87  C   UNL A   1      47.248  27.659  24.348  1.00  0.00     0.173 A 
ATOM     88  F   UNL A   1      48.172  26.542  27.685  1.00  0.00    -0.203 F 
ATOM     89  C   UNL A   1      49.394  26.499  25.677  1.00  0.00     0.198 A 
ATOM     90  C   UNL A   1      48.404  27.325  23.651  1.00  0.00     0.198 A 
ATOM     91  F   UNL A   1      46.228  28.221  23.682  1.00  0.00    -0.203 F 
ATOM     92  F   UNL A   1      50.438  25.969  26.327  1.00  0.00    -0.200 F 
ATOM     93  C   UNL A   1      49.479  26.755  24.316  1.00  0.00     0.200 A 
ATOM     94  F   UNL A   1      48.477  27.551  22.332  1.00  0.00    -0.200 F 
ATOM     95  F   UNL A   1      50.599  26.451  23.647  1.00  0.00    -0.200 F 
ENDBRANCH  62  85
ENDBRANCH  36  37
ENDBRANCH  29  31
ENDBRANCH  28  29
ENDBRANCH  27  28
ENDBRANCH  26  27
ENDBRANCH  25  26
ENDBRANCH  24  25
ENDBRANCH   1  24
TORSDOF 21
ENDMDL
MODEL 2
REMARK VINA RESULT:     -11.3      1.504      3.258
REMARK SMILES CC[C@](C)(NC(=O)Cc1cccc(F)c1)C(=O)OCCOCCOCCOC(=O)c1ccc(-c2c3nc(c(-c4c(F)c(F)c(F)c(F)c4F)c4ccc([nH]4)c(-c4c(F)c(F)c(F)c(F)c4F)c4nc(c(-c5c(F)c(F)c(F)c(F)c5F)c5ccc2[nH]5)C=C4)C=C3)cc1
REMARK SMILES IDX 22 1 21 2 20 3 19 4 18 5 16 6 17 7 3 8 4 9 2 10 1 11 5 12
REMARK SMILES IDX 6 13 7 15 8 16 9 17 10 18 15 19 11 20 13 21 12 22 14 23
REMARK SMILES IDX 23 24 24 25 25 26 26 27 27 28 28 29 29 30 30 31 31 32 92 33
REMARK SMILES IDX 32 34 91 35 33 36 34 37 35 38 85 39 36 40 90 41 84 42 86 43
REMARK SMILES IDX 37 44 89 45 83 46 82 47 38 49 70 50 50 51 69 52 51 53 54 54
REMARK SMILES IDX 68 55 87 56 52 57 53 58 67 60 88 61 55 62 39 63 40 64 48 65
REMARK SMILES IDX 41 66 42 67 46 68 49 69 43 70 44 71 47 72 45 73 71 74 72 75
REMARK SMILES IDX 80 76 73 77 74 78 78 79 81 80 75 81 76 82 79 83 77 84 56 85
REMARK SMILES IDX 57 86 65 87 58 88 59 89 63 90 66 91 60 92 61 93 64 94 62 95
REMARK H PARENT 5 14 86 48 54 59
REMARK Flexibility Score: inf
ROOT
ATOM      1  C   UNL A   1      35.061  32.407  28.372  1.00  0.00     0.188 C 
ENDROOT
BRANCH   1   2
ATOM      2  O   UNL A   1      33.417  31.454  27.744  1.00  0.00    -0.376 OA
BRANCH   2   3
ATOM      3  C   UNL A   1      32.797  30.197  27.047  1.00  0.00     0.202 C 
BRANCH   3   4
ATOM      4  C   UNL A   1      32.475  30.079  25.483  1.00  0.00     0.261 C 
BRANCH   4   5
ATOM      5  O   UNL A   1      31.469  29.087  25.092  1.00  0.00    -0.462 OA
BRANCH   5   6
ATOM      6  C   UNL A   1      31.857  27.882  24.580  1.00  0.00     0.331 C 
ATOM      7  O   UNL A   1      32.611  27.131  25.188  1.00  0.00    -0.249 OA
BRANCH   6   8
ATOM      8  C   UNL A   1      31.059  27.458  23.253  1.00  0.00     0.135 C 
ATOM      9  C   UNL A   1      30.179  28.588  22.644  1.00  0.00     0.047 C 
BRANCH   8  10
ATOM     10  C   UNL A   1      30.052  26.340  23.686  1.00  0.00     0.037 C 
ATOM     11  C   UNL A   1      28.637  26.826  24.026  1.00  0.00     0.007 C 
ENDBRANCH   8  10
BRANCH   8  12
ATOM     12  N   UNL A   1      31.868  26.912  22.129  1.00  0.00    -0.340 N 
ATOM     13  C   UNL A   1      32.716  25.853  22.031  1.00  0.00     0.225 C 
ATOM     14  H   UNL A   1      31.769  27.418  21.290  1.00  0.00     0.164 HD
ATOM     15  O   UNL A   1      33.672  26.018  21.262  1.00  0.00    -0.275 OA
BRANCH  13  16
ATOM     16  C   UNL A   1      32.425  24.488  22.610  1.00  0.00     0.135 C 
BRANCH  16  17
ATOM     17  C   UNL A   1      33.458  23.762  23.466  1.00  0.00    -0.036 A 
ATOM     18  C   UNL A   1      33.189  21.951  23.611  1.00  0.00     0.004 A 
ATOM     19  C   UNL A   1      34.771  24.505  24.499  1.00  0.00     0.043 A 
ATOM     20  C   UNL A   1      34.191  20.970  24.733  1.00  0.00     0.003 A 
ATOM     21  C   UNL A   1      35.730  23.494  25.635  1.00  0.00     0.123 A 
ATOM     22  C   UNL A   1      35.469  21.746  25.720  1.00  0.00     0.039 A 
ATOM     23  F   UNL A   1      36.644  24.084  26.419  1.00  0.00    -0.207 F 
ENDBRANCH  16  17
ENDBRANCH  13  16
ENDBRANCH   8  12
ENDBRANCH   6   8
ENDBRANCH   5   6
ENDBRANCH   4   5
ENDBRANCH   3   4
ENDBRANCH   2   3
ENDBRANCH   1   2
BRANCH   1  24
ATOM     24  C   UNL A   1      35.366  33.989  28.877  1.00  0.00     0.188 C 
BRANCH  24  25
ATOM     25  O   UNL A   1      34.753  34.590  29.995  1.00  0.00    -0.376 OA
BRANCH  25  26
ATOM     26  C   UNL A   1      34.151  33.990  31.120  1.00  0.00     0.202 C 
BRANCH  26  27
ATOM     27  C   UNL A   1      34.886  33.677  32.423  1.00  0.00     0.261 C 
BRANCH  27  28
ATOM     28  O   UNL A   1      35.317  32.331  32.553  1.00  0.00    -0.460 OA
BRANCH  28  29
ATOM     29  C   UNL A   1      36.457  32.151  33.275  1.00  0.00     0.338 C 
ATOM     30  O   UNL A   1      36.621  32.300  34.450  1.00  0.00    -0.246 OA
BRANCH  29  31
ATOM     31  C   UNL A   1      37.372  31.440  32.346  1.00  0.00     0.060 A 
ATOM     32  C   UNL A   1      38.398  30.681  32.921  1.00  0.00     0.016 A 
ATOM     33  C   UNL A   1      37.094  31.359  30.975  1.00  0.00     0.016 A 
ATOM     34  C   UNL A   1      39.172  29.857  32.115  1.00  0.00     0.010 A 
ATOM     35  C   UNL A   1      37.890  30.560  30.161  1.00  0.00     0.010 A 
ATOM     36  C   UNL A   1      38.958  29.848  30.727  1.00  0.00    -0.014 A 
BRANCH  36  37
ATOM     37  C   UNL A   1      40.082  29.414  29.877  1.00  0.00     0.031 A 
ATOM     38  C   UNL A   1      41.171  30.429  29.659  1.00  0.00     0.074 A 
ATOM     39  C   UNL A   1      40.185  28.163  29.402  1.00  0.00     0.049 A 
ATOM     40  N   UNL A   1      42.326  30.296  29.067  1.00  0.00    -0.248 NA
ATOM     41  C   UNL A   1      40.928  31.779  30.206  1.00  0.00     0.031 C 
ATOM     42  C   UNL A   1      39.207  27.095  29.588  1.00  0.00     0.029 A 
ATOM     43  N   UNL A   1      41.192  27.581  28.675  1.00  0.00    -0.354 N 
ATOM     44  C   UNL A   1      42.954  31.525  29.205  1.00  0.00     0.074 A 
ATOM     45  C   UNL A   1      42.045  32.411  29.889  1.00  0.00     0.031 C 
ATOM     46  C   UNL A   1      39.667  25.978  28.993  1.00  0.00     0.029 A 
ATOM     47  C   UNL A   1      40.965  26.261  28.379  1.00  0.00     0.049 A 
ATOM     48  H   UNL A   1      42.001  28.065  28.391  1.00  0.00     0.167 HD
ATOM     49  C   UNL A   1      44.195  31.880  28.814  1.00  0.00     0.037 A 
ATOM     50  C   UNL A   1      41.732  25.392  27.692  1.00  0.00     0.037 A 
ATOM     51  C   UNL A   1      45.089  31.010  28.109  1.00  0.00     0.049 A 
ATOM     52  C   UNL A   1      43.075  25.851  27.170  1.00  0.00     0.074 A 
ATOM     53  C   UNL A   1      46.361  31.277  27.643  1.00  0.00     0.029 A 
ATOM     54  N   UNL A   1      44.792  29.701  27.759  1.00  0.00    -0.354 N 
ATOM     55  N   UNL A   1      43.679  27.005  27.331  1.00  0.00    -0.248 NA
ATOM     56  C   UNL A   1      43.843  24.882  26.376  1.00  0.00     0.031 C 
ATOM     57  C   UNL A   1      46.817  30.145  26.965  1.00  0.00     0.029 A 
ATOM     58  C   UNL A   1      45.851  29.155  27.057  1.00  0.00     0.049 A 
ATOM     59  H   UNL A   1      43.955  29.232  27.978  1.00  0.00     0.167 HD
ATOM     60  C   UNL A   1      44.904  26.891  26.683  1.00  0.00     0.074 A 
ATOM     61  C   UNL A   1      44.966  25.548  26.145  1.00  0.00     0.031 C 
ATOM     62  C   UNL A   1      45.888  27.812  26.539  1.00  0.00     0.037 A 
BRANCH  49  63
ATOM     63  C   UNL A   1      44.648  33.270  29.129  1.00  0.00     0.064 A 
ATOM     64  C   UNL A   1      44.453  34.306  28.206  1.00  0.00     0.173 A 
ATOM     65  C   UNL A   1      45.309  33.566  30.331  1.00  0.00     0.173 A 
ATOM     66  F   UNL A   1      43.812  34.071  27.052  1.00  0.00    -0.203 F 
ATOM     67  C   UNL A   1      44.931  35.587  28.463  1.00  0.00     0.198 A 
ATOM     68  C   UNL A   1      45.764  34.855  30.594  1.00  0.00     0.198 A 
ATOM     69  F   UNL A   1      45.486  32.613  31.258  1.00  0.00    -0.203 F 
ATOM     70  F   UNL A   1      44.761  36.557  27.554  1.00  0.00    -0.200 F 
ATOM     71  C   UNL A   1      45.585  35.861  29.655  1.00  0.00     0.200 A 
ATOM     72  F   UNL A   1      46.369  35.126  31.758  1.00  0.00    -0.200 F 
ATOM     73  F   UNL A   1      46.040  37.096  29.902  1.00  0.00    -0.200 F 
ENDBRANCH  49  63
BRANCH  50  74
ATOM     74  C   UNL A   1      41.266  24.000  27.455  1.00  0.00     0.064 A 
ATOM     75  C   UNL A   1      40.193  23.730  26.593  1.00  0.00     0.173 A 
ATOM     76  C   UNL A   1      41.913  22.907  28.048  1.00  0.00     0.173 A 
ATOM     77  F   UNL A   1      39.545  24.738  25.991  1.00  0.00    -0.203 F 
ATOM     78  C   UNL A   1      39.783  22.423  26.337  1.00  0.00     0.198 A 
ATOM     79  C   UNL A   1      41.522  21.599  27.770  1.00  0.00     0.198 A 
ATOM     80  F   UNL A   1      42.964  23.110  28.858  1.00  0.00    -0.203 F 
ATOM     81  F   UNL A   1      38.749  22.194  25.516  1.00  0.00    -0.200 F 
ATOM     82  C   UNL A   1      40.455  21.357  26.919  1.00  0.00     0.200 A 
ATOM     83  F   UNL A   1      42.194  20.572  28.307  1.00  0.00    -0.200 F 
ATOM     84  F   UNL A   1      40.083  20.099  26.646  1.00  0.00    -0.200 F 
ENDBRANCH  50  74
BRANCH  62  85
ATOM     85  C   UNL A   1      47.122  27.405  25.788  1.00  0.00     0.064 A 
ATOM     86  C   UNL A   1      47.218  27.628  24.405  1.00  0.00     0.173 A 
ATOM     87  C   UNL A   1      48.169  26.719  26.418  1.00  0.00     0.173 A 
ATOM     88  F   UNL A   1      46.236  28.265  23.752  1.00  0.00    -0.203 F 
ATOM     89  C   UNL A   1      48.314  27.167  23.680  1.00  0.00     0.198 A 
ATOM     90  C   UNL A   1      49.279  26.290  25.697  1.00  0.00     0.198 A 
ATOM     91  F   UNL A   1      48.125  26.487  27.739  1.00  0.00    -0.203 F 
ATOM     92  F   UNL A   1      48.365  27.356  22.355  1.00  0.00    -0.200 F 
ATOM     93  C   UNL A   1      49.346  26.505  24.328  1.00  0.00     0.200 A 
ATOM     94  F   UNL A   1      50.287  25.671  26.327  1.00  0.00    -0.200 F 
ATOM     95  F   UNL A   1      50.406  26.074  23.632  1.00  0.00    -0.200 F 
ENDBRANCH  62  85
ENDBRANCH  36  37
ENDBRANCH  29  31
ENDBRANCH  28  29
ENDBRANCH  27  28
ENDBRANCH  26  27
ENDBRANCH  25  26
ENDBRANCH  24  25
ENDBRANCH   1  24
TORSDOF 21
ENDMDL
MODEL 3
REMARK VINA RESULT:     -10.9      1.749      3.176
REMARK SMILES CC[C@](C)(NC(=O)Cc1cccc(F)c1)C(=O)OCCOCCOCCOC(=O)c1ccc(-c2c3nc(c(-c4c(F)c(F)c(F)c(F)c4F)c4ccc([nH]4)c(-c4c(F)c(F)c(F)c(F)c4F)c4nc(c(-c5c(F)c(F)c(F)c(F)c5F)c5ccc2[nH]5)C=C4)C=C3)cc1
REMARK SMILES IDX 22 1 21 2 20 3 19 4 18 5 16 6 17 7 3 8 4 9 2 10 1 11 5 12
REMARK SMILES IDX 6 13 7 15 8 16 9 17 10 18 15 19 11 20 13 21 12 22 14 23
REMARK SMILES IDX 23 24 24 25 25 26 26 27 27 28 28 29 29 30 30 31 31 32 92 33
REMARK SMILES IDX 32 34 91 35 33 36 34 37 35 38 85 39 36 40 90 41 84 42 86 43
REMARK SMILES IDX 37 44 89 45 83 46 82 47 38 49 70 50 50 51 69 52 51 53 54 54
REMARK SMILES IDX 68 55 87 56 52 57 53 58 67 60 88 61 55 62 39 63 40 64 48 65
REMARK SMILES IDX 41 66 42 67 46 68 49 69 43 70 44 71 47 72 45 73 71 74 72 75
REMARK SMILES IDX 80 76 73 77 74 78 78 79 81 80 75 81 76 82 79 83 77 84 56 85
REMARK SMILES IDX 57 86 65 87 58 88 59 89 63 90 66 91 60 92 61 93 64 94 62 95
REMARK H PARENT 5 14 86 48 54 59
REMARK Flexibility Score: inf
ROOT
ATOM      1  C   UNL A   1      34.790  33.242  28.103  1.00  0.00     0.188 C 
ENDROOT
BRANCH   1   2
ATOM      2  O   UNL A   1      33.742  31.618  27.584  1.00  0.00    -0.376 OA
BRANCH   2   3
ATOM      3  C   UNL A   1      33.670  30.057  27.500  1.00  0.00     0.202 C 
BRANCH   3   4
ATOM      4  C   UNL A   1      34.495  29.152  26.468  1.00  0.00     0.261 C 
BRANCH   4   5
ATOM      5  O   UNL A   1      33.802  27.985  25.916  1.00  0.00    -0.462 OA
BRANCH   5   6
ATOM      6  C   UNL A   1      33.417  27.972  24.607  1.00  0.00     0.331 C 
ATOM      7  O   UNL A   1      34.157  28.359  23.710  1.00  0.00    -0.249 OA
BRANCH   6   8
ATOM      8  C   UNL A   1      32.035  27.196  24.348  1.00  0.00     0.135 C 
ATOM      9  C   UNL A   1      32.018  26.326  23.058  1.00  0.00     0.047 C 
BRANCH   8  10
ATOM     10  C   UNL A   1      30.950  28.301  24.114  1.00  0.00     0.037 C 
ATOM     11  C   UNL A   1      31.196  29.628  24.843  1.00  0.00     0.007 C 
ENDBRANCH   8  10
BRANCH   8  12
ATOM     12  N   UNL A   1      31.543  26.319  25.445  1.00  0.00    -0.340 N 
ATOM     13  C   UNL A   1      30.813  25.170  25.453  1.00  0.00     0.225 C 
ATOM     14  H   UNL A   1      31.797  26.631  26.344  1.00  0.00     0.164 HD
ATOM     15  O   UNL A   1      30.050  25.042  26.419  1.00  0.00    -0.275 OA
BRANCH  13  16
ATOM     16  C   UNL A   1      31.056  24.016  24.510  1.00  0.00     0.135 C 
BRANCH  16  17
ATOM     17  C   UNL A   1      32.157  22.996  24.785  1.00  0.00    -0.036 A 
ATOM     18  C   UNL A   1      33.856  23.591  24.418  1.00  0.00     0.004 A 
ATOM     19  C   UNL A   1      31.960  21.233  25.230  1.00  0.00     0.043 A 
ATOM     20  C   UNL A   1      35.252  22.464  24.497  1.00  0.00     0.003 A 
ATOM     21  C   UNL A   1      33.378  20.129  25.266  1.00  0.00     0.123 A 
ATOM     22  C   UNL A   1      35.005  20.746  24.942  1.00  0.00     0.039 A 
ATOM     23  F   UNL A   1      33.185  18.830  25.538  1.00  0.00    -0.207 F 
ENDBRANCH  16  17
ENDBRANCH  13  16
ENDBRANCH   8  12
ENDBRANCH   6   8
ENDBRANCH   5   6
ENDBRANCH   4   5
ENDBRANCH   3   4
ENDBRANCH   2   3
ENDBRANCH   1   2
BRANCH   1  24
ATOM     24  C   UNL A   1      34.989  34.082  29.554  1.00  0.00     0.188 C 
BRANCH  24  25
ATOM     25  O   UNL A   1      34.093  34.003  30.638  1.00  0.00    -0.376 OA
BRANCH  25  26
ATOM     26  C   UNL A   1      34.307  34.285  32.003  1.00  0.00     0.202 C 
BRANCH  26  27
ATOM     27  C   UNL A   1      34.494  33.217  33.081  1.00  0.00     0.261 C 
BRANCH  27  28
ATOM     28  O   UNL A   1      35.352  32.148  32.716  1.00  0.00    -0.460 OA
BRANCH  28  29
ATOM     29  C   UNL A   1      36.553  32.119  33.357  1.00  0.00     0.338 C 
ATOM     30  O   UNL A   1      36.788  32.374  34.501  1.00  0.00    -0.246 OA
BRANCH  29  31
ATOM     31  C   UNL A   1      37.456  31.412  32.414  1.00  0.00     0.060 A 
ATOM     32  C   UNL A   1      38.477  30.634  32.974  1.00  0.00     0.016 A 
ATOM     33  C   UNL A   1      37.172  31.354  31.043  1.00  0.00     0.016 A 
ATOM     34  C   UNL A   1      39.238  29.813  32.152  1.00  0.00     0.010 A 
ATOM     35  C   UNL A   1      37.956  30.558  30.214  1.00  0.00     0.010 A 
ATOM     36  C   UNL A   1      39.018  29.827  30.766  1.00  0.00    -0.014 A 
BRANCH  36  37
ATOM     37  C   UNL A   1      40.135  29.393  29.905  1.00  0.00     0.031 A 
ATOM     38  C   UNL A   1      41.246  30.390  29.718  1.00  0.00     0.074 A 
ATOM     39  C   UNL A   1      40.211  28.155  29.394  1.00  0.00     0.049 A 
ATOM     40  N   UNL A   1      42.399  30.249  29.124  1.00  0.00    -0.248 NA
ATOM     41  C   UNL A   1      41.032  31.728  30.304  1.00  0.00     0.031 C 
ATOM     42  C   UNL A   1      39.209  27.103  29.547  1.00  0.00     0.029 A 
ATOM     43  N   UNL A   1      41.206  27.573  28.651  1.00  0.00    -0.354 N 
ATOM     44  C   UNL A   1      43.053  31.459  29.299  1.00  0.00     0.074 A 
ATOM     45  C   UNL A   1      42.162  32.345  30.007  1.00  0.00     0.031 C 
ATOM     46  C   UNL A   1      39.646  25.995  28.920  1.00  0.00     0.029 A 
ATOM     47  C   UNL A   1      40.952  26.267  28.316  1.00  0.00     0.049 A 
ATOM     48  H   UNL A   1      42.026  28.047  28.383  1.00  0.00     0.167 HD
ATOM     49  C   UNL A   1      44.303  31.798  28.920  1.00  0.00     0.037 A 
ATOM     50  C   UNL A   1      41.700  25.402  27.605  1.00  0.00     0.037 A 
ATOM     51  C   UNL A   1      45.178  30.930  28.191  1.00  0.00     0.049 A 
ATOM     52  C   UNL A   1      43.054  25.846  27.099  1.00  0.00     0.074 A 
ATOM     53  C   UNL A   1      46.457  31.183  27.735  1.00  0.00     0.029 A 
ATOM     54  N   UNL A   1      44.854  29.638  27.802  1.00  0.00    -0.354 N 
ATOM     55  N   UNL A   1      43.683  26.981  27.294  1.00  0.00    -0.248 NA
ATOM     56  C   UNL A   1      43.802  24.884  26.278  1.00  0.00     0.031 C 
ATOM     57  C   UNL A   1      46.890  30.061  27.024  1.00  0.00     0.029 A 
ATOM     58  C   UNL A   1      45.902  29.090  27.086  1.00  0.00     0.049 A 
ATOM     59  H   UNL A   1      44.006  29.181  28.007  1.00  0.00     0.167 HD
ATOM     60  C   UNL A   1      44.906  26.859  26.645  1.00  0.00     0.074 A 
ATOM     61  C   UNL A   1      44.940  25.532  26.068  1.00  0.00     0.031 C 
ATOM     62  C   UNL A   1      45.911  27.762  26.529  1.00  0.00     0.037 A 
BRANCH  49  63
ATOM     63  C   UNL A   1      44.785  33.168  29.276  1.00  0.00     0.064 A 
ATOM     64  C   UNL A   1      44.593  34.240  28.394  1.00  0.00     0.173 A 
ATOM     65  C   UNL A   1      45.472  33.410  30.475  1.00  0.00     0.173 A 
ATOM     66  F   UNL A   1      43.927  34.058  27.244  1.00  0.00    -0.203 F 
ATOM     67  C   UNL A   1      45.097  35.503  28.688  1.00  0.00     0.198 A 
ATOM     68  C   UNL A   1      45.954  34.680  30.776  1.00  0.00     0.198 A 
ATOM     69  F   UNL A   1      45.648  32.421  31.365  1.00  0.00    -0.203 F 
ATOM     70  F   UNL A   1      44.928  36.508  27.817  1.00  0.00    -0.200 F 
ATOM     71  C   UNL A   1      45.777  35.722  29.877  1.00  0.00     0.200 A 
ATOM     72  F   UNL A   1      46.584  34.899  31.938  1.00  0.00    -0.200 F 
ATOM     73  F   UNL A   1      46.258  36.940  30.159  1.00  0.00    -0.200 F 
ENDBRANCH  49  63
BRANCH  50  74
ATOM     74  C   UNL A   1      41.204  24.028  27.327  1.00  0.00     0.064 A 
ATOM     75  C   UNL A   1      41.804  22.906  27.917  1.00  0.00     0.173 A 
ATOM     76  C   UNL A   1      40.089  23.811  26.506  1.00  0.00     0.173 A 
ATOM     77  F   UNL A   1      42.868  23.056  28.721  1.00  0.00    -0.203 F 
ATOM     78  C   UNL A   1      41.313  21.621  27.691  1.00  0.00     0.198 A 
ATOM     79  C   UNL A   1      39.580  22.530  26.302  1.00  0.00     0.198 A 
ATOM     80  F   UNL A   1      39.461  24.854  25.942  1.00  0.00    -0.203 F 
ATOM     81  F   UNL A   1      41.911  20.565  28.260  1.00  0.00    -0.200 F 
ATOM     82  C   UNL A   1      40.195  21.435  26.891  1.00  0.00     0.200 A 
ATOM     83  F   UNL A   1      38.480  22.358  25.557  1.00  0.00    -0.200 F 
ATOM     84  F   UNL A   1      39.701  20.204  26.702  1.00  0.00    -0.200 F 
ENDBRANCH  50  74
BRANCH  62  85
ATOM     85  C   UNL A   1      47.136  27.351  25.768  1.00  0.00     0.064 A 
ATOM     86  C   UNL A   1      48.219  26.753  26.433  1.00  0.00     0.173 A 
ATOM     87  C   UNL A   1      47.275  27.626  24.400  1.00  0.00     0.173 A 
ATOM     88  F   UNL A   1      48.144  26.485  27.744  1.00  0.00    -0.203 F 
ATOM     89  C   UNL A   1      49.400  26.458  25.756  1.00  0.00     0.198 A 
ATOM     90  C   UNL A   1      48.444  27.298  23.720  1.00  0.00     0.198 A 
ATOM     91  F   UNL A   1      46.266  28.191  23.720  1.00  0.00    -0.203 F 
ATOM     92  F   UNL A   1      50.434  25.925  26.420  1.00  0.00    -0.200 F 
ATOM     93  C   UNL A   1      49.508  26.724  24.400  1.00  0.00     0.200 A 
ATOM     94  F   UNL A   1      48.539  27.533  22.404  1.00  0.00    -0.200 F 
ATOM     95  F   UNL A   1      50.639  26.426  23.747  1.00  0.00    -0.200 F 
ENDBRANCH  62  85
ENDBRANCH  36  37
ENDBRANCH  29  31
ENDBRANCH  28  29
ENDBRANCH  27  28
ENDBRANCH  26  27
ENDBRANCH  25  26
ENDBRANCH  24  25
ENDBRANCH   1  24
TORSDOF 21
ENDMDL
