MODEL 1
REMARK VINA RESULT:     -10.6      0.000      0.000
REMARK SMILES Cc1cccc(Nc2ccccc2C(=O)OCCOCCOCCOC(=O)c2ccc(-c3c4nc(c(-c5c(F)c(F)c(F)c(F)c5F)c5ccc([nH]5)c(-c5c(F)c(F)c(F)c(F)c5F)c5nc(c(-c6c(F)c(F)c(F)c(F)c6F)c6ccc3[nH]6)C=C5)C=C4)cc2)c1C
REMARK SMILES IDX 20 1 19 2 18 3 17 4 16 5 14 6 15 7 13 8 8 9 9 10 10 11 12 12
REMARK SMILES IDX 11 13 7 14 6 16 1 17 2 18 3 19 91 20 4 21 92 22 5 23 21 24
REMARK SMILES IDX 22 25 23 26 24 27 25 28 26 29 27 30 28 31 29 32 90 33 30 34
REMARK SMILES IDX 89 35 31 36 32 37 33 38 83 39 34 40 88 41 82 42 84 43 35 44
REMARK SMILES IDX 87 45 81 46 80 47 36 49 68 50 48 51 67 52 49 53 52 54 66 55
REMARK SMILES IDX 85 56 50 57 51 58 65 60 86 61 53 62 37 63 38 64 46 65 39 66
REMARK SMILES IDX 40 67 44 68 47 69 41 70 42 71 45 72 43 73 69 74 70 75 78 76
REMARK SMILES IDX 71 77 72 78 76 79 79 80 73 81 74 82 77 83 75 84 54 85 55 86
REMARK SMILES IDX 63 87 56 88 57 89 61 90 64 91 58 92 59 93 62 94 60 95
REMARK H PARENT 7 15 84 48 52 59
REMARK Flexibility Score: inf
ROOT
ATOM      1  C   UNL A   1      39.960  22.191  26.918  1.00  0.00     0.188 C 
ENDROOT
BRANCH   1   2
ATOM      2  O   UNL A   1      39.612  23.508  27.278  1.00  0.00    -0.376 OA
BRANCH   2   3
ATOM      3  C   UNL A   1      38.539  24.158  26.622  1.00  0.00     0.202 C 
BRANCH   3   4
ATOM      4  C   UNL A   1      37.735  23.570  25.450  1.00  0.00     0.261 C 
BRANCH   4   5
ATOM      5  O   UNL A   1      36.625  22.726  25.758  1.00  0.00    -0.460 OA
BRANCH   5   6
ATOM      6  C   UNL A   1      36.537  21.568  25.058  1.00  0.00     0.340 C 
ATOM      7  O   UNL A   1      37.446  20.767  24.891  1.00  0.00    -0.246 OA
BRANCH   6   8
ATOM      8  C   UNL A   1      35.125  21.263  24.684  1.00  0.00     0.083 A 
ATOM      9  C   UNL A   1      34.215  22.172  24.101  1.00  0.00     0.053 A 
ATOM     10  C   UNL A   1      32.901  21.716  23.865  1.00  0.00     0.027 A 
ATOM     11  C   UNL A   1      32.502  20.414  24.178  1.00  0.00     0.002 A 
ATOM     12  C   UNL A   1      34.711  19.952  25.001  1.00  0.00     0.018 A 
ATOM     13  C   UNL A   1      33.408  19.530  24.746  1.00  0.00     0.001 A 
BRANCH   9  14
ATOM     14  N   UNL A   1      34.512  23.467  23.621  1.00  0.00    -0.355 N 
ATOM     15  H   UNL A   1      35.177  23.487  22.895  1.00  0.00     0.167 HD
BRANCH  14  16
ATOM     16  C   UNL A   1      34.024  24.734  23.998  1.00  0.00     0.042 A 
ATOM     17  C   UNL A   1      33.325  28.133  22.432  1.00  0.00     0.044 C 
ATOM     18  C   UNL A   1      33.466  27.041  23.458  1.00  0.00    -0.046 A 
ATOM     19  C   UNL A   1      33.648  27.391  24.805  1.00  0.00     0.004 A 
ATOM     20  C   UNL A   1      33.543  25.685  23.071  1.00  0.00    -0.025 A 
ATOM     21  C   UNL A   1      33.958  26.422  25.752  1.00  0.00     0.002 A 
ATOM     22  C   UNL A   1      33.119  25.276  21.680  1.00  0.00     0.047 C 
ATOM     23  C   UNL A   1      34.183  25.111  25.344  1.00  0.00     0.026 A 
ENDBRANCH  14  16
ENDBRANCH   9  14
ENDBRANCH   6   8
ENDBRANCH   5   6
ENDBRANCH   4   5
ENDBRANCH   3   4
ENDBRANCH   2   3
ENDBRANCH   1   2
BRANCH   1  24
ATOM     24  C   UNL A   1      41.468  21.941  26.677  1.00  0.00     0.188 C 
BRANCH  24  25
ATOM     25  O   UNL A   1      42.165  20.942  27.401  1.00  0.00    -0.376 OA
BRANCH  25  26
ATOM     26  C   UNL A   1      41.861  19.578  27.156  1.00  0.00     0.202 C 
BRANCH  26  27
ATOM     27  C   UNL A   1      42.698  18.747  26.164  1.00  0.00     0.261 C 
BRANCH  27  28
ATOM     28  O   UNL A   1      43.007  19.374  24.907  1.00  0.00    -0.460 OA
BRANCH  28  29
ATOM     29  C   UNL A   1      44.329  19.523  24.626  1.00  0.00     0.338 C 
ATOM     30  O   UNL A   1      45.065  18.718  24.088  1.00  0.00    -0.246 OA
BRANCH  29  31
ATOM     31  C   UNL A   1      44.731  20.927  24.880  1.00  0.00     0.060 A 
ATOM     32  C   UNL A   1      45.297  21.248  26.125  1.00  0.00     0.016 A 
ATOM     33  C   UNL A   1      44.533  21.920  23.923  1.00  0.00     0.016 A 
ATOM     34  C   UNL A   1      45.652  22.564  26.422  1.00  0.00     0.010 A 
ATOM     35  C   UNL A   1      44.854  23.246  24.236  1.00  0.00     0.010 A 
ATOM     36  C   UNL A   1      45.387  23.579  25.496  1.00  0.00    -0.014 A 
BRANCH  36  37
ATOM     37  C   UNL A   1      45.471  24.999  25.920  1.00  0.00     0.031 A 
ATOM     38  C   UNL A   1      46.804  25.690  25.837  1.00  0.00     0.074 A 
ATOM     39  C   UNL A   1      44.393  25.671  26.361  1.00  0.00     0.049 A 
ATOM     40  N   UNL A   1      47.145  26.896  26.217  1.00  0.00    -0.248 NA
ATOM     41  C   UNL A   1      47.903  24.909  25.250  1.00  0.00     0.031 C 
ATOM     42  C   UNL A   1      43.039  25.132  26.449  1.00  0.00     0.029 A 
ATOM     43  N   UNL A   1      44.280  26.955  26.837  1.00  0.00    -0.354 N 
ATOM     44  C   UNL A   1      48.501  27.007  25.934  1.00  0.00     0.074 A 
ATOM     45  C   UNL A   1      48.924  25.742  25.373  1.00  0.00     0.031 C 
ATOM     46  C   UNL A   1      42.234  26.070  26.977  1.00  0.00     0.029 A 
ATOM     47  C   UNL A   1      43.023  27.260  27.296  1.00  0.00     0.049 A 
ATOM     48  H   UNL A   1      45.028  27.594  26.848  1.00  0.00     0.167 HD
ATOM     49  C   UNL A   1      49.318  28.070  26.124  1.00  0.00     0.037 A 
ATOM     50  C   UNL A   1      42.572  28.361  27.931  1.00  0.00     0.037 A 
ATOM     51  C   UNL A   1      48.895  29.327  26.682  1.00  0.00     0.049 A 
ATOM     52  C   UNL A   1      43.514  29.510  28.191  1.00  0.00     0.074 A 
ATOM     53  C   UNL A   1      49.639  30.478  26.877  1.00  0.00     0.029 A 
ATOM     54  N   UNL A   1      47.618  29.594  27.153  1.00  0.00    -0.354 N 
ATOM     55  N   UNL A   1      44.784  29.627  27.888  1.00  0.00    -0.248 NA
ATOM     56  C   UNL A   1      42.956  30.685  28.878  1.00  0.00     0.031 C 
ATOM     57  C   UNL A   1      48.833  31.414  27.532  1.00  0.00     0.029 A 
ATOM     58  C   UNL A   1      47.563  30.877  27.675  1.00  0.00     0.049 A 
ATOM     59  H   UNL A   1      46.861  28.965  27.121  1.00  0.00     0.167 HD
ATOM     60  C   UNL A   1      45.170  30.891  28.320  1.00  0.00     0.074 A 
ATOM     61  C   UNL A   1      43.994  31.509  28.895  1.00  0.00     0.031 C 
ATOM     62  C   UNL A   1      46.387  31.485  28.246  1.00  0.00     0.037 A 
BRANCH  49  63
ATOM     63  C   UNL A   1      50.768  27.900  25.768  1.00  0.00     0.064 A 
ATOM     64  C   UNL A   1      51.237  28.046  24.454  1.00  0.00     0.173 A 
ATOM     65  C   UNL A   1      51.707  27.600  26.768  1.00  0.00     0.173 A 
ATOM     66  F   UNL A   1      50.381  28.319  23.458  1.00  0.00    -0.203 F 
ATOM     67  C   UNL A   1      52.584  27.863  24.148  1.00  0.00     0.198 A 
ATOM     68  C   UNL A   1      53.058  27.454  26.465  1.00  0.00     0.198 A 
ATOM     69  F   UNL A   1      51.315  27.454  28.042  1.00  0.00    -0.203 F 
ATOM     70  F   UNL A   1      52.998  27.948  22.877  1.00  0.00    -0.200 F 
ATOM     71  C   UNL A   1      53.493  27.575  25.155  1.00  0.00     0.200 A 
ATOM     72  F   UNL A   1      53.937  27.191  27.442  1.00  0.00    -0.200 F 
ATOM     73  F   UNL A   1      54.790  27.404  24.860  1.00  0.00    -0.200 F 
ENDBRANCH  49  63
BRANCH  50  74
ATOM     74  C   UNL A   1      41.159  28.418  28.394  1.00  0.00     0.064 A 
ATOM     75  C   UNL A   1      40.138  28.893  27.560  1.00  0.00     0.173 A 
ATOM     76  C   UNL A   1      40.804  28.005  29.687  1.00  0.00     0.173 A 
ATOM     77  F   UNL A   1      40.430  29.328  26.325  1.00  0.00    -0.203 F 
ATOM     78  C   UNL A   1      38.820  28.967  28.006  1.00  0.00     0.198 A 
ATOM     79  C   UNL A   1      39.480  28.050  30.121  1.00  0.00     0.198 A 
ATOM     80  F   UNL A   1      41.743  27.549  30.528  1.00  0.00    -0.203 F 
ATOM     81  F   UNL A   1      37.871  29.471  27.204  1.00  0.00    -0.200 F 
ATOM     82  C   UNL A   1      38.490  28.537  29.282  1.00  0.00     0.200 A 
ATOM     83  F   UNL A   1      39.167  27.624  31.352  1.00  0.00    -0.200 F 
ATOM     84  F   UNL A   1      37.221  28.601  29.708  1.00  0.00    -0.200 F 
ENDBRANCH  50  74
BRANCH  62  85
ATOM     85  C   UNL A   1      46.509  32.893  28.763  1.00  0.00     0.064 A 
ATOM     86  C   UNL A   1      46.892  33.167  30.085  1.00  0.00     0.173 A 
ATOM     87  C   UNL A   1      46.284  33.984  27.909  1.00  0.00     0.173 A 
ATOM     88  F   UNL A   1      47.110  32.163  30.948  1.00  0.00    -0.203 F 
ATOM     89  C   UNL A   1      47.015  34.479  30.539  1.00  0.00     0.198 A 
ATOM     90  C   UNL A   1      46.442  35.294  28.355  1.00  0.00     0.198 A 
ATOM     91  F   UNL A   1      45.925  33.782  26.632  1.00  0.00    -0.203 F 
ATOM     92  F   UNL A   1      47.331  34.716  31.819  1.00  0.00    -0.200 F 
ATOM     93  C   UNL A   1      46.799  35.540  29.672  1.00  0.00     0.200 A 
ATOM     94  F   UNL A   1      46.252  36.316  27.510  1.00  0.00    -0.200 F 
ATOM     95  F   UNL A   1      46.928  36.801  30.108  1.00  0.00    -0.200 F 
ENDBRANCH  62  85
ENDBRANCH  36  37
ENDBRANCH  29  31
ENDBRANCH  28  29
ENDBRANCH  27  28
ENDBRANCH  26  27
ENDBRANCH  25  26
ENDBRANCH  24  25
ENDBRANCH   1  24
TORSDOF 19
ENDMDL
MODEL 2
REMARK VINA RESULT:     -10.5      0.324      1.599
REMARK SMILES Cc1cccc(Nc2ccccc2C(=O)OCCOCCOCCOC(=O)c2ccc(-c3c4nc(c(-c5c(F)c(F)c(F)c(F)c5F)c5ccc([nH]5)c(-c5c(F)c(F)c(F)c(F)c5F)c5nc(c(-c6c(F)c(F)c(F)c(F)c6F)c6ccc3[nH]6)C=C5)C=C4)cc2)c1C
REMARK SMILES IDX 20 1 19 2 18 3 17 4 16 5 14 6 15 7 13 8 8 9 9 10 10 11 12 12
REMARK SMILES IDX 11 13 7 14 6 16 1 17 2 18 3 19 91 20 4 21 92 22 5 23 21 24
REMARK SMILES IDX 22 25 23 26 24 27 25 28 26 29 27 30 28 31 29 32 90 33 30 34
REMARK SMILES IDX 89 35 31 36 32 37 33 38 83 39 34 40 88 41 82 42 84 43 35 44
REMARK SMILES IDX 87 45 81 46 80 47 36 49 68 50 48 51 67 52 49 53 52 54 66 55
REMARK SMILES IDX 85 56 50 57 51 58 65 60 86 61 53 62 37 63 38 64 46 65 39 66
REMARK SMILES IDX 40 67 44 68 47 69 41 70 42 71 45 72 43 73 69 74 70 75 78 76
REMARK SMILES IDX 71 77 72 78 76 79 79 80 73 81 74 82 77 83 75 84 54 85 55 86
REMARK SMILES IDX 63 87 56 88 57 89 61 90 64 91 58 92 59 93 62 94 60 95
REMARK H PARENT 7 15 84 48 52 59
REMARK Flexibility Score: inf
ROOT
ATOM      1  C   UNL A   1      40.108  22.283  26.576  1.00  0.00     0.188 C 
ENDROOT
BRANCH   1   2
ATOM      2  O   UNL A   1      39.630  23.386  27.310  1.00  0.00    -0.376 OA
BRANCH   2   3
ATOM      3  C   UNL A   1      38.495  24.099  26.853  1.00  0.00     0.202 C 
BRANCH   3   4
ATOM      4  C   UNL A   1      37.692  23.760  25.585  1.00  0.00     0.261 C 
BRANCH   4   5
ATOM      5  O   UNL A   1      36.387  23.203  25.750  1.00  0.00    -0.460 OA
BRANCH   5   6
ATOM      6  C   UNL A   1      36.216  21.932  25.312  1.00  0.00     0.340 C 
ATOM      7  O   UNL A   1      36.979  20.999  25.522  1.00  0.00    -0.246 OA
BRANCH   6   8
ATOM      8  C   UNL A   1      34.863  21.738  24.715  1.00  0.00     0.083 A 
ATOM      9  C   UNL A   1      34.072  22.750  24.127  1.00  0.00     0.053 A 
ATOM     10  C   UNL A   1      32.792  22.386  23.660  1.00  0.00     0.027 A 
ATOM     11  C   UNL A   1      32.313  21.077  23.756  1.00  0.00     0.002 A 
ATOM     12  C   UNL A   1      34.369  20.420  24.811  1.00  0.00     0.018 A 
ATOM     13  C   UNL A   1      33.103  20.092  24.331  1.00  0.00     0.001 A 
BRANCH   9  14
ATOM     14  N   UNL A   1      34.472  24.077  23.853  1.00  0.00    -0.355 N 
ATOM     15  H   UNL A   1      35.259  24.149  23.264  1.00  0.00     0.167 HD
BRANCH  14  16
ATOM     16  C   UNL A   1      33.945  25.314  24.273  1.00  0.00     0.042 A 
ATOM     17  C   UNL A   1      33.402  28.826  22.908  1.00  0.00     0.044 C 
ATOM     18  C   UNL A   1      33.440  27.659  23.857  1.00  0.00    -0.046 A 
ATOM     19  C   UNL A   1      33.481  27.904  25.238  1.00  0.00     0.004 A 
ATOM     20  C   UNL A   1      33.559  26.335  23.377  1.00  0.00    -0.025 A 
ATOM     21  C   UNL A   1      33.696  26.864  26.135  1.00  0.00     0.002 A 
ATOM     22  C   UNL A   1      33.281  26.036  21.923  1.00  0.00     0.047 C 
ATOM     23  C   UNL A   1      33.964  25.587  25.653  1.00  0.00     0.026 A 
ENDBRANCH  14  16
ENDBRANCH   9  14
ENDBRANCH   6   8
ENDBRANCH   5   6
ENDBRANCH   4   5
ENDBRANCH   3   4
ENDBRANCH   2   3
ENDBRANCH   1   2
BRANCH   1  24
ATOM     24  C   UNL A   1      41.619  21.986  26.724  1.00  0.00     0.188 C 
BRANCH  24  25
ATOM     25  O   UNL A   1      42.072  20.857  27.452  1.00  0.00    -0.376 OA
BRANCH  25  26
ATOM     26  C   UNL A   1      41.672  19.563  27.030  1.00  0.00     0.202 C 
BRANCH  26  27
ATOM     27  C   UNL A   1      42.561  18.729  26.087  1.00  0.00     0.261 C 
BRANCH  27  28
ATOM     28  O   UNL A   1      42.951  19.359  24.853  1.00  0.00    -0.460 OA
BRANCH  28  29
ATOM     29  C   UNL A   1      44.288  19.482  24.646  1.00  0.00     0.338 C 
ATOM     30  O   UNL A   1      45.041  18.654  24.170  1.00  0.00    -0.246 OA
BRANCH  29  31
ATOM     31  C   UNL A   1      44.698  20.885  24.890  1.00  0.00     0.060 A 
ATOM     32  C   UNL A   1      45.273  21.210  26.130  1.00  0.00     0.016 A 
ATOM     33  C   UNL A   1      44.497  21.874  23.930  1.00  0.00     0.016 A 
ATOM     34  C   UNL A   1      45.636  22.526  26.418  1.00  0.00     0.010 A 
ATOM     35  C   UNL A   1      44.825  23.201  24.235  1.00  0.00     0.010 A 
ATOM     36  C   UNL A   1      45.368  23.538  25.490  1.00  0.00    -0.014 A 
BRANCH  36  37
ATOM     37  C   UNL A   1      45.460  24.959  25.906  1.00  0.00     0.031 A 
ATOM     38  C   UNL A   1      46.801  25.635  25.843  1.00  0.00     0.074 A 
ATOM     39  C   UNL A   1      44.382  25.645  26.323  1.00  0.00     0.049 A 
ATOM     40  N   UNL A   1      47.150  26.839  26.221  1.00  0.00    -0.248 NA
ATOM     41  C   UNL A   1      47.902  24.838  25.279  1.00  0.00     0.031 C 
ATOM     42  C   UNL A   1      43.021  25.122  26.391  1.00  0.00     0.029 A 
ATOM     43  N   UNL A   1      44.275  26.934  26.790  1.00  0.00    -0.354 N 
ATOM     44  C   UNL A   1      48.511  26.934  25.961  1.00  0.00     0.074 A 
ATOM     45  C   UNL A   1      48.930  25.661  25.416  1.00  0.00     0.031 C 
ATOM     46  C   UNL A   1      42.216  26.072  26.899  1.00  0.00     0.029 A 
ATOM     47  C   UNL A   1      43.013  27.256  27.225  1.00  0.00     0.049 A 
ATOM     48  H   UNL A   1      45.030  27.564  26.810  1.00  0.00     0.167 HD
ATOM     49  C   UNL A   1      49.337  27.989  26.160  1.00  0.00     0.037 A 
ATOM     50  C   UNL A   1      42.563  28.366  27.845  1.00  0.00     0.037 A 
ATOM     51  C   UNL A   1      48.918  29.254  26.703  1.00  0.00     0.049 A 
ATOM     52  C   UNL A   1      43.513  29.506  28.115  1.00  0.00     0.074 A 
ATOM     53  C   UNL A   1      49.671  30.399  26.903  1.00  0.00     0.029 A 
ATOM     54  N   UNL A   1      47.636  29.538  27.149  1.00  0.00    -0.354 N 
ATOM     55  N   UNL A   1      44.790  29.607  27.833  1.00  0.00    -0.248 NA
ATOM     56  C   UNL A   1      42.957  30.691  28.784  1.00  0.00     0.031 C 
ATOM     57  C   UNL A   1      48.864  31.347  27.538  1.00  0.00     0.029 A 
ATOM     58  C   UNL A   1      47.586  30.825  27.662  1.00  0.00     0.049 A 
ATOM     59  H   UNL A   1      46.873  28.917  27.107  1.00  0.00     0.167 HD
ATOM     60  C   UNL A   1      45.182  30.869  28.264  1.00  0.00     0.074 A 
ATOM     61  C   UNL A   1      44.003  31.504  28.814  1.00  0.00     0.031 C 
ATOM     62  C   UNL A   1      46.406  31.450  28.209  1.00  0.00     0.037 A 
BRANCH  49  63
ATOM     63  C   UNL A   1      50.791  27.800  25.831  1.00  0.00     0.064 A 
ATOM     64  C   UNL A   1      51.746  27.499  26.814  1.00  0.00     0.173 A 
ATOM     65  C   UNL A   1      51.231  27.907  24.501  1.00  0.00     0.173 A 
ATOM     66  F   UNL A   1      51.382  27.399  28.101  1.00  0.00    -0.203 F 
ATOM     67  C   UNL A   1      53.091  27.348  26.484  1.00  0.00     0.198 A 
ATOM     68  C   UNL A   1      52.569  27.719  24.171  1.00  0.00     0.198 A 
ATOM     69  F   UNL A   1      50.360  28.188  23.521  1.00  0.00    -0.203 F 
ATOM     70  F   UNL A   1      53.994  27.121  27.447  1.00  0.00    -0.200 F 
ATOM     71  C   UNL A   1      53.500  27.451  25.163  1.00  0.00     0.200 A 
ATOM     72  F   UNL A   1      52.960  27.803  22.891  1.00  0.00    -0.200 F 
ATOM     73  F   UNL A   1      54.794  27.300  24.846  1.00  0.00    -0.200 F 
ENDBRANCH  49  63
BRANCH  50  74
ATOM     74  C   UNL A   1      41.143  28.440  28.282  1.00  0.00     0.064 A 
ATOM     75  C   UNL A   1      40.743  27.972  29.541  1.00  0.00     0.173 A 
ATOM     76  C   UNL A   1      40.154  28.975  27.443  1.00  0.00     0.173 A 
ATOM     77  F   UNL A   1      41.646  27.424  30.369  1.00  0.00    -0.203 F 
ATOM     78  C   UNL A   1      39.409  28.022  29.937  1.00  0.00     0.198 A 
ATOM     79  C   UNL A   1      38.824  29.053  27.853  1.00  0.00     0.198 A 
ATOM     80  F   UNL A   1      40.481  29.430  26.224  1.00  0.00    -0.203 F 
ATOM     81  F   UNL A   1      39.046  27.523  31.127  1.00  0.00    -0.200 F 
ATOM     82  C   UNL A   1      38.451  28.571  29.097  1.00  0.00     0.200 A 
ATOM     83  F   UNL A   1      37.906  29.593  27.040  1.00  0.00    -0.200 F 
ATOM     84  F   UNL A   1      37.169  28.626  29.482  1.00  0.00    -0.200 F 
ENDBRANCH  50  74
BRANCH  62  85
ATOM     85  C   UNL A   1      46.535  32.859  28.719  1.00  0.00     0.064 A 
ATOM     86  C   UNL A   1      46.892  33.138  30.047  1.00  0.00     0.173 A 
ATOM     87  C   UNL A   1      46.342  33.947  27.853  1.00  0.00     0.173 A 
ATOM     88  F   UNL A   1      47.077  32.136  30.921  1.00  0.00    -0.203 F 
ATOM     89  C   UNL A   1      47.021  34.451  30.495  1.00  0.00     0.198 A 
ATOM     90  C   UNL A   1      46.508  35.258  28.294  1.00  0.00     0.198 A 
ATOM     91  F   UNL A   1      46.009  33.741  26.570  1.00  0.00    -0.203 F 
ATOM     92  F   UNL A   1      47.312  34.692  31.781  1.00  0.00    -0.200 F 
ATOM     93  C   UNL A   1      46.838  35.508  29.617  1.00  0.00     0.200 A 
ATOM     94  F   UNL A   1      46.349  36.276  27.439  1.00  0.00    -0.200 F 
ATOM     95  F   UNL A   1      46.973  36.771  30.047  1.00  0.00    -0.200 F 
ENDBRANCH  62  85
ENDBRANCH  36  37
ENDBRANCH  29  31
ENDBRANCH  28  29
ENDBRANCH  27  28
ENDBRANCH  26  27
ENDBRANCH  25  26
ENDBRANCH  24  25
ENDBRANCH   1  24
TORSDOF 19
ENDMDL
MODEL 3
REMARK VINA RESULT:     -10.3      4.119      9.104
REMARK SMILES Cc1cccc(Nc2ccccc2C(=O)OCCOCCOCCOC(=O)c2ccc(-c3c4nc(c(-c5c(F)c(F)c(F)c(F)c5F)c5ccc([nH]5)c(-c5c(F)c(F)c(F)c(F)c5F)c5nc(c(-c6c(F)c(F)c(F)c(F)c6F)c6ccc3[nH]6)C=C5)C=C4)cc2)c1C
REMARK SMILES IDX 20 1 19 2 18 3 17 4 16 5 14 6 15 7 13 8 8 9 9 10 10 11 12 12
REMARK SMILES IDX 11 13 7 14 6 16 1 17 2 18 3 19 91 20 4 21 92 22 5 23 21 24
REMARK SMILES IDX 22 25 23 26 24 27 25 28 26 29 27 30 28 31 29 32 90 33 30 34
REMARK SMILES IDX 89 35 31 36 32 37 33 38 83 39 34 40 88 41 82 42 84 43 35 44
REMARK SMILES IDX 87 45 81 46 80 47 36 49 68 50 48 51 67 52 49 53 52 54 66 55
REMARK SMILES IDX 85 56 50 57 51 58 65 60 86 61 53 62 37 63 38 64 46 65 39 66
REMARK SMILES IDX 40 67 44 68 47 69 41 70 42 71 45 72 43 73 69 74 70 75 78 76
REMARK SMILES IDX 71 77 72 78 76 79 79 80 73 81 74 82 77 83 75 84 54 85 55 86
REMARK SMILES IDX 63 87 56 88 57 89 61 90 64 91 58 92 59 93 62 94 60 95
REMARK H PARENT 7 15 84 48 52 59
REMARK Flexibility Score: inf
ROOT
ATOM      1  C   UNL A   1      34.843  32.569  28.018  1.00  0.00     0.188 C 
ENDROOT
BRANCH   1   2
ATOM      2  O   UNL A   1      34.133  31.495  27.448  1.00  0.00    -0.376 OA
BRANCH   2   3
ATOM      3  C   UNL A   1      34.686  30.191  27.475  1.00  0.00     0.202 C 
BRANCH   3   4
ATOM      4  C   UNL A   1      33.872  28.889  27.560  1.00  0.00     0.261 C 
BRANCH   4   5
ATOM      5  O   UNL A   1      33.872  28.025  26.423  1.00  0.00    -0.460 OA
BRANCH   5   6
ATOM      6  C   UNL A   1      32.735  28.001  25.685  1.00  0.00     0.340 C 
ATOM      7  O   UNL A   1      32.175  28.980  25.209  1.00  0.00    -0.246 OA
BRANCH   6   8
ATOM      8  C   UNL A   1      32.345  26.607  25.328  1.00  0.00     0.083 A 
ATOM      9  C   UNL A   1      31.424  26.243  24.321  1.00  0.00     0.053 A 
ATOM     10  C   UNL A   1      31.140  24.871  24.163  1.00  0.00     0.027 A 
ATOM     11  C   UNL A   1      31.748  23.893  24.954  1.00  0.00     0.002 A 
ATOM     12  C   UNL A   1      32.950  25.612  26.126  1.00  0.00     0.018 A 
ATOM     13  C   UNL A   1      32.656  24.264  25.937  1.00  0.00     0.001 A 
BRANCH   9  14
ATOM     14  N   UNL A   1      30.833  27.107  23.372  1.00  0.00    -0.355 N 
ATOM     15  H   UNL A   1      31.455  27.438  22.683  1.00  0.00     0.167 HD
BRANCH  14  16
ATOM     16  C   UNL A   1      29.512  27.577  23.235  1.00  0.00     0.042 A 
ATOM     17  C   UNL A   1      27.648  30.881  22.924  1.00  0.00     0.044 C 
ATOM     18  C   UNL A   1      27.917  29.406  23.051  1.00  0.00    -0.046 A 
ATOM     19  C   UNL A   1      26.914  28.573  23.571  1.00  0.00     0.004 A 
ATOM     20  C   UNL A   1      29.195  28.873  22.774  1.00  0.00    -0.025 A 
ATOM     21  C   UNL A   1      27.185  27.242  23.869  1.00  0.00     0.002 A 
ATOM     22  C   UNL A   1      30.199  29.696  22.001  1.00  0.00     0.047 C 
ATOM     23  C   UNL A   1      28.483  26.760  23.738  1.00  0.00     0.026 A 
ENDBRANCH  14  16
ENDBRANCH   9  14
ENDBRANCH   6   8
ENDBRANCH   5   6
ENDBRANCH   4   5
ENDBRANCH   3   4
ENDBRANCH   2   3
ENDBRANCH   1   2
BRANCH   1  24
ATOM     24  C   UNL A   1      34.090  33.360  29.114  1.00  0.00     0.188 C 
BRANCH  24  25
ATOM     25  O   UNL A   1      34.648  34.535  29.678  1.00  0.00    -0.376 OA
BRANCH  25  26
ATOM     26  C   UNL A   1      34.888  34.579  31.076  1.00  0.00     0.202 C 
BRANCH  26  27
ATOM     27  C   UNL A   1      34.198  33.584  32.028  1.00  0.00     0.261 C 
BRANCH  27  28
ATOM     28  O   UNL A   1      34.758  32.260  32.086  1.00  0.00    -0.460 OA
BRANCH  28  29
ATOM     29  C   UNL A   1      35.884  32.123  32.833  1.00  0.00     0.338 C 
ATOM     30  O   UNL A   1      36.029  32.402  34.008  1.00  0.00    -0.246 OA
BRANCH  29  31
ATOM     31  C   UNL A   1      36.899  31.368  32.062  1.00  0.00     0.060 A 
ATOM     32  C   UNL A   1      37.854  30.614  32.765  1.00  0.00     0.016 A 
ATOM     33  C   UNL A   1      36.933  31.418  30.670  1.00  0.00     0.016 A 
ATOM     34  C   UNL A   1      38.852  29.921  32.079  1.00  0.00     0.010 A 
ATOM     35  C   UNL A   1      37.958  30.754  29.985  1.00  0.00     0.010 A 
ATOM     36  C   UNL A   1      38.938  30.027  30.687  1.00  0.00    -0.014 A 
BRANCH  36  37
ATOM     37  C   UNL A   1      40.161  29.558  29.990  1.00  0.00     0.031 A 
ATOM     38  C   UNL A   1      41.286  30.535  29.786  1.00  0.00     0.074 A 
ATOM     39  C   UNL A   1      40.285  28.292  29.554  1.00  0.00     0.049 A 
ATOM     40  N   UNL A   1      42.417  30.386  29.145  1.00  0.00    -0.248 NA
ATOM     41  C   UNL A   1      41.103  31.866  30.385  1.00  0.00     0.031 C 
ATOM     42  C   UNL A   1      39.290  27.237  29.725  1.00  0.00     0.029 A 
ATOM     43  N   UNL A   1      41.303  27.689  28.854  1.00  0.00    -0.354 N 
ATOM     44  C   UNL A   1      43.069  31.608  29.245  1.00  0.00     0.074 A 
ATOM     45  C   UNL A   1      42.198  32.494  29.988  1.00  0.00     0.031 C 
ATOM     46  C   UNL A   1      39.734  26.121  29.121  1.00  0.00     0.029 A 
ATOM     47  C   UNL A   1      41.026  26.394  28.490  1.00  0.00     0.049 A 
ATOM     48  H   UNL A   1      42.149  28.142  28.635  1.00  0.00     0.167 HD
ATOM     49  C   UNL A   1      44.284  31.960  28.761  1.00  0.00     0.037 A 
ATOM     50  C   UNL A   1      41.721  25.542  27.711  1.00  0.00     0.037 A 
ATOM     51  C   UNL A   1      45.147  31.077  28.023  1.00  0.00     0.049 A 
ATOM     52  C   UNL A   1      43.044  25.974  27.128  1.00  0.00     0.074 A 
ATOM     53  C   UNL A   1      46.415  31.327  27.526  1.00  0.00     0.029 A 
ATOM     54  N   UNL A   1      44.826  29.779  27.658  1.00  0.00    -0.354 N 
ATOM     55  N   UNL A   1      43.674  27.117  27.257  1.00  0.00    -0.248 NA
ATOM     56  C   UNL A   1      43.756  24.993  26.295  1.00  0.00     0.031 C 
ATOM     57  C   UNL A   1      46.828  30.207  26.799  1.00  0.00     0.029 A 
ATOM     58  C   UNL A   1      45.854  29.228  26.907  1.00  0.00     0.049 A 
ATOM     59  H   UNL A   1      43.990  29.315  27.896  1.00  0.00     0.167 HD
ATOM     60  C   UNL A   1      44.862  26.985  26.548  1.00  0.00     0.074 A 
ATOM     61  C   UNL A   1      44.873  25.644  26.002  1.00  0.00     0.031 C 
ATOM     62  C   UNL A   1      45.855  27.891  26.367  1.00  0.00     0.037 A 
BRANCH  49  63
ATOM     63  C   UNL A   1      44.729  33.379  28.976  1.00  0.00     0.064 A 
ATOM     64  C   UNL A   1      44.394  34.410  28.085  1.00  0.00     0.173 A 
ATOM     65  C   UNL A   1      45.492  33.713  30.107  1.00  0.00     0.173 A 
ATOM     66  F   UNL A   1      43.679  34.144  26.983  1.00  0.00    -0.203 F 
ATOM     67  C   UNL A   1      44.837  35.713  28.299  1.00  0.00     0.198 A 
ATOM     68  C   UNL A   1      45.901  35.023  30.336  1.00  0.00     0.198 A 
ATOM     69  F   UNL A   1      45.836  32.768  30.994  1.00  0.00    -0.203 F 
ATOM     70  F   UNL A   1      44.556  36.670  27.403  1.00  0.00    -0.200 F 
ATOM     71  C   UNL A   1      45.583  36.020  29.427  1.00  0.00     0.200 A 
ATOM     72  F   UNL A   1      46.609  35.320  31.435  1.00  0.00    -0.200 F 
ATOM     73  F   UNL A   1      46.004  37.276  29.633  1.00  0.00    -0.200 F 
ENDBRANCH  49  63
BRANCH  50  74
ATOM     74  C   UNL A   1      41.162  24.196  27.409  1.00  0.00     0.064 A 
ATOM     75  C   UNL A   1      40.081  24.038  26.532  1.00  0.00     0.173 A 
ATOM     76  C   UNL A   1      41.694  23.042  28.002  1.00  0.00     0.173 A 
ATOM     77  F   UNL A   1      39.516  25.114  25.963  1.00  0.00    -0.203 F 
ATOM     78  C   UNL A   1      39.544  22.778  26.271  1.00  0.00     0.198 A 
ATOM     79  C   UNL A   1      41.177  21.779  27.715  1.00  0.00     0.198 A 
ATOM     80  F   UNL A   1      42.724  23.138  28.855  1.00  0.00    -0.203 F 
ATOM     81  F   UNL A   1      38.479  22.660  25.465  1.00  0.00    -0.200 F 
ATOM     82  C   UNL A   1      40.098  21.649  26.855  1.00  0.00     0.200 A 
ATOM     83  F   UNL A   1      41.723  20.692  28.276  1.00  0.00    -0.200 F 
ATOM     84  F   UNL A   1      39.587  20.438  26.598  1.00  0.00    -0.200 F 
ENDBRANCH  50  74
BRANCH  62  85
ATOM     85  C   UNL A   1      47.060  27.458  25.577  1.00  0.00     0.064 A 
ATOM     86  C   UNL A   1      47.152  27.662  24.192  1.00  0.00     0.173 A 
ATOM     87  C   UNL A   1      48.159  26.872  26.225  1.00  0.00     0.173 A 
ATOM     88  F   UNL A   1      46.127  28.208  23.520  1.00  0.00    -0.203 F 
ATOM     89  C   UNL A   1      48.285  27.267  23.482  1.00  0.00     0.198 A 
ATOM     90  C   UNL A   1      49.305  26.512  25.519  1.00  0.00     0.198 A 
ATOM     91  F   UNL A   1      48.132  26.662  27.550  1.00  0.00    -0.203 F 
ATOM     92  F   UNL A   1      48.328  27.425  22.152  1.00  0.00    -0.200 F 
ATOM     93  C   UNL A   1      49.363  26.702  24.147  1.00  0.00     0.200 A 
ATOM     94  F   UNL A   1      50.351  25.984  26.167  1.00  0.00    -0.200 F 
ATOM     95  F   UNL A   1      50.455  26.333  23.464  1.00  0.00    -0.200 F 
ENDBRANCH  62  85
ENDBRANCH  36  37
ENDBRANCH  29  31
ENDBRANCH  28  29
ENDBRANCH  27  28
ENDBRANCH  26  27
ENDBRANCH  25  26
ENDBRANCH  24  25
ENDBRANCH   1  24
TORSDOF 19
ENDMDL
