MODEL 1
REMARK VINA RESULT:     -10.4      0.000      0.000
REMARK SMILES CO[C@@H]1C[C@@H](C(=O)OCCOCCOCCOC(=O)c2ccc(-c3c4nc(c(-c5c(F)c(F)c(F)c(F)c5F)c5ccc([nH]5)c(-c5c(F)c(F)c(F)c(F)c5F)c5nc(c(-c6c(F)c(F)c(F)c(F)c6F)c6ccc3[nH]6)C=C5)C=C4)cc2)N(C(=O)CSc2cccs2)C1
REMARK SMILES IDX 12 1 11 2 10 3 9 4 8 5 6 6 7 7 5 8 3 9 4 10 93 11 83 12 2 13
REMARK SMILES IDX 1 14 84 15 85 16 86 17 87 18 88 19 89 20 92 21 90 22 91 23
REMARK SMILES IDX 13 24 14 25 15 26 16 27 17 28 18 29 19 30 20 31 21 32 82 33
REMARK SMILES IDX 22 34 81 35 23 36 24 37 25 38 75 39 26 40 80 41 74 42 76 43
REMARK SMILES IDX 27 44 79 45 73 46 72 47 28 49 60 50 40 51 59 52 41 53 44 54
REMARK SMILES IDX 58 55 77 56 42 57 43 58 57 60 78 61 45 62 29 63 30 64 38 65
REMARK SMILES IDX 31 66 32 67 36 68 39 69 33 70 34 71 37 72 35 73 61 74 62 75
REMARK SMILES IDX 70 76 63 77 64 78 68 79 71 80 65 81 66 82 69 83 67 84 46 85
REMARK SMILES IDX 47 86 55 87 48 88 49 89 53 90 56 91 50 92 51 93 54 94 52 95
REMARK H PARENT 76 48 44 59
REMARK Flexibility Score: inf
ROOT
ATOM      1  C   UNL A   1      34.451  32.732  27.999  1.00  0.00     0.188 C 
ENDROOT
BRANCH   1   2
ATOM      2  O   UNL A   1      33.964  31.540  27.415  1.00  0.00    -0.376 OA
BRANCH   2   3
ATOM      3  C   UNL A   1      32.570  31.331  27.293  1.00  0.00     0.202 C 
BRANCH   3   4
ATOM      4  C   UNL A   1      32.097  30.194  26.378  1.00  0.00     0.261 C 
BRANCH   4   5
ATOM      5  O   UNL A   1      32.651  28.867  26.554  1.00  0.00    -0.462 OA
BRANCH   5   6
ATOM      6  C   UNL A   1      31.836  27.782  26.606  1.00  0.00     0.329 C 
ATOM      7  O   UNL A   1      31.019  27.588  27.493  1.00  0.00    -0.250 OA
BRANCH   6   8
ATOM      8  C   UNL A   1      32.080  26.834  25.425  1.00  0.00     0.197 C 
ATOM      9  C   UNL A   1      31.033  26.253  23.281  1.00  0.00     0.140 C 
ATOM     10  C   UNL A   1      31.353  27.421  24.197  1.00  0.00     0.071 C 
ATOM     11  C   UNL A   1      31.010  25.035  24.198  1.00  0.00     0.152 C 
ATOM     12  N   UNL A   1      31.559  25.449  25.492  1.00  0.00    -0.325 N 
BRANCH   9  13
ATOM     13  O   UNL A   1      31.877  26.176  22.137  1.00  0.00    -0.380 OA
ATOM     14  C   UNL A   1      32.752  25.067  22.036  1.00  0.00     0.195 C 
ENDBRANCH   9  13
BRANCH  12  15
ATOM     15  C   UNL A   1      31.814  24.437  26.407  1.00  0.00     0.233 C 
ATOM     16  O   UNL A   1      30.930  24.106  27.211  1.00  0.00    -0.274 OA
BRANCH  15  17
ATOM     17  C   UNL A   1      33.197  23.837  26.603  1.00  0.00     0.175 C 
BRANCH  17  18
ATOM     18  S   UNL A   1      33.243  22.274  27.508  1.00  0.00    -0.105 SA
BRANCH  18  19
ATOM     19  C   UNL A   1      34.036  21.230  26.365  1.00  0.00     0.060 A 
ATOM     20  C   UNL A   1      35.363  21.279  26.003  1.00  0.00     0.027 A 
ATOM     21  S   UNL A   1      33.174  20.031  25.513  1.00  0.00    -0.137 S 
ATOM     22  C   UNL A   1      35.672  20.317  24.998  1.00  0.00     0.013 A 
ATOM     23  C   UNL A   1      34.569  19.573  24.641  1.00  0.00     0.066 A 
ENDBRANCH  18  19
ENDBRANCH  17  18
ENDBRANCH  15  17
ENDBRANCH  12  15
ENDBRANCH   6   8
ENDBRANCH   5   6
ENDBRANCH   4   5
ENDBRANCH   3   4
ENDBRANCH   2   3
ENDBRANCH   1   2
BRANCH   1  24
ATOM     24  C   UNL A   1      33.375  33.819  28.154  1.00  0.00     0.188 C 
BRANCH  24  25
ATOM     25  O   UNL A   1      33.179  34.401  29.438  1.00  0.00    -0.376 OA
BRANCH  25  26
ATOM     26  C   UNL A   1      34.313  34.695  30.245  1.00  0.00     0.202 C 
BRANCH  26  27
ATOM     27  C   UNL A   1      34.365  34.028  31.621  1.00  0.00     0.261 C 
BRANCH  27  28
ATOM     28  O   UNL A   1      34.644  32.614  31.560  1.00  0.00    -0.460 OA
BRANCH  28  29
ATOM     29  C   UNL A   1      35.584  32.161  32.423  1.00  0.00     0.338 C 
ATOM     30  O   UNL A   1      35.617  32.327  33.631  1.00  0.00    -0.246 OA
BRANCH  29  31
ATOM     31  C   UNL A   1      36.548  31.276  31.731  1.00  0.00     0.060 A 
ATOM     32  C   UNL A   1      37.473  30.571  32.515  1.00  0.00     0.016 A 
ATOM     33  C   UNL A   1      36.624  31.221  30.338  1.00  0.00     0.016 A 
ATOM     34  C   UNL A   1      38.514  29.860  31.911  1.00  0.00     0.010 A 
ATOM     35  C   UNL A   1      37.677  30.522  29.734  1.00  0.00     0.010 A 
ATOM     36  C   UNL A   1      38.653  29.875  30.517  1.00  0.00    -0.014 A 
BRANCH  36  37
ATOM     37  C   UNL A   1      39.912  29.402  29.884  1.00  0.00     0.031 A 
ATOM     38  C   UNL A   1      41.060  30.368  29.753  1.00  0.00     0.074 A 
ATOM     39  C   UNL A   1      40.050  28.145  29.431  1.00  0.00     0.049 A 
ATOM     40  N   UNL A   1      42.218  30.216  29.163  1.00  0.00    -0.248 NA
ATOM     41  C   UNL A   1      40.870  31.689  30.374  1.00  0.00     0.031 C 
ATOM     42  C   UNL A   1      39.052  27.086  29.550  1.00  0.00     0.029 A 
ATOM     43  N   UNL A   1      41.097  27.551  28.766  1.00  0.00    -0.354 N 
ATOM     44  C   UNL A   1      42.890  31.420  29.331  1.00  0.00     0.074 A 
ATOM     45  C   UNL A   1      42.002  32.301  30.061  1.00  0.00     0.031 C 
ATOM     46  C   UNL A   1      39.529  25.973  28.964  1.00  0.00     0.029 A 
ATOM     47  C   UNL A   1      40.849  26.253  28.396  1.00  0.00     0.049 A 
ATOM     48  H   UNL A   1      41.944  28.014  28.572  1.00  0.00     0.167 HD
ATOM     49  C   UNL A   1      44.133  31.764  28.918  1.00  0.00     0.037 A 
ATOM     50  C   UNL A   1      41.590  25.400  27.662  1.00  0.00     0.037 A 
ATOM     51  C   UNL A   1      45.021  30.898  28.191  1.00  0.00     0.049 A 
ATOM     52  C   UNL A   1      42.927  25.843  27.119  1.00  0.00     0.074 A 
ATOM     53  C   UNL A   1      46.310  31.152  27.751  1.00  0.00     0.029 A 
ATOM     54  N   UNL A   1      44.709  29.609  27.785  1.00  0.00    -0.354 N 
ATOM     55  N   UNL A   1      43.562  26.975  27.295  1.00  0.00    -0.248 NA
ATOM     56  C   UNL A   1      43.646  24.882  26.267  1.00  0.00     0.031 C 
ATOM     57  C   UNL A   1      46.758  30.036  27.035  1.00  0.00     0.029 A 
ATOM     58  C   UNL A   1      45.767  29.068  27.071  1.00  0.00     0.049 A 
ATOM     59  H   UNL A   1      43.861  29.148  27.975  1.00  0.00     0.167 HD
ATOM     60  C   UNL A   1      44.766  26.851  26.610  1.00  0.00     0.074 A 
ATOM     61  C   UNL A   1      44.774  25.532  26.014  1.00  0.00     0.031 C 
ATOM     62  C   UNL A   1      45.774  27.750  26.492  1.00  0.00     0.037 A 
BRANCH  49  63
ATOM     63  C   UNL A   1      44.590  33.163  29.213  1.00  0.00     0.064 A 
ATOM     64  C   UNL A   1      44.454  34.197  28.275  1.00  0.00     0.173 A 
ATOM     65  C   UNL A   1      45.162  33.471  30.455  1.00  0.00     0.173 A 
ATOM     66  F   UNL A   1      43.926  33.949  27.068  1.00  0.00    -0.203 F 
ATOM     67  C   UNL A   1      44.904  35.484  28.560  1.00  0.00     0.198 A 
ATOM     68  C   UNL A   1      45.587  34.764  30.747  1.00  0.00     0.198 A 
ATOM     69  F   UNL A   1      45.311  32.518  31.387  1.00  0.00    -0.203 F 
ATOM     70  F   UNL A   1      44.813  36.445  27.632  1.00  0.00    -0.200 F 
ATOM     71  C   UNL A   1      45.466  35.768  29.796  1.00  0.00     0.200 A 
ATOM     72  F   UNL A   1      46.121  35.039  31.945  1.00  0.00    -0.200 F 
ATOM     73  F   UNL A   1      45.901  37.005  30.069  1.00  0.00    -0.200 F 
ENDBRANCH  49  63
BRANCH  50  74
ATOM     74  C   UNL A   1      41.085  24.032  27.376  1.00  0.00     0.064 A 
ATOM     75  C   UNL A   1      39.994  23.834  26.518  1.00  0.00     0.173 A 
ATOM     76  C   UNL A   1      41.658  22.902  27.977  1.00  0.00     0.173 A 
ATOM     77  F   UNL A   1      39.389  24.889  25.951  1.00  0.00    -0.203 F 
ATOM     78  C   UNL A   1      39.486  22.558  26.283  1.00  0.00     0.198 A 
ATOM     79  C   UNL A   1      41.165  21.624  27.721  1.00  0.00     0.198 A 
ATOM     80  F   UNL A   1      42.694  23.040  28.817  1.00  0.00    -0.203 F 
ATOM     81  F   UNL A   1      38.412  22.401  25.497  1.00  0.00    -0.200 F 
ATOM     82  C   UNL A   1      40.076  21.454  26.879  1.00  0.00     0.200 A 
ATOM     83  F   UNL A   1      41.739  20.560  28.297  1.00  0.00    -0.200 F 
ATOM     84  F   UNL A   1      39.586  20.227  26.654  1.00  0.00    -0.200 F 
ENDBRANCH  50  74
BRANCH  62  85
ATOM     85  C   UNL A   1      46.996  27.326  25.729  1.00  0.00     0.064 A 
ATOM     86  C   UNL A   1      47.149  27.605  24.363  1.00  0.00     0.173 A 
ATOM     87  C   UNL A   1      48.050  26.672  26.385  1.00  0.00     0.173 A 
ATOM     88  F   UNL A   1      46.165  28.216  23.686  1.00  0.00    -0.203 F 
ATOM     89  C   UNL A   1      48.302  27.228  23.679  1.00  0.00     0.198 A 
ATOM     90  C   UNL A   1      49.214  26.319  25.705  1.00  0.00     0.198 A 
ATOM     91  F   UNL A   1      47.959  26.386  27.693  1.00  0.00    -0.203 F 
ATOM     92  F   UNL A   1      48.409  27.469  22.365  1.00  0.00    -0.200 F 
ATOM     93  C   UNL A   1      49.336  26.592  24.351  1.00  0.00     0.200 A 
ATOM     94  F   UNL A   1      50.215  25.717  26.360  1.00  0.00    -0.200 F 
ATOM     95  F   UNL A   1      50.447  26.237  23.693  1.00  0.00    -0.200 F 
ENDBRANCH  62  85
ENDBRANCH  36  37
ENDBRANCH  29  31
ENDBRANCH  28  29
ENDBRANCH  27  28
ENDBRANCH  26  27
ENDBRANCH  25  26
ENDBRANCH  24  25
ENDBRANCH   1  24
TORSDOF 22
ENDMDL
MODEL 2
REMARK VINA RESULT:     -10.4      2.004      3.951
REMARK SMILES CO[C@@H]1C[C@@H](C(=O)OCCOCCOCCOC(=O)c2ccc(-c3c4nc(c(-c5c(F)c(F)c(F)c(F)c5F)c5ccc([nH]5)c(-c5c(F)c(F)c(F)c(F)c5F)c5nc(c(-c6c(F)c(F)c(F)c(F)c6F)c6ccc3[nH]6)C=C5)C=C4)cc2)N(C(=O)CSc2cccs2)C1
REMARK SMILES IDX 12 1 11 2 10 3 9 4 8 5 6 6 7 7 5 8 3 9 4 10 93 11 83 12 2 13
REMARK SMILES IDX 1 14 84 15 85 16 86 17 87 18 88 19 89 20 92 21 90 22 91 23
REMARK SMILES IDX 13 24 14 25 15 26 16 27 17 28 18 29 19 30 20 31 21 32 82 33
REMARK SMILES IDX 22 34 81 35 23 36 24 37 25 38 75 39 26 40 80 41 74 42 76 43
REMARK SMILES IDX 27 44 79 45 73 46 72 47 28 49 60 50 40 51 59 52 41 53 44 54
REMARK SMILES IDX 58 55 77 56 42 57 43 58 57 60 78 61 45 62 29 63 30 64 38 65
REMARK SMILES IDX 31 66 32 67 36 68 39 69 33 70 34 71 37 72 35 73 61 74 62 75
REMARK SMILES IDX 70 76 63 77 64 78 68 79 71 80 65 81 66 82 69 83 67 84 46 85
REMARK SMILES IDX 47 86 55 87 48 88 49 89 53 90 56 91 50 92 51 93 54 94 52 95
REMARK H PARENT 76 48 44 59
REMARK Flexibility Score: inf
ROOT
ATOM      1  C   UNL A   1      34.214  32.588  27.860  1.00  0.00     0.188 C 
ENDROOT
BRANCH   1   2
ATOM      2  O   UNL A   1      33.628  31.314  28.040  1.00  0.00    -0.376 OA
BRANCH   2   3
ATOM      3  C   UNL A   1      33.013  30.657  26.947  1.00  0.00     0.202 C 
BRANCH   3   4
ATOM      4  C   UNL A   1      31.903  29.646  27.256  1.00  0.00     0.261 C 
BRANCH   4   5
ATOM      5  O   UNL A   1      32.196  28.229  27.185  1.00  0.00    -0.462 OA
BRANCH   5   6
ATOM      6  C   UNL A   1      33.284  27.785  26.504  1.00  0.00     0.329 C 
ATOM      7  O   UNL A   1      34.428  28.139  26.746  1.00  0.00    -0.250 OA
BRANCH   6   8
ATOM      8  C   UNL A   1      32.892  26.802  25.392  1.00  0.00     0.197 C 
ATOM      9  C   UNL A   1      33.942  25.050  24.030  1.00  0.00     0.140 C 
ATOM     10  C   UNL A   1      33.896  25.630  25.432  1.00  0.00     0.071 C 
ATOM     11  C   UNL A   1      33.489  26.188  23.123  1.00  0.00     0.152 C 
ATOM     12  N   UNL A   1      32.953  27.248  23.981  1.00  0.00    -0.325 N 
BRANCH   9  13
ATOM     13  O   UNL A   1      33.247  23.814  23.900  1.00  0.00    -0.380 OA
ATOM     14  C   UNL A   1      33.997  22.670  23.535  1.00  0.00     0.195 C 
ENDBRANCH   9  13
BRANCH  12  15
ATOM     15  C   UNL A   1      32.300  28.292  23.341  1.00  0.00     0.233 C 
ATOM     16  O   UNL A   1      32.861  28.875  22.401  1.00  0.00    -0.274 OA
BRANCH  15  17
ATOM     17  C   UNL A   1      31.001  28.888  23.857  1.00  0.00     0.175 C 
BRANCH  17  18
ATOM     18  S   UNL A   1      29.552  28.615  22.813  1.00  0.00    -0.105 SA
BRANCH  18  19
ATOM     19  C   UNL A   1      29.028  30.245  22.508  1.00  0.00     0.060 A 
ATOM     20  C   UNL A   1      28.671  30.770  21.287  1.00  0.00     0.027 A 
ATOM     21  S   UNL A   1      28.963  31.404  23.757  1.00  0.00    -0.137 S 
ATOM     22  C   UNL A   1      28.347  32.154  21.381  1.00  0.00     0.013 A 
ATOM     23  C   UNL A   1      28.466  32.625  22.670  1.00  0.00     0.066 A 
ENDBRANCH  18  19
ENDBRANCH  17  18
ENDBRANCH  15  17
ENDBRANCH  12  15
ENDBRANCH   6   8
ENDBRANCH   5   6
ENDBRANCH   4   5
ENDBRANCH   3   4
ENDBRANCH   2   3
ENDBRANCH   1   2
BRANCH   1  24
ATOM     24  C   UNL A   1      33.220  33.747  28.035  1.00  0.00     0.188 C 
BRANCH  24  25
ATOM     25  O   UNL A   1      33.252  34.490  29.249  1.00  0.00    -0.376 OA
BRANCH  25  26
ATOM     26  C   UNL A   1      34.430  34.463  30.046  1.00  0.00     0.202 C 
BRANCH  26  27
ATOM     27  C   UNL A   1      34.277  33.939  31.475  1.00  0.00     0.261 C 
BRANCH  27  28
ATOM     28  O   UNL A   1      34.474  32.515  31.586  1.00  0.00    -0.460 OA
BRANCH  28  29
ATOM     29  C   UNL A   1      35.458  32.120  32.429  1.00  0.00     0.338 C 
ATOM     30  O   UNL A   1      35.528  32.329  33.629  1.00  0.00    -0.246 OA
BRANCH  29  31
ATOM     31  C   UNL A   1      36.422  31.239  31.733  1.00  0.00     0.060 A 
ATOM     32  C   UNL A   1      37.296  30.471  32.517  1.00  0.00     0.016 A 
ATOM     33  C   UNL A   1      36.551  31.246  30.343  1.00  0.00     0.016 A 
ATOM     34  C   UNL A   1      38.338  29.757  31.919  1.00  0.00     0.010 A 
ATOM     35  C   UNL A   1      37.607  30.545  29.746  1.00  0.00     0.010 A 
ATOM     36  C   UNL A   1      38.532  29.833  30.534  1.00  0.00    -0.014 A 
BRANCH  36  37
ATOM     37  C   UNL A   1      39.801  29.351  29.928  1.00  0.00     0.031 A 
ATOM     38  C   UNL A   1      40.960  30.308  29.827  1.00  0.00     0.074 A 
ATOM     39  C   UNL A   1      39.938  28.095  29.472  1.00  0.00     0.049 A 
ATOM     40  N   UNL A   1      42.131  30.148  29.263  1.00  0.00    -0.248 NA
ATOM     41  C   UNL A   1      40.768  31.627  30.451  1.00  0.00     0.031 C 
ATOM     42  C   UNL A   1      38.929  27.045  29.562  1.00  0.00     0.029 A 
ATOM     43  N   UNL A   1      40.994  27.495  28.827  1.00  0.00    -0.354 N 
ATOM     44  C   UNL A   1      42.809  31.345  29.453  1.00  0.00     0.074 A 
ATOM     45  C   UNL A   1      41.913  32.230  30.167  1.00  0.00     0.031 C 
ATOM     46  C   UNL A   1      39.408  25.930  28.982  1.00  0.00     0.029 A 
ATOM     47  C   UNL A   1      40.744  26.201  28.445  1.00  0.00     0.049 A 
ATOM     48  H   UNL A   1      41.850  27.952  28.655  1.00  0.00     0.167 HD
ATOM     49  C   UNL A   1      44.064  31.680  29.069  1.00  0.00     0.037 A 
ATOM     50  C   UNL A   1      41.494  25.345  27.724  1.00  0.00     0.037 A 
ATOM     51  C   UNL A   1      44.961  30.809  28.359  1.00  0.00     0.049 A 
ATOM     52  C   UNL A   1      42.846  25.778  27.214  1.00  0.00     0.074 A 
ATOM     53  C   UNL A   1      46.261  31.054  27.950  1.00  0.00     0.029 A 
ATOM     54  N   UNL A   1      44.647  29.525  27.939  1.00  0.00    -0.354 N 
ATOM     55  N   UNL A   1      43.488  26.904  27.410  1.00  0.00    -0.248 NA
ATOM     56  C   UNL A   1      43.576  24.815  26.374  1.00  0.00     0.031 C 
ATOM     57  C   UNL A   1      46.716  29.937  27.238  1.00  0.00     0.029 A 
ATOM     58  C   UNL A   1      45.716  28.978  27.247  1.00  0.00     0.049 A 
ATOM     59  H   UNL A   1      43.790  29.070  28.108  1.00  0.00     0.167 HD
ATOM     60  C   UNL A   1      44.705  26.772  26.752  1.00  0.00     0.074 A 
ATOM     61  C   UNL A   1      44.716  25.456  26.150  1.00  0.00     0.031 C 
ATOM     62  C   UNL A   1      45.724  27.662  26.661  1.00  0.00     0.037 A 
BRANCH  49  63
ATOM     63  C   UNL A   1      44.527  33.073  29.382  1.00  0.00     0.064 A 
ATOM     64  C   UNL A   1      45.195  33.378  30.577  1.00  0.00     0.173 A 
ATOM     65  C   UNL A   1      44.306  34.112  28.466  1.00  0.00     0.173 A 
ATOM     66  F   UNL A   1      45.417  32.422  31.490  1.00  0.00    -0.203 F 
ATOM     67  C   UNL A   1      45.596  34.682  30.858  1.00  0.00     0.198 A 
ATOM     68  C   UNL A   1      44.733  35.408  28.739  1.00  0.00     0.198 A 
ATOM     69  F   UNL A   1      43.675  33.871  27.308  1.00  0.00    -0.203 F 
ATOM     70  F   UNL A   1      46.186  34.962  32.028  1.00  0.00    -0.200 F 
ATOM     71  C   UNL A   1      45.369  35.695  29.938  1.00  0.00     0.200 A 
ATOM     72  F   UNL A   1      44.521  36.384  27.845  1.00  0.00    -0.200 F 
ATOM     73  F   UNL A   1      45.754  36.949  30.210  1.00  0.00    -0.200 F 
ENDBRANCH  49  63
BRANCH  50  74
ATOM     74  C   UNL A   1      40.983  23.983  27.420  1.00  0.00     0.064 A 
ATOM     75  C   UNL A   1      41.558  22.851  28.015  1.00  0.00     0.173 A 
ATOM     76  C   UNL A   1      39.938  23.783  26.506  1.00  0.00     0.173 A 
ATOM     77  F   UNL A   1      42.586  22.992  28.865  1.00  0.00    -0.203 F 
ATOM     78  C   UNL A   1      41.115  21.569  27.698  1.00  0.00     0.198 A 
ATOM     79  C   UNL A   1      39.479  22.501  26.209  1.00  0.00     0.198 A 
ATOM     80  F   UNL A   1      39.365  24.832  25.899  1.00  0.00    -0.203 F 
ATOM     81  F   UNL A   1      41.713  20.502  28.244  1.00  0.00    -0.200 F 
ATOM     82  C   UNL A   1      40.072  21.395  26.801  1.00  0.00     0.200 A 
ATOM     83  F   UNL A   1      38.470  22.337  25.344  1.00  0.00    -0.200 F 
ATOM     84  F   UNL A   1      39.647  20.161  26.495  1.00  0.00    -0.200 F 
ENDBRANCH  50  74
BRANCH  62  85
ATOM     85  C   UNL A   1      46.960  27.231  25.924  1.00  0.00     0.064 A 
ATOM     86  C   UNL A   1      47.983  26.510  26.556  1.00  0.00     0.173 A 
ATOM     87  C   UNL A   1      47.100  27.504  24.554  1.00  0.00     0.173 A 
ATOM     88  F   UNL A   1      47.905  26.236  27.866  1.00  0.00    -0.203 F 
ATOM     89  C   UNL A   1      49.109  26.095  25.848  1.00  0.00     0.198 A 
ATOM     90  C   UNL A   1      48.214  27.065  23.843  1.00  0.00     0.198 A 
ATOM     91  F   UNL A   1      46.146  28.185  23.900  1.00  0.00    -0.203 F 
ATOM     92  F   UNL A   1      50.094  25.443  26.481  1.00  0.00    -0.200 F 
ATOM     93  C   UNL A   1      49.221  26.367  24.492  1.00  0.00     0.200 A 
ATOM     94  F   UNL A   1      48.312  27.318  22.531  1.00  0.00    -0.200 F 
ATOM     95  F   UNL A   1      50.301  25.961  23.812  1.00  0.00    -0.200 F 
ENDBRANCH  62  85
ENDBRANCH  36  37
ENDBRANCH  29  31
ENDBRANCH  28  29
ENDBRANCH  27  28
ENDBRANCH  26  27
ENDBRANCH  25  26
ENDBRANCH  24  25
ENDBRANCH   1  24
TORSDOF 22
ENDMDL
MODEL 3
REMARK VINA RESULT:      -9.7      1.332      2.313
REMARK SMILES CO[C@@H]1C[C@@H](C(=O)OCCOCCOCCOC(=O)c2ccc(-c3c4nc(c(-c5c(F)c(F)c(F)c(F)c5F)c5ccc([nH]5)c(-c5c(F)c(F)c(F)c(F)c5F)c5nc(c(-c6c(F)c(F)c(F)c(F)c6F)c6ccc3[nH]6)C=C5)C=C4)cc2)N(C(=O)CSc2cccs2)C1
REMARK SMILES IDX 12 1 11 2 10 3 9 4 8 5 6 6 7 7 5 8 3 9 4 10 93 11 83 12 2 13
REMARK SMILES IDX 1 14 84 15 85 16 86 17 87 18 88 19 89 20 92 21 90 22 91 23
REMARK SMILES IDX 13 24 14 25 15 26 16 27 17 28 18 29 19 30 20 31 21 32 82 33
REMARK SMILES IDX 22 34 81 35 23 36 24 37 25 38 75 39 26 40 80 41 74 42 76 43
REMARK SMILES IDX 27 44 79 45 73 46 72 47 28 49 60 50 40 51 59 52 41 53 44 54
REMARK SMILES IDX 58 55 77 56 42 57 43 58 57 60 78 61 45 62 29 63 30 64 38 65
REMARK SMILES IDX 31 66 32 67 36 68 39 69 33 70 34 71 37 72 35 73 61 74 62 75
REMARK SMILES IDX 70 76 63 77 64 78 68 79 71 80 65 81 66 82 69 83 67 84 46 85
REMARK SMILES IDX 47 86 55 87 48 88 49 89 53 90 56 91 50 92 51 93 54 94 52 95
REMARK H PARENT 76 48 44 59
REMARK Flexibility Score: inf
ROOT
ATOM      1  C   UNL A   1      34.300  32.910  27.862  1.00  0.00     0.188 C 
ENDROOT
BRANCH   1   2
ATOM      2  O   UNL A   1      33.802  31.587  27.880  1.00  0.00    -0.376 OA
BRANCH   2   3
ATOM      3  C   UNL A   1      32.907  31.154  26.873  1.00  0.00     0.202 C 
BRANCH   3   4
ATOM      4  C   UNL A   1      32.047  29.918  27.166  1.00  0.00     0.261 C 
BRANCH   4   5
ATOM      5  O   UNL A   1      31.902  28.899  26.147  1.00  0.00    -0.462 OA
BRANCH   5   6
ATOM      6  C   UNL A   1      32.452  29.072  24.918  1.00  0.00     0.329 C 
ATOM      7  O   UNL A   1      33.628  29.347  24.732  1.00  0.00    -0.250 OA
BRANCH   6   8
ATOM      8  C   UNL A   1      31.412  28.896  23.803  1.00  0.00     0.197 C 
ATOM      9  C   UNL A   1      29.007  29.250  23.455  1.00  0.00     0.140 C 
ATOM     10  C   UNL A   1      30.240  29.854  24.103  1.00  0.00     0.071 C 
ATOM     11  C   UNL A   1      29.318  27.762  23.340  1.00  0.00     0.152 C 
ATOM     12  N   UNL A   1      30.740  27.585  23.643  1.00  0.00    -0.325 N 
BRANCH   9  13
ATOM     13  O   UNL A   1      28.607  29.913  22.260  1.00  0.00    -0.380 OA
ATOM     14  C   UNL A   1      29.621  30.308  21.353  1.00  0.00     0.195 C 
ENDBRANCH   9  13
BRANCH  12  15
ATOM     15  C   UNL A   1      31.274  26.328  23.398  1.00  0.00     0.233 C 
ATOM     16  O   UNL A   1      30.626  25.319  23.717  1.00  0.00    -0.274 OA
BRANCH  15  17
ATOM     17  C   UNL A   1      32.704  26.120  22.926  1.00  0.00     0.175 C 
BRANCH  17  18
ATOM     18  S   UNL A   1      32.948  24.761  21.762  1.00  0.00    -0.105 SA
BRANCH  18  19
ATOM     19  C   UNL A   1      33.515  23.496  22.813  1.00  0.00     0.060 A 
ATOM     20  C   UNL A   1      34.772  23.400  23.364  1.00  0.00     0.027 A 
ATOM     21  S   UNL A   1      32.522  22.172  23.222  1.00  0.00    -0.137 S 
ATOM     22  C   UNL A   1      34.922  22.208  24.131  1.00  0.00     0.013 A 
ATOM     23  C   UNL A   1      33.772  21.450  24.135  1.00  0.00     0.066 A 
ENDBRANCH  18  19
ENDBRANCH  17  18
ENDBRANCH  15  17
ENDBRANCH  12  15
ENDBRANCH   6   8
ENDBRANCH   5   6
ENDBRANCH   4   5
ENDBRANCH   3   4
ENDBRANCH   2   3
ENDBRANCH   1   2
BRANCH   1  24
ATOM     24  C   UNL A   1      33.219  33.971  28.127  1.00  0.00     0.188 C 
BRANCH  24  25
ATOM     25  O   UNL A   1      33.171  34.583  29.411  1.00  0.00    -0.376 OA
BRANCH  25  26
ATOM     26  C   UNL A   1      34.312  34.507  30.257  1.00  0.00     0.202 C 
BRANCH  26  27
ATOM     27  C   UNL A   1      34.098  33.884  31.639  1.00  0.00     0.261 C 
BRANCH  27  28
ATOM     28  O   UNL A   1      34.476  32.493  31.703  1.00  0.00    -0.460 OA
BRANCH  28  29
ATOM     29  C   UNL A   1      35.510  32.201  32.527  1.00  0.00     0.338 C 
ATOM     30  O   UNL A   1      35.618  32.494  33.706  1.00  0.00    -0.246 OA
BRANCH  29  31
ATOM     31  C   UNL A   1      36.488  31.321  31.850  1.00  0.00     0.060 A 
ATOM     32  C   UNL A   1      37.414  30.631  32.646  1.00  0.00     0.016 A 
ATOM     33  C   UNL A   1      36.576  31.257  30.458  1.00  0.00     0.016 A 
ATOM     34  C   UNL A   1      38.466  29.926  32.055  1.00  0.00     0.010 A 
ATOM     35  C   UNL A   1      37.641  30.564  29.867  1.00  0.00     0.010 A 
ATOM     36  C   UNL A   1      38.616  29.932  30.663  1.00  0.00    -0.014 A 
BRANCH  36  37
ATOM     37  C   UNL A   1      39.885  29.467  30.044  1.00  0.00     0.031 A 
ATOM     38  C   UNL A   1      41.031  30.438  29.932  1.00  0.00     0.074 A 
ATOM     39  C   UNL A   1      40.034  28.212  29.587  1.00  0.00     0.049 A 
ATOM     40  N   UNL A   1      42.198  30.293  29.356  1.00  0.00    -0.248 NA
ATOM     41  C   UNL A   1      40.829  31.754  30.558  1.00  0.00     0.031 C 
ATOM     42  C   UNL A   1      39.039  27.149  29.687  1.00  0.00     0.029 A 
ATOM     43  N   UNL A   1      41.091  27.626  28.931  1.00  0.00    -0.354 N 
ATOM     44  C   UNL A   1      42.863  31.498  29.540  1.00  0.00     0.074 A 
ATOM     45  C   UNL A   1      41.963  32.372  30.262  1.00  0.00     0.031 C 
ATOM     46  C   UNL A   1      39.526  26.041  29.101  1.00  0.00     0.029 A 
ATOM     47  C   UNL A   1      40.853  26.329  28.552  1.00  0.00     0.049 A 
ATOM     48  H   UNL A   1      41.939  28.093  28.751  1.00  0.00     0.167 HD
ATOM     49  C   UNL A   1      44.110  31.849  29.144  1.00  0.00     0.037 A 
ATOM     50  C   UNL A   1      41.606  25.482  27.823  1.00  0.00     0.037 A 
ATOM     51  C   UNL A   1      45.011  30.989  28.424  1.00  0.00     0.049 A 
ATOM     52  C   UNL A   1      42.948  25.932  27.300  1.00  0.00     0.074 A 
ATOM     53  C   UNL A   1      46.304  31.250  28.002  1.00  0.00     0.029 A 
ATOM     54  N   UNL A   1      44.708  29.702  28.008  1.00  0.00    -0.354 N 
ATOM     55  N   UNL A   1      43.578  27.066  27.490  1.00  0.00    -0.248 NA
ATOM     56  C   UNL A   1      43.682  24.979  26.452  1.00  0.00     0.031 C 
ATOM     57  C   UNL A   1      46.765  30.140  27.286  1.00  0.00     0.029 A 
ATOM     58  C   UNL A   1      45.778  29.168  27.305  1.00  0.00     0.049 A 
ATOM     59  H   UNL A   1      43.860  29.236  28.185  1.00  0.00     0.167 HD
ATOM     60  C   UNL A   1      44.790  26.950  26.820  1.00  0.00     0.074 A 
ATOM     61  C   UNL A   1      44.811  25.634  26.217  1.00  0.00     0.031 C 
ATOM     62  C   UNL A   1      45.796  27.853  26.719  1.00  0.00     0.037 A 
BRANCH  49  63
ATOM     63  C   UNL A   1      44.558  33.248  29.452  1.00  0.00     0.064 A 
ATOM     64  C   UNL A   1      44.322  34.310  28.567  1.00  0.00     0.173 A 
ATOM     65  C   UNL A   1      45.224  33.527  30.654  1.00  0.00     0.173 A 
ATOM     66  F   UNL A   1      43.702  34.091  27.398  1.00  0.00    -0.203 F 
ATOM     67  C   UNL A   1      44.765  35.597  28.861  1.00  0.00     0.198 A 
ATOM     68  C   UNL A   1      45.641  34.820  30.957  1.00  0.00     0.198 A 
ATOM     69  F   UNL A   1      45.470  32.547  31.535  1.00  0.00    -0.203 F 
ATOM     70  F   UNL A   1      44.576  36.588  27.979  1.00  0.00    -0.200 F 
ATOM     71  C   UNL A   1      45.420  35.852  30.057  1.00  0.00     0.200 A 
ATOM     72  F   UNL A   1      46.266  35.066  32.117  1.00  0.00    -0.200 F 
ATOM     73  F   UNL A   1      45.848  37.090  30.338  1.00  0.00    -0.200 F 
ENDBRANCH  49  63
BRANCH  50  74
ATOM     74  C   UNL A   1      41.110  24.114  27.524  1.00  0.00     0.064 A 
ATOM     75  C   UNL A   1      41.708  22.989  28.109  1.00  0.00     0.173 A 
ATOM     76  C   UNL A   1      40.056  23.901  26.624  1.00  0.00     0.173 A 
ATOM     77  F   UNL A   1      42.746  23.142  28.946  1.00  0.00    -0.203 F 
ATOM     78  C   UNL A   1      41.278  21.701  27.796  1.00  0.00     0.198 A 
ATOM     79  C   UNL A   1      39.610  22.613  26.331  1.00  0.00     0.198 A 
ATOM     80  F   UNL A   1      39.461  24.943  26.026  1.00  0.00    -0.203 F 
ATOM     81  F   UNL A   1      41.898  20.642  28.333  1.00  0.00    -0.200 F 
ATOM     82  C   UNL A   1      40.226  21.515  26.913  1.00  0.00     0.200 A 
ATOM     83  F   UNL A   1      38.592  22.437  25.480  1.00  0.00    -0.200 F 
ATOM     84  F   UNL A   1      39.813  20.276  26.611  1.00  0.00    -0.200 F 
ENDBRANCH  50  74
BRANCH  62  85
ATOM     85  C   UNL A   1      47.030  27.437  25.969  1.00  0.00     0.064 A 
ATOM     86  C   UNL A   1      48.067  26.726  26.590  1.00  0.00     0.173 A 
ATOM     87  C   UNL A   1      47.154  27.714  24.599  1.00  0.00     0.173 A 
ATOM     88  F   UNL A   1      48.005  26.448  27.900  1.00  0.00    -0.203 F 
ATOM     89  C   UNL A   1      49.192  26.326  25.871  1.00  0.00     0.198 A 
ATOM     90  C   UNL A   1      48.267  27.290  23.877  1.00  0.00     0.198 A 
ATOM     91  F   UNL A   1      46.188  28.386  23.955  1.00  0.00    -0.203 F 
ATOM     92  F   UNL A   1      50.189  25.683  26.494  1.00  0.00    -0.200 F 
ATOM     93  C   UNL A   1      49.288  26.602  24.515  1.00  0.00     0.200 A 
ATOM     94  F   UNL A   1      48.350  27.546  22.564  1.00  0.00    -0.200 F 
ATOM     95  F   UNL A   1      50.366  26.209  23.824  1.00  0.00    -0.200 F 
ENDBRANCH  62  85
ENDBRANCH  36  37
ENDBRANCH  29  31
ENDBRANCH  28  29
ENDBRANCH  27  28
ENDBRANCH  26  27
ENDBRANCH  25  26
ENDBRANCH  24  25
ENDBRANCH   1  24
TORSDOF 22
ENDMDL
