MODEL 1
REMARK VINA RESULT:     -10.7      0.000      0.000
REMARK SMILES CC(C)Cc1ccc([C@H](C)C(=O)OCCOCCOCCOC(=O)c2ccc(-c3c4nc(c(-c5c(F)c(F)c(F)c(F)c5F)c5ccc([nH]5)c(-c5c(F)c(F)c(F)c(F)c5F)c5nc(c(-c6c(F)c(F)c(F)c(F)c6F)c6ccc3[nH]6)C=C5)C=C4)cc2)cc1
REMARK SMILES IDX 17 1 16 2 15 3 14 4 13 5 11 6 12 7 9 8 10 9 8 10 5 11 6 12
REMARK SMILES IDX 89 13 7 14 88 15 4 16 2 17 1 18 3 19 18 20 19 21 20 22 21 23
REMARK SMILES IDX 22 24 23 25 24 26 25 27 26 28 87 29 27 30 86 31 28 32 29 33
REMARK SMILES IDX 30 34 80 35 31 36 85 37 79 38 81 39 32 40 84 41 78 42 77 43
REMARK SMILES IDX 33 45 65 46 45 47 64 48 46 49 49 50 63 51 82 52 47 53 48 54
REMARK SMILES IDX 62 56 83 57 50 58 34 59 35 60 43 61 36 62 37 63 41 64 44 65
REMARK SMILES IDX 38 66 39 67 42 68 40 69 66 70 67 71 75 72 68 73 69 74 73 75
REMARK SMILES IDX 76 76 70 77 71 78 74 79 72 80 51 81 52 82 60 83 53 84 54 85
REMARK SMILES IDX 58 86 61 87 55 88 56 89 59 90 57 91
REMARK H PARENT 81 44 49 55
REMARK Flexibility Score: inf
ROOT
ATOM      1  C   UNL A   1      29.976  27.832  22.792  1.00  0.00     0.188 C 
ENDROOT
BRANCH   1   2
ATOM      2  O   UNL A   1      30.853  27.233  21.850  1.00  0.00    -0.376 OA
BRANCH   2   3
ATOM      3  C   UNL A   1      31.406  25.949  22.116  1.00  0.00     0.202 C 
BRANCH   3   4
ATOM      4  C   UNL A   1      31.191  25.289  23.489  1.00  0.00     0.261 C 
BRANCH   4   5
ATOM      5  O   UNL A   1      32.075  25.720  24.545  1.00  0.00    -0.463 OA
BRANCH   5   6
ATOM      6  C   UNL A   1      31.659  25.492  25.821  1.00  0.00     0.313 C 
ATOM      7  O   UNL A   1      30.904  26.239  26.438  1.00  0.00    -0.252 OA
BRANCH   6   8
ATOM      8  C   UNL A   1      32.271  24.236  26.465  1.00  0.00     0.126 C 
ATOM      9  C   UNL A   1      31.396  23.014  26.760  1.00  0.00     0.025 C 
BRANCH   8  10
ATOM     10  C   UNL A   1      33.478  23.764  25.697  1.00  0.00    -0.034 A 
ATOM     11  C   UNL A   1      35.724  22.740  24.427  1.00  0.00    -0.048 A 
ATOM     12  C   UNL A   1      35.757  24.032  24.961  1.00  0.00     0.004 A 
ATOM     13  C   UNL A   1      34.528  22.016  24.411  1.00  0.00     0.004 A 
ATOM     14  C   UNL A   1      34.629  24.551  25.575  1.00  0.00     0.005 A 
ATOM     15  C   UNL A   1      33.418  22.513  25.069  1.00  0.00     0.005 A 
BRANCH  11  16
ATOM     16  C   UNL A   1      37.008  22.053  24.057  1.00  0.00     0.038 C 
BRANCH  16  17
ATOM     17  C   UNL A   1      37.500  21.180  25.235  1.00  0.00    -0.013 C 
ATOM     18  C   UNL A   1      37.846  19.744  24.816  1.00  0.00     0.008 C 
ATOM     19  C   UNL A   1      38.713  21.836  25.885  1.00  0.00     0.008 C 
ENDBRANCH  16  17
ENDBRANCH  11  16
ENDBRANCH   8  10
ENDBRANCH   6   8
ENDBRANCH   5   6
ENDBRANCH   4   5
ENDBRANCH   3   4
ENDBRANCH   2   3
ENDBRANCH   1   2
BRANCH   1  20
ATOM     20  C   UNL A   1      29.694  29.336  22.697  1.00  0.00     0.188 C 
BRANCH  20  21
ATOM     21  O   UNL A   1      30.076  30.102  23.807  1.00  0.00    -0.376 OA
BRANCH  21  22
ATOM     22  C   UNL A   1      31.108  29.627  24.648  1.00  0.00     0.202 C 
BRANCH  22  23
ATOM     23  C   UNL A   1      31.492  30.315  25.974  1.00  0.00     0.261 C 
BRANCH  23  24
ATOM     24  O   UNL A   1      32.887  30.492  26.271  1.00  0.00    -0.460 OA
BRANCH  24  25
ATOM     25  C   UNL A   1      33.242  31.570  27.017  1.00  0.00     0.338 C 
ATOM     26  O   UNL A   1      32.556  32.533  27.284  1.00  0.00    -0.246 OA
BRANCH  25  27
ATOM     27  C   UNL A   1      34.542  31.254  27.667  1.00  0.00     0.060 A 
ATOM     28  C   UNL A   1      34.832  29.925  28.013  1.00  0.00     0.016 A 
ATOM     29  C   UNL A   1      35.481  32.258  27.903  1.00  0.00     0.016 A 
ATOM     30  C   UNL A   1      36.056  29.598  28.604  1.00  0.00     0.010 A 
ATOM     31  C   UNL A   1      36.692  31.935  28.525  1.00  0.00     0.010 A 
ATOM     32  C   UNL A   1      36.979  30.609  28.898  1.00  0.00    -0.014 A 
BRANCH  32  33
ATOM     33  C   UNL A   1      38.169  30.328  29.745  1.00  0.00     0.031 A 
ATOM     34  C   UNL A   1      39.213  29.383  29.218  1.00  0.00     0.074 A 
ATOM     35  C   UNL A   1      38.314  30.871  30.966  1.00  0.00     0.049 A 
ATOM     36  N   UNL A   1      40.257  28.871  29.817  1.00  0.00    -0.248 NA
ATOM     37  C   UNL A   1      39.051  28.954  27.818  1.00  0.00     0.031 C 
ATOM     38  C   UNL A   1      37.410  31.844  31.573  1.00  0.00     0.029 A 
ATOM     39  N   UNL A   1      39.275  30.657  31.925  1.00  0.00    -0.354 N 
ATOM     40  C   UNL A   1      40.864  28.047  28.879  1.00  0.00     0.074 A 
ATOM     41  C   UNL A   1      40.063  28.112  27.676  1.00  0.00     0.031 C 
ATOM     42  C   UNL A   1      37.844  32.124  32.815  1.00  0.00     0.029 A 
ATOM     43  C   UNL A   1      39.030  31.318  33.105  1.00  0.00     0.049 A 
ATOM     44  H   UNL A   1      40.064  30.087  31.781  1.00  0.00     0.167 HD
ATOM     45  C   UNL A   1      41.987  27.302  29.010  1.00  0.00     0.037 A 
ATOM     46  C   UNL A   1      39.666  31.245  34.292  1.00  0.00     0.037 A 
ATOM     47  C   UNL A   1      42.781  27.235  30.209  1.00  0.00     0.049 A 
ATOM     48  C   UNL A   1      40.861  30.333  34.442  1.00  0.00     0.074 A 
ATOM     49  C   UNL A   1      43.949  26.527  30.431  1.00  0.00     0.029 A 
ATOM     50  N   UNL A   1      42.482  27.891  31.393  1.00  0.00    -0.354 N 
ATOM     51  N   UNL A   1      41.441  29.570  33.549  1.00  0.00    -0.248 NA
ATOM     52  C   UNL A   1      41.485  30.273  35.774  1.00  0.00     0.031 C 
ATOM     53  C   UNL A   1      44.318  26.699  31.769  1.00  0.00     0.029 A 
ATOM     54  C   UNL A   1      43.422  27.574  32.361  1.00  0.00     0.049 A 
ATOM     55  H   UNL A   1      41.714  28.494  31.527  1.00  0.00     0.167 HD
ATOM     56  C   UNL A   1      42.514  28.967  34.198  1.00  0.00     0.074 A 
ATOM     57  C   UNL A   1      42.512  29.465  35.556  1.00  0.00     0.031 C 
ATOM     58  C   UNL A   1      43.417  28.080  33.710  1.00  0.00     0.037 A 
BRANCH  45  59
ATOM     59  C   UNL A   1      42.404  26.461  27.838  1.00  0.00     0.064 A 
ATOM     60  C   UNL A   1      41.872  25.182  27.615  1.00  0.00     0.173 A 
ATOM     61  C   UNL A   1      43.323  26.961  26.901  1.00  0.00     0.173 A 
ATOM     62  F   UNL A   1      41.002  24.650  28.486  1.00  0.00    -0.203 F 
ATOM     63  C   UNL A   1      42.264  24.426  26.512  1.00  0.00     0.198 A 
ATOM     64  C   UNL A   1      43.686  26.216  25.782  1.00  0.00     0.198 A 
ATOM     65  F   UNL A   1      43.859  28.180  27.064  1.00  0.00    -0.203 F 
ATOM     66  F   UNL A   1      41.779  23.187  26.346  1.00  0.00    -0.200 F 
ATOM     67  C   UNL A   1      43.162  24.947  25.593  1.00  0.00     0.200 A 
ATOM     68  F   UNL A   1      44.542  26.728  24.888  1.00  0.00    -0.200 F 
ATOM     69  F   UNL A   1      43.529  24.222  24.528  1.00  0.00    -0.200 F 
ENDBRANCH  45  59
BRANCH  46  70
ATOM     70  C   UNL A   1      39.174  32.035  35.454  1.00  0.00     0.064 A 
ATOM     71  C   UNL A   1      39.536  33.380  35.620  1.00  0.00     0.173 A 
ATOM     72  C   UNL A   1      38.367  31.453  36.443  1.00  0.00     0.173 A 
ATOM     73  F   UNL A   1      40.335  33.973  34.720  1.00  0.00    -0.203 F 
ATOM     74  C   UNL A   1      39.128  34.104  36.739  1.00  0.00     0.198 A 
ATOM     75  C   UNL A   1      37.933  32.189  37.545  1.00  0.00     0.198 A 
ATOM     76  F   UNL A   1      38.000  30.167  36.342  1.00  0.00    -0.203 F 
ATOM     77  F   UNL A   1      39.541  35.369  36.901  1.00  0.00    -0.200 F 
ATOM     78  C   UNL A   1      38.322  33.511  37.697  1.00  0.00     0.200 A 
ATOM     79  F   UNL A   1      37.146  31.613  38.465  1.00  0.00    -0.200 F 
ATOM     80  F   UNL A   1      37.931  34.208  38.773  1.00  0.00    -0.200 F 
ENDBRANCH  46  70
BRANCH  58  81
ATOM     81  C   UNL A   1      44.511  27.620  34.636  1.00  0.00     0.064 A 
ATOM     82  C   UNL A   1      45.696  28.353  34.806  1.00  0.00     0.173 A 
ATOM     83  C   UNL A   1      44.351  26.450  35.397  1.00  0.00     0.173 A 
ATOM     84  F   UNL A   1      45.906  29.472  34.096  1.00  0.00    -0.203 F 
ATOM     85  C   UNL A   1      46.691  27.915  35.679  1.00  0.00     0.198 A 
ATOM     86  C   UNL A   1      45.331  26.037  36.295  1.00  0.00     0.198 A 
ATOM     87  F   UNL A   1      43.234  25.716  35.283  1.00  0.00    -0.203 F 
ATOM     88  F   UNL A   1      47.836  28.603  35.784  1.00  0.00    -0.200 F 
ATOM     89  C   UNL A   1      46.504  26.763  36.427  1.00  0.00     0.200 A 
ATOM     90  F   UNL A   1      45.140  24.932  37.031  1.00  0.00    -0.200 F 
ATOM     91  F   UNL A   1      47.458  26.350  37.273  1.00  0.00    -0.200 F 
ENDBRANCH  58  81
ENDBRANCH  32  33
ENDBRANCH  25  27
ENDBRANCH  24  25
ENDBRANCH  23  24
ENDBRANCH  22  23
ENDBRANCH  21  22
ENDBRANCH  20  21
ENDBRANCH   1  20
TORSDOF 20
ENDMDL
MODEL 2
REMARK VINA RESULT:     -10.5      2.279      4.827
REMARK SMILES CC(C)Cc1ccc([C@H](C)C(=O)OCCOCCOCCOC(=O)c2ccc(-c3c4nc(c(-c5c(F)c(F)c(F)c(F)c5F)c5ccc([nH]5)c(-c5c(F)c(F)c(F)c(F)c5F)c5nc(c(-c6c(F)c(F)c(F)c(F)c6F)c6ccc3[nH]6)C=C5)C=C4)cc2)cc1
REMARK SMILES IDX 17 1 16 2 15 3 14 4 13 5 11 6 12 7 9 8 10 9 8 10 5 11 6 12
REMARK SMILES IDX 89 13 7 14 88 15 4 16 2 17 1 18 3 19 18 20 19 21 20 22 21 23
REMARK SMILES IDX 22 24 23 25 24 26 25 27 26 28 87 29 27 30 86 31 28 32 29 33
REMARK SMILES IDX 30 34 80 35 31 36 85 37 79 38 81 39 32 40 84 41 78 42 77 43
REMARK SMILES IDX 33 45 65 46 45 47 64 48 46 49 49 50 63 51 82 52 47 53 48 54
REMARK SMILES IDX 62 56 83 57 50 58 34 59 35 60 43 61 36 62 37 63 41 64 44 65
REMARK SMILES IDX 38 66 39 67 42 68 40 69 66 70 67 71 75 72 68 73 69 74 73 75
REMARK SMILES IDX 76 76 70 77 71 78 74 79 72 80 51 81 52 82 60 83 53 84 54 85
REMARK SMILES IDX 58 86 61 87 55 88 56 89 59 90 57 91
REMARK H PARENT 81 44 49 55
REMARK Flexibility Score: inf
ROOT
ATOM      1  C   UNL A   1      33.514  28.919  25.341  1.00  0.00     0.188 C 
ENDROOT
BRANCH   1   2
ATOM      2  O   UNL A   1      33.863  27.611  24.912  1.00  0.00    -0.376 OA
BRANCH   2   3
ATOM      3  C   UNL A   1      33.976  26.560  25.864  1.00  0.00     0.202 C 
BRANCH   3   4
ATOM      4  C   UNL A   1      33.465  25.151  25.518  1.00  0.00     0.261 C 
BRANCH   4   5
ATOM      5  O   UNL A   1      32.188  24.784  26.082  1.00  0.00    -0.463 OA
BRANCH   5   6
ATOM      6  C   UNL A   1      31.101  25.469  25.630  1.00  0.00     0.313 C 
ATOM      7  O   UNL A   1      30.256  25.973  26.366  1.00  0.00    -0.252 OA
BRANCH   6   8
ATOM      8  C   UNL A   1      30.977  25.509  24.097  1.00  0.00     0.126 C 
ATOM      9  C   UNL A   1      30.386  24.318  23.337  1.00  0.00     0.025 C 
BRANCH   8  10
ATOM     10  C   UNL A   1      30.255  26.751  23.643  1.00  0.00    -0.034 A 
ATOM     11  C   UNL A   1      28.834  28.920  22.653  1.00  0.00    -0.048 A 
ATOM     12  C   UNL A   1      30.232  28.933  22.620  1.00  0.00     0.004 A 
ATOM     13  C   UNL A   1      28.155  27.884  23.302  1.00  0.00     0.004 A 
ATOM     14  C   UNL A   1      30.941  27.859  23.134  1.00  0.00     0.005 A 
ATOM     15  C   UNL A   1      28.860  26.790  23.769  1.00  0.00     0.005 A 
BRANCH  11  16
ATOM     16  C   UNL A   1      28.059  29.904  21.822  1.00  0.00     0.038 C 
BRANCH  16  17
ATOM     17  C   UNL A   1      28.361  31.347  22.289  1.00  0.00    -0.013 C 
ATOM     18  C   UNL A   1      28.012  32.406  21.235  1.00  0.00     0.008 C 
ATOM     19  C   UNL A   1      27.604  31.632  23.581  1.00  0.00     0.008 C 
ENDBRANCH  16  17
ENDBRANCH  11  16
ENDBRANCH   8  10
ENDBRANCH   6   8
ENDBRANCH   5   6
ENDBRANCH   4   5
ENDBRANCH   3   4
ENDBRANCH   2   3
ENDBRANCH   1   2
BRANCH   1  20
ATOM     20  C   UNL A   1      33.486  29.229  26.842  1.00  0.00     0.188 C 
BRANCH  20  21
ATOM     21  O   UNL A   1      32.755  30.363  27.219  1.00  0.00    -0.376 OA
BRANCH  21  22
ATOM     22  C   UNL A   1      33.447  31.506  27.680  1.00  0.00     0.202 C 
BRANCH  22  23
ATOM     23  C   UNL A   1      32.973  32.946  27.396  1.00  0.00     0.261 C 
BRANCH  23  24
ATOM     24  O   UNL A   1      32.455  33.721  28.490  1.00  0.00    -0.460 OA
BRANCH  24  25
ATOM     25  C   UNL A   1      33.137  34.838  28.851  1.00  0.00     0.338 C 
ATOM     26  O   UNL A   1      32.754  35.985  28.778  1.00  0.00    -0.246 OA
BRANCH  25  27
ATOM     27  C   UNL A   1      34.351  34.401  29.591  1.00  0.00     0.060 A 
ATOM     28  C   UNL A   1      35.612  34.547  28.991  1.00  0.00     0.016 A 
ATOM     29  C   UNL A   1      34.249  33.883  30.882  1.00  0.00     0.016 A 
ATOM     30  C   UNL A   1      36.770  34.165  29.674  1.00  0.00     0.010 A 
ATOM     31  C   UNL A   1      35.406  33.471  31.552  1.00  0.00     0.010 A 
ATOM     32  C   UNL A   1      36.671  33.589  30.946  1.00  0.00    -0.014 A 
BRANCH  32  33
ATOM     33  C   UNL A   1      37.852  32.951  31.585  1.00  0.00     0.031 A 
ATOM     34  C   UNL A   1      38.491  31.778  30.894  1.00  0.00     0.074 A 
ATOM     35  C   UNL A   1      38.336  33.377  32.765  1.00  0.00     0.049 A 
ATOM     36  N   UNL A   1      39.430  30.970  31.314  1.00  0.00    -0.248 NA
ATOM     37  C   UNL A   1      37.995  31.475  29.541  1.00  0.00     0.031 C 
ATOM     38  C   UNL A   1      37.851  34.534  33.511  1.00  0.00     0.029 A 
ATOM     39  N   UNL A   1      39.338  32.862  33.552  1.00  0.00    -0.354 N 
ATOM     40  C   UNL A   1      39.623  30.053  30.290  1.00  0.00     0.074 A 
ATOM     41  C   UNL A   1      38.692  30.392  29.235  1.00  0.00     0.031 C 
ATOM     42  C   UNL A   1      38.538  34.627  34.664  1.00  0.00     0.029 A 
ATOM     43  C   UNL A   1      39.479  33.511  34.756  1.00  0.00     0.049 A 
ATOM     44  H   UNL A   1      39.901  32.102  33.281  1.00  0.00     0.167 HD
ATOM     45  C   UNL A   1      40.497  29.020  30.235  1.00  0.00     0.037 A 
ATOM     46  C   UNL A   1      40.249  33.211  35.822  1.00  0.00     0.037 A 
ATOM     47  C   UNL A   1      41.420  28.681  31.286  1.00  0.00     0.049 A 
ATOM     48  C   UNL A   1      41.147  31.997  35.774  1.00  0.00     0.074 A 
ATOM     49  C   UNL A   1      42.361  27.667  31.314  1.00  0.00     0.029 A 
ATOM     50  N   UNL A   1      41.509  29.341  32.503  1.00  0.00    -0.354 N 
ATOM     51  N   UNL A   1      41.340  31.144  34.798  1.00  0.00    -0.248 NA
ATOM     52  C   UNL A   1      41.932  31.706  36.984  1.00  0.00     0.031 C 
ATOM     53  C   UNL A   1      42.972  27.670  32.572  1.00  0.00     0.029 A 
ATOM     54  C   UNL A   1      42.464  28.732  33.303  1.00  0.00     0.049 A 
ATOM     55  H   UNL A   1      40.974  30.126  32.761  1.00  0.00     0.167 HD
ATOM     56  C   UNL A   1      42.288  30.238  35.262  1.00  0.00     0.074 A 
ATOM     57  C   UNL A   1      42.643  30.655  36.601  1.00  0.00     0.031 C 
ATOM     58  C   UNL A   1      42.816  29.158  34.633  1.00  0.00     0.037 A 
BRANCH  45  59
ATOM     59  C   UNL A   1      40.469  28.149  29.011  1.00  0.00     0.064 A 
ATOM     60  C   UNL A   1      41.244  28.437  27.878  1.00  0.00     0.173 A 
ATOM     61  C   UNL A   1      39.682  26.987  28.989  1.00  0.00     0.173 A 
ATOM     62  F   UNL A   1      42.003  29.543  27.840  1.00  0.00    -0.203 F 
ATOM     63  C   UNL A   1      41.213  27.607  26.759  1.00  0.00     0.198 A 
ATOM     64  C   UNL A   1      39.680  26.142  27.883  1.00  0.00     0.198 A 
ATOM     65  F   UNL A   1      38.925  26.663  30.048  1.00  0.00    -0.203 F 
ATOM     66  F   UNL A   1      41.924  27.928  25.670  1.00  0.00    -0.200 F 
ATOM     67  C   UNL A   1      40.439  26.456  26.767  1.00  0.00     0.200 A 
ATOM     68  F   UNL A   1      38.942  25.023  27.898  1.00  0.00    -0.200 F 
ATOM     69  F   UNL A   1      40.418  25.654  25.694  1.00  0.00    -0.200 F 
ENDBRANCH  45  59
BRANCH  46  70
ATOM     70  C   UNL A   1      40.191  34.053  37.047  1.00  0.00     0.064 A 
ATOM     71  C   UNL A   1      39.236  33.814  38.046  1.00  0.00     0.173 A 
ATOM     72  C   UNL A   1      41.061  35.140  37.228  1.00  0.00     0.173 A 
ATOM     73  F   UNL A   1      38.358  32.809  37.905  1.00  0.00    -0.203 F 
ATOM     74  C   UNL A   1      39.139  34.639  39.165  1.00  0.00     0.198 A 
ATOM     75  C   UNL A   1      40.985  35.944  38.364  1.00  0.00     0.198 A 
ATOM     76  F   UNL A   1      41.986  35.422  36.299  1.00  0.00    -0.203 F 
ATOM     77  F   UNL A   1      38.177  34.423  40.072  1.00  0.00    -0.200 F 
ATOM     78  C   UNL A   1      40.018  35.699  39.327  1.00  0.00     0.200 A 
ATOM     79  F   UNL A   1      41.841  36.963  38.520  1.00  0.00    -0.200 F 
ATOM     80  F   UNL A   1      39.923  36.493  40.403  1.00  0.00    -0.200 F 
ENDBRANCH  46  70
BRANCH  58  81
ATOM     81  C   UNL A   1      43.869  28.371  35.367  1.00  0.00     0.064 A 
ATOM     82  C   UNL A   1      45.237  28.650  35.225  1.00  0.00     0.173 A 
ATOM     83  C   UNL A   1      43.498  27.350  36.258  1.00  0.00     0.173 A 
ATOM     84  F   UNL A   1      45.646  29.606  34.378  1.00  0.00    -0.203 F 
ATOM     85  C   UNL A   1      46.194  27.917  35.923  1.00  0.00     0.198 A 
ATOM     86  C   UNL A   1      44.456  26.645  36.982  1.00  0.00     0.198 A 
ATOM     87  F   UNL A   1      42.205  27.048  36.442  1.00  0.00    -0.203 F 
ATOM     88  F   UNL A   1      47.497  28.165  35.730  1.00  0.00    -0.200 F 
ATOM     89  C   UNL A   1      45.803  26.922  36.806  1.00  0.00     0.200 A 
ATOM     90  F   UNL A   1      44.075  25.697  37.849  1.00  0.00    -0.200 F 
ATOM     91  F   UNL A   1      46.725  26.225  37.485  1.00  0.00    -0.200 F 
ENDBRANCH  58  81
ENDBRANCH  32  33
ENDBRANCH  25  27
ENDBRANCH  24  25
ENDBRANCH  23  24
ENDBRANCH  22  23
ENDBRANCH  21  22
ENDBRANCH  20  21
ENDBRANCH   1  20
TORSDOF 20
ENDMDL
MODEL 3
REMARK VINA RESULT:     -10.4      2.190      8.435
REMARK SMILES CC(C)Cc1ccc([C@H](C)C(=O)OCCOCCOCCOC(=O)c2ccc(-c3c4nc(c(-c5c(F)c(F)c(F)c(F)c5F)c5ccc([nH]5)c(-c5c(F)c(F)c(F)c(F)c5F)c5nc(c(-c6c(F)c(F)c(F)c(F)c6F)c6ccc3[nH]6)C=C5)C=C4)cc2)cc1
REMARK SMILES IDX 17 1 16 2 15 3 14 4 13 5 11 6 12 7 9 8 10 9 8 10 5 11 6 12
REMARK SMILES IDX 89 13 7 14 88 15 4 16 2 17 1 18 3 19 18 20 19 21 20 22 21 23
REMARK SMILES IDX 22 24 23 25 24 26 25 27 26 28 87 29 27 30 86 31 28 32 29 33
REMARK SMILES IDX 30 34 80 35 31 36 85 37 79 38 81 39 32 40 84 41 78 42 77 43
REMARK SMILES IDX 33 45 65 46 45 47 64 48 46 49 49 50 63 51 82 52 47 53 48 54
REMARK SMILES IDX 62 56 83 57 50 58 34 59 35 60 43 61 36 62 37 63 41 64 44 65
REMARK SMILES IDX 38 66 39 67 42 68 40 69 66 70 67 71 75 72 68 73 69 74 73 75
REMARK SMILES IDX 76 76 70 77 71 78 74 79 72 80 51 81 52 82 60 83 53 84 54 85
REMARK SMILES IDX 58 86 61 87 55 88 56 89 59 90 57 91
REMARK H PARENT 81 44 49 55
REMARK Flexibility Score: inf
ROOT
ATOM      1  C   UNL A   1      33.521  29.477  25.338  1.00  0.00     0.188 C 
ENDROOT
BRANCH   1   2
ATOM      2  O   UNL A   1      33.764  28.125  24.977  1.00  0.00    -0.376 OA
BRANCH   2   3
ATOM      3  C   UNL A   1      33.707  27.107  25.970  1.00  0.00     0.202 C 
BRANCH   3   4
ATOM      4  C   UNL A   1      33.880  25.633  25.568  1.00  0.00     0.261 C 
BRANCH   4   5
ATOM      5  O   UNL A   1      32.844  24.730  26.008  1.00  0.00    -0.463 OA
BRANCH   5   6
ATOM      6  C   UNL A   1      31.560  25.097  25.741  1.00  0.00     0.313 C 
ATOM      7  O   UNL A   1      30.719  25.322  26.608  1.00  0.00    -0.252 OA
BRANCH   6   8
ATOM      8  C   UNL A   1      31.221  25.148  24.241  1.00  0.00     0.126 C 
ATOM      9  C   UNL A   1      30.650  23.915  23.535  1.00  0.00     0.025 C 
BRANCH   8  10
ATOM     10  C   UNL A   1      30.323  26.316  23.927  1.00  0.00    -0.034 A 
ATOM     11  C   UNL A   1      28.599  28.359  23.178  1.00  0.00    -0.048 A 
ATOM     12  C   UNL A   1      29.979  28.584  23.187  1.00  0.00     0.004 A 
ATOM     13  C   UNL A   1      28.079  27.158  23.672  1.00  0.00     0.004 A 
ATOM     14  C   UNL A   1      30.838  27.571  23.582  1.00  0.00     0.005 A 
ATOM     15  C   UNL A   1      28.937  26.131  24.017  1.00  0.00     0.005 A 
BRANCH  11  16
ATOM     16  C   UNL A   1      27.693  29.316  22.456  1.00  0.00     0.038 C 
BRANCH  16  17
ATOM     17  C   UNL A   1      28.313  30.732  22.449  1.00  0.00    -0.013 C 
ATOM     18  C   UNL A   1      28.201  31.432  21.088  1.00  0.00     0.008 C 
ATOM     19  C   UNL A   1      27.650  31.584  23.526  1.00  0.00     0.008 C 
ENDBRANCH  16  17
ENDBRANCH  11  16
ENDBRANCH   8  10
ENDBRANCH   6   8
ENDBRANCH   5   6
ENDBRANCH   4   5
ENDBRANCH   3   4
ENDBRANCH   2   3
ENDBRANCH   1   2
BRANCH   1  20
ATOM     20  C   UNL A   1      33.190  29.813  26.796  1.00  0.00     0.188 C 
BRANCH  20  21
ATOM     21  O   UNL A   1      32.449  30.985  27.001  1.00  0.00    -0.376 OA
BRANCH  21  22
ATOM     22  C   UNL A   1      33.045  32.062  27.695  1.00  0.00     0.202 C 
BRANCH  22  23
ATOM     23  C   UNL A   1      32.784  33.539  27.334  1.00  0.00     0.261 C 
BRANCH  23  24
ATOM     24  O   UNL A   1      32.303  34.418  28.364  1.00  0.00    -0.460 OA
BRANCH  24  25
ATOM     25  C   UNL A   1      33.148  35.376  28.823  1.00  0.00     0.338 C 
ATOM     26  O   UNL A   1      32.959  36.573  28.840  1.00  0.00    -0.246 OA
BRANCH  25  27
ATOM     27  C   UNL A   1      34.256  34.688  29.540  1.00  0.00     0.060 A 
ATOM     28  C   UNL A   1      35.521  34.612  28.937  1.00  0.00     0.016 A 
ATOM     29  C   UNL A   1      34.055  34.152  30.811  1.00  0.00     0.016 A 
ATOM     30  C   UNL A   1      36.585  33.992  29.599  1.00  0.00     0.010 A 
ATOM     31  C   UNL A   1      35.112  33.502  31.459  1.00  0.00     0.010 A 
ATOM     32  C   UNL A   1      36.376  33.399  30.850  1.00  0.00    -0.014 A 
BRANCH  32  33
ATOM     33  C   UNL A   1      37.413  32.524  31.458  1.00  0.00     0.031 A 
ATOM     34  C   UNL A   1      37.918  32.865  32.832  1.00  0.00     0.074 A 
ATOM     35  C   UNL A   1      37.921  31.466  30.802  1.00  0.00     0.049 A 
ATOM     36  N   UNL A   1      38.910  32.349  33.511  1.00  0.00    -0.248 NA
ATOM     37  C   UNL A   1      37.204  33.944  33.536  1.00  0.00     0.031 C 
ATOM     38  C   UNL A   1      37.483  30.991  29.493  1.00  0.00     0.029 A 
ATOM     39  N   UNL A   1      38.941  30.612  31.148  1.00  0.00    -0.354 N 
ATOM     40  C   UNL A   1      38.953  33.050  34.709  1.00  0.00     0.074 A 
ATOM     41  C   UNL A   1      37.900  34.040  34.658  1.00  0.00     0.031 C 
ATOM     42  C   UNL A   1      38.248  29.944  29.132  1.00  0.00     0.029 A 
ATOM     43  C   UNL A   1      39.257  29.706  30.164  1.00  0.00     0.049 A 
ATOM     44  H   UNL A   1      39.402  30.646  32.018  1.00  0.00     0.167 HD
ATOM     45  C   UNL A   1      39.796  32.883  35.756  1.00  0.00     0.037 A 
ATOM     46  C   UNL A   1      40.269  28.818  30.091  1.00  0.00     0.037 A 
ATOM     47  C   UNL A   1      40.846  31.900  35.803  1.00  0.00     0.049 A 
ATOM     48  C   UNL A   1      41.254  28.716  31.231  1.00  0.00     0.074 A 
ATOM     49  C   UNL A   1      41.737  31.639  36.829  1.00  0.00     0.029 A 
ATOM     50  N   UNL A   1      41.156  31.023  34.774  1.00  0.00    -0.354 N 
ATOM     51  N   UNL A   1      41.281  29.367  32.368  1.00  0.00    -0.248 NA
ATOM     52  C   UNL A   1      42.356  27.753  31.070  1.00  0.00     0.031 C 
ATOM     53  C   UNL A   1      42.628  30.652  36.395  1.00  0.00     0.029 A 
ATOM     54  C   UNL A   1      42.248  30.246  35.126  1.00  0.00     0.049 A 
ATOM     55  H   UNL A   1      40.671  30.962  33.919  1.00  0.00     0.167 HD
ATOM     56  C   UNL A   1      42.376  28.872  33.069  1.00  0.00     0.074 A 
ATOM     57  C   UNL A   1      42.980  27.855  32.235  1.00  0.00     0.031 C 
ATOM     58  C   UNL A   1      42.838  29.230  34.293  1.00  0.00     0.037 A 
BRANCH  45  59
ATOM     59  C   UNL A   1      39.647  33.815  36.924  1.00  0.00     0.064 A 
ATOM     60  C   UNL A   1      38.902  33.467  38.060  1.00  0.00     0.173 A 
ATOM     61  C   UNL A   1      40.293  35.061  36.920  1.00  0.00     0.173 A 
ATOM     62  F   UNL A   1      38.252  32.294  38.110  1.00  0.00    -0.203 F 
ATOM     63  C   UNL A   1      38.789  34.343  39.139  1.00  0.00     0.198 A 
ATOM     64  C   UNL A   1      40.206  35.919  38.013  1.00  0.00     0.198 A 
ATOM     65  F   UNL A   1      41.022  35.442  35.860  1.00  0.00    -0.203 F 
ATOM     66  F   UNL A   1      38.033  34.009  40.193  1.00  0.00    -0.200 F 
ATOM     67  C   UNL A   1      39.449  35.562  39.118  1.00  0.00     0.200 A 
ATOM     68  F   UNL A   1      40.857  37.090  37.997  1.00  0.00    -0.200 F 
ATOM     69  F   UNL A   1      39.348  36.398  40.160  1.00  0.00    -0.200 F 
ENDBRANCH  45  59
BRANCH  46  70
ATOM     70  C   UNL A   1      40.430  27.965  28.881  1.00  0.00     0.064 A 
ATOM     71  C   UNL A   1      41.170  28.409  27.776  1.00  0.00     0.173 A 
ATOM     72  C   UNL A   1      39.814  26.707  28.788  1.00  0.00     0.173 A 
ATOM     73  F   UNL A   1      41.749  29.619  27.801  1.00  0.00    -0.203 F 
ATOM     74  C   UNL A   1      41.271  27.639  26.619  1.00  0.00     0.198 A 
ATOM     75  C   UNL A   1      39.944  25.925  27.642  1.00  0.00     0.198 A 
ATOM     76  F   UNL A   1      39.085  26.238  29.811  1.00  0.00    -0.203 F 
ATOM     77  F   UNL A   1      41.934  28.117  25.556  1.00  0.00    -0.200 F 
ATOM     78  C   UNL A   1      40.664  26.395  26.555  1.00  0.00     0.200 A 
ATOM     79  F   UNL A   1      39.362  24.718  27.588  1.00  0.00    -0.200 F 
ATOM     80  F   UNL A   1      40.760  25.656  25.441  1.00  0.00    -0.200 F 
ENDBRANCH  46  70
BRANCH  58  81
ATOM     81  C   UNL A   1      44.033  28.488  34.830  1.00  0.00     0.064 A 
ATOM     82  C   UNL A   1      43.902  27.277  35.526  1.00  0.00     0.173 A 
ATOM     83  C   UNL A   1      45.330  28.977  34.607  1.00  0.00     0.173 A 
ATOM     84  F   UNL A   1      42.685  26.771  35.777  1.00  0.00    -0.203 F 
ATOM     85  C   UNL A   1      45.022  26.599  36.004  1.00  0.00     0.198 A 
ATOM     86  C   UNL A   1      46.449  28.278  35.053  1.00  0.00     0.198 A 
ATOM     87  F   UNL A   1      45.516  30.124  33.937  1.00  0.00    -0.203 F 
ATOM     88  F   UNL A   1      44.868  25.473  36.713  1.00  0.00    -0.200 F 
ATOM     89  C   UNL A   1      46.293  27.096  35.760  1.00  0.00     0.200 A 
ATOM     90  F   UNL A   1      47.678  28.750  34.800  1.00  0.00    -0.200 F 
ATOM     91  F   UNL A   1      47.370  26.437  36.212  1.00  0.00    -0.200 F 
ENDBRANCH  58  81
ENDBRANCH  32  33
ENDBRANCH  25  27
ENDBRANCH  24  25
ENDBRANCH  23  24
ENDBRANCH  22  23
ENDBRANCH  21  22
ENDBRANCH  20  21
ENDBRANCH   1  20
TORSDOF 20
ENDMDL
