MODEL 1
REMARK VINA RESULT:     -12.3      0.000      0.000
REMARK SMILES C/C(=C\C(=O)c1c(O)n(C)c2ccccc2c1=O)Nc1ccc(C(=O)OCCOCCOCCOC(=O)c2ccc(-c3c4nc(c(-c5c(F)c(F)c(F)c(F)c5F)c5ccc([nH]5)c(-c5c(F)c(F)c(F)c(F)c5F)c5nc(c(-c6c(F)c(F)c(F)c(F)c6F)c6ccc3[nH]6)C=C5)C=C4)cc2)cc1
REMARK SMILES IDX 29 1 28 2 27 3 26 4 24 5 25 6 23 7 20 8 21 9 102 10 22 11
REMARK SMILES IDX 101 12 19 13 2 15 1 16 3 17 4 18 5 19 6 20 7 21 17 22 9 23
REMARK SMILES IDX 16 24 18 25 10 26 11 27 15 28 12 29 14 30 13 31 8 32 30 34
REMARK SMILES IDX 31 35 32 36 33 37 34 38 35 39 36 40 37 41 38 42 39 43 100 44
REMARK SMILES IDX 40 45 99 46 41 47 42 48 43 49 93 50 44 51 98 52 92 53 94 54
REMARK SMILES IDX 45 55 97 56 91 57 90 58 46 60 78 61 58 62 77 63 59 64 62 65
REMARK SMILES IDX 76 66 95 67 60 68 61 69 75 71 96 72 63 73 47 74 48 75 56 76
REMARK SMILES IDX 49 77 50 78 54 79 57 80 51 81 52 82 55 83 53 84 79 85 80 86
REMARK SMILES IDX 88 87 81 88 82 89 86 90 89 91 83 92 84 93 87 94 85 95 64 96
REMARK SMILES IDX 65 97 73 98 66 99 67 100 71 101 74 102 68 103 69 104 72 105
REMARK SMILES IDX 70 106
REMARK H PARENT 19 14 8 33 94 59 62 70
REMARK Flexibility Score: inf
ROOT
ATOM      1  O   UNL A   1      32.361  28.005  24.250  1.00  0.00    -0.376 OA
ENDROOT
BRANCH   1   2
ATOM      2  C   UNL A   1      31.324  27.045  24.123  1.00  0.00     0.202 C 
BRANCH   2   3
ATOM      3  C   UNL A   1      31.306  25.864  23.132  1.00  0.00     0.261 C 
BRANCH   3   4
ATOM      4  O   UNL A   1      32.083  24.710  23.468  1.00  0.00    -0.460 OA
BRANCH   4   5
ATOM      5  C   UNL A   1      33.159  24.489  22.669  1.00  0.00     0.338 C 
ATOM      6  O   UNL A   1      33.251  24.760  21.482  1.00  0.00    -0.246 OA
BRANCH   5   7
ATOM      7  C   UNL A   1      34.329  24.077  23.480  1.00  0.00     0.060 A 
ATOM      8  C   UNL A   1      36.699  23.341  24.830  1.00  0.00     0.038 A 
ATOM      9  C   UNL A   1      36.459  22.926  23.519  1.00  0.00     0.027 A 
ATOM     10  C   UNL A   1      35.705  24.104  25.470  1.00  0.00     0.027 A 
ATOM     11  C   UNL A   1      35.296  23.297  22.843  1.00  0.00     0.018 A 
ATOM     12  C   UNL A   1      34.523  24.470  24.806  1.00  0.00     0.018 A 
BRANCH   8  13
ATOM     13  N   UNL A   1      37.906  23.079  25.507  1.00  0.00    -0.359 N 
ATOM     14  H   UNL A   1      38.373  23.881  25.837  1.00  0.00     0.166 HD
BRANCH  13  15
ATOM     15  C   UNL A   1      38.555  21.870  25.788  1.00  0.00     0.016 C 
ATOM     16  C   UNL A   1      37.997  20.601  25.178  1.00  0.00     0.064 C 
ATOM     17  C   UNL A   1      39.695  21.899  26.519  1.00  0.00     0.074 C 
BRANCH  17  18
ATOM     18  C   UNL A   1      40.745  20.872  26.846  1.00  0.00     0.196 C 
ATOM     19  O   UNL A   1      40.565  20.129  27.808  1.00  0.00    -0.289 OA
BRANCH  18  20
ATOM     20  C   UNL A   1      42.031  20.877  26.121  1.00  0.00     0.130 A 
ATOM     21  C   UNL A   1      42.671  19.726  25.830  1.00  0.00     0.206 A 
ATOM     22  C   UNL A   1      42.706  22.162  25.825  1.00  0.00     0.204 A 
ATOM     23  N   UNL A   1      43.998  19.675  25.416  1.00  0.00    -0.315 N 
ATOM     24  C   UNL A   1      44.045  22.107  25.201  1.00  0.00     0.047 A 
ATOM     25  O   UNL A   1      42.205  23.240  26.130  1.00  0.00    -0.288 OA
ATOM     26  C   UNL A   1      44.772  18.432  25.452  1.00  0.00     0.153 C 
ATOM     27  C   UNL A   1      44.680  20.860  25.055  1.00  0.00     0.055 A 
ATOM     28  C   UNL A   1      44.671  23.307  24.831  1.00  0.00     0.014 A 
ATOM     29  C   UNL A   1      45.988  20.870  24.550  1.00  0.00     0.027 A 
ATOM     30  C   UNL A   1      45.967  23.283  24.331  1.00  0.00     0.001 A 
ATOM     31  C   UNL A   1      46.626  22.066  24.211  1.00  0.00     0.002 A 
BRANCH  21  32
ATOM     32  O   UNL A   1      42.071  18.491  26.005  1.00  0.00    -0.494 OA
ATOM     33  H   UNL A   1      42.025  18.110  26.860  1.00  0.00     0.295 HD
ENDBRANCH  21  32
ENDBRANCH  18  20
ENDBRANCH  17  18
ENDBRANCH  13  15
ENDBRANCH   8  13
ENDBRANCH   5   7
ENDBRANCH   4   5
ENDBRANCH   3   4
ENDBRANCH   2   3
ENDBRANCH   1   2
BRANCH   1  34
ATOM     34  C   UNL A   1      32.303  29.003  25.241  1.00  0.00     0.188 C 
BRANCH  34  35
ATOM     35  C   UNL A   1      33.588  29.328  26.030  1.00  0.00     0.188 C 
BRANCH  35  36
ATOM     36  O   UNL A   1      33.533  30.103  27.209  1.00  0.00    -0.376 OA
BRANCH  36  37
ATOM     37  C   UNL A   1      32.822  31.331  27.219  1.00  0.00     0.202 C 
BRANCH  37  38
ATOM     38  C   UNL A   1      33.448  32.674  27.633  1.00  0.00     0.261 C 
BRANCH  38  39
ATOM     39  O   UNL A   1      32.539  33.715  28.007  1.00  0.00    -0.460 OA
BRANCH  39  40
ATOM     40  C   UNL A   1      33.089  34.757  28.675  1.00  0.00     0.338 C 
ATOM     41  O   UNL A   1      32.646  35.889  28.793  1.00  0.00    -0.246 OA
BRANCH  40  42
ATOM     42  C   UNL A   1      34.261  34.276  29.425  1.00  0.00     0.060 A 
ATOM     43  C   UNL A   1      34.103  33.387  30.486  1.00  0.00     0.016 A 
ATOM     44  C   UNL A   1      35.536  34.703  29.033  1.00  0.00     0.016 A 
ATOM     45  C   UNL A   1      35.237  32.904  31.143  1.00  0.00     0.010 A 
ATOM     46  C   UNL A   1      36.666  34.233  29.702  1.00  0.00     0.010 A 
ATOM     47  C   UNL A   1      36.526  33.307  30.743  1.00  0.00    -0.014 A 
BRANCH  47  48
ATOM     48  C   UNL A   1      37.722  32.647  31.321  1.00  0.00     0.031 A 
ATOM     49  C   UNL A   1      38.256  33.032  32.667  1.00  0.00     0.074 A 
ATOM     50  C   UNL A   1      38.324  31.683  30.597  1.00  0.00     0.049 A 
ATOM     51  N   UNL A   1      39.223  32.477  33.355  1.00  0.00    -0.248 NA
ATOM     52  C   UNL A   1      37.632  34.186  33.329  1.00  0.00     0.031 C 
ATOM     53  C   UNL A   1      37.902  31.254  29.262  1.00  0.00     0.029 A 
ATOM     54  N   UNL A   1      39.397  30.878  30.882  1.00  0.00    -0.354 N 
ATOM     55  C   UNL A   1      39.305  33.193  34.541  1.00  0.00     0.074 A 
ATOM     56  C   UNL A   1      38.329  34.260  34.457  1.00  0.00     0.031 C 
ATOM     57  C   UNL A   1      38.676  30.232  28.864  1.00  0.00     0.029 A 
ATOM     58  C   UNL A   1      39.663  29.951  29.902  1.00  0.00     0.049 A 
ATOM     59  H   UNL A   1      39.925  30.955  31.708  1.00  0.00     0.167 HD
ATOM     60  C   UNL A   1      40.105  32.957  35.609  1.00  0.00     0.037 A 
ATOM     61  C   UNL A   1      40.588  28.973  29.853  1.00  0.00     0.037 A 
ATOM     62  C   UNL A   1      41.086  31.901  35.670  1.00  0.00     0.049 A 
ATOM     63  C   UNL A   1      41.506  28.781  31.030  1.00  0.00     0.074 A 
ATOM     64  C   UNL A   1      41.920  31.559  36.720  1.00  0.00     0.029 A 
ATOM     65  N   UNL A   1      41.374  31.026  34.632  1.00  0.00    -0.354 N 
ATOM     66  N   UNL A   1      41.524  29.414  32.177  1.00  0.00    -0.248 NA
ATOM     67  C   UNL A   1      42.528  27.732  30.906  1.00  0.00     0.031 C 
ATOM     68  C   UNL A   1      42.753  30.519  36.298  1.00  0.00     0.029 A 
ATOM     69  C   UNL A   1      42.396  30.166  35.006  1.00  0.00     0.049 A 
ATOM     70  H   UNL A   1      40.920  31.016  33.758  1.00  0.00     0.167 HD
ATOM     71  C   UNL A   1      42.535  28.825  32.923  1.00  0.00     0.074 A 
ATOM     72  C   UNL A   1      43.102  27.775  32.101  1.00  0.00     0.031 C 
ATOM     73  C   UNL A   1      42.952  29.124  34.178  1.00  0.00     0.037 A 
BRANCH  60  74
ATOM     74  C   UNL A   1      39.953  33.841  36.816  1.00  0.00     0.064 A 
ATOM     75  C   UNL A   1      40.635  35.064  36.915  1.00  0.00     0.173 A 
ATOM     76  C   UNL A   1      39.043  33.516  37.835  1.00  0.00     0.173 A 
ATOM     77  F   UNL A   1      41.514  35.424  35.969  1.00  0.00    -0.203 F 
ATOM     78  C   UNL A   1      40.424  35.919  37.995  1.00  0.00     0.198 A 
ATOM     79  C   UNL A   1      38.814  34.388  38.899  1.00  0.00     0.198 A 
ATOM     80  F   UNL A   1      38.353  32.367  37.786  1.00  0.00    -0.203 F 
ATOM     81  F   UNL A   1      41.109  37.069  38.080  1.00  0.00    -0.200 F 
ATOM     82  C   UNL A   1      39.507  35.585  38.979  1.00  0.00     0.200 A 
ATOM     83  F   UNL A   1      37.911  34.073  39.839  1.00  0.00    -0.200 F 
ATOM     84  F   UNL A   1      39.290  36.419  40.005  1.00  0.00    -0.200 F 
ENDBRANCH  60  74
BRANCH  61  85
ATOM     85  C   UNL A   1      40.644  28.065  28.677  1.00  0.00     0.064 A 
ATOM     86  C   UNL A   1      39.906  26.874  28.655  1.00  0.00     0.173 A 
ATOM     87  C   UNL A   1      41.406  28.373  27.541  1.00  0.00     0.173 A 
ATOM     88  F   UNL A   1      39.182  26.516  29.726  1.00  0.00    -0.203 F 
ATOM     89  C   UNL A   1      39.929  26.032  27.544  1.00  0.00     0.198 A 
ATOM     90  C   UNL A   1      41.402  27.550  26.419  1.00  0.00     0.198 A 
ATOM     91  F   UNL A   1      42.148  29.486  27.511  1.00  0.00    -0.203 F 
ATOM     92  F   UNL A   1      39.239  24.883  27.563  1.00  0.00    -0.200 F 
ATOM     93  C   UNL A   1      40.667  26.377  26.422  1.00  0.00     0.200 A 
ATOM     94  F   UNL A   1      42.109  27.898  25.335  1.00  0.00    -0.200 F 
ATOM     95  F   UNL A   1      40.674  25.577  25.347  1.00  0.00    -0.200 F 
ENDBRANCH  61  85
BRANCH  73  96
ATOM     96  C   UNL A   1      44.066  28.300  34.758  1.00  0.00     0.064 A 
ATOM     97  C   UNL A   1      43.814  27.103  35.444  1.00  0.00     0.173 A 
ATOM     98  C   UNL A   1      45.405  28.671  34.557  1.00  0.00     0.173 A 
ATOM     99  F   UNL A   1      42.552  26.710  35.675  1.00  0.00    -0.203 F 
ATOM    100  C   UNL A   1      44.860  26.314  35.916  1.00  0.00     0.198 A 
ATOM    101  C   UNL A   1      46.448  27.864  35.002  1.00  0.00     0.198 A 
ATOM    102  F   UNL A   1      45.702  29.804  33.903  1.00  0.00    -0.203 F 
ATOM    103  F   UNL A   1      44.594  25.191  36.599  1.00  0.00    -0.200 F 
ATOM    104  C   UNL A   1      46.175  26.688  35.685  1.00  0.00     0.200 A 
ATOM    105  F   UNL A   1      47.718  28.219  34.762  1.00  0.00    -0.200 F 
ATOM    106  F   UNL A   1      47.180  25.916  36.122  1.00  0.00    -0.200 F 
ENDBRANCH  73  96
ENDBRANCH  47  48
ENDBRANCH  40  42
ENDBRANCH  39  40
ENDBRANCH  38  39
ENDBRANCH  37  38
ENDBRANCH  36  37
ENDBRANCH  35  36
ENDBRANCH  34  35
ENDBRANCH   1  34
TORSDOF 22
ENDMDL
MODEL 2
REMARK VINA RESULT:     -12.2      0.958      6.931
REMARK SMILES C/C(=C\C(=O)c1c(O)n(C)c2ccccc2c1=O)Nc1ccc(C(=O)OCCOCCOCCOC(=O)c2ccc(-c3c4nc(c(-c5c(F)c(F)c(F)c(F)c5F)c5ccc([nH]5)c(-c5c(F)c(F)c(F)c(F)c5F)c5nc(c(-c6c(F)c(F)c(F)c(F)c6F)c6ccc3[nH]6)C=C5)C=C4)cc2)cc1
REMARK SMILES IDX 29 1 28 2 27 3 26 4 24 5 25 6 23 7 20 8 21 9 102 10 22 11
REMARK SMILES IDX 101 12 19 13 2 15 1 16 3 17 4 18 5 19 6 20 7 21 17 22 9 23
REMARK SMILES IDX 16 24 18 25 10 26 11 27 15 28 12 29 14 30 13 31 8 32 30 34
REMARK SMILES IDX 31 35 32 36 33 37 34 38 35 39 36 40 37 41 38 42 39 43 100 44
REMARK SMILES IDX 40 45 99 46 41 47 42 48 43 49 93 50 44 51 98 52 92 53 94 54
REMARK SMILES IDX 45 55 97 56 91 57 90 58 46 60 78 61 58 62 77 63 59 64 62 65
REMARK SMILES IDX 76 66 95 67 60 68 61 69 75 71 96 72 63 73 47 74 48 75 56 76
REMARK SMILES IDX 49 77 50 78 54 79 57 80 51 81 52 82 55 83 53 84 79 85 80 86
REMARK SMILES IDX 88 87 81 88 82 89 86 90 89 91 83 92 84 93 87 94 85 95 64 96
REMARK SMILES IDX 65 97 73 98 66 99 67 100 71 101 74 102 68 103 69 104 72 105
REMARK SMILES IDX 70 106
REMARK H PARENT 19 14 8 33 94 59 62 70
REMARK Flexibility Score: inf
ROOT
ATOM      1  O   UNL A   1      31.880  28.165  25.099  1.00  0.00    -0.376 OA
ENDROOT
BRANCH   1   2
ATOM      2  C   UNL A   1      31.022  27.310  25.836  1.00  0.00     0.202 C 
BRANCH   2   3
ATOM      3  C   UNL A   1      31.232  25.798  26.060  1.00  0.00     0.261 C 
BRANCH   3   4
ATOM      4  O   UNL A   1      32.562  25.353  26.343  1.00  0.00    -0.460 OA
BRANCH   4   5
ATOM      5  C   UNL A   1      32.666  24.051  26.716  1.00  0.00     0.338 C 
ATOM      6  O   UNL A   1      31.809  23.385  27.276  1.00  0.00    -0.246 OA
BRANCH   5   7
ATOM      7  C   UNL A   1      33.891  23.446  26.144  1.00  0.00     0.060 A 
ATOM      8  C   UNL A   1      36.353  22.480  25.150  1.00  0.00     0.038 A 
ATOM      9  C   UNL A   1      36.015  23.831  25.046  1.00  0.00     0.027 A 
ATOM     10  C   UNL A   1      35.412  21.610  25.729  1.00  0.00     0.027 A 
ATOM     11  C   UNL A   1      34.806  24.315  25.546  1.00  0.00     0.018 A 
ATOM     12  C   UNL A   1      34.185  22.082  26.222  1.00  0.00     0.018 A 
BRANCH   8  13
ATOM     13  N   UNL A   1      37.607  21.973  24.755  1.00  0.00    -0.359 N 
ATOM     14  H   UNL A   1      37.926  22.302  23.884  1.00  0.00     0.166 HD
BRANCH  13  15
ATOM     15  C   UNL A   1      38.475  21.078  25.394  1.00  0.00     0.016 C 
ATOM     16  C   UNL A   1      38.293  19.598  25.135  1.00  0.00     0.064 C 
ATOM     17  C   UNL A   1      39.486  21.579  26.144  1.00  0.00     0.074 C 
BRANCH  17  18
ATOM     18  C   UNL A   1      40.695  20.967  26.796  1.00  0.00     0.196 C 
ATOM     19  O   UNL A   1      40.610  20.587  27.962  1.00  0.00    -0.289 OA
BRANCH  18  20
ATOM     20  C   UNL A   1      41.995  20.979  26.096  1.00  0.00     0.130 A 
ATOM     21  C   UNL A   1      42.631  19.829  25.788  1.00  0.00     0.206 A 
ATOM     22  C   UNL A   1      42.685  22.265  25.844  1.00  0.00     0.204 A 
ATOM     23  N   UNL A   1      43.966  19.778  25.398  1.00  0.00    -0.315 N 
ATOM     24  C   UNL A   1      44.035  22.214  25.244  1.00  0.00     0.047 A 
ATOM     25  O   UNL A   1      42.188  23.339  26.166  1.00  0.00    -0.288 OA
ATOM     26  C   UNL A   1      44.729  18.528  25.418  1.00  0.00     0.153 C 
ATOM     27  C   UNL A   1      44.663  20.965  25.079  1.00  0.00     0.055 A 
ATOM     28  C   UNL A   1      44.678  23.417  24.916  1.00  0.00     0.014 A 
ATOM     29  C   UNL A   1      45.981  20.977  24.599  1.00  0.00     0.027 A 
ATOM     30  C   UNL A   1      45.983  23.395  24.440  1.00  0.00     0.001 A 
ATOM     31  C   UNL A   1      46.634  22.176  24.302  1.00  0.00     0.002 A 
BRANCH  21  32
ATOM     32  O   UNL A   1      42.018  18.596  25.922  1.00  0.00    -0.494 OA
ATOM     33  H   UNL A   1      42.177  17.923  25.289  1.00  0.00     0.295 HD
ENDBRANCH  21  32
ENDBRANCH  18  20
ENDBRANCH  17  18
ENDBRANCH  13  15
ENDBRANCH   8  13
ENDBRANCH   5   7
ENDBRANCH   4   5
ENDBRANCH   3   4
ENDBRANCH   2   3
ENDBRANCH   1   2
BRANCH   1  34
ATOM     34  C   UNL A   1      32.104  29.493  25.512  1.00  0.00     0.188 C 
BRANCH  34  35
ATOM     35  C   UNL A   1      32.822  29.730  26.856  1.00  0.00     0.188 C 
BRANCH  35  36
ATOM     36  O   UNL A   1      33.158  31.037  27.272  1.00  0.00    -0.376 OA
BRANCH  36  37
ATOM     37  C   UNL A   1      32.214  32.089  27.142  1.00  0.00     0.202 C 
BRANCH  37  38
ATOM     38  C   UNL A   1      32.586  33.580  27.214  1.00  0.00     0.261 C 
BRANCH  38  39
ATOM     39  O   UNL A   1      32.236  34.267  28.421  1.00  0.00    -0.460 OA
BRANCH  39  40
ATOM     40  C   UNL A   1      33.086  35.253  28.797  1.00  0.00     0.338 C 
ATOM     41  O   UNL A   1      32.927  36.460  28.692  1.00  0.00    -0.246 OA
BRANCH  40  42
ATOM     42  C   UNL A   1      34.203  34.657  29.548  1.00  0.00     0.060 A 
ATOM     43  C   UNL A   1      33.998  34.135  30.823  1.00  0.00     0.016 A 
ATOM     44  C   UNL A   1      35.466  34.597  28.945  1.00  0.00     0.016 A 
ATOM     45  C   UNL A   1      35.064  33.526  31.489  1.00  0.00     0.010 A 
ATOM     46  C   UNL A   1      36.534  34.003  29.618  1.00  0.00     0.010 A 
ATOM     47  C   UNL A   1      36.333  33.438  30.884  1.00  0.00    -0.014 A 
BRANCH  47  48
ATOM     48  C   UNL A   1      37.401  32.626  31.517  1.00  0.00     0.031 A 
ATOM     49  C   UNL A   1      38.035  31.471  30.802  1.00  0.00     0.074 A 
ATOM     50  C   UNL A   1      37.792  32.957  32.763  1.00  0.00     0.049 A 
ATOM     51  N   UNL A   1      39.051  30.734  31.175  1.00  0.00    -0.248 NA
ATOM     52  C   UNL A   1      37.455  31.087  29.507  1.00  0.00     0.031 C 
ATOM     53  C   UNL A   1      37.219  34.044  33.558  1.00  0.00     0.029 A 
ATOM     54  N   UNL A   1      38.769  32.433  33.570  1.00  0.00    -0.354 N 
ATOM     55  C   UNL A   1      39.255  29.820  30.151  1.00  0.00     0.074 A 
ATOM     56  C   UNL A   1      38.218  30.055  29.166  1.00  0.00     0.031 C 
ATOM     57  C   UNL A   1      37.887  34.139  34.719  1.00  0.00     0.029 A 
ATOM     58  C   UNL A   1      38.916  33.104  34.761  1.00  0.00     0.049 A 
ATOM     59  H   UNL A   1      39.313  31.652  33.322  1.00  0.00     0.167 HD
ATOM     60  C   UNL A   1      40.235  28.892  30.037  1.00  0.00     0.037 A 
ATOM     61  C   UNL A   1      39.792  32.918  35.767  1.00  0.00     0.037 A 
ATOM     62  C   UNL A   1      41.249  28.657  31.036  1.00  0.00     0.049 A 
ATOM     63  C   UNL A   1      40.827  31.834  35.638  1.00  0.00     0.074 A 
ATOM     64  C   UNL A   1      42.306  27.764  30.999  1.00  0.00     0.029 A 
ATOM     65  N   UNL A   1      41.323  29.310  32.259  1.00  0.00    -0.354 N 
ATOM     66  N   UNL A   1      41.057  31.026  34.633  1.00  0.00    -0.248 NA
ATOM     67  C   UNL A   1      41.727  31.640  36.783  1.00  0.00     0.031 C 
ATOM     68  C   UNL A   1      42.982  27.833  32.220  1.00  0.00     0.029 A 
ATOM     69  C   UNL A   1      42.389  28.816  32.997  1.00  0.00     0.049 A 
ATOM     70  H   UNL A   1      40.710  30.020  32.559  1.00  0.00     0.167 HD
ATOM     71  C   UNL A   1      42.145  30.250  35.008  1.00  0.00     0.074 A 
ATOM     72  C   UNL A   1      42.534  30.690  36.332  1.00  0.00     0.031 C 
ATOM     73  C   UNL A   1      42.766  29.264  34.315  1.00  0.00     0.037 A 
BRANCH  60  74
ATOM     74  C   UNL A   1      40.283  28.062  28.784  1.00  0.00     0.064 A 
ATOM     75  C   UNL A   1      41.013  28.480  27.661  1.00  0.00     0.173 A 
ATOM     76  C   UNL A   1      39.681  26.794  28.737  1.00  0.00     0.173 A 
ATOM     77  F   UNL A   1      41.609  29.681  27.652  1.00  0.00    -0.203 F 
ATOM     78  C   UNL A   1      41.125  27.668  26.533  1.00  0.00     0.198 A 
ATOM     79  C   UNL A   1      39.820  25.973  27.619  1.00  0.00     0.198 A 
ATOM     80  F   UNL A   1      38.983  26.338  29.788  1.00  0.00    -0.203 F 
ATOM     81  F   UNL A   1      41.805  28.102  25.463  1.00  0.00    -0.200 F 
ATOM     82  C   UNL A   1      40.537  26.412  26.518  1.00  0.00     0.200 A 
ATOM     83  F   UNL A   1      39.269  24.751  27.614  1.00  0.00    -0.200 F 
ATOM     84  F   UNL A   1      40.665  25.625  25.442  1.00  0.00    -0.200 F 
ENDBRANCH  60  74
BRANCH  61  85
ATOM     85  C   UNL A   1      39.766  33.821  36.948  1.00  0.00     0.064 A 
ATOM     86  C   UNL A   1      40.482  35.025  36.946  1.00  0.00     0.173 A 
ATOM     87  C   UNL A   1      39.008  33.522  38.090  1.00  0.00     0.173 A 
ATOM     88  F   UNL A   1      41.246  35.347  35.892  1.00  0.00    -0.203 F 
ATOM     89  C   UNL A   1      40.439  35.891  38.037  1.00  0.00     0.198 A 
ATOM     90  C   UNL A   1      38.938  34.403  39.165  1.00  0.00     0.198 A 
ATOM     91  F   UNL A   1      38.319  32.377  38.159  1.00  0.00    -0.203 F 
ATOM     92  F   UNL A   1      41.159  37.021  38.022  1.00  0.00    -0.200 F 
ATOM     93  C   UNL A   1      39.656  35.586  39.141  1.00  0.00     0.200 A 
ATOM     94  F   UNL A   1      38.169  34.103  40.222  1.00  0.00    -0.200 F 
ATOM     95  F   UNL A   1      39.600  36.427  40.182  1.00  0.00    -0.200 F 
ENDBRANCH  61  85
BRANCH  73  96
ATOM     96  C   UNL A   1      43.948  28.596  34.959  1.00  0.00     0.064 A 
ATOM     97  C   UNL A   1      43.823  27.378  35.642  1.00  0.00     0.173 A 
ATOM     98  C   UNL A   1      45.235  29.142  34.822  1.00  0.00     0.173 A 
ATOM     99  F   UNL A   1      42.615  26.821  35.812  1.00  0.00    -0.203 F 
ATOM    100  C   UNL A   1      44.939  26.737  36.174  1.00  0.00     0.198 A 
ATOM    101  C   UNL A   1      46.352  28.483  35.328  1.00  0.00     0.198 A 
ATOM    102  F   UNL A   1      45.412  30.303  34.174  1.00  0.00    -0.203 F 
ATOM    103  F   UNL A   1      44.790  25.591  36.853  1.00  0.00    -0.200 F 
ATOM    104  C   UNL A   1      46.203  27.283  36.006  1.00  0.00     0.200 A 
ATOM    105  F   UNL A   1      47.574  29.004  35.150  1.00  0.00    -0.200 F 
ATOM    106  F   UNL A   1      47.277  26.653  36.501  1.00  0.00    -0.200 F 
ENDBRANCH  73  96
ENDBRANCH  47  48
ENDBRANCH  40  42
ENDBRANCH  39  40
ENDBRANCH  38  39
ENDBRANCH  37  38
ENDBRANCH  36  37
ENDBRANCH  35  36
ENDBRANCH  34  35
ENDBRANCH   1  34
TORSDOF 22
ENDMDL
MODEL 3
REMARK VINA RESULT:     -12.0      4.822      9.010
REMARK SMILES C/C(=C\C(=O)c1c(O)n(C)c2ccccc2c1=O)Nc1ccc(C(=O)OCCOCCOCCOC(=O)c2ccc(-c3c4nc(c(-c5c(F)c(F)c(F)c(F)c5F)c5ccc([nH]5)c(-c5c(F)c(F)c(F)c(F)c5F)c5nc(c(-c6c(F)c(F)c(F)c(F)c6F)c6ccc3[nH]6)C=C5)C=C4)cc2)cc1
REMARK SMILES IDX 29 1 28 2 27 3 26 4 24 5 25 6 23 7 20 8 21 9 102 10 22 11
REMARK SMILES IDX 101 12 19 13 2 15 1 16 3 17 4 18 5 19 6 20 7 21 17 22 9 23
REMARK SMILES IDX 16 24 18 25 10 26 11 27 15 28 12 29 14 30 13 31 8 32 30 34
REMARK SMILES IDX 31 35 32 36 33 37 34 38 35 39 36 40 37 41 38 42 39 43 100 44
REMARK SMILES IDX 40 45 99 46 41 47 42 48 43 49 93 50 44 51 98 52 92 53 94 54
REMARK SMILES IDX 45 55 97 56 91 57 90 58 46 60 78 61 58 62 77 63 59 64 62 65
REMARK SMILES IDX 76 66 95 67 60 68 61 69 75 71 96 72 63 73 47 74 48 75 56 76
REMARK SMILES IDX 49 77 50 78 54 79 57 80 51 81 52 82 55 83 53 84 79 85 80 86
REMARK SMILES IDX 88 87 81 88 82 89 86 90 89 91 83 92 84 93 87 94 85 95 64 96
REMARK SMILES IDX 65 97 73 98 66 99 67 100 71 101 74 102 68 103 69 104 72 105
REMARK SMILES IDX 70 106
REMARK H PARENT 19 14 8 33 94 59 62 70
REMARK Flexibility Score: inf
ROOT
ATOM      1  O   UNL A   1      33.131  37.008  30.406  1.00  0.00    -0.376 OA
ENDROOT
BRANCH   1   2
ATOM      2  C   UNL A   1      33.206  36.050  29.363  1.00  0.00     0.202 C 
BRANCH   2   3
ATOM      3  C   UNL A   1      33.650  34.581  29.519  1.00  0.00     0.261 C 
BRANCH   3   4
ATOM      4  O   UNL A   1      33.761  33.797  28.327  1.00  0.00    -0.460 OA
BRANCH   4   5
ATOM      5  C   UNL A   1      33.998  32.474  28.529  1.00  0.00     0.338 C 
ATOM      6  O   UNL A   1      34.559  31.975  29.492  1.00  0.00    -0.246 OA
BRANCH   5   7
ATOM      7  C   UNL A   1      33.272  31.661  27.526  1.00  0.00     0.060 A 
ATOM      8  C   UNL A   1      31.836  30.319  25.496  1.00  0.00     0.038 A 
ATOM      9  C   UNL A   1      31.335  31.483  26.083  1.00  0.00     0.027 A 
ATOM     10  C   UNL A   1      33.058  29.815  25.976  1.00  0.00     0.027 A 
ATOM     11  C   UNL A   1      32.046  32.156  27.078  1.00  0.00     0.018 A 
ATOM     12  C   UNL A   1      33.776  30.475  26.986  1.00  0.00     0.018 A 
BRANCH   8  13
ATOM     13  N   UNL A   1      31.201  29.673  24.417  1.00  0.00    -0.359 N 
ATOM     14  H   UNL A   1      31.238  30.165  23.566  1.00  0.00     0.166 HD
BRANCH  13  15
ATOM     15  C   UNL A   1      30.525  28.447  24.353  1.00  0.00     0.016 C 
ATOM     16  C   UNL A   1      29.453  28.276  23.298  1.00  0.00     0.064 C 
ATOM     17  C   UNL A   1      30.917  27.446  25.179  1.00  0.00     0.074 C 
BRANCH  17  18
ATOM     18  C   UNL A   1      30.584  25.982  25.264  1.00  0.00     0.196 C 
ATOM     19  O   UNL A   1      29.459  25.652  25.633  1.00  0.00    -0.289 OA
BRANCH  18  20
ATOM     20  C   UNL A   1      31.642  24.973  25.066  1.00  0.00     0.130 A 
ATOM     21  C   UNL A   1      32.202  24.778  23.854  1.00  0.00     0.206 A 
ATOM     22  C   UNL A   1      32.009  24.061  26.174  1.00  0.00     0.204 A 
ATOM     23  N   UNL A   1      32.981  23.668  23.543  1.00  0.00    -0.315 N 
ATOM     24  C   UNL A   1      32.992  22.995  25.890  1.00  0.00     0.047 A 
ATOM     25  O   UNL A   1      31.483  24.143  27.280  1.00  0.00    -0.288 OA
ATOM     26  C   UNL A   1      33.274  23.293  22.158  1.00  0.00     0.153 C 
ATOM     27  C   UNL A   1      33.419  22.795  24.564  1.00  0.00     0.055 A 
ATOM     28  C   UNL A   1      33.422  22.170  26.941  1.00  0.00     0.014 A 
ATOM     29  C   UNL A   1      34.275  21.708  24.331  1.00  0.00     0.027 A 
ATOM     30  C   UNL A   1      34.272  21.103  26.677  1.00  0.00     0.001 A 
ATOM     31  C   UNL A   1      34.678  20.866  25.371  1.00  0.00     0.002 A 
BRANCH  21  32
ATOM     32  O   UNL A   1      31.968  25.637  22.794  1.00  0.00    -0.494 OA
ATOM     33  H   UNL A   1      32.017  26.564  22.923  1.00  0.00     0.295 HD
ENDBRANCH  21  32
ENDBRANCH  18  20
ENDBRANCH  17  18
ENDBRANCH  13  15
ENDBRANCH   8  13
ENDBRANCH   5   7
ENDBRANCH   4   5
ENDBRANCH   3   4
ENDBRANCH   2   3
ENDBRANCH   1   2
BRANCH   1  34
ATOM     34  C   UNL A   1      32.823  36.618  31.723  1.00  0.00     0.188 C 
BRANCH  34  35
ATOM     35  C   UNL A   1      33.923  36.732  32.798  1.00  0.00     0.188 C 
BRANCH  35  36
ATOM     36  O   UNL A   1      35.127  36.002  32.678  1.00  0.00    -0.376 OA
BRANCH  36  37
ATOM     37  C   UNL A   1      35.341  34.851  33.480  1.00  0.00     0.202 C 
BRANCH  37  38
ATOM     38  C   UNL A   1      34.570  33.531  33.296  1.00  0.00     0.261 C 
BRANCH  38  39
ATOM     39  O   UNL A   1      35.338  32.395  32.885  1.00  0.00    -0.460 OA
BRANCH  39  40
ATOM     40  C   UNL A   1      36.492  32.195  33.566  1.00  0.00     0.338 C 
ATOM     41  O   UNL A   1      36.680  32.299  34.768  1.00  0.00    -0.246 OA
BRANCH  40  42
ATOM     42  C   UNL A   1      37.496  31.634  32.647  1.00  0.00     0.060 A 
ATOM     43  C   UNL A   1      37.398  31.855  31.275  1.00  0.00     0.016 A 
ATOM     44  C   UNL A   1      38.566  30.903  33.179  1.00  0.00     0.016 A 
ATOM     45  C   UNL A   1      38.395  31.358  30.433  1.00  0.00     0.010 A 
ATOM     46  C   UNL A   1      39.552  30.393  32.335  1.00  0.00     0.010 A 
ATOM     47  C   UNL A   1      39.488  30.642  30.958  1.00  0.00    -0.014 A 
BRANCH  47  48
ATOM     48  C   UNL A   1      40.631  30.285  30.082  1.00  0.00     0.031 A 
ATOM     49  C   UNL A   1      41.728  31.263  29.788  1.00  0.00     0.074 A 
ATOM     50  C   UNL A   1      40.659  29.047  29.551  1.00  0.00     0.049 A 
ATOM     51  N   UNL A   1      42.845  31.069  29.132  1.00  0.00    -0.248 NA
ATOM     52  C   UNL A   1      41.552  32.635  30.286  1.00  0.00     0.031 C 
ATOM     53  C   UNL A   1      39.626  28.029  29.751  1.00  0.00     0.029 A 
ATOM     54  N   UNL A   1      41.590  28.425  28.760  1.00  0.00    -0.354 N 
ATOM     55  C   UNL A   1      43.520  32.281  29.164  1.00  0.00     0.074 A 
ATOM     56  C   UNL A   1      42.661  33.223  29.852  1.00  0.00     0.031 C 
ATOM     57  C   UNL A   1      40.002  26.895  29.140  1.00  0.00     0.029 A 
ATOM     58  C   UNL A   1      41.289  27.112  28.485  1.00  0.00     0.049 A 
ATOM     59  H   UNL A   1      42.397  28.875  28.420  1.00  0.00     0.167 HD
ATOM     60  C   UNL A   1      44.755  32.567  28.684  1.00  0.00     0.037 A 
ATOM     61  C   UNL A   1      41.979  26.183  27.797  1.00  0.00     0.037 A 
ATOM     62  C   UNL A   1      45.591  31.622  27.983  1.00  0.00     0.049 A 
ATOM     63  C   UNL A   1      43.319  26.552  27.220  1.00  0.00     0.074 A 
ATOM     64  C   UNL A   1      46.871  31.805  27.489  1.00  0.00     0.029 A 
ATOM     65  N   UNL A   1      45.223  30.322  27.664  1.00  0.00    -0.354 N 
ATOM     66  N   UNL A   1      43.981  27.679  27.321  1.00  0.00    -0.248 NA
ATOM     67  C   UNL A   1      44.009  25.518  26.437  1.00  0.00     0.031 C 
ATOM     68  C   UNL A   1      47.253  30.639  26.820  1.00  0.00     0.029 A 
ATOM     69  C   UNL A   1      46.239  29.703  26.952  1.00  0.00     0.049 A 
ATOM     70  H   UNL A   1      44.366  29.901  27.908  1.00  0.00     0.167 HD
ATOM     71  C   UNL A   1      45.176  27.482  26.644  1.00  0.00     0.074 A 
ATOM     72  C   UNL A   1      45.152  26.123  26.143  1.00  0.00     0.031 C 
ATOM     73  C   UNL A   1      46.202  28.348  26.459  1.00  0.00     0.037 A 
BRANCH  60  74
ATOM     74  C   UNL A   1      45.300  33.950  28.909  1.00  0.00     0.064 A 
ATOM     75  C   UNL A   1      44.989  35.006  28.038  1.00  0.00     0.173 A 
ATOM     76  C   UNL A   1      46.052  34.250  30.055  1.00  0.00     0.173 A 
ATOM     77  F   UNL A   1      44.272  34.776  26.928  1.00  0.00    -0.203 F 
ATOM     78  C   UNL A   1      45.424  36.304  28.297  1.00  0.00     0.198 A 
ATOM     79  C   UNL A   1      46.461  35.555  30.326  1.00  0.00     0.198 A 
ATOM     80  F   UNL A   1      46.366  33.283  30.930  1.00  0.00    -0.203 F 
ATOM     81  F   UNL A   1      45.138  37.290  27.435  1.00  0.00    -0.200 F 
ATOM     82  C   UNL A   1      46.151  36.578  29.446  1.00  0.00     0.200 A 
ATOM     83  F   UNL A   1      47.145  35.822  31.448  1.00  0.00    -0.200 F 
ATOM     84  F   UNL A   1      46.549  37.831  29.704  1.00  0.00    -0.200 F 
ENDBRANCH  60  74
BRANCH  61  85
ATOM     85  C   UNL A   1      41.444  24.801  27.676  1.00  0.00     0.064 A 
ATOM     86  C   UNL A   1      40.339  24.529  26.859  1.00  0.00     0.173 A 
ATOM     87  C   UNL A   1      42.035  23.720  28.345  1.00  0.00     0.173 A 
ATOM     88  F   UNL A   1      39.719  25.531  26.217  1.00  0.00    -0.203 F 
ATOM     89  C   UNL A   1      39.851  23.231  26.716  1.00  0.00     0.198 A 
ATOM     90  C   UNL A   1      41.567  22.419  28.176  1.00  0.00     0.198 A 
ATOM     91  F   UNL A   1      43.079  23.920  29.156  1.00  0.00    -0.203 F 
ATOM     92  F   UNL A   1      38.773  23.004  25.952  1.00  0.00    -0.200 F 
ATOM     93  C   UNL A   1      40.473  22.175  27.365  1.00  0.00     0.200 A 
ATOM     94  F   UNL A   1      42.184  21.404  28.799  1.00  0.00    -0.200 F 
ATOM     95  F   UNL A   1      40.014  20.926  27.214  1.00  0.00    -0.200 F 
ENDBRANCH  61  85
BRANCH  73  96
ATOM     96  C   UNL A   1      47.401  27.858  25.696  1.00  0.00     0.064 A 
ATOM     97  C   UNL A   1      48.491  27.262  26.345  1.00  0.00     0.173 A 
ATOM     98  C   UNL A   1      47.422  27.912  24.293  1.00  0.00     0.173 A 
ATOM     99  F   UNL A   1      48.527  27.198  27.684  1.00  0.00    -0.203 F 
ATOM    100  C   UNL A   1      49.564  26.750  25.619  1.00  0.00     0.198 A 
ATOM    101  C   UNL A   1      48.481  27.371  23.569  1.00  0.00     0.198 A 
ATOM    102  F   UNL A   1      46.402  28.467  23.622  1.00  0.00    -0.203 F 
ATOM    103  F   UNL A   1      50.612  26.216  26.263  1.00  0.00    -0.200 F 
ATOM    104  C   UNL A   1      49.553  26.793  24.233  1.00  0.00     0.200 A 
ATOM    105  F   UNL A   1      48.460  27.398  22.230  1.00  0.00    -0.200 F 
ATOM    106  F   UNL A   1      50.577  26.280  23.537  1.00  0.00    -0.200 F 
ENDBRANCH  73  96
ENDBRANCH  47  48
ENDBRANCH  40  42
ENDBRANCH  39  40
ENDBRANCH  38  39
ENDBRANCH  37  38
ENDBRANCH  36  37
ENDBRANCH  35  36
ENDBRANCH  34  35
ENDBRANCH   1  34
TORSDOF 22
ENDMDL
