MODEL 1
REMARK VINA RESULT:     -12.5      0.000      0.000
REMARK SMILES O=C1O[C@@H](c2ccc(O)c(O)c2)[C@H](C(=O)OCCOCCOCCOC(=O)c2ccc(-c3c4nc(c(-c5c(F)c(F)c(F)c(F)c5F)c5ccc([nH]5)c(-c5c(F)c(F)c(F)c(F)c5F)c5nc(c(-c6c(F)c(F)c(F)c(F)c6F)c6ccc3[nH]6)C=C5)C=C4)cc2)/C1=C\c1ccc(O)c(O)c1
REMARK SMILES IDX 20 1 19 2 18 3 17 4 16 5 14 6 15 7 13 8 1 9 2 10 3 11 91 12
REMARK SMILES IDX 4 13 92 14 5 15 6 16 12 17 7 18 10 19 8 20 11 21 9 23 93 25
REMARK SMILES IDX 94 26 100 27 95 28 98 29 96 30 99 31 97 33 21 35 22 36 23 37
REMARK SMILES IDX 24 38 25 39 26 40 27 41 28 42 29 43 90 44 30 45 89 46 31 47
REMARK SMILES IDX 32 48 33 49 83 50 34 51 88 52 82 53 84 54 35 55 87 56 81 57
REMARK SMILES IDX 80 58 36 60 68 61 48 62 67 63 49 64 52 65 66 66 85 67 50 68
REMARK SMILES IDX 51 69 65 71 86 72 53 73 37 74 38 75 46 76 39 77 40 78 44 79
REMARK SMILES IDX 47 80 41 81 42 82 45 83 43 84 69 85 70 86 78 87 71 88 72 89
REMARK SMILES IDX 76 90 79 91 73 92 74 93 77 94 75 95 54 96 55 97 63 98 56 99
REMARK SMILES IDX 57 100 61 101 64 102 58 103 59 104 62 105 60 106
REMARK H PARENT 11 22 9 24 99 32 97 34 84 59 52 70
REMARK Flexibility Score: inf
ROOT
ATOM      1  C   UNL A   1      31.993  27.762  26.365  1.00  0.00     0.188 C 
ENDROOT
BRANCH   1   2
ATOM      2  O   UNL A   1      31.137  26.780  26.890  1.00  0.00    -0.376 OA
BRANCH   2   3
ATOM      3  C   UNL A   1      30.387  25.952  26.031  1.00  0.00     0.202 C 
BRANCH   3   4
ATOM      4  C   UNL A   1      31.037  24.920  25.095  1.00  0.00     0.261 C 
BRANCH   4   5
ATOM      5  O   UNL A   1      31.781  23.860  25.717  1.00  0.00    -0.463 OA
BRANCH   5   6
ATOM      6  C   UNL A   1      33.141  23.905  25.574  1.00  0.00     0.317 C 
ATOM      7  O   UNL A   1      33.847  24.841  25.921  1.00  0.00    -0.251 OA
BRANCH   6   8
ATOM      8  C   UNL A   1      33.644  22.602  24.957  1.00  0.00     0.182 C 
ATOM      9  O   UNL A   1      33.898  23.421  21.532  1.00  0.00    -0.247 OA
ATOM     10  C   UNL A   1      33.614  22.974  22.626  1.00  0.00     0.335 C 
ATOM     11  O   UNL A   1      32.394  22.487  22.995  1.00  0.00    -0.453 OA
ATOM     12  C   UNL A   1      34.530  22.846  23.789  1.00  0.00     0.056 C 
ATOM     13  C   UNL A   1      32.452  21.918  24.316  1.00  0.00     0.226 C 
ATOM     14  C   UNL A   1      35.866  22.862  23.633  1.00  0.00     0.020 C 
BRANCH  13  15
ATOM     15  C   UNL A   1      32.536  20.395  24.273  1.00  0.00    -0.002 A 
ATOM     16  C   UNL A   1      32.883  19.657  25.424  1.00  0.00     0.012 A 
ATOM     17  C   UNL A   1      32.197  19.687  23.108  1.00  0.00     0.057 A 
ATOM     18  C   UNL A   1      32.927  18.255  25.404  1.00  0.00     0.050 A 
ATOM     19  C   UNL A   1      32.235  18.299  23.099  1.00  0.00     0.157 A 
ATOM     20  C   UNL A   1      32.599  17.584  24.234  1.00  0.00     0.157 A 
BRANCH  19  21
ATOM     21  O   UNL A   1      31.894  17.637  21.955  1.00  0.00    -0.504 OA
ATOM     22  H   UNL A   1      31.990  18.059  21.123  1.00  0.00     0.293 HD
ENDBRANCH  19  21
BRANCH  20  23
ATOM     23  O   UNL A   1      32.603  16.220  24.151  1.00  0.00    -0.504 OA
ATOM     24  H   UNL A   1      31.849  15.769  23.825  1.00  0.00     0.293 HD
ENDBRANCH  20  23
ENDBRANCH  13  15
BRANCH  14  25
ATOM     25  C   UNL A   1      36.921  22.666  24.652  1.00  0.00    -0.021 A 
ATOM     26  C   UNL A   1      37.699  21.076  24.781  1.00  0.00     0.012 A 
ATOM     27  C   UNL A   1      37.461  24.065  25.556  1.00  0.00     0.058 A 
ATOM     28  C   UNL A   1      39.080  20.737  25.833  1.00  0.00     0.051 A 
ATOM     29  C   UNL A   1      38.864  23.902  26.680  1.00  0.00     0.157 A 
ATOM     30  C   UNL A   1      39.749  22.083  26.841  1.00  0.00     0.157 A 
BRANCH  29  31
ATOM     31  O   UNL A   1      38.954  25.152  27.310  1.00  0.00    -0.504 OA
ATOM     32  H   UNL A   1      38.790  25.226  28.229  1.00  0.00     0.293 HD
ENDBRANCH  29  31
BRANCH  30  33
ATOM     33  O   UNL A   1      40.724  21.509  27.665  1.00  0.00    -0.504 OA
ATOM     34  H   UNL A   1      41.550  21.937  27.781  1.00  0.00     0.293 HD
ENDBRANCH  30  33
ENDBRANCH  14  25
ENDBRANCH   6   8
ENDBRANCH   5   6
ENDBRANCH   4   5
ENDBRANCH   3   4
ENDBRANCH   2   3
ENDBRANCH   1   2
BRANCH   1  35
ATOM     35  C   UNL A   1      31.467  28.848  25.394  1.00  0.00     0.188 C 
BRANCH  35  36
ATOM     36  O   UNL A   1      31.955  30.165  25.467  1.00  0.00    -0.376 OA
BRANCH  36  37
ATOM     37  C   UNL A   1      31.030  31.205  25.735  1.00  0.00     0.202 C 
BRANCH  37  38
ATOM     38  C   UNL A   1      31.300  32.273  26.811  1.00  0.00     0.261 C 
BRANCH  38  39
ATOM     39  O   UNL A   1      32.465  33.081  26.582  1.00  0.00    -0.460 OA
BRANCH  39  40
ATOM     40  C   UNL A   1      33.125  33.479  27.692  1.00  0.00     0.338 C 
ATOM     41  O   UNL A   1      32.781  34.300  28.524  1.00  0.00    -0.246 OA
BRANCH  40  42
ATOM     42  C   UNL A   1      34.326  32.670  27.890  1.00  0.00     0.060 A 
ATOM     43  C   UNL A   1      34.218  30.875  28.148  1.00  0.00     0.016 A 
ATOM     44  C   UNL A   1      35.774  33.514  28.416  1.00  0.00     0.016 A 
ATOM     45  C   UNL A   1      35.779  29.956  29.047  1.00  0.00     0.010 A 
ATOM     46  C   UNL A   1      37.136  32.695  29.210  1.00  0.00     0.010 A 
ATOM     47  C   UNL A   1      37.183  30.967  29.551  1.00  0.00    -0.014 A 
BRANCH  47  48
ATOM     48  C   UNL A   1      38.314  30.408  30.309  1.00  0.00     0.031 A 
ATOM     49  C   UNL A   1      38.524  30.796  31.745  1.00  0.00     0.074 A 
ATOM     50  C   UNL A   1      39.175  29.603  29.664  1.00  0.00     0.049 A 
ATOM     51  N   UNL A   1      39.503  30.489  32.559  1.00  0.00    -0.248 NA
ATOM     52  C   UNL A   1      37.515  31.672  32.351  1.00  0.00     0.031 C 
ATOM     53  C   UNL A   1      39.075  29.222  28.256  1.00  0.00     0.029 A 
ATOM     54  N   UNL A   1      40.316  28.981  30.092  1.00  0.00    -0.354 N 
ATOM     55  C   UNL A   1      39.224  31.147  33.753  1.00  0.00     0.074 A 
ATOM     56  C   UNL A   1      38.020  31.912  33.549  1.00  0.00     0.031 C 
ATOM     57  C   UNL A   1      40.093  28.413  27.940  1.00  0.00     0.029 A 
ATOM     58  C   UNL A   1      40.951  28.265  29.106  1.00  0.00     0.049 A 
ATOM     59  H   UNL A   1      40.650  29.043  31.016  1.00  0.00     0.167 HD
ATOM     60  C   UNL A   1      39.910  31.104  34.919  1.00  0.00     0.037 A 
ATOM     61  C   UNL A   1      42.110  27.585  29.142  1.00  0.00     0.037 A 
ATOM     62  C   UNL A   1      41.118  30.342  35.083  1.00  0.00     0.049 A 
ATOM     63  C   UNL A   1      42.861  27.560  30.442  1.00  0.00     0.074 A 
ATOM     64  C   UNL A   1      41.907  30.192  36.207  1.00  0.00     0.029 A 
ATOM     65  N   UNL A   1      41.715  29.603  34.068  1.00  0.00    -0.354 N 
ATOM     66  N   UNL A   1      42.566  28.149  31.578  1.00  0.00    -0.248 NA
ATOM     67  C   UNL A   1      44.100  26.778  30.471  1.00  0.00     0.031 C 
ATOM     68  C   UNL A   1      43.012  29.410  35.854  1.00  0.00     0.029 A 
ATOM     69  C   UNL A   1      42.876  29.012  34.532  1.00  0.00     0.049 A 
ATOM     70  H   UNL A   1      41.363  29.514  33.153  1.00  0.00     0.167 HD
ATOM     71  C   UNL A   1      43.567  27.790  32.466  1.00  0.00     0.074 A 
ATOM     72  C   UNL A   1      44.464  26.912  31.738  1.00  0.00     0.031 C 
ATOM     73  C   UNL A   1      43.739  28.148  33.764  1.00  0.00     0.037 A 
BRANCH  60  74
ATOM     74  C   UNL A   1      39.384  31.919  36.073  1.00  0.00     0.064 A 
ATOM     75  C   UNL A   1      39.898  33.190  36.381  1.00  0.00     0.173 A 
ATOM     76  C   UNL A   1      38.357  31.422  36.890  1.00  0.00     0.173 A 
ATOM     77  F   UNL A   1      40.893  33.713  35.647  1.00  0.00    -0.203 F 
ATOM     78  C   UNL A   1      39.435  33.911  37.481  1.00  0.00     0.198 A 
ATOM     79  C   UNL A   1      37.871  32.160  37.967  1.00  0.00     0.198 A 
ATOM     80  F   UNL A   1      37.825  30.214  36.649  1.00  0.00    -0.203 F 
ATOM     81  F   UNL A   1      39.989  35.091  37.790  1.00  0.00    -0.200 F 
ATOM     82  C   UNL A   1      38.417  33.397  38.270  1.00  0.00     0.200 A 
ATOM     83  F   UNL A   1      36.878  31.667  38.723  1.00  0.00    -0.200 F 
ATOM     84  F   UNL A   1      37.971  34.090  39.327  1.00  0.00    -0.200 F 
ENDBRANCH  60  74
BRANCH  61  85
ATOM     85  C   UNL A   1      42.596  26.879  27.928  1.00  0.00     0.064 A 
ATOM     86  C   UNL A   1      43.345  27.551  26.952  1.00  0.00     0.173 A 
ATOM     87  C   UNL A   1      42.357  25.509  27.730  1.00  0.00     0.173 A 
ATOM     88  F   UNL A   1      43.595  28.863  27.085  1.00  0.00    -0.203 F 
ATOM     89  C   UNL A   1      43.817  26.889  25.819  1.00  0.00     0.198 A 
ATOM     90  C   UNL A   1      42.859  24.841  26.615  1.00  0.00     0.198 A 
ATOM     91  F   UNL A   1      41.659  24.812  28.637  1.00  0.00    -0.203 F 
ATOM     92  F   UNL A   1      44.491  27.569  24.881  1.00  0.00    -0.200 F 
ATOM     93  C   UNL A   1      43.581  25.533  25.655  1.00  0.00     0.200 A 
ATOM     94  F   UNL A   1      42.647  23.524  26.474  1.00  0.00    -0.200 F 
ATOM     95  F   UNL A   1      44.043  24.894  24.572  1.00  0.00    -0.200 F 
ENDBRANCH  61  85
BRANCH  73  96
ATOM     96  C   UNL A   1      44.920  27.554  34.470  1.00  0.00     0.064 A 
ATOM     97  C   UNL A   1      46.166  28.195  34.490  1.00  0.00     0.173 A 
ATOM     98  C   UNL A   1      44.790  26.335  35.152  1.00  0.00     0.173 A 
ATOM     99  F   UNL A   1      46.340  29.356  33.841  1.00  0.00    -0.203 F 
ATOM    100  C   UNL A   1      47.254  27.613  35.133  1.00  0.00     0.198 A 
ATOM    101  C   UNL A   1      45.869  25.778  35.827  1.00  0.00     0.198 A 
ATOM    102  F   UNL A   1      43.614  25.690  35.170  1.00  0.00    -0.203 F 
ATOM    103  F   UNL A   1      48.455  28.208  35.081  1.00  0.00    -0.200 F 
ATOM    104  C   UNL A   1      47.104  26.411  35.806  1.00  0.00     0.200 A 
ATOM    105  F   UNL A   1      45.717  24.626  36.494  1.00  0.00    -0.200 F 
ATOM    106  F   UNL A   1      48.151  25.854  36.428  1.00  0.00    -0.200 F 
ENDBRANCH  73  96
ENDBRANCH  47  48
ENDBRANCH  40  42
ENDBRANCH  39  40
ENDBRANCH  38  39
ENDBRANCH  37  38
ENDBRANCH  36  37
ENDBRANCH  35  36
ENDBRANCH   1  35
TORSDOF 23
ENDMDL
MODEL 2
REMARK VINA RESULT:     -11.4      1.930      7.862
REMARK SMILES O=C1O[C@@H](c2ccc(O)c(O)c2)[C@H](C(=O)OCCOCCOCCOC(=O)c2ccc(-c3c4nc(c(-c5c(F)c(F)c(F)c(F)c5F)c5ccc([nH]5)c(-c5c(F)c(F)c(F)c(F)c5F)c5nc(c(-c6c(F)c(F)c(F)c(F)c6F)c6ccc3[nH]6)C=C5)C=C4)cc2)/C1=C\c1ccc(O)c(O)c1
REMARK SMILES IDX 20 1 19 2 18 3 17 4 16 5 14 6 15 7 13 8 1 9 2 10 3 11 91 12
REMARK SMILES IDX 4 13 92 14 5 15 6 16 12 17 7 18 10 19 8 20 11 21 9 23 93 25
REMARK SMILES IDX 94 26 100 27 95 28 98 29 96 30 99 31 97 33 21 35 22 36 23 37
REMARK SMILES IDX 24 38 25 39 26 40 27 41 28 42 29 43 90 44 30 45 89 46 31 47
REMARK SMILES IDX 32 48 33 49 83 50 34 51 88 52 82 53 84 54 35 55 87 56 81 57
REMARK SMILES IDX 80 58 36 60 68 61 48 62 67 63 49 64 52 65 66 66 85 67 50 68
REMARK SMILES IDX 51 69 65 71 86 72 53 73 37 74 38 75 46 76 39 77 40 78 44 79
REMARK SMILES IDX 47 80 41 81 42 82 45 83 43 84 69 85 70 86 78 87 71 88 72 89
REMARK SMILES IDX 76 90 79 91 73 92 74 93 77 94 75 95 54 96 55 97 63 98 56 99
REMARK SMILES IDX 57 100 61 101 64 102 58 103 59 104 62 105 60 106
REMARK H PARENT 11 22 9 24 99 32 97 34 84 59 52 70
REMARK Flexibility Score: inf
ROOT
ATOM      1  C   UNL A   1      31.746  28.548  27.602  1.00  0.00     0.188 C 
ENDROOT
BRANCH   1   2
ATOM      2  O   UNL A   1      31.051  27.366  27.300  1.00  0.00    -0.376 OA
BRANCH   2   3
ATOM      3  C   UNL A   1      31.621  26.398  26.449  1.00  0.00     0.202 C 
BRANCH   3   4
ATOM      4  C   UNL A   1      31.881  24.950  26.894  1.00  0.00     0.261 C 
BRANCH   4   5
ATOM      5  O   UNL A   1      30.789  24.027  26.764  1.00  0.00    -0.463 OA
BRANCH   5   6
ATOM      6  C   UNL A   1      31.048  22.869  26.083  1.00  0.00     0.317 C 
ATOM      7  O   UNL A   1      30.326  21.882  26.085  1.00  0.00    -0.251 OA
BRANCH   6   8
ATOM      8  C   UNL A   1      32.348  23.008  25.292  1.00  0.00     0.182 C 
ATOM      9  O   UNL A   1      32.001  20.534  22.798  1.00  0.00    -0.247 OA
ATOM     10  C   UNL A   1      32.321  21.226  23.745  1.00  0.00     0.335 C 
ATOM     11  O   UNL A   1      32.907  20.782  24.894  1.00  0.00    -0.453 OA
ATOM     12  C   UNL A   1      32.158  22.699  23.852  1.00  0.00     0.056 C 
ATOM     13  C   UNL A   1      33.269  21.889  25.740  1.00  0.00     0.226 C 
ATOM     14  C   UNL A   1      31.988  23.465  22.760  1.00  0.00     0.020 C 
BRANCH  13  15
ATOM     15  C   UNL A   1      34.758  22.210  25.647  1.00  0.00    -0.002 A 
ATOM     16  C   UNL A   1      35.230  23.522  25.862  1.00  0.00     0.012 A 
ATOM     17  C   UNL A   1      35.701  21.195  25.419  1.00  0.00     0.057 A 
ATOM     18  C   UNL A   1      36.599  23.819  25.814  1.00  0.00     0.050 A 
ATOM     19  C   UNL A   1      37.055  21.496  25.382  1.00  0.00     0.157 A 
ATOM     20  C   UNL A   1      37.507  22.797  25.574  1.00  0.00     0.157 A 
BRANCH  19  21
ATOM     21  O   UNL A   1      37.951  20.488  25.165  1.00  0.00    -0.504 OA
ATOM     22  H   UNL A   1      38.498  20.188  25.865  1.00  0.00     0.293 HD
ENDBRANCH  19  21
BRANCH  20  23
ATOM     23  O   UNL A   1      38.855  23.014  25.534  1.00  0.00    -0.504 OA
ATOM     24  H   UNL A   1      39.380  22.576  24.893  1.00  0.00     0.293 HD
ENDBRANCH  20  23
ENDBRANCH  13  15
BRANCH  14  25
ATOM     25  C   UNL A   1      31.895  24.940  22.666  1.00  0.00    -0.021 A 
ATOM     26  C   UNL A   1      30.381  25.733  23.142  1.00  0.00     0.012 A 
ATOM     27  C   UNL A   1      33.346  25.830  22.253  1.00  0.00     0.058 A 
ATOM     28  C   UNL A   1      30.175  27.486  23.239  1.00  0.00     0.051 A 
ATOM     29  C   UNL A   1      33.318  27.634  22.301  1.00  0.00     0.157 A 
ATOM     30  C   UNL A   1      31.585  28.546  22.833  1.00  0.00     0.157 A 
BRANCH  29  31
ATOM     31  O   UNL A   1      34.578  28.015  21.817  1.00  0.00    -0.504 OA
ATOM     32  H   UNL A   1      34.666  28.791  21.299  1.00  0.00     0.293 HD
ENDBRANCH  29  31
BRANCH  30  33
ATOM     33  O   UNL A   1      31.107  29.861  22.855  1.00  0.00    -0.504 OA
ATOM     34  H   UNL A   1      31.642  30.548  23.204  1.00  0.00     0.293 HD
ENDBRANCH  30  33
ENDBRANCH  14  25
ENDBRANCH   6   8
ENDBRANCH   5   6
ENDBRANCH   4   5
ENDBRANCH   3   4
ENDBRANCH   2   3
ENDBRANCH   1   2
BRANCH   1  35
ATOM     35  C   UNL A   1      32.774  29.149  26.612  1.00  0.00     0.188 C 
BRANCH  35  36
ATOM     36  O   UNL A   1      32.934  30.543  26.512  1.00  0.00    -0.376 OA
BRANCH  36  37
ATOM     37  C   UNL A   1      33.385  31.246  27.657  1.00  0.00     0.202 C 
BRANCH  37  38
ATOM     38  C   UNL A   1      33.614  32.769  27.635  1.00  0.00     0.261 C 
BRANCH  38  39
ATOM     39  O   UNL A   1      32.545  33.549  28.192  1.00  0.00    -0.460 OA
BRANCH  39  40
ATOM     40  C   UNL A   1      32.898  34.760  28.675  1.00  0.00     0.338 C 
ATOM     41  O   UNL A   1      32.280  35.809  28.615  1.00  0.00    -0.246 OA
BRANCH  40  42
ATOM     42  C   UNL A   1      34.128  34.659  29.459  1.00  0.00     0.060 A 
ATOM     43  C   UNL A   1      35.746  35.020  28.717  1.00  0.00     0.016 A 
ATOM     44  C   UNL A   1      34.064  33.678  30.914  1.00  0.00     0.016 A 
ATOM     45  C   UNL A   1      37.387  34.246  29.613  1.00  0.00     0.010 A 
ATOM     46  C   UNL A   1      35.513  32.999  31.687  1.00  0.00     0.010 A 
ATOM     47  C   UNL A   1      37.152  33.237  31.087  1.00  0.00    -0.014 A 
BRANCH  47  48
ATOM     48  C   UNL A   1      38.272  32.542  31.743  1.00  0.00     0.031 A 
ATOM     49  C   UNL A   1      38.916  31.358  31.079  1.00  0.00     0.074 A 
ATOM     50  C   UNL A   1      38.648  32.956  32.964  1.00  0.00     0.049 A 
ATOM     51  N   UNL A   1      39.850  30.556  31.525  1.00  0.00    -0.248 NA
ATOM     52  C   UNL A   1      38.433  31.001  29.740  1.00  0.00     0.031 C 
ATOM     53  C   UNL A   1      38.037  34.060  33.702  1.00  0.00     0.029 A 
ATOM     54  N   UNL A   1      39.611  32.486  33.814  1.00  0.00    -0.354 N 
ATOM     55  C   UNL A   1      40.043  29.606  30.527  1.00  0.00     0.074 A 
ATOM     56  C   UNL A   1      39.100  29.890  29.476  1.00  0.00     0.031 C 
ATOM     57  C   UNL A   1      38.653  34.203  34.882  1.00  0.00     0.029 A 
ATOM     58  C   UNL A   1      39.663  33.163  35.009  1.00  0.00     0.049 A 
ATOM     59  H   UNL A   1      40.208  31.735  33.592  1.00  0.00     0.167 HD
ATOM     60  C   UNL A   1      40.940  28.592  30.490  1.00  0.00     0.037 A 
ATOM     61  C   UNL A   1      40.429  32.946  36.092  1.00  0.00     0.037 A 
ATOM     62  C   UNL A   1      41.858  28.327  31.565  1.00  0.00     0.049 A 
ATOM     63  C   UNL A   1      41.408  31.809  36.035  1.00  0.00     0.074 A 
ATOM     64  C   UNL A   1      42.829  27.349  31.658  1.00  0.00     0.029 A 
ATOM     65  N   UNL A   1      41.900  29.055  32.748  1.00  0.00    -0.354 N 
ATOM     66  N   UNL A   1      41.614  30.944  35.069  1.00  0.00    -0.248 NA
ATOM     67  C   UNL A   1      42.263  31.618  37.210  1.00  0.00     0.031 C 
ATOM     68  C   UNL A   1      43.419  27.449  32.923  1.00  0.00     0.029 A 
ATOM     69  C   UNL A   1      42.868  28.534  33.589  1.00  0.00     0.049 A 
ATOM     70  H   UNL A   1      41.327  29.827  32.957  1.00  0.00     0.167 HD
ATOM     71  C   UNL A   1      42.638  30.120  35.506  1.00  0.00     0.074 A 
ATOM     72  C   UNL A   1      43.025  30.607  36.817  1.00  0.00     0.031 C 
ATOM     73  C   UNL A   1      43.212  29.055  34.890  1.00  0.00     0.037 A 
BRANCH  60  74
ATOM     74  C   UNL A   1      40.940  27.700  29.276  1.00  0.00     0.064 A 
ATOM     75  C   UNL A   1      41.885  27.845  28.246  1.00  0.00     0.173 A 
ATOM     76  C   UNL A   1      39.978  26.688  29.132  1.00  0.00     0.173 A 
ATOM     77  F   UNL A   1      42.821  28.805  28.318  1.00  0.00    -0.203 F 
ATOM     78  C   UNL A   1      41.842  27.043  27.107  1.00  0.00     0.198 A 
ATOM     79  C   UNL A   1      39.959  25.864  28.008  1.00  0.00     0.198 A 
ATOM     80  F   UNL A   1      39.048  26.499  30.080  1.00  0.00    -0.203 F 
ATOM     81  F   UNL A   1      42.714  27.248  26.110  1.00  0.00    -0.200 F 
ATOM     82  C   UNL A   1      40.883  26.049  26.991  1.00  0.00     0.200 A 
ATOM     83  F   UNL A   1      39.037  24.896  27.903  1.00  0.00    -0.200 F 
ATOM     84  F   UNL A   1      40.841  25.278  25.895  1.00  0.00    -0.200 F 
ENDBRANCH  60  74
BRANCH  61  85
ATOM     85  C   UNL A   1      40.301  33.828  37.282  1.00  0.00     0.064 A 
ATOM     86  C   UNL A   1      41.114  34.960  37.434  1.00  0.00     0.173 A 
ATOM     87  C   UNL A   1      39.340  33.583  38.277  1.00  0.00     0.173 A 
ATOM     88  F   UNL A   1      42.055  35.236  36.519  1.00  0.00    -0.203 F 
ATOM     89  C   UNL A   1      40.987  35.799  38.541  1.00  0.00     0.198 A 
ATOM     90  C   UNL A   1      39.189  34.442  39.364  1.00  0.00     0.198 A 
ATOM     91  F   UNL A   1      38.525  32.524  38.176  1.00  0.00    -0.203 F 
ATOM     92  F   UNL A   1      41.808  36.847  38.682  1.00  0.00    -0.200 F 
ATOM     93  C   UNL A   1      40.019  35.544  39.501  1.00  0.00     0.200 A 
ATOM     94  F   UNL A   1      38.236  34.202  40.276  1.00  0.00    -0.200 F 
ATOM     95  F   UNL A   1      39.889  36.355  40.559  1.00  0.00    -0.200 F 
ENDBRANCH  61  85
BRANCH  73  96
ATOM     96  C   UNL A   1      44.336  28.385  35.621  1.00  0.00     0.064 A 
ATOM     97  C   UNL A   1      44.115  27.296  36.476  1.00  0.00     0.173 A 
ATOM     98  C   UNL A   1      45.653  28.832  35.445  1.00  0.00     0.173 A 
ATOM     99  F   UNL A   1      42.869  26.843  36.685  1.00  0.00    -0.203 F 
ATOM    100  C   UNL A   1      45.170  26.705  37.162  1.00  0.00     0.198 A 
ATOM    101  C   UNL A   1      46.710  28.212  36.100  1.00  0.00     0.198 A 
ATOM    102  F   UNL A   1      45.915  29.865  34.629  1.00  0.00    -0.203 F 
ATOM    103  F   UNL A   1      44.929  25.711  38.028  1.00  0.00    -0.200 F 
ATOM    104  C   UNL A   1      46.466  27.158  36.969  1.00  0.00     0.200 A 
ATOM    105  F   UNL A   1      47.964  28.638  35.897  1.00  0.00    -0.200 F 
ATOM    106  F   UNL A   1      47.482  26.586  37.627  1.00  0.00    -0.200 F 
ENDBRANCH  73  96
ENDBRANCH  47  48
ENDBRANCH  40  42
ENDBRANCH  39  40
ENDBRANCH  38  39
ENDBRANCH  37  38
ENDBRANCH  36  37
ENDBRANCH  35  36
ENDBRANCH   1  35
TORSDOF 23
ENDMDL
MODEL 3
REMARK VINA RESULT:     -11.3      1.721      3.877
REMARK SMILES O=C1O[C@@H](c2ccc(O)c(O)c2)[C@H](C(=O)OCCOCCOCCOC(=O)c2ccc(-c3c4nc(c(-c5c(F)c(F)c(F)c(F)c5F)c5ccc([nH]5)c(-c5c(F)c(F)c(F)c(F)c5F)c5nc(c(-c6c(F)c(F)c(F)c(F)c6F)c6ccc3[nH]6)C=C5)C=C4)cc2)/C1=C\c1ccc(O)c(O)c1
REMARK SMILES IDX 20 1 19 2 18 3 17 4 16 5 14 6 15 7 13 8 1 9 2 10 3 11 91 12
REMARK SMILES IDX 4 13 92 14 5 15 6 16 12 17 7 18 10 19 8 20 11 21 9 23 93 25
REMARK SMILES IDX 94 26 100 27 95 28 98 29 96 30 99 31 97 33 21 35 22 36 23 37
REMARK SMILES IDX 24 38 25 39 26 40 27 41 28 42 29 43 90 44 30 45 89 46 31 47
REMARK SMILES IDX 32 48 33 49 83 50 34 51 88 52 82 53 84 54 35 55 87 56 81 57
REMARK SMILES IDX 80 58 36 60 68 61 48 62 67 63 49 64 52 65 66 66 85 67 50 68
REMARK SMILES IDX 51 69 65 71 86 72 53 73 37 74 38 75 46 76 39 77 40 78 44 79
REMARK SMILES IDX 47 80 41 81 42 82 45 83 43 84 69 85 70 86 78 87 71 88 72 89
REMARK SMILES IDX 76 90 79 91 73 92 74 93 77 94 75 95 54 96 55 97 63 98 56 99
REMARK SMILES IDX 57 100 61 101 64 102 58 103 59 104 62 105 60 106
REMARK H PARENT 11 22 9 24 99 32 97 34 84 59 52 70
REMARK Flexibility Score: inf
ROOT
ATOM      1  C   UNL A   1      31.565  28.474  27.645  1.00  0.00     0.188 C 
ENDROOT
BRANCH   1   2
ATOM      2  O   UNL A   1      30.903  27.281  27.313  1.00  0.00    -0.376 OA
BRANCH   2   3
ATOM      3  C   UNL A   1      31.431  26.420  26.329  1.00  0.00     0.202 C 
BRANCH   3   4
ATOM      4  C   UNL A   1      31.704  24.930  26.589  1.00  0.00     0.261 C 
BRANCH   4   5
ATOM      5  O   UNL A   1      30.653  24.011  26.254  1.00  0.00    -0.463 OA
BRANCH   5   6
ATOM      6  C   UNL A   1      31.040  22.760  25.859  1.00  0.00     0.317 C 
ATOM      7  O   UNL A   1      30.382  21.743  26.022  1.00  0.00    -0.251 OA
BRANCH   6   8
ATOM      8  C   UNL A   1      32.394  22.830  25.154  1.00  0.00     0.182 C 
ATOM      9  O   UNL A   1      31.837  20.936  22.228  1.00  0.00    -0.247 OA
ATOM     10  C   UNL A   1      32.197  21.386  23.298  1.00  0.00     0.335 C 
ATOM     11  O   UNL A   1      32.636  20.653  24.362  1.00  0.00    -0.453 OA
ATOM     12  C   UNL A   1      32.251  22.822  23.676  1.00  0.00     0.056 C 
ATOM     13  C   UNL A   1      33.105  21.517  25.414  1.00  0.00     0.226 C 
ATOM     14  C   UNL A   1      32.267  23.790  22.743  1.00  0.00     0.020 C 
BRANCH  13  15
ATOM     15  C   UNL A   1      34.628  21.608  25.435  1.00  0.00    -0.002 A 
ATOM     16  C   UNL A   1      35.423  20.521  25.012  1.00  0.00     0.012 A 
ATOM     17  C   UNL A   1      35.275  22.799  25.803  1.00  0.00     0.057 A 
ATOM     18  C   UNL A   1      36.823  20.608  24.993  1.00  0.00     0.050 A 
ATOM     19  C   UNL A   1      36.660  22.879  25.774  1.00  0.00     0.157 A 
ATOM     20  C   UNL A   1      37.433  21.795  25.375  1.00  0.00     0.157 A 
BRANCH  19  21
ATOM     21  O   UNL A   1      37.262  24.052  26.131  1.00  0.00    -0.504 OA
ATOM     22  H   UNL A   1      38.173  24.184  25.952  1.00  0.00     0.293 HD
ENDBRANCH  19  21
BRANCH  20  23
ATOM     23  O   UNL A   1      38.790  21.953  25.362  1.00  0.00    -0.504 OA
ATOM     24  H   UNL A   1      39.239  22.212  26.143  1.00  0.00     0.293 HD
ENDBRANCH  20  23
ENDBRANCH  13  15
BRANCH  14  25
ATOM     25  C   UNL A   1      32.403  25.253  22.926  1.00  0.00    -0.021 A 
ATOM     26  C   UNL A   1      33.870  25.885  23.698  1.00  0.00     0.012 A 
ATOM     27  C   UNL A   1      31.182  26.287  22.213  1.00  0.00     0.058 A 
ATOM     28  C   UNL A   1      34.247  27.607  23.839  1.00  0.00     0.051 A 
ATOM     29  C   UNL A   1      31.405  28.078  22.263  1.00  0.00     0.157 A 
ATOM     30  C   UNL A   1      33.075  28.806  23.156  1.00  0.00     0.157 A 
BRANCH  29  31
ATOM     31  O   UNL A   1      30.219  28.592  21.718  1.00  0.00    -0.504 OA
ATOM     32  H   UNL A   1      29.569  28.966  22.280  1.00  0.00     0.293 HD
ENDBRANCH  29  31
BRANCH  30  33
ATOM     33  O   UNL A   1      33.547  30.070  23.527  1.00  0.00    -0.504 OA
ATOM     34  H   UNL A   1      33.380  30.811  22.978  1.00  0.00     0.293 HD
ENDBRANCH  30  33
ENDBRANCH  14  25
ENDBRANCH   6   8
ENDBRANCH   5   6
ENDBRANCH   4   5
ENDBRANCH   3   4
ENDBRANCH   2   3
ENDBRANCH   1   2
BRANCH   1  35
ATOM     35  C   UNL A   1      32.823  28.936  26.869  1.00  0.00     0.188 C 
BRANCH  35  36
ATOM     36  O   UNL A   1      33.010  30.296  26.562  1.00  0.00    -0.376 OA
BRANCH  36  37
ATOM     37  C   UNL A   1      33.406  31.167  27.609  1.00  0.00     0.202 C 
BRANCH  37  38
ATOM     38  C   UNL A   1      33.484  32.691  27.407  1.00  0.00     0.261 C 
BRANCH  38  39
ATOM     39  O   UNL A   1      32.533  33.452  28.167  1.00  0.00    -0.460 OA
BRANCH  39  40
ATOM     40  C   UNL A   1      32.992  34.614  28.680  1.00  0.00     0.338 C 
ATOM     41  O   UNL A   1      32.442  35.702  28.701  1.00  0.00    -0.246 OA
BRANCH  40  42
ATOM     42  C   UNL A   1      34.254  34.399  29.385  1.00  0.00     0.060 A 
ATOM     43  C   UNL A   1      35.848  34.577  28.532  1.00  0.00     0.016 A 
ATOM     44  C   UNL A   1      34.187  33.453  30.863  1.00  0.00     0.016 A 
ATOM     45  C   UNL A   1      37.457  33.653  29.337  1.00  0.00     0.010 A 
ATOM     46  C   UNL A   1      35.607  32.641  31.557  1.00  0.00     0.010 A 
ATOM     47  C   UNL A   1      37.219  32.697  30.847  1.00  0.00    -0.014 A 
BRANCH  47  48
ATOM     48  C   UNL A   1      38.303  31.901  31.445  1.00  0.00     0.031 A 
ATOM     49  C   UNL A   1      38.797  32.219  32.827  1.00  0.00     0.074 A 
ATOM     50  C   UNL A   1      38.870  30.939  30.698  1.00  0.00     0.049 A 
ATOM     51  N   UNL A   1      39.795  31.701  33.498  1.00  0.00    -0.248 NA
ATOM     52  C   UNL A   1      38.095  33.283  33.555  1.00  0.00     0.031 C 
ATOM     53  C   UNL A   1      38.488  30.604  29.328  1.00  0.00     0.029 A 
ATOM     54  N   UNL A   1      39.903  30.083  30.970  1.00  0.00    -0.354 N 
ATOM     55  C   UNL A   1      39.838  32.390  34.706  1.00  0.00     0.074 A 
ATOM     56  C   UNL A   1      38.808  33.396  34.663  1.00  0.00     0.031 C 
ATOM     57  C   UNL A   1      39.254  29.600  28.884  1.00  0.00     0.029 A 
ATOM     58  C   UNL A   1      40.220  29.259  29.917  1.00  0.00     0.049 A 
ATOM     59  H   UNL A   1      40.372  30.061  31.834  1.00  0.00     0.167 HD
ATOM     60  C   UNL A   1      40.661  32.188  35.762  1.00  0.00     0.037 A 
ATOM     61  C   UNL A   1      41.201  28.347  29.799  1.00  0.00     0.037 A 
ATOM     62  C   UNL A   1      41.690  31.183  35.766  1.00  0.00     0.049 A 
ATOM     63  C   UNL A   1      42.110  28.148  30.977  1.00  0.00     0.074 A 
ATOM     64  C   UNL A   1      42.584  30.856  36.766  1.00  0.00     0.029 A 
ATOM     65  N   UNL A   1      41.962  30.347  34.689  1.00  0.00    -0.354 N 
ATOM     66  N   UNL A   1      42.115  28.773  32.132  1.00  0.00    -0.248 NA
ATOM     67  C   UNL A   1      43.145  27.119  30.843  1.00  0.00     0.031 C 
ATOM     68  C   UNL A   1      43.434  29.860  36.274  1.00  0.00     0.029 A 
ATOM     69  C   UNL A   1      43.026  29.516  34.993  1.00  0.00     0.049 A 
ATOM     70  H   UNL A   1      41.471  30.344  33.836  1.00  0.00     0.167 HD
ATOM     71  C   UNL A   1      43.134  28.198  32.874  1.00  0.00     0.074 A 
ATOM     72  C   UNL A   1      43.709  27.158  32.042  1.00  0.00     0.031 C 
ATOM     73  C   UNL A   1      43.564  28.497  34.126  1.00  0.00     0.037 A 
BRANCH  60  74
ATOM     74  C   UNL A   1      40.494  33.082  36.963  1.00  0.00     0.064 A 
ATOM     75  C   UNL A   1      39.480  32.870  37.913  1.00  0.00     0.173 A 
ATOM     76  C   UNL A   1      41.352  34.174  37.167  1.00  0.00     0.173 A 
ATOM     77  F   UNL A   1      38.617  31.853  37.765  1.00  0.00    -0.203 F 
ATOM     78  C   UNL A   1      39.307  33.736  38.992  1.00  0.00     0.198 A 
ATOM     79  C   UNL A   1      41.199  35.017  38.266  1.00  0.00     0.198 A 
ATOM     80  F   UNL A   1      42.339  34.431  36.296  1.00  0.00    -0.203 F 
ATOM     81  F   UNL A   1      38.292  33.548  39.846  1.00  0.00    -0.200 F 
ATOM     82  C   UNL A   1      40.171  34.805  39.171  1.00  0.00     0.200 A 
ATOM     83  F   UNL A   1      42.043  36.045  38.444  1.00  0.00    -0.200 F 
ATOM     84  F   UNL A   1      40.005  35.637  40.209  1.00  0.00    -0.200 F 
ENDBRANCH  60  74
BRANCH  61  85
ATOM     85  C   UNL A   1      41.345  27.568  28.541  1.00  0.00     0.064 A 
ATOM     86  C   UNL A   1      42.216  27.986  27.527  1.00  0.00     0.173 A 
ATOM     87  C   UNL A   1      40.644  26.368  28.337  1.00  0.00     0.173 A 
ATOM     88  F   UNL A   1      42.903  29.131  27.665  1.00  0.00    -0.203 F 
ATOM     89  C   UNL A   1      42.367  27.251  26.352  1.00  0.00     0.198 A 
ATOM     90  C   UNL A   1      40.821  25.615  27.178  1.00  0.00     0.198 A 
ATOM     91  F   UNL A   1      39.807  25.911  29.280  1.00  0.00    -0.203 F 
ATOM     92  F   UNL A   1      43.173  27.700  25.381  1.00  0.00    -0.200 F 
ATOM     93  C   UNL A   1      41.676  26.061  26.182  1.00  0.00     0.200 A 
ATOM     94  F   UNL A   1      40.167  24.453  27.031  1.00  0.00    -0.200 F 
ATOM     95  F   UNL A   1      41.827  25.348  25.058  1.00  0.00    -0.200 F 
ENDBRANCH  61  85
BRANCH  73  96
ATOM     96  C   UNL A   1      44.682  27.656  34.666  1.00  0.00     0.064 A 
ATOM     97  C   UNL A   1      44.439  26.453  35.343  1.00  0.00     0.173 A 
ATOM     98  C   UNL A   1      46.013  28.056  34.484  1.00  0.00     0.173 A 
ATOM     99  F   UNL A   1      43.180  26.037  35.553  1.00  0.00    -0.203 F 
ATOM    100  C   UNL A   1      45.490  25.701  35.857  1.00  0.00     0.198 A 
ATOM    101  C   UNL A   1      47.063  27.281  34.962  1.00  0.00     0.198 A 
ATOM    102  F   UNL A   1      46.296  29.195  33.832  1.00  0.00    -0.203 F 
ATOM    103  F   UNL A   1      45.234  24.591  36.562  1.00  0.00    -0.200 F 
ATOM    104  C   UNL A   1      46.800  26.111  35.660  1.00  0.00     0.200 A 
ATOM    105  F   UNL A   1      48.328  27.668  34.754  1.00  0.00    -0.200 F 
ATOM    106  F   UNL A   1      47.812  25.384  36.152  1.00  0.00    -0.200 F 
ENDBRANCH  73  96
ENDBRANCH  47  48
ENDBRANCH  40  42
ENDBRANCH  39  40
ENDBRANCH  38  39
ENDBRANCH  37  38
ENDBRANCH  36  37
ENDBRANCH  35  36
ENDBRANCH   1  35
TORSDOF 23
ENDMDL
