MODEL 1
REMARK VINA RESULT:      -8.0      0.000      0.000
REMARK SMILES CCCCCCNC(=O)Oc1cccc(-c2ccc([C@@H](C)C(=O)OCCOCCOCCOC(=O)c3ccc(-c4c5nc(c(-c6c(F)c(F)c(F)c(F)c6F)c6ccc([nH]6)c(-c6c(F)c(F)c(F)c(F)c6F)c6nc(c(-c7c(F)c(F)c(F)c(F)c7F)c7ccc4[nH]7)C=C6)C=C5)cc3)cc2Cl)c1
REMARK SMILES IDX 25 1 24 2 22 3 23 4 20 5 21 6 19 7 16 8 17 9 100 10 18 11
REMARK SMILES IDX 99 12 101 13 15 14 11 15 12 16 102 17 13 18 14 19 10 20 8 21
REMARK SMILES IDX 7 22 9 24 6 25 5 26 4 27 3 28 2 29 1 30 26 31 27 32 28 33
REMARK SMILES IDX 29 34 30 35 31 36 32 37 33 38 34 39 35 40 36 41 37 42 98 43
REMARK SMILES IDX 38 44 97 45 39 46 40 47 41 48 91 49 42 50 96 51 90 52 92 53
REMARK SMILES IDX 43 54 95 55 89 56 88 57 44 59 76 60 56 61 75 62 57 63 60 64
REMARK SMILES IDX 74 65 93 66 58 67 59 68 73 70 94 71 61 72 45 73 46 74 54 75
REMARK SMILES IDX 47 76 48 77 52 78 55 79 49 80 50 81 53 82 51 83 77 84 78 85
REMARK SMILES IDX 86 86 79 87 80 88 84 89 87 90 81 91 82 92 85 93 83 94 62 95
REMARK SMILES IDX 63 96 71 97 64 98 65 99 69 100 72 101 66 102 67 103 70 104
REMARK SMILES IDX 68 105
REMARK H PARENT 7 23 92 58 60 69
REMARK Flexibility Score: inf
ROOT
ATOM      1  C   UNL A   1      35.579  33.178  28.799  1.00  0.00     0.261 C 
ENDROOT
BRANCH   1   2
ATOM      2  O   UNL A   1      36.282  32.186  28.013  1.00  0.00    -0.463 OA
BRANCH   2   3
ATOM      3  C   UNL A   1      36.445  30.966  28.585  1.00  0.00     0.313 C 
ATOM      4  O   UNL A   1      35.717  30.004  28.342  1.00  0.00    -0.252 OA
BRANCH   3   5
ATOM      5  C   UNL A   1      37.621  30.819  29.556  1.00  0.00     0.126 C 
ATOM      6  C   UNL A   1      38.381  32.142  29.612  1.00  0.00     0.025 C 
BRANCH   5   7
ATOM      7  C   UNL A   1      38.599  29.648  29.467  1.00  0.00    -0.033 A 
ATOM      8  C   UNL A   1      40.526  27.525  29.211  1.00  0.00     0.000 A 
ATOM      9  C   UNL A   1      39.328  27.369  29.941  1.00  0.00     0.010 A 
ATOM     10  C   UNL A   1      40.733  28.773  28.600  1.00  0.00     0.049 A 
ATOM     11  C   UNL A   1      38.376  28.401  30.058  1.00  0.00     0.005 A 
ATOM     12  C   UNL A   1      39.788  29.808  28.725  1.00  0.00     0.025 A 
ATOM     13  Cl  UNL A   1      42.128  29.113  27.629  1.00  0.00    -0.084 Cl
BRANCH   8  14
ATOM     14  C   UNL A   1      41.455  26.378  29.070  1.00  0.00    -0.013 A 
ATOM     15  C   UNL A   1      41.983  24.101  28.387  1.00  0.00     0.133 A 
ATOM     16  C   UNL A   1      43.263  24.201  28.926  1.00  0.00     0.047 A 
ATOM     17  C   UNL A   1      41.081  25.171  28.449  1.00  0.00     0.056 A 
ATOM     18  C   UNL A   1      43.657  25.394  29.523  1.00  0.00     0.004 A 
ATOM     19  C   UNL A   1      42.761  26.467  29.597  1.00  0.00     0.009 A 
BRANCH  15  20
ATOM     20  O   UNL A   1      41.595  22.832  27.918  1.00  0.00    -0.410 OA
BRANCH  20  21
ATOM     21  C   UNL A   1      40.862  22.767  26.745  1.00  0.00     0.412 C 
ATOM     22  N   UNL A   1      41.621  22.459  25.646  1.00  0.00    -0.321 N 
ATOM     23  H   UNL A   1      41.133  22.333  24.801  1.00  0.00     0.167 HD
ATOM     24  O   UNL A   1      39.656  22.979  26.636  1.00  0.00    -0.224 OA
BRANCH  22  25
ATOM     25  C   UNL A   1      43.062  22.298  25.590  1.00  0.00     0.119 C 
BRANCH  25  26
ATOM     26  C   UNL A   1      43.747  23.412  24.797  1.00  0.00     0.021 C 
BRANCH  26  27
ATOM     27  C   UNL A   1      43.168  24.817  25.013  1.00  0.00     0.002 C 
BRANCH  27  28
ATOM     28  C   UNL A   1      44.038  25.778  25.830  1.00  0.00    -0.000 C 
BRANCH  28  29
ATOM     29  C   UNL A   1      44.451  27.067  25.115  1.00  0.00    -0.003 C 
ATOM     30  C   UNL A   1      45.232  28.027  25.999  1.00  0.00     0.004 C 
ENDBRANCH  28  29
ENDBRANCH  27  28
ENDBRANCH  26  27
ENDBRANCH  25  26
ENDBRANCH  22  25
ENDBRANCH  20  21
ENDBRANCH  15  20
ENDBRANCH   8  14
ENDBRANCH   5   7
ENDBRANCH   3   5
ENDBRANCH   2   3
ENDBRANCH   1   2
BRANCH   1  31
ATOM     31  C   UNL A   1      34.474  32.640  29.723  1.00  0.00     0.202 C 
BRANCH  31  32
ATOM     32  O   UNL A   1      34.335  33.216  31.016  1.00  0.00    -0.376 OA
BRANCH  32  33
ATOM     33  C   UNL A   1      35.383  33.060  31.967  1.00  0.00     0.188 C 
BRANCH  33  34
ATOM     34  C   UNL A   1      36.401  34.191  32.169  1.00  0.00     0.188 C 
BRANCH  34  35
ATOM     35  O   UNL A   1      36.232  34.927  33.360  1.00  0.00    -0.376 OA
BRANCH  35  36
ATOM     36  C   UNL A   1      35.808  34.203  34.498  1.00  0.00     0.202 C 
BRANCH  36  37
ATOM     37  C   UNL A   1      36.926  33.464  35.248  1.00  0.00     0.261 C 
BRANCH  37  38
ATOM     38  O   UNL A   1      37.021  32.048  34.999  1.00  0.00    -0.460 OA
BRANCH  38  39
ATOM     39  C   UNL A   1      37.991  31.373  35.651  1.00  0.00     0.338 C 
ATOM     40  O   UNL A   1      37.913  30.851  36.755  1.00  0.00    -0.246 OA
BRANCH  39  41
ATOM     41  C   UNL A   1      39.121  31.163  34.722  1.00  0.00     0.060 A 
ATOM     42  C   UNL A   1      38.927  30.364  33.585  1.00  0.00     0.016 A 
ATOM     43  C   UNL A   1      40.369  31.736  34.974  1.00  0.00     0.016 A 
ATOM     44  C   UNL A   1      39.990  30.106  32.717  1.00  0.00     0.010 A 
ATOM     45  C   UNL A   1      41.438  31.460  34.115  1.00  0.00     0.010 A 
ATOM     46  C   UNL A   1      41.263  30.616  33.002  1.00  0.00    -0.014 A 
BRANCH  46  47
ATOM     47  C   UNL A   1      42.449  30.114  32.260  1.00  0.00     0.031 A 
ATOM     48  C   UNL A   1      43.119  28.859  32.748  1.00  0.00     0.074 A 
ATOM     49  C   UNL A   1      42.922  30.748  31.172  1.00  0.00     0.049 A 
ATOM     50  N   UNL A   1      44.205  28.268  32.317  1.00  0.00    -0.248 NA
ATOM     51  C   UNL A   1      42.478  28.180  33.886  1.00  0.00     0.031 C 
ATOM     52  C   UNL A   1      42.342  31.945  30.572  1.00  0.00     0.029 A 
ATOM     53  N   UNL A   1      44.014  30.470  30.387  1.00  0.00    -0.354 N 
ATOM     54  C   UNL A   1      44.382  27.159  33.135  1.00  0.00     0.074 A 
ATOM     55  C   UNL A   1      43.312  27.176  34.109  1.00  0.00     0.031 C 
ATOM     56  C   UNL A   1      43.093  32.310  29.518  1.00  0.00     0.029 A 
ATOM     57  C   UNL A   1      44.227  31.393  29.393  1.00  0.00     0.049 A 
ATOM     58  H   UNL A   1      44.590  29.682  30.523  1.00  0.00     0.167 HD
ATOM     59  C   UNL A   1      45.343  26.207  33.075  1.00  0.00     0.037 A 
ATOM     60  C   UNL A   1      45.234  31.499  28.503  1.00  0.00     0.037 A 
ATOM     61  C   UNL A   1      46.408  26.193  32.106  1.00  0.00     0.049 A 
ATOM     62  C   UNL A   1      46.337  30.468  28.505  1.00  0.00     0.074 A 
ATOM     63  C   UNL A   1      47.421  25.261  31.952  1.00  0.00     0.029 A 
ATOM     64  N   UNL A   1      46.605  27.160  31.132  1.00  0.00    -0.354 N 
ATOM     65  N   UNL A   1      46.486  29.410  29.264  1.00  0.00    -0.248 NA
ATOM     66  C   UNL A   1      47.414  30.648  27.519  1.00  0.00     0.031 C 
ATOM     67  C   UNL A   1      48.265  25.698  30.926  1.00  0.00     0.029 A 
ATOM     68  C   UNL A   1      47.739  26.862  30.392  1.00  0.00     0.049 A 
ATOM     69  H   UNL A   1      46.024  27.942  30.987  1.00  0.00     0.167 HD
ATOM     70  C   UNL A   1      47.645  28.780  28.825  1.00  0.00     0.074 A 
ATOM     71  C   UNL A   1      48.155  29.569  27.724  1.00  0.00     0.031 C 
ATOM     72  C   UNL A   1      48.233  27.649  29.290  1.00  0.00     0.037 A 
BRANCH  59  73
ATOM     73  C   UNL A   1      45.308  25.119  34.110  1.00  0.00     0.064 A 
ATOM     74  C   UNL A   1      44.676  23.889  33.870  1.00  0.00     0.173 A 
ATOM     75  C   UNL A   1      45.941  25.300  35.349  1.00  0.00     0.173 A 
ATOM     76  F   UNL A   1      44.043  23.669  32.708  1.00  0.00    -0.203 F 
ATOM     77  C   UNL A   1      44.654  22.893  34.844  1.00  0.00     0.198 A 
ATOM     78  C   UNL A   1      45.947  24.289  36.307  1.00  0.00     0.198 A 
ATOM     79  F   UNL A   1      46.563  26.454  35.630  1.00  0.00    -0.203 F 
ATOM     80  F   UNL A   1      43.997  21.748  34.613  1.00  0.00    -0.200 F 
ATOM     81  C   UNL A   1      45.296  23.091  36.057  1.00  0.00     0.200 A 
ATOM     82  F   UNL A   1      46.582  24.476  37.472  1.00  0.00    -0.200 F 
ATOM     83  F   UNL A   1      45.282  22.128  36.989  1.00  0.00    -0.200 F 
ENDBRANCH  59  73
BRANCH  60  84
ATOM     84  C   UNL A   1      45.263  32.631  27.539  1.00  0.00     0.064 A 
ATOM     85  C   UNL A   1      44.525  32.588  26.347  1.00  0.00     0.173 A 
ATOM     86  C   UNL A   1      46.056  33.765  27.772  1.00  0.00     0.173 A 
ATOM     87  F   UNL A   1      43.776  31.513  26.063  1.00  0.00    -0.203 F 
ATOM     88  C   UNL A   1      44.598  33.623  25.416  1.00  0.00     0.198 A 
ATOM     89  C   UNL A   1      46.101  34.814  26.855  1.00  0.00     0.198 A 
ATOM     90  F   UNL A   1      46.788  33.855  28.892  1.00  0.00    -0.203 F 
ATOM     91  F   UNL A   1      43.928  33.528  24.260  1.00  0.00    -0.200 F 
ATOM     92  C   UNL A   1      45.380  34.738  25.674  1.00  0.00     0.200 A 
ATOM     93  F   UNL A   1      46.851  35.894  27.113  1.00  0.00    -0.200 F 
ATOM     94  F   UNL A   1      45.448  35.732  24.779  1.00  0.00    -0.200 F 
ENDBRANCH  60  84
BRANCH  72  95
ATOM     95  C   UNL A   1      49.466  27.162  28.578  1.00  0.00     0.064 A 
ATOM     96  C   UNL A   1      49.393  26.398  27.404  1.00  0.00     0.173 A 
ATOM     97  C   UNL A   1      50.740  27.496  29.063  1.00  0.00     0.173 A 
ATOM     98  F   UNL A   1      48.202  26.040  26.903  1.00  0.00    -0.203 F 
ATOM     99  C   UNL A   1      50.549  25.959  26.762  1.00  0.00     0.198 A 
ATOM    100  C   UNL A   1      51.893  27.087  28.399  1.00  0.00     0.198 A 
ATOM    101  F   UNL A   1      50.869  28.234  30.176  1.00  0.00    -0.203 F 
ATOM    102  F   UNL A   1      50.455  25.182  25.675  1.00  0.00    -0.200 F 
ATOM    103  C   UNL A   1      51.798  26.310  27.255  1.00  0.00     0.200 A 
ATOM    104  F   UNL A   1      53.098  27.444  28.867  1.00  0.00    -0.200 F 
ATOM    105  F   UNL A   1      52.908  25.893  26.631  1.00  0.00    -0.200 F 
ENDBRANCH  72  95
ENDBRANCH  46  47
ENDBRANCH  39  41
ENDBRANCH  38  39
ENDBRANCH  37  38
ENDBRANCH  36  37
ENDBRANCH  35  36
ENDBRANCH  34  35
ENDBRANCH  33  34
ENDBRANCH  32  33
ENDBRANCH  31  32
ENDBRANCH   1  31
TORSDOF 26
ENDMDL
MODEL 2
REMARK VINA RESULT:      -7.0      4.282      6.812
REMARK SMILES CCCCCCNC(=O)Oc1cccc(-c2ccc([C@@H](C)C(=O)OCCOCCOCCOC(=O)c3ccc(-c4c5nc(c(-c6c(F)c(F)c(F)c(F)c6F)c6ccc([nH]6)c(-c6c(F)c(F)c(F)c(F)c6F)c6nc(c(-c7c(F)c(F)c(F)c(F)c7F)c7ccc4[nH]7)C=C6)C=C5)cc3)cc2Cl)c1
REMARK SMILES IDX 25 1 24 2 22 3 23 4 20 5 21 6 19 7 16 8 17 9 100 10 18 11
REMARK SMILES IDX 99 12 101 13 15 14 11 15 12 16 102 17 13 18 14 19 10 20 8 21
REMARK SMILES IDX 7 22 9 24 6 25 5 26 4 27 3 28 2 29 1 30 26 31 27 32 28 33
REMARK SMILES IDX 29 34 30 35 31 36 32 37 33 38 34 39 35 40 36 41 37 42 98 43
REMARK SMILES IDX 38 44 97 45 39 46 40 47 41 48 91 49 42 50 96 51 90 52 92 53
REMARK SMILES IDX 43 54 95 55 89 56 88 57 44 59 76 60 56 61 75 62 57 63 60 64
REMARK SMILES IDX 74 65 93 66 58 67 59 68 73 70 94 71 61 72 45 73 46 74 54 75
REMARK SMILES IDX 47 76 48 77 52 78 55 79 49 80 50 81 53 82 51 83 77 84 78 85
REMARK SMILES IDX 86 86 79 87 80 88 84 89 87 90 81 91 82 92 85 93 83 94 62 95
REMARK SMILES IDX 63 96 71 97 64 98 65 99 69 100 72 101 66 102 67 103 70 104
REMARK SMILES IDX 68 105
REMARK H PARENT 7 23 92 58 60 69
REMARK Flexibility Score: inf
ROOT
ATOM      1  C   UNL A   1      34.658  34.483  31.393  1.00  0.00     0.261 C 
ENDROOT
BRANCH   1   2
ATOM      2  O   UNL A   1      34.039  33.598  30.430  1.00  0.00    -0.463 OA
BRANCH   2   3
ATOM      3  C   UNL A   1      34.751  32.498  30.075  1.00  0.00     0.313 C 
ATOM      4  O   UNL A   1      35.215  31.703  30.891  1.00  0.00    -0.252 OA
BRANCH   3   5
ATOM      5  C   UNL A   1      34.942  32.264  28.573  1.00  0.00     0.126 C 
ATOM      6  C   UNL A   1      35.073  33.616  27.876  1.00  0.00     0.025 C 
BRANCH   5   7
ATOM      7  C   UNL A   1      34.017  31.344  27.776  1.00  0.00    -0.033 A 
ATOM      8  C   UNL A   1      32.383  29.512  26.273  1.00  0.00     0.000 A 
ATOM      9  C   UNL A   1      31.935  30.803  26.626  1.00  0.00     0.010 A 
ATOM     10  C   UNL A   1      33.679  29.161  26.686  1.00  0.00     0.049 A 
ATOM     11  C   UNL A   1      32.736  31.708  27.350  1.00  0.00     0.005 A 
ATOM     12  C   UNL A   1      34.476  30.060  27.418  1.00  0.00     0.025 A 
ATOM     13  Cl  UNL A   1      34.397  27.632  26.294  1.00  0.00    -0.084 Cl
BRANCH   8  14
ATOM     14  C   UNL A   1      31.517  28.632  25.452  1.00  0.00    -0.013 A 
ATOM     15  C   UNL A   1      30.448  26.497  24.972  1.00  0.00     0.133 A 
ATOM     16  C   UNL A   1      29.928  26.989  23.777  1.00  0.00     0.047 A 
ATOM     17  C   UNL A   1      31.231  27.300  25.810  1.00  0.00     0.056 A 
ATOM     18  C   UNL A   1      30.181  28.309  23.419  1.00  0.00     0.004 A 
ATOM     19  C   UNL A   1      30.970  29.117  24.245  1.00  0.00     0.009 A 
BRANCH  15  20
ATOM     20  O   UNL A   1      30.273  25.123  25.217  1.00  0.00    -0.410 OA
BRANCH  20  21
ATOM     21  C   UNL A   1      31.190  24.483  26.032  1.00  0.00     0.412 C 
ATOM     22  N   UNL A   1      32.258  23.964  25.348  1.00  0.00    -0.321 N 
ATOM     23  H   UNL A   1      32.971  23.560  25.893  1.00  0.00     0.167 HD
ATOM     24  O   UNL A   1      31.096  24.341  27.250  1.00  0.00    -0.224 OA
BRANCH  22  25
ATOM     25  C   UNL A   1      32.454  23.943  23.910  1.00  0.00     0.119 C 
BRANCH  25  26
ATOM     26  C   UNL A   1      33.932  23.923  23.519  1.00  0.00     0.021 C 
BRANCH  26  27
ATOM     27  C   UNL A   1      34.897  24.446  24.592  1.00  0.00     0.002 C 
BRANCH  27  28
ATOM     28  C   UNL A   1      36.223  23.687  24.723  1.00  0.00    -0.000 C 
BRANCH  28  29
ATOM     29  C   UNL A   1      36.249  22.289  24.100  1.00  0.00    -0.003 C 
ATOM     30  C   UNL A   1      36.033  21.172  25.110  1.00  0.00     0.004 C 
ENDBRANCH  28  29
ENDBRANCH  27  28
ENDBRANCH  26  27
ENDBRANCH  25  26
ENDBRANCH  22  25
ENDBRANCH  20  21
ENDBRANCH  15  20
ENDBRANCH   8  14
ENDBRANCH   5   7
ENDBRANCH   3   5
ENDBRANCH   2   3
ENDBRANCH   1   2
BRANCH   1  31
ATOM     31  C   UNL A   1      34.157  34.353  32.841  1.00  0.00     0.202 C 
BRANCH  31  32
ATOM     32  O   UNL A   1      34.787  33.403  33.692  1.00  0.00    -0.376 OA
BRANCH  32  33
ATOM     33  C   UNL A   1      35.705  33.851  34.682  1.00  0.00     0.188 C 
BRANCH  33  34
ATOM     34  C   UNL A   1      37.215  33.741  34.425  1.00  0.00     0.188 C 
BRANCH  34  35
ATOM     35  O   UNL A   1      37.740  34.742  33.583  1.00  0.00    -0.376 OA
BRANCH  35  36
ATOM     36  C   UNL A   1      38.322  34.309  32.368  1.00  0.00     0.202 C 
BRANCH  36  37
ATOM     37  C   UNL A   1      38.311  32.790  32.152  1.00  0.00     0.261 C 
BRANCH  37  38
ATOM     38  O   UNL A   1      39.102  32.306  31.049  1.00  0.00    -0.460 OA
BRANCH  38  39
ATOM     39  C   UNL A   1      38.958  31.006  30.714  1.00  0.00     0.338 C 
ATOM     40  O   UNL A   1      38.100  30.521  29.989  1.00  0.00    -0.246 OA
BRANCH  39  41
ATOM     41  C   UNL A   1      40.148  30.267  31.186  1.00  0.00     0.060 A 
ATOM     42  C   UNL A   1      41.336  30.973  31.427  1.00  0.00     0.016 A 
ATOM     43  C   UNL A   1      40.100  28.885  31.378  1.00  0.00     0.016 A 
ATOM     44  C   UNL A   1      42.490  30.294  31.824  1.00  0.00     0.010 A 
ATOM     45  C   UNL A   1      41.262  28.203  31.756  1.00  0.00     0.010 A 
ATOM     46  C   UNL A   1      42.470  28.899  31.946  1.00  0.00    -0.014 A 
BRANCH  46  47
ATOM     47  C   UNL A   1      43.745  28.146  32.078  1.00  0.00     0.031 A 
ATOM     48  C   UNL A   1      44.261  27.849  33.460  1.00  0.00     0.074 A 
ATOM     49  C   UNL A   1      44.432  27.725  31.001  1.00  0.00     0.049 A 
ATOM     50  N   UNL A   1      45.378  27.277  33.831  1.00  0.00    -0.248 NA
ATOM     51  C   UNL A   1      43.398  28.263  34.578  1.00  0.00     0.031 C 
ATOM     52  C   UNL A   1      44.023  27.908  29.613  1.00  0.00     0.029 A 
ATOM     53  N   UNL A   1      45.633  27.062  30.916  1.00  0.00    -0.354 N 
ATOM     54  C   UNL A   1      45.356  27.272  35.221  1.00  0.00     0.074 A 
ATOM     55  C   UNL A   1      44.132  27.928  35.628  1.00  0.00     0.031 C 
ATOM     56  C   UNL A   1      44.965  27.383  28.809  1.00  0.00     0.029 A 
ATOM     57  C   UNL A   1      46.060  26.860  29.627  1.00  0.00     0.049 A 
ATOM     58  H   UNL A   1      46.138  26.759  31.705  1.00  0.00     0.167 HD
ATOM     59  C   UNL A   1      46.269  26.760  36.080  1.00  0.00     0.037 A 
ATOM     60  C   UNL A   1      47.212  26.338  29.163  1.00  0.00     0.037 A 
ATOM     61  C   UNL A   1      47.487  26.109  35.674  1.00  0.00     0.049 A 
ATOM     62  C   UNL A   1      48.250  25.843  30.142  1.00  0.00     0.074 A 
ATOM     63  C   UNL A   1      48.467  25.540  36.469  1.00  0.00     0.029 A 
ATOM     64  N   UNL A   1      47.897  25.947  34.359  1.00  0.00    -0.354 N 
ATOM     65  N   UNL A   1      48.213  25.820  31.452  1.00  0.00    -0.248 NA
ATOM     66  C   UNL A   1      49.492  25.298  29.573  1.00  0.00     0.031 C 
ATOM     67  C   UNL A   1      49.499  25.092  35.639  1.00  0.00     0.029 A 
ATOM     68  C   UNL A   1      49.130  25.314  34.323  1.00  0.00     0.049 A 
ATOM     69  H   UNL A   1      47.387  26.238  33.569  1.00  0.00     0.167 HD
ATOM     70  C   UNL A   1      49.403  25.225  31.861  1.00  0.00     0.074 A 
ATOM     71  C   UNL A   1      50.135  24.892  30.657  1.00  0.00     0.031 C 
ATOM     72  C   UNL A   1      49.846  24.976  33.118  1.00  0.00     0.037 A 
BRANCH  59  73
ATOM     73  C   UNL A   1      46.000  26.914  37.550  1.00  0.00     0.064 A 
ATOM     74  C   UNL A   1      45.406  25.893  38.307  1.00  0.00     0.173 A 
ATOM     75  C   UNL A   1      46.370  28.093  38.217  1.00  0.00     0.173 A 
ATOM     76  F   UNL A   1      45.020  24.752  37.716  1.00  0.00    -0.203 F 
ATOM     77  C   UNL A   1      45.167  26.056  39.669  1.00  0.00     0.198 A 
ATOM     78  C   UNL A   1      46.161  28.239  39.586  1.00  0.00     0.198 A 
ATOM     79  F   UNL A   1      46.945  29.100  37.544  1.00  0.00    -0.203 F 
ATOM     80  F   UNL A   1      44.548  25.089  40.359  1.00  0.00    -0.200 F 
ATOM     81  C   UNL A   1      45.551  27.226  40.309  1.00  0.00     0.200 A 
ATOM     82  F   UNL A   1      46.548  29.363  40.204  1.00  0.00    -0.200 F 
ATOM     83  F   UNL A   1      45.327  27.378  41.620  1.00  0.00    -0.200 F 
ENDBRANCH  59  73
BRANCH  60  84
ATOM     84  C   UNL A   1      47.464  26.264  27.699  1.00  0.00     0.064 A 
ATOM     85  C   UNL A   1      46.925  25.230  26.921  1.00  0.00     0.173 A 
ATOM     86  C   UNL A   1      48.277  27.208  27.052  1.00  0.00     0.173 A 
ATOM     87  F   UNL A   1      46.167  24.285  27.498  1.00  0.00    -0.203 F 
ATOM     88  C   UNL A   1      47.207  25.127  25.561  1.00  0.00     0.198 A 
ATOM     89  C   UNL A   1      48.530  27.123  25.684  1.00  0.00     0.198 A 
ATOM     90  F   UNL A   1      48.824  28.214  27.749  1.00  0.00    -0.203 F 
ATOM     91  F   UNL A   1      46.726  24.095  24.855  1.00  0.00    -0.200 F 
ATOM     92  C   UNL A   1      48.004  26.078  24.941  1.00  0.00     0.200 A 
ATOM     93  F   UNL A   1      49.294  28.050  25.089  1.00  0.00    -0.200 F 
ATOM     94  F   UNL A   1      48.274  25.979  23.634  1.00  0.00    -0.200 F 
ENDBRANCH  60  84
BRANCH  72  95
ATOM     95  C   UNL A   1      51.162  24.262  33.264  1.00  0.00     0.064 A 
ATOM     96  C   UNL A   1      52.378  24.955  33.361  1.00  0.00     0.173 A 
ATOM     97  C   UNL A   1      51.201  22.860  33.342  1.00  0.00     0.173 A 
ATOM     98  F   UNL A   1      52.401  26.293  33.280  1.00  0.00    -0.203 F 
ATOM     99  C   UNL A   1      53.584  24.272  33.496  1.00  0.00     0.198 A 
ATOM    100  C   UNL A   1      52.405  22.182  33.515  1.00  0.00     0.198 A 
ATOM    101  F   UNL A   1      50.068  22.146  33.266  1.00  0.00    -0.203 F 
ATOM    102  F   UNL A   1      54.738  24.952  33.528  1.00  0.00    -0.200 F 
ATOM    103  C   UNL A   1      53.597  22.886  33.581  1.00  0.00     0.200 A 
ATOM    104  F   UNL A   1      52.411  20.846  33.616  1.00  0.00    -0.200 F 
ATOM    105  F   UNL A   1      54.757  22.232  33.719  1.00  0.00    -0.200 F 
ENDBRANCH  72  95
ENDBRANCH  46  47
ENDBRANCH  39  41
ENDBRANCH  38  39
ENDBRANCH  37  38
ENDBRANCH  36  37
ENDBRANCH  35  36
ENDBRANCH  34  35
ENDBRANCH  33  34
ENDBRANCH  32  33
ENDBRANCH  31  32
ENDBRANCH   1  31
TORSDOF 26
ENDMDL
MODEL 3
REMARK VINA RESULT:      -6.7      7.060     11.811
REMARK SMILES CCCCCCNC(=O)Oc1cccc(-c2ccc([C@@H](C)C(=O)OCCOCCOCCOC(=O)c3ccc(-c4c5nc(c(-c6c(F)c(F)c(F)c(F)c6F)c6ccc([nH]6)c(-c6c(F)c(F)c(F)c(F)c6F)c6nc(c(-c7c(F)c(F)c(F)c(F)c7F)c7ccc4[nH]7)C=C6)C=C5)cc3)cc2Cl)c1
REMARK SMILES IDX 25 1 24 2 22 3 23 4 20 5 21 6 19 7 16 8 17 9 100 10 18 11
REMARK SMILES IDX 99 12 101 13 15 14 11 15 12 16 102 17 13 18 14 19 10 20 8 21
REMARK SMILES IDX 7 22 9 24 6 25 5 26 4 27 3 28 2 29 1 30 26 31 27 32 28 33
REMARK SMILES IDX 29 34 30 35 31 36 32 37 33 38 34 39 35 40 36 41 37 42 98 43
REMARK SMILES IDX 38 44 97 45 39 46 40 47 41 48 91 49 42 50 96 51 90 52 92 53
REMARK SMILES IDX 43 54 95 55 89 56 88 57 44 59 76 60 56 61 75 62 57 63 60 64
REMARK SMILES IDX 74 65 93 66 58 67 59 68 73 70 94 71 61 72 45 73 46 74 54 75
REMARK SMILES IDX 47 76 48 77 52 78 55 79 49 80 50 81 53 82 51 83 77 84 78 85
REMARK SMILES IDX 86 86 79 87 80 88 84 89 87 90 81 91 82 92 85 93 83 94 62 95
REMARK SMILES IDX 63 96 71 97 64 98 65 99 69 100 72 101 66 102 67 103 70 104
REMARK SMILES IDX 68 105
REMARK H PARENT 7 23 92 58 60 69
REMARK Flexibility Score: inf
ROOT
ATOM      1  C   UNL A   1      45.102  22.712  25.911  1.00  0.00     0.261 C 
ENDROOT
BRANCH   1   2
ATOM      2  O   UNL A   1      43.819  22.691  26.581  1.00  0.00    -0.463 OA
BRANCH   2   3
ATOM      3  C   UNL A   1      42.935  21.749  26.166  1.00  0.00     0.313 C 
ATOM      4  O   UNL A   1      43.103  21.066  25.156  1.00  0.00    -0.252 OA
BRANCH   3   5
ATOM      5  C   UNL A   1      41.695  21.543  27.041  1.00  0.00     0.126 C 
ATOM      6  C   UNL A   1      41.639  20.081  27.479  1.00  0.00     0.025 C 
BRANCH   5   7
ATOM      7  C   UNL A   1      40.310  22.019  26.603  1.00  0.00    -0.033 A 
ATOM      8  C   UNL A   1      37.682  22.784  25.712  1.00  0.00     0.000 A 
ATOM      9  C   UNL A   1      38.528  23.673  26.409  1.00  0.00     0.010 A 
ATOM     10  C   UNL A   1      38.189  21.498  25.463  1.00  0.00     0.049 A 
ATOM     11  C   UNL A   1      39.820  23.307  26.835  1.00  0.00     0.005 A 
ATOM     12  C   UNL A   1      39.475  21.128  25.897  1.00  0.00     0.025 A 
ATOM     13  Cl  UNL A   1      37.297  20.302  24.580  1.00  0.00    -0.084 Cl
BRANCH   8  14
ATOM     14  C   UNL A   1      36.359  23.252  25.232  1.00  0.00    -0.013 A 
ATOM     15  C   UNL A   1      34.099  24.079  25.604  1.00  0.00     0.133 A 
ATOM     16  C   UNL A   1      33.826  24.042  24.238  1.00  0.00     0.047 A 
ATOM     17  C   UNL A   1      35.348  23.695  26.107  1.00  0.00     0.056 A 
ATOM     18  C   UNL A   1      34.821  23.628  23.359  1.00  0.00     0.004 A 
ATOM     19  C   UNL A   1      36.070  23.235  23.852  1.00  0.00     0.009 A 
BRANCH  15  20
ATOM     20  O   UNL A   1      33.018  24.376  26.454  1.00  0.00    -0.410 OA
BRANCH  20  21
ATOM     21  C   UNL A   1      31.735  24.263  25.944  1.00  0.00     0.412 C 
ATOM     22  N   UNL A   1      31.094  25.467  25.814  1.00  0.00    -0.321 N 
ATOM     23  H   UNL A   1      30.206  25.444  25.390  1.00  0.00     0.167 HD
ATOM     24  O   UNL A   1      31.169  23.215  25.644  1.00  0.00    -0.224 OA
BRANCH  22  25
ATOM     25  C   UNL A   1      31.578  26.770  26.230  1.00  0.00     0.119 C 
BRANCH  25  26
ATOM     26  C   UNL A   1      32.094  27.608  25.060  1.00  0.00     0.021 C 
BRANCH  26  27
ATOM     27  C   UNL A   1      31.320  27.438  23.746  1.00  0.00     0.002 C 
BRANCH  27  28
ATOM     28  C   UNL A   1      29.994  28.200  23.651  1.00  0.00    -0.000 C 
BRANCH  28  29
ATOM     29  C   UNL A   1      29.780  28.998  22.362  1.00  0.00    -0.003 C 
ATOM     30  C   UNL A   1      29.066  30.323  22.580  1.00  0.00     0.004 C 
ENDBRANCH  28  29
ENDBRANCH  27  28
ENDBRANCH  26  27
ENDBRANCH  25  26
ENDBRANCH  22  25
ENDBRANCH  20  21
ENDBRANCH  15  20
ENDBRANCH   8  14
ENDBRANCH   5   7
ENDBRANCH   3   5
ENDBRANCH   2   3
ENDBRANCH   1   2
BRANCH   1  31
ATOM     31  C   UNL A   1      45.535  24.071  25.336  1.00  0.00     0.202 C 
BRANCH  31  32
ATOM     32  O   UNL A   1      44.537  24.919  24.782  1.00  0.00    -0.376 OA
BRANCH  32  33
ATOM     33  C   UNL A   1      44.015  25.987  25.564  1.00  0.00     0.188 C 
BRANCH  33  34
ATOM     34  C   UNL A   1      42.564  26.443  25.357  1.00  0.00     0.188 C 
BRANCH  34  35
ATOM     35  O   UNL A   1      41.816  26.576  26.545  1.00  0.00    -0.376 OA
BRANCH  35  36
ATOM     36  C   UNL A   1      41.933  27.805  27.235  1.00  0.00     0.202 C 
BRANCH  36  37
ATOM     37  C   UNL A   1      40.671  28.245  27.990  1.00  0.00     0.261 C 
BRANCH  37  38
ATOM     38  O   UNL A   1      40.683  29.592  28.502  1.00  0.00    -0.460 OA
BRANCH  38  39
ATOM     39  C   UNL A   1      41.289  29.792  29.692  1.00  0.00     0.338 C 
ATOM     40  O   UNL A   1      41.665  28.936  30.481  1.00  0.00    -0.246 OA
BRANCH  39  41
ATOM     41  C   UNL A   1      41.636  31.223  29.806  1.00  0.00     0.060 A 
ATOM     42  C   UNL A   1      42.964  31.621  29.586  1.00  0.00     0.016 A 
ATOM     43  C   UNL A   1      40.666  32.170  30.141  1.00  0.00     0.016 A 
ATOM     44  C   UNL A   1      43.333  32.959  29.738  1.00  0.00     0.010 A 
ATOM     45  C   UNL A   1      41.040  33.507  30.312  1.00  0.00     0.010 A 
ATOM     46  C   UNL A   1      42.381  33.902  30.146  1.00  0.00    -0.014 A 
BRANCH  46  47
ATOM     47  C   UNL A   1      42.815  35.252  30.591  1.00  0.00     0.031 A 
ATOM     48  C   UNL A   1      43.066  35.476  32.057  1.00  0.00     0.074 A 
ATOM     49  C   UNL A   1      42.992  36.260  29.718  1.00  0.00     0.049 A 
ATOM     50  N   UNL A   1      43.378  36.577  32.694  1.00  0.00    -0.248 NA
ATOM     51  C   UNL A   1      42.940  34.295  32.925  1.00  0.00     0.031 C 
ATOM     52  C   UNL A   1      42.825  36.166  28.271  1.00  0.00     0.029 A 
ATOM     53  N   UNL A   1      43.343  37.571  29.934  1.00  0.00    -0.354 N 
ATOM     54  C   UNL A   1      43.475  36.222  34.034  1.00  0.00     0.074 A 
ATOM     55  C   UNL A   1      43.155  34.814  34.124  1.00  0.00     0.031 C 
ATOM     56  C   UNL A   1      43.059  37.374  27.727  1.00  0.00     0.029 A 
ATOM     57  C   UNL A   1      43.356  38.333  28.791  1.00  0.00     0.049 A 
ATOM     58  H   UNL A   1      43.565  37.931  30.824  1.00  0.00     0.167 HD
ATOM     59  C   UNL A   1      43.807  36.998  35.093  1.00  0.00     0.037 A 
ATOM     60  C   UNL A   1      43.558  39.655  28.628  1.00  0.00     0.037 A 
ATOM     61  C   UNL A   1      44.122  38.400  35.002  1.00  0.00     0.049 A 
ATOM     62  C   UNL A   1      43.852  40.515  29.834  1.00  0.00     0.074 A 
ATOM     63  C   UNL A   1      44.490  39.268  36.016  1.00  0.00     0.029 A 
ATOM     64  N   UNL A   1      44.099  39.142  33.831  1.00  0.00    -0.354 N 
ATOM     65  N   UNL A   1      43.966  40.171  31.094  1.00  0.00    -0.248 NA
ATOM     66  C   UNL A   1      44.049  41.952  29.591  1.00  0.00     0.031 C 
ATOM     67  C   UNL A   1      44.626  40.548  35.468  1.00  0.00     0.029 A 
ATOM     68  C   UNL A   1      44.417  40.464  34.101  1.00  0.00     0.049 A 
ATOM     69  H   UNL A   1      43.889  38.782  32.938  1.00  0.00     0.167 HD
ATOM     70  C   UNL A   1      44.284  41.335  31.785  1.00  0.00     0.074 A 
ATOM     71  C   UNL A   1      44.357  42.395  30.801  1.00  0.00     0.031 C 
ATOM     72  C   UNL A   1      44.498  41.510  33.113  1.00  0.00     0.037 A 
BRANCH  59  73
ATOM     73  C   UNL A   1      43.813  36.354  36.450  1.00  0.00     0.064 A 
ATOM     74  C   UNL A   1      44.978  35.800  37.002  1.00  0.00     0.173 A 
ATOM     75  C   UNL A   1      42.641  36.317  37.221  1.00  0.00     0.173 A 
ATOM     76  F   UNL A   1      46.122  35.795  36.302  1.00  0.00    -0.203 F 
ATOM     77  C   UNL A   1      44.962  35.207  38.263  1.00  0.00     0.198 A 
ATOM     78  C   UNL A   1      42.637  35.755  38.495  1.00  0.00     0.198 A 
ATOM     79  F   UNL A   1      41.500  36.835  36.744  1.00  0.00    -0.203 F 
ATOM     80  F   UNL A   1      46.073  34.635  38.746  1.00  0.00    -0.200 F 
ATOM     81  C   UNL A   1      43.794  35.192  39.011  1.00  0.00     0.200 A 
ATOM     82  F   UNL A   1      41.511  35.756  39.222  1.00  0.00    -0.200 F 
ATOM     83  F   UNL A   1      43.783  34.629  40.226  1.00  0.00    -0.200 F 
ENDBRANCH  59  73
BRANCH  60  84
ATOM     84  C   UNL A   1      43.478  40.263  27.273  1.00  0.00     0.064 A 
ATOM     85  C   UNL A   1      44.635  40.519  26.523  1.00  0.00     0.173 A 
ATOM     86  C   UNL A   1      42.246  40.630  26.712  1.00  0.00     0.173 A 
ATOM     87  F   UNL A   1      45.840  40.215  27.029  1.00  0.00    -0.203 F 
ATOM     88  C   UNL A   1      44.565  41.141  25.278  1.00  0.00     0.198 A 
ATOM     89  C   UNL A   1      42.175  41.221  25.451  1.00  0.00     0.198 A 
ATOM     90  F   UNL A   1      41.108  40.414  27.388  1.00  0.00    -0.203 F 
ATOM     91  F   UNL A   1      45.691  41.427  24.611  1.00  0.00    -0.200 F 
ATOM     92  C   UNL A   1      43.335  41.485  24.740  1.00  0.00     0.200 A 
ATOM     93  F   UNL A   1      40.982  41.543  24.932  1.00  0.00    -0.200 F 
ATOM     94  F   UNL A   1      43.269  42.082  23.543  1.00  0.00    -0.200 F 
ENDBRANCH  60  84
BRANCH  72  95
ATOM     95  C   UNL A   1      44.886  42.886  33.581  1.00  0.00     0.064 A 
ATOM     96  C   UNL A   1      46.197  43.197  33.972  1.00  0.00     0.173 A 
ATOM     97  C   UNL A   1      43.936  43.920  33.603  1.00  0.00     0.173 A 
ATOM     98  F   UNL A   1      47.142  42.246  33.981  1.00  0.00    -0.203 F 
ATOM     99  C   UNL A   1      46.533  44.479  34.400  1.00  0.00     0.198 A 
ATOM    100  C   UNL A   1      44.283  45.209  33.996  1.00  0.00     0.198 A 
ATOM    101  F   UNL A   1      42.669  43.683  33.229  1.00  0.00    -0.203 F 
ATOM    102  F   UNL A   1      47.777  44.737  34.824  1.00  0.00    -0.200 F 
ATOM    103  C   UNL A   1      45.578  45.486  34.405  1.00  0.00     0.200 A 
ATOM    104  F   UNL A   1      43.363  46.184  33.982  1.00  0.00    -0.200 F 
ATOM    105  F   UNL A   1      45.905  46.721  34.810  1.00  0.00    -0.200 F 
ENDBRANCH  72  95
ENDBRANCH  46  47
ENDBRANCH  39  41
ENDBRANCH  38  39
ENDBRANCH  37  38
ENDBRANCH  36  37
ENDBRANCH  35  36
ENDBRANCH  34  35
ENDBRANCH  33  34
ENDBRANCH  32  33
ENDBRANCH  31  32
ENDBRANCH   1  31
TORSDOF 26
ENDMDL
