MODEL 1
REMARK VINA RESULT:     -10.6      0.000      0.000
REMARK SMILES CCc1cc(OCCC(=O)OCCOCCOCCOC(=O)c2ccc(-c3c4nc(c(-c5c(F)c(F)c(F)c(F)c5F)c5ccc([nH]5)c(-c5c(F)c(F)c(F)c(F)c5F)c5nc(c(-c6c(F)c(F)c(F)c(F)c6F)c6ccc3[nH]6)C=C5)C=C4)cc2)nc(-c2cnccn2)n1
REMARK SMILES IDX 15 1 14 2 13 3 12 4 11 5 9 6 10 7 8 8 7 9 6 10 5 11 3 12
REMARK SMILES IDX 4 13 94 14 87 15 86 16 2 17 1 18 88 19 89 20 93 21 90 22
REMARK SMILES IDX 92 23 91 24 16 25 17 26 18 27 19 28 20 29 21 30 22 31 23 32
REMARK SMILES IDX 24 33 85 34 25 35 84 36 26 37 27 38 28 39 78 40 29 41 83 42
REMARK SMILES IDX 77 43 79 44 30 45 82 46 76 47 75 48 31 50 63 51 43 52 62 53
REMARK SMILES IDX 44 54 47 55 61 56 80 57 45 58 46 59 60 61 81 62 48 63 32 64
REMARK SMILES IDX 33 65 41 66 34 67 35 68 39 69 42 70 36 71 37 72 40 73 38 74
REMARK SMILES IDX 64 75 65 76 73 77 66 78 67 79 71 80 74 81 68 82 69 83 72 84
REMARK SMILES IDX 70 85 49 86 50 87 58 88 51 89 52 90 56 91 59 92 53 93 54 94
REMARK SMILES IDX 57 95 55 96
REMARK H PARENT 79 49 47 60
REMARK Flexibility Score: inf
ROOT
ATOM      1  C   UNL A   1      31.987  29.169  24.552  1.00  0.00     0.188 C 
ENDROOT
BRANCH   1   2
ATOM      2  O   UNL A   1      30.928  29.277  23.596  1.00  0.00    -0.376 OA
BRANCH   2   3
ATOM      3  C   UNL A   1      29.911  28.286  23.447  1.00  0.00     0.202 C 
BRANCH   3   4
ATOM      4  C   UNL A   1      30.036  26.883  24.064  1.00  0.00     0.261 C 
BRANCH   4   5
ATOM      5  O   UNL A   1      30.527  25.912  23.137  1.00  0.00    -0.463 OA
BRANCH   5   6
ATOM      6  C   UNL A   1      31.831  25.574  23.239  1.00  0.00     0.309 C 
ATOM      7  O   UNL A   1      32.685  25.826  22.399  1.00  0.00    -0.252 OA
BRANCH   6   8
ATOM      8  C   UNL A   1      32.123  24.858  24.534  1.00  0.00     0.164 C 
BRANCH   8   9
ATOM      9  C   UNL A   1      31.362  23.543  24.756  1.00  0.00     0.243 C 
BRANCH   9  10
ATOM     10  O   UNL A   1      32.054  22.673  25.649  1.00  0.00    -0.477 OA
BRANCH  10  11
ATOM     11  C   UNL A   1      33.118  21.927  25.214  1.00  0.00     0.217 A 
ATOM     12  C   UNL A   1      35.450  21.430  24.901  1.00  0.00     0.048 A 
ATOM     13  C   UNL A   1      34.443  22.344  25.175  1.00  0.00     0.092 A 
ATOM     14  N   UNL A   1      35.113  20.156  24.691  1.00  0.00    -0.231 NA
ATOM     15  C   UNL A   1      33.812  19.816  24.786  1.00  0.00     0.183 A 
ATOM     16  N   UNL A   1      32.788  20.653  25.006  1.00  0.00    -0.192 NA
BRANCH  12  17
ATOM     17  C   UNL A   1      36.958  21.629  24.940  1.00  0.00     0.053 C 
ATOM     18  C   UNL A   1      37.726  22.616  25.819  1.00  0.00     0.011 C 
ENDBRANCH  12  17
BRANCH  15  19
ATOM     19  C   UNL A   1      33.536  18.394  24.778  1.00  0.00     0.126 A 
ATOM     20  C   UNL A   1      34.237  17.523  23.959  1.00  0.00     0.143 A 
ATOM     21  N   UNL A   1      32.592  17.948  25.660  1.00  0.00    -0.250 NA
ATOM     22  N   UNL A   1      34.043  16.182  23.989  1.00  0.00    -0.261 NA
ATOM     23  C   UNL A   1      32.392  16.619  25.680  1.00  0.00     0.132 A 
ATOM     24  C   UNL A   1      33.105  15.756  24.867  1.00  0.00     0.131 A 
ENDBRANCH  15  19
ENDBRANCH  10  11
ENDBRANCH   9  10
ENDBRANCH   8   9
ENDBRANCH   6   8
ENDBRANCH   5   6
ENDBRANCH   4   5
ENDBRANCH   3   4
ENDBRANCH   2   3
ENDBRANCH   1   2
BRANCH   1  25
ATOM     25  C   UNL A   1      31.656  28.870  26.053  1.00  0.00     0.188 C 
BRANCH  25  26
ATOM     26  O   UNL A   1      31.764  29.993  26.938  1.00  0.00    -0.376 OA
BRANCH  26  27
ATOM     27  C   UNL A   1      32.427  31.219  26.575  1.00  0.00     0.202 C 
BRANCH  27  28
ATOM     28  C   UNL A   1      32.296  32.539  27.351  1.00  0.00     0.261 C 
BRANCH  28  29
ATOM     29  O   UNL A   1      33.474  33.314  27.355  1.00  0.00    -0.460 OA
BRANCH  29  30
ATOM     30  C   UNL A   1      33.905  33.597  28.607  1.00  0.00     0.338 C 
ATOM     31  O   UNL A   1      33.300  34.149  29.496  1.00  0.00    -0.246 OA
BRANCH  30  32
ATOM     32  C   UNL A   1      35.172  32.866  28.768  1.00  0.00     0.060 A 
ATOM     33  C   UNL A   1      35.075  31.481  28.948  1.00  0.00     0.016 A 
ATOM     34  C   UNL A   1      36.413  33.500  28.608  1.00  0.00     0.016 A 
ATOM     35  C   UNL A   1      36.230  30.732  29.065  1.00  0.00     0.010 A 
ATOM     36  C   UNL A   1      37.573  32.753  28.746  1.00  0.00     0.010 A 
ATOM     37  C   UNL A   1      37.468  31.388  29.053  1.00  0.00    -0.014 A 
BRANCH  37  38
ATOM     38  C   UNL A   1      38.576  30.729  29.759  1.00  0.00     0.031 A 
ATOM     39  C   UNL A   1      38.760  31.098  31.204  1.00  0.00     0.074 A 
ATOM     40  C   UNL A   1      39.313  29.783  29.162  1.00  0.00     0.049 A 
ATOM     41  N   UNL A   1      39.631  30.661  32.073  1.00  0.00    -0.248 NA
ATOM     42  C   UNL A   1      37.826  32.103  31.749  1.00  0.00     0.031 C 
ATOM     43  C   UNL A   1      39.153  29.328  27.784  1.00  0.00     0.029 A 
ATOM     44  N   UNL A   1      40.340  29.032  29.659  1.00  0.00    -0.354 N 
ATOM     45  C   UNL A   1      39.349  31.337  33.252  1.00  0.00     0.074 A 
ATOM     46  C   UNL A   1      38.262  32.246  32.988  1.00  0.00     0.031 C 
ATOM     47  C   UNL A   1      40.065  28.369  27.541  1.00  0.00     0.029 A 
ATOM     48  C   UNL A   1      40.879  28.174  28.739  1.00  0.00     0.049 A 
ATOM     49  H   UNL A   1      40.660  29.101  30.587  1.00  0.00     0.167 HD
ATOM     50  C   UNL A   1      39.941  31.197  34.458  1.00  0.00     0.037 A 
ATOM     51  C   UNL A   1      41.927  27.341  28.865  1.00  0.00     0.037 A 
ATOM     52  C   UNL A   1      41.027  30.289  34.698  1.00  0.00     0.049 A 
ATOM     53  C   UNL A   1      42.620  27.257  30.202  1.00  0.00     0.074 A 
ATOM     54  C   UNL A   1      41.722  30.063  35.869  1.00  0.00     0.029 A 
ATOM     55  N   UNL A   1      41.579  29.459  33.730  1.00  0.00    -0.354 N 
ATOM     56  N   UNL A   1      42.353  27.892  31.321  1.00  0.00    -0.248 NA
ATOM     57  C   UNL A   1      43.751  26.328  30.297  1.00  0.00     0.031 C 
ATOM     58  C   UNL A   1      42.736  29.139  35.596  1.00  0.00     0.029 A 
ATOM     59  C   UNL A   1      42.622  28.732  34.275  1.00  0.00     0.049 A 
ATOM     60  H   UNL A   1      41.273  29.398  32.797  1.00  0.00     0.167 HD
ATOM     61  C   UNL A   1      43.254  27.410  32.261  1.00  0.00     0.074 A 
ATOM     62  C   UNL A   1      44.065  26.420  31.580  1.00  0.00     0.031 C 
ATOM     63  C   UNL A   1      43.400  27.746  33.569  1.00  0.00     0.037 A 
BRANCH  50  64
ATOM     64  C   UNL A   1      39.452  32.073  35.574  1.00  0.00     0.064 A 
ATOM     65  C   UNL A   1      39.944  33.373  35.771  1.00  0.00     0.173 A 
ATOM     66  C   UNL A   1      38.482  31.598  36.470  1.00  0.00     0.173 A 
ATOM     67  F   UNL A   1      40.897  33.866  34.964  1.00  0.00    -0.203 F 
ATOM     68  C   UNL A   1      39.501  34.155  36.837  1.00  0.00     0.198 A 
ATOM     69  C   UNL A   1      38.016  32.394  37.512  1.00  0.00     0.198 A 
ATOM     70  F   UNL A   1      37.989  30.358  36.336  1.00  0.00    -0.203 F 
ATOM     71  F   UNL A   1      40.030  35.369  37.040  1.00  0.00    -0.200 F 
ATOM     72  C   UNL A   1      38.531  33.668  37.699  1.00  0.00     0.200 A 
ATOM     73  F   UNL A   1      37.073  31.925  38.339  1.00  0.00    -0.200 F 
ATOM     74  F   UNL A   1      38.101  34.422  38.720  1.00  0.00    -0.200 F 
ENDBRANCH  50  64
BRANCH  51  75
ATOM     75  C   UNL A   1      42.378  26.530  27.706  1.00  0.00     0.064 A 
ATOM     76  C   UNL A   1      43.398  26.979  26.856  1.00  0.00     0.173 A 
ATOM     77  C   UNL A   1      41.784  25.292  27.414  1.00  0.00     0.173 A 
ATOM     78  F   UNL A   1      43.984  28.164  27.083  1.00  0.00    -0.203 F 
ATOM     79  C   UNL A   1      43.786  26.236  25.743  1.00  0.00     0.198 A 
ATOM     80  C   UNL A   1      42.195  24.536  26.319  1.00  0.00     0.198 A 
ATOM     81  F   UNL A   1      40.805  24.815  28.197  1.00  0.00    -0.203 F 
ATOM     82  F   UNL A   1      44.723  26.717  24.914  1.00  0.00    -0.200 F 
ATOM     83  C   UNL A   1      43.188  25.014  25.477  1.00  0.00     0.200 A 
ATOM     84  F   UNL A   1      41.624  23.348  26.076  1.00  0.00    -0.200 F 
ATOM     85  F   UNL A   1      43.560  24.301  24.406  1.00  0.00    -0.200 F 
ENDBRANCH  51  75
BRANCH  63  86
ATOM     86  C   UNL A   1      44.429  26.987  34.357  1.00  0.00     0.064 A 
ATOM     87  C   UNL A   1      44.134  25.774  34.995  1.00  0.00     0.173 A 
ATOM     88  C   UNL A   1      45.742  27.478  34.454  1.00  0.00     0.173 A 
ATOM     89  F   UNL A   1      42.894  25.264  34.937  1.00  0.00    -0.203 F 
ATOM     90  C   UNL A   1      45.100  25.107  35.743  1.00  0.00     0.198 A 
ATOM     91  C   UNL A   1      46.715  26.787  35.167  1.00  0.00     0.198 A 
ATOM     92  F   UNL A   1      46.081  28.625  33.848  1.00  0.00    -0.203 F 
ATOM     93  F   UNL A   1      44.776  23.988  36.405  1.00  0.00    -0.200 F 
ATOM     94  C   UNL A   1      46.390  25.610  35.824  1.00  0.00     0.200 A 
ATOM     95  F   UNL A   1      47.966  27.264  35.224  1.00  0.00    -0.200 F 
ATOM     96  F   UNL A   1      47.318  24.967  36.544  1.00  0.00    -0.200 F 
ENDBRANCH  63  86
ENDBRANCH  37  38
ENDBRANCH  30  32
ENDBRANCH  29  30
ENDBRANCH  28  29
ENDBRANCH  27  28
ENDBRANCH  26  27
ENDBRANCH  25  26
ENDBRANCH   1  25
TORSDOF 22
ENDMDL
MODEL 2
REMARK VINA RESULT:     -10.5      1.542      2.389
REMARK SMILES CCc1cc(OCCC(=O)OCCOCCOCCOC(=O)c2ccc(-c3c4nc(c(-c5c(F)c(F)c(F)c(F)c5F)c5ccc([nH]5)c(-c5c(F)c(F)c(F)c(F)c5F)c5nc(c(-c6c(F)c(F)c(F)c(F)c6F)c6ccc3[nH]6)C=C5)C=C4)cc2)nc(-c2cnccn2)n1
REMARK SMILES IDX 15 1 14 2 13 3 12 4 11 5 9 6 10 7 8 8 7 9 6 10 5 11 3 12
REMARK SMILES IDX 4 13 94 14 87 15 86 16 2 17 1 18 88 19 89 20 93 21 90 22
REMARK SMILES IDX 92 23 91 24 16 25 17 26 18 27 19 28 20 29 21 30 22 31 23 32
REMARK SMILES IDX 24 33 85 34 25 35 84 36 26 37 27 38 28 39 78 40 29 41 83 42
REMARK SMILES IDX 77 43 79 44 30 45 82 46 76 47 75 48 31 50 63 51 43 52 62 53
REMARK SMILES IDX 44 54 47 55 61 56 80 57 45 58 46 59 60 61 81 62 48 63 32 64
REMARK SMILES IDX 33 65 41 66 34 67 35 68 39 69 42 70 36 71 37 72 40 73 38 74
REMARK SMILES IDX 64 75 65 76 73 77 66 78 67 79 71 80 74 81 68 82 69 83 72 84
REMARK SMILES IDX 70 85 49 86 50 87 58 88 51 89 52 90 56 91 59 92 53 93 54 94
REMARK SMILES IDX 57 95 55 96
REMARK H PARENT 79 49 47 60
REMARK Flexibility Score: inf
ROOT
ATOM      1  C   UNL A   1      33.071  29.289  25.065  1.00  0.00     0.188 C 
ENDROOT
BRANCH   1   2
ATOM      2  O   UNL A   1      31.642  29.222  25.042  1.00  0.00    -0.376 OA
BRANCH   2   3
ATOM      3  C   UNL A   1      30.924  28.016  24.781  1.00  0.00     0.202 C 
BRANCH   3   4
ATOM      4  C   UNL A   1      31.579  26.629  24.902  1.00  0.00     0.261 C 
BRANCH   4   5
ATOM      5  O   UNL A   1      30.730  25.574  24.444  1.00  0.00    -0.463 OA
BRANCH   5   6
ATOM      6  C   UNL A   1      31.162  24.858  23.384  1.00  0.00     0.309 C 
ATOM      7  O   UNL A   1      31.455  25.331  22.294  1.00  0.00    -0.252 OA
BRANCH   6   8
ATOM      8  C   UNL A   1      31.265  23.388  23.708  1.00  0.00     0.164 C 
BRANCH   8   9
ATOM      9  C   UNL A   1      30.851  22.988  25.131  1.00  0.00     0.243 C 
BRANCH   9  10
ATOM     10  O   UNL A   1      31.973  22.593  25.919  1.00  0.00    -0.477 OA
BRANCH  10  11
ATOM     11  C   UNL A   1      32.998  21.873  25.364  1.00  0.00     0.217 A 
ATOM     12  C   UNL A   1      35.293  21.423  24.807  1.00  0.00     0.048 A 
ATOM     13  C   UNL A   1      34.306  22.314  25.199  1.00  0.00     0.092 A 
ATOM     14  N   UNL A   1      34.956  20.147  24.606  1.00  0.00    -0.231 NA
ATOM     15  C   UNL A   1      33.677  19.783  24.827  1.00  0.00     0.183 A 
ATOM     16  N   UNL A   1      32.668  20.599  25.166  1.00  0.00    -0.192 NA
BRANCH  12  17
ATOM     17  C   UNL A   1      36.794  21.647  24.696  1.00  0.00     0.053 C 
ATOM     18  C   UNL A   1      37.895  20.636  25.020  1.00  0.00     0.011 C 
ENDBRANCH  12  17
BRANCH  15  19
ATOM     19  C   UNL A   1      33.423  18.356  24.819  1.00  0.00     0.126 A 
ATOM     20  C   UNL A   1      34.103  17.503  23.965  1.00  0.00     0.143 A 
ATOM     21  N   UNL A   1      32.524  17.889  25.736  1.00  0.00    -0.250 NA
ATOM     22  N   UNL A   1      33.931  16.158  23.992  1.00  0.00    -0.261 NA
ATOM     23  C   UNL A   1      32.346  16.557  25.754  1.00  0.00     0.132 A 
ATOM     24  C   UNL A   1      33.038  15.712  24.905  1.00  0.00     0.131 A 
ENDBRANCH  15  19
ENDBRANCH  10  11
ENDBRANCH   9  10
ENDBRANCH   8   9
ENDBRANCH   6   8
ENDBRANCH   5   6
ENDBRANCH   4   5
ENDBRANCH   3   4
ENDBRANCH   2   3
ENDBRANCH   1   2
BRANCH   1  25
ATOM     25  C   UNL A   1      33.839  29.127  26.421  1.00  0.00     0.188 C 
BRANCH  25  26
ATOM     26  O   UNL A   1      33.363  29.949  27.494  1.00  0.00    -0.376 OA
BRANCH  26  27
ATOM     27  C   UNL A   1      33.770  31.320  27.674  1.00  0.00     0.202 C 
BRANCH  27  28
ATOM     28  C   UNL A   1      32.824  32.526  27.570  1.00  0.00     0.261 C 
BRANCH  28  29
ATOM     29  O   UNL A   1      33.491  33.764  27.471  1.00  0.00    -0.460 OA
BRANCH  29  30
ATOM     30  C   UNL A   1      33.370  34.511  28.593  1.00  0.00     0.338 C 
ATOM     31  O   UNL A   1      32.419  35.164  28.954  1.00  0.00    -0.246 OA
BRANCH  30  32
ATOM     32  C   UNL A   1      34.530  34.164  29.431  1.00  0.00     0.060 A 
ATOM     33  C   UNL A   1      35.792  34.444  28.895  1.00  0.00     0.016 A 
ATOM     34  C   UNL A   1      34.375  33.711  30.748  1.00  0.00     0.016 A 
ATOM     35  C   UNL A   1      36.920  34.180  29.650  1.00  0.00     0.010 A 
ATOM     36  C   UNL A   1      35.505  33.425  31.499  1.00  0.00     0.010 A 
ATOM     37  C   UNL A   1      36.768  33.588  30.910  1.00  0.00    -0.014 A 
BRANCH  37  38
ATOM     38  C   UNL A   1      37.895  32.784  31.406  1.00  0.00     0.031 A 
ATOM     39  C   UNL A   1      38.442  33.161  32.753  1.00  0.00     0.074 A 
ATOM     40  C   UNL A   1      38.335  31.717  30.727  1.00  0.00     0.049 A 
ATOM     41  N   UNL A   1      39.407  32.618  33.444  1.00  0.00    -0.248 NA
ATOM     42  C   UNL A   1      37.809  34.316  33.419  1.00  0.00     0.031 C 
ATOM     43  C   UNL A   1      37.813  31.252  29.445  1.00  0.00     0.029 A 
ATOM     44  N   UNL A   1      39.324  30.828  31.042  1.00  0.00    -0.354 N 
ATOM     45  C   UNL A   1      39.493  33.364  34.611  1.00  0.00     0.074 A 
ATOM     46  C   UNL A   1      38.521  34.425  34.526  1.00  0.00     0.031 C 
ATOM     47  C   UNL A   1      38.497  30.155  29.075  1.00  0.00     0.029 A 
ATOM     48  C   UNL A   1      39.516  29.868  30.084  1.00  0.00     0.049 A 
ATOM     49  H   UNL A   1      39.846  30.872  31.874  1.00  0.00     0.167 HD
ATOM     50  C   UNL A   1      40.308  33.168  35.671  1.00  0.00     0.037 A 
ATOM     51  C   UNL A   1      40.431  28.885  30.038  1.00  0.00     0.037 A 
ATOM     52  C   UNL A   1      41.274  32.108  35.733  1.00  0.00     0.049 A 
ATOM     53  C   UNL A   1      41.380  28.732  31.200  1.00  0.00     0.074 A 
ATOM     54  C   UNL A   1      42.167  31.809  36.741  1.00  0.00     0.029 A 
ATOM     55  N   UNL A   1      41.472  31.173  34.724  1.00  0.00    -0.354 N 
ATOM     56  N   UNL A   1      41.461  29.434  32.308  1.00  0.00    -0.248 NA
ATOM     57  C   UNL A   1      42.355  27.640  31.112  1.00  0.00     0.031 C 
ATOM     58  C   UNL A   1      42.948  30.729  36.318  1.00  0.00     0.029 A 
ATOM     59  C   UNL A   1      42.490  30.307  35.080  1.00  0.00     0.049 A 
ATOM     60  H   UNL A   1      40.964  31.134  33.882  1.00  0.00     0.167 HD
ATOM     61  C   UNL A   1      42.465  28.844  33.065  1.00  0.00     0.074 A 
ATOM     62  C   UNL A   1      42.952  27.719  32.291  1.00  0.00     0.031 C 
ATOM     63  C   UNL A   1      42.941  29.190  34.288  1.00  0.00     0.037 A 
BRANCH  50  64
ATOM     64  C   UNL A   1      40.209  34.142  36.808  1.00  0.00     0.064 A 
ATOM     65  C   UNL A   1      40.995  35.304  36.864  1.00  0.00     0.173 A 
ATOM     66  C   UNL A   1      39.321  33.903  37.867  1.00  0.00     0.173 A 
ATOM     67  F   UNL A   1      41.885  35.566  35.894  1.00  0.00    -0.203 F 
ATOM     68  C   UNL A   1      40.912  36.176  37.948  1.00  0.00     0.198 A 
ATOM     69  C   UNL A   1      39.215  34.793  38.931  1.00  0.00     0.198 A 
ATOM     70  F   UNL A   1      38.557  32.800  37.871  1.00  0.00    -0.203 F 
ATOM     71  F   UNL A   1      41.716  37.246  38.009  1.00  0.00    -0.200 F 
ATOM     72  C   UNL A   1      40.015  35.924  38.975  1.00  0.00     0.200 A 
ATOM     73  F   UNL A   1      38.342  34.551  39.919  1.00  0.00    -0.200 F 
ATOM     74  F   UNL A   1      39.932  36.765  40.015  1.00  0.00    -0.200 F 
ENDBRANCH  50  64
BRANCH  51  75
ATOM     75  C   UNL A   1      40.494  27.979  28.862  1.00  0.00     0.064 A 
ATOM     76  C   UNL A   1      41.247  28.310  27.728  1.00  0.00     0.173 A 
ATOM     77  C   UNL A   1      39.784  26.769  28.844  1.00  0.00     0.173 A 
ATOM     78  F   UNL A   1      41.928  29.464  27.690  1.00  0.00    -0.203 F 
ATOM     79  C   UNL A   1      41.265  27.479  26.609  1.00  0.00     0.198 A 
ATOM     80  C   UNL A   1      39.828  25.924  27.737  1.00  0.00     0.198 A 
ATOM     81  F   UNL A   1      39.049  26.404  29.905  1.00  0.00    -0.203 F 
ATOM     82  F   UNL A   1      41.947  27.848  25.516  1.00  0.00    -0.200 F 
ATOM     83  C   UNL A   1      40.559  26.286  26.616  1.00  0.00     0.200 A 
ATOM     84  F   UNL A   1      39.156  24.765  27.755  1.00  0.00    -0.200 F 
ATOM     85  F   UNL A   1      40.576  25.488  25.539  1.00  0.00    -0.200 F 
ENDBRANCH  51  75
BRANCH  63  86
ATOM     86  C   UNL A   1      43.994  28.302  34.887  1.00  0.00     0.064 A 
ATOM     87  C   UNL A   1      45.362  28.508  34.657  1.00  0.00     0.173 A 
ATOM     88  C   UNL A   1      43.621  27.237  35.723  1.00  0.00     0.173 A 
ATOM     89  F   UNL A   1      45.770  29.508  33.861  1.00  0.00    -0.203 F 
ATOM     90  C   UNL A   1      46.313  27.651  35.201  1.00  0.00     0.198 A 
ATOM     91  C   UNL A   1      44.578  26.409  36.299  1.00  0.00     0.198 A 
ATOM     92  F   UNL A   1      42.327  27.006  35.989  1.00  0.00    -0.203 F 
ATOM     93  F   UNL A   1      47.610  27.822  34.909  1.00  0.00    -0.200 F 
ATOM     94  C   UNL A   1      45.923  26.607  36.025  1.00  0.00     0.200 A 
ATOM     95  F   UNL A   1      44.198  25.414  37.114  1.00  0.00    -0.200 F 
ATOM     96  F   UNL A   1      46.841  25.783  36.548  1.00  0.00    -0.200 F 
ENDBRANCH  63  86
ENDBRANCH  37  38
ENDBRANCH  30  32
ENDBRANCH  29  30
ENDBRANCH  28  29
ENDBRANCH  27  28
ENDBRANCH  26  27
ENDBRANCH  25  26
ENDBRANCH   1  25
TORSDOF 22
ENDMDL
MODEL 3
REMARK VINA RESULT:     -10.4      4.615     10.726
REMARK SMILES CCc1cc(OCCC(=O)OCCOCCOCCOC(=O)c2ccc(-c3c4nc(c(-c5c(F)c(F)c(F)c(F)c5F)c5ccc([nH]5)c(-c5c(F)c(F)c(F)c(F)c5F)c5nc(c(-c6c(F)c(F)c(F)c(F)c6F)c6ccc3[nH]6)C=C5)C=C4)cc2)nc(-c2cnccn2)n1
REMARK SMILES IDX 15 1 14 2 13 3 12 4 11 5 9 6 10 7 8 8 7 9 6 10 5 11 3 12
REMARK SMILES IDX 4 13 94 14 87 15 86 16 2 17 1 18 88 19 89 20 93 21 90 22
REMARK SMILES IDX 92 23 91 24 16 25 17 26 18 27 19 28 20 29 21 30 22 31 23 32
REMARK SMILES IDX 24 33 85 34 25 35 84 36 26 37 27 38 28 39 78 40 29 41 83 42
REMARK SMILES IDX 77 43 79 44 30 45 82 46 76 47 75 48 31 50 63 51 43 52 62 53
REMARK SMILES IDX 44 54 47 55 61 56 80 57 45 58 46 59 60 61 81 62 48 63 32 64
REMARK SMILES IDX 33 65 41 66 34 67 35 68 39 69 42 70 36 71 37 72 40 73 38 74
REMARK SMILES IDX 64 75 65 76 73 77 66 78 67 79 71 80 74 81 68 82 69 83 72 84
REMARK SMILES IDX 70 85 49 86 50 87 58 88 51 89 52 90 56 91 59 92 53 93 54 94
REMARK SMILES IDX 57 95 55 96
REMARK H PARENT 79 49 47 60
REMARK Flexibility Score: inf
ROOT
ATOM      1  C   UNL A   1      37.148  22.197  24.586  1.00  0.00     0.188 C 
ENDROOT
BRANCH   1   2
ATOM      2  O   UNL A   1      36.247  22.525  23.524  1.00  0.00    -0.376 OA
BRANCH   2   3
ATOM      3  C   UNL A   1      35.262  23.554  23.630  1.00  0.00     0.202 C 
BRANCH   3   4
ATOM      4  C   UNL A   1      34.481  23.810  24.930  1.00  0.00     0.261 C 
BRANCH   4   5
ATOM      5  O   UNL A   1      34.039  22.604  25.557  1.00  0.00    -0.463 OA
BRANCH   5   6
ATOM      6  C   UNL A   1      32.861  22.094  25.140  1.00  0.00     0.309 C 
ATOM      7  O   UNL A   1      32.672  20.919  24.850  1.00  0.00    -0.252 OA
BRANCH   6   8
ATOM      8  C   UNL A   1      31.782  23.147  25.091  1.00  0.00     0.164 C 
BRANCH   8   9
ATOM      9  C   UNL A   1      30.827  23.179  26.294  1.00  0.00     0.243 C 
BRANCH   9  10
ATOM     10  O   UNL A   1      30.621  24.506  26.774  1.00  0.00    -0.477 OA
BRANCH  10  11
ATOM     11  C   UNL A   1      30.832  25.585  25.956  1.00  0.00     0.217 A 
ATOM     12  C   UNL A   1      30.254  27.163  24.235  1.00  0.00     0.048 A 
ATOM     13  C   UNL A   1      30.054  25.941  24.861  1.00  0.00     0.092 A 
ATOM     14  N   UNL A   1      31.195  27.978  24.717  1.00  0.00    -0.231 NA
ATOM     15  C   UNL A   1      31.882  27.584  25.808  1.00  0.00     0.183 A 
ATOM     16  N   UNL A   1      31.768  26.404  26.434  1.00  0.00    -0.192 NA
BRANCH  12  17
ATOM     17  C   UNL A   1      29.443  27.812  23.123  1.00  0.00     0.053 C 
ATOM     18  C   UNL A   1      29.556  29.255  22.633  1.00  0.00     0.011 C 
ENDBRANCH  12  17
BRANCH  15  19
ATOM     19  C   UNL A   1      32.719  28.597  26.418  1.00  0.00     0.126 A 
ATOM     20  C   UNL A   1      34.070  28.385  26.642  1.00  0.00     0.143 A 
ATOM     21  N   UNL A   1      32.122  29.792  26.707  1.00  0.00    -0.250 NA
ATOM     22  N   UNL A   1      34.884  29.345  27.146  1.00  0.00    -0.261 NA
ATOM     23  C   UNL A   1      32.927  30.739  27.217  1.00  0.00     0.132 A 
ATOM     24  C   UNL A   1      34.277  30.522  27.426  1.00  0.00     0.131 A 
ENDBRANCH  15  19
ENDBRANCH  10  11
ENDBRANCH   9  10
ENDBRANCH   8   9
ENDBRANCH   6   8
ENDBRANCH   5   6
ENDBRANCH   4   5
ENDBRANCH   3   4
ENDBRANCH   2   3
ENDBRANCH   1   2
BRANCH   1  25
ATOM     25  C   UNL A   1      37.038  20.807  25.302  1.00  0.00     0.188 C 
BRANCH  25  26
ATOM     26  O   UNL A   1      37.944  19.802  24.828  1.00  0.00    -0.376 OA
BRANCH  26  27
ATOM     27  C   UNL A   1      39.170  19.467  25.507  1.00  0.00     0.202 C 
BRANCH  27  28
ATOM     28  C   UNL A   1      39.954  20.433  26.407  1.00  0.00     0.261 C 
BRANCH  28  29
ATOM     29  O   UNL A   1      41.187  19.917  26.857  1.00  0.00    -0.460 OA
BRANCH  29  30
ATOM     30  C   UNL A   1      42.247  20.589  26.350  1.00  0.00     0.338 C 
ATOM     31  O   UNL A   1      43.000  20.239  25.471  1.00  0.00    -0.246 OA
BRANCH  30  32
ATOM     32  C   UNL A   1      42.154  21.953  26.896  1.00  0.00     0.060 A 
ATOM     33  C   UNL A   1      41.580  22.920  26.064  1.00  0.00     0.016 A 
ATOM     34  C   UNL A   1      42.491  22.236  28.228  1.00  0.00     0.016 A 
ATOM     35  C   UNL A   1      41.426  24.211  26.534  1.00  0.00     0.010 A 
ATOM     36  C   UNL A   1      42.357  23.535  28.694  1.00  0.00     0.010 A 
ATOM     37  C   UNL A   1      41.900  24.527  27.814  1.00  0.00    -0.014 A 
BRANCH  37  38
ATOM     38  C   UNL A   1      42.287  25.925  28.052  1.00  0.00     0.031 A 
ATOM     39  C   UNL A   1      43.608  26.358  27.482  1.00  0.00     0.074 A 
ATOM     40  C   UNL A   1      41.456  26.779  28.662  1.00  0.00     0.049 A 
ATOM     41  N   UNL A   1      44.189  27.526  27.515  1.00  0.00    -0.248 NA
ATOM     42  C   UNL A   1      44.386  25.325  26.770  1.00  0.00     0.031 C 
ATOM     43  C   UNL A   1      40.134  26.449  29.187  1.00  0.00     0.029 A 
ATOM     44  N   UNL A   1      41.612  28.110  28.930  1.00  0.00    -0.354 N 
ATOM     45  C   UNL A   1      45.389  27.363  26.837  1.00  0.00     0.074 A 
ATOM     46  C   UNL A   1      45.484  25.980  26.439  1.00  0.00     0.031 C 
ATOM     47  C   UNL A   1      39.596  27.558  29.724  1.00  0.00     0.029 A 
ATOM     48  C   UNL A   1      40.551  28.657  29.601  1.00  0.00     0.049 A 
ATOM     49  H   UNL A   1      42.409  28.624  28.666  1.00  0.00     0.167 HD
ATOM     50  C   UNL A   1      46.325  28.296  26.556  1.00  0.00     0.037 A 
ATOM     51  C   UNL A   1      40.396  29.907  30.070  1.00  0.00     0.037 A 
ATOM     52  C   UNL A   1      46.214  29.667  26.967  1.00  0.00     0.049 A 
ATOM     53  C   UNL A   1      41.489  30.913  29.810  1.00  0.00     0.074 A 
ATOM     54  C   UNL A   1      47.097  30.706  26.760  1.00  0.00     0.029 A 
ATOM     55  N   UNL A   1      45.140  30.182  27.684  1.00  0.00    -0.354 N 
ATOM     56  N   UNL A   1      42.624  30.762  29.165  1.00  0.00    -0.248 NA
ATOM     57  C   UNL A   1      41.273  32.267  30.332  1.00  0.00     0.031 C 
ATOM     58  C   UNL A   1      46.588  31.839  27.403  1.00  0.00     0.029 A 
ATOM     59  C   UNL A   1      45.351  31.524  27.944  1.00  0.00     0.049 A 
ATOM     60  H   UNL A   1      44.350  29.669  27.964  1.00  0.00     0.167 HD
ATOM     61  C   UNL A   1      43.236  32.009  29.166  1.00  0.00     0.074 A 
ATOM     62  C   UNL A   1      42.337  32.905  29.868  1.00  0.00     0.031 C 
ATOM     63  C   UNL A   1      44.426  32.388  28.635  1.00  0.00     0.037 A 
BRANCH  50  64
ATOM     64  C   UNL A   1      47.551  27.845  25.818  1.00  0.00     0.064 A 
ATOM     65  C   UNL A   1      47.584  27.747  24.418  1.00  0.00     0.173 A 
ATOM     66  C   UNL A   1      48.710  27.494  26.525  1.00  0.00     0.173 A 
ATOM     67  F   UNL A   1      46.492  28.039  23.693  1.00  0.00    -0.203 F 
ATOM     68  C   UNL A   1      48.723  27.291  23.756  1.00  0.00     0.198 A 
ATOM     69  C   UNL A   1      49.858  27.073  25.860  1.00  0.00     0.198 A 
ATOM     70  F   UNL A   1      48.729  27.556  27.865  1.00  0.00    -0.203 F 
ATOM     71  F   UNL A   1      48.710  27.148  22.425  1.00  0.00    -0.200 F 
ATOM     72  C   UNL A   1      49.861  26.965  24.478  1.00  0.00     0.200 A 
ATOM     73  F   UNL A   1      50.959  26.765  26.558  1.00  0.00    -0.200 F 
ATOM     74  F   UNL A   1      50.958  26.532  23.841  1.00  0.00    -0.200 F 
ENDBRANCH  50  64
BRANCH  51  75
ATOM     75  C   UNL A   1      39.171  30.273  30.825  1.00  0.00     0.064 A 
ATOM     76  C   UNL A   1      38.043  30.791  30.175  1.00  0.00     0.173 A 
ATOM     77  C   UNL A   1      39.109  30.126  32.220  1.00  0.00     0.173 A 
ATOM     78  F   UNL A   1      38.059  30.967  28.845  1.00  0.00    -0.203 F 
ATOM     79  C   UNL A   1      36.912  31.177  30.893  1.00  0.00     0.198 A 
ATOM     80  C   UNL A   1      37.967  30.482  32.932  1.00  0.00     0.198 A 
ATOM     81  F   UNL A   1      40.161  29.633  32.890  1.00  0.00    -0.203 F 
ATOM     82  F   UNL A   1      35.871  31.724  30.252  1.00  0.00    -0.200 F 
ATOM     83  C   UNL A   1      36.873  31.019  32.269  1.00  0.00     0.200 A 
ATOM     84  F   UNL A   1      37.929  30.313  34.261  1.00  0.00    -0.200 F 
ATOM     85  F   UNL A   1      35.787  31.391  32.959  1.00  0.00    -0.200 F 
ENDBRANCH  51  75
BRANCH  63  86
ATOM     86  C   UNL A   1      44.787  33.843  28.736  1.00  0.00     0.064 A 
ATOM     87  C   UNL A   1      45.541  34.352  29.803  1.00  0.00     0.173 A 
ATOM     88  C   UNL A   1      44.383  34.737  27.731  1.00  0.00     0.173 A 
ATOM     89  F   UNL A   1      45.946  33.540  30.792  1.00  0.00    -0.203 F 
ATOM     90  C   UNL A   1      45.835  35.709  29.885  1.00  0.00     0.198 A 
ATOM     91  C   UNL A   1      44.716  36.085  27.795  1.00  0.00     0.198 A 
ATOM     92  F   UNL A   1      43.674  34.298  26.680  1.00  0.00    -0.203 F 
ATOM     93  F   UNL A   1      46.493  36.186  30.950  1.00  0.00    -0.200 F 
ATOM     94  C   UNL A   1      45.428  36.573  28.880  1.00  0.00     0.200 A 
ATOM     95  F   UNL A   1      44.340  36.913  26.811  1.00  0.00    -0.200 F 
ATOM     96  F   UNL A   1      45.711  37.880  28.961  1.00  0.00    -0.200 F 
ENDBRANCH  63  86
ENDBRANCH  37  38
ENDBRANCH  30  32
ENDBRANCH  29  30
ENDBRANCH  28  29
ENDBRANCH  27  28
ENDBRANCH  26  27
ENDBRANCH  25  26
ENDBRANCH   1  25
TORSDOF 22
ENDMDL
