MODEL 1
REMARK VINA RESULT:     -10.4      0.000      0.000
REMARK SMILES CCOCCC(=O)N1[C@@H](C(=O)OCCOCCOCCOC(=O)c2ccc(-c3c4nc(c(-c5c(F)c(F)c(F)c(F)c5F)c5ccc([nH]5)c(-c5c(F)c(F)c(F)c(F)c5F)c5nc(c(-c6c(F)c(F)c(F)c(F)c6F)c6ccc3[nH]6)C=C5)C=C4)cc2)CC[C@H]2CCCC[C@@H]21
REMARK SMILES IDX 15 1 14 2 13 3 12 4 10 5 11 6 9 7 8 8 94 9 87 10 89 11 93 12
REMARK SMILES IDX 88 13 90 14 92 15 91 16 6 17 7 18 5 19 4 20 3 21 2 22 1 23
REMARK SMILES IDX 16 24 17 25 18 26 19 27 20 28 21 29 22 30 23 31 24 32 25 33
REMARK SMILES IDX 86 34 26 35 85 36 27 37 28 38 29 39 79 40 30 41 84 42 78 43
REMARK SMILES IDX 80 44 31 45 83 46 77 47 76 48 32 50 64 51 44 52 63 53 45 54
REMARK SMILES IDX 48 55 62 56 81 57 46 58 47 59 61 61 82 62 49 63 33 64 34 65
REMARK SMILES IDX 42 66 35 67 36 68 40 69 43 70 37 71 38 72 41 73 39 74 65 75
REMARK SMILES IDX 66 76 74 77 67 78 68 79 72 80 75 81 69 82 70 83 73 84 71 85
REMARK SMILES IDX 50 86 51 87 59 88 52 89 53 90 57 91 60 92 54 93 55 94 58 95
REMARK SMILES IDX 56 96
REMARK H PARENT 80 49 48 60
REMARK Flexibility Score: inf
ROOT
ATOM      1  O   UNL A   1      34.001  31.299  28.175  1.00  0.00    -0.376 OA
ENDROOT
BRANCH   1   2
ATOM      2  C   UNL A   1      33.574  30.404  27.150  1.00  0.00     0.202 C 
BRANCH   2   3
ATOM      3  C   UNL A   1      32.186  30.714  26.579  1.00  0.00     0.261 C 
BRANCH   3   4
ATOM      4  O   UNL A   1      31.754  29.642  25.726  1.00  0.00    -0.462 OA
BRANCH   4   5
ATOM      5  C   UNL A   1      31.770  28.378  26.213  1.00  0.00     0.328 C 
ATOM      6  O   UNL A   1      31.216  28.021  27.243  1.00  0.00    -0.250 OA
BRANCH   5   7
ATOM      7  C   UNL A   1      32.592  27.474  25.256  1.00  0.00     0.195 C 
ATOM      8  N   UNL A   1      31.789  26.354  24.749  1.00  0.00    -0.326 N 
ATOM      9  C   UNL A   1      32.460  25.196  24.154  1.00  0.00     0.089 C 
ATOM     10  C   UNL A   1      33.858  27.047  26.023  1.00  0.00     0.037 C 
ATOM     11  C   UNL A   1      33.952  25.088  24.513  1.00  0.00     0.012 C 
ATOM     12  C   UNL A   1      32.403  25.086  22.615  1.00  0.00     0.025 C 
ATOM     13  C   UNL A   1      34.179  25.555  25.939  1.00  0.00     0.008 C 
ATOM     14  C   UNL A   1      34.424  23.659  24.230  1.00  0.00     0.006 C 
ATOM     15  C   UNL A   1      32.835  23.669  22.209  1.00  0.00     0.002 C 
ATOM     16  C   UNL A   1      34.217  23.293  22.753  1.00  0.00     0.000 C 
BRANCH   8  17
ATOM     17  C   UNL A   1      30.477  26.636  24.365  1.00  0.00     0.225 C 
ATOM     18  O   UNL A   1      29.520  25.999  24.795  1.00  0.00    -0.275 OA
BRANCH  17  19
ATOM     19  C   UNL A   1      30.395  27.587  23.183  1.00  0.00     0.128 C 
BRANCH  19  20
ATOM     20  C   UNL A   1      29.068  28.312  23.045  1.00  0.00     0.170 C 
BRANCH  20  21
ATOM     21  O   UNL A   1      29.033  29.229  21.952  1.00  0.00    -0.381 OA
BRANCH  21  22
ATOM     22  C   UNL A   1      28.090  30.285  22.051  1.00  0.00     0.156 C 
ATOM     23  C   UNL A   1      28.688  31.581  22.570  1.00  0.00     0.035 C 
ENDBRANCH  21  22
ENDBRANCH  20  21
ENDBRANCH  19  20
ENDBRANCH  17  19
ENDBRANCH   8  17
ENDBRANCH   5   7
ENDBRANCH   4   5
ENDBRANCH   3   4
ENDBRANCH   2   3
ENDBRANCH   1   2
BRANCH   1  24
ATOM     24  C   UNL A   1      33.652  32.663  27.987  1.00  0.00     0.188 C 
BRANCH  24  25
ATOM     25  C   UNL A   1      34.825  33.668  28.117  1.00  0.00     0.188 C 
BRANCH  25  26
ATOM     26  O   UNL A   1      34.848  34.631  29.159  1.00  0.00    -0.376 OA
BRANCH  26  27
ATOM     27  C   UNL A   1      34.048  34.418  30.312  1.00  0.00     0.202 C 
BRANCH  27  28
ATOM     28  C   UNL A   1      34.696  34.547  31.697  1.00  0.00     0.261 C 
BRANCH  28  29
ATOM     29  O   UNL A   1      36.025  34.002  31.805  1.00  0.00    -0.460 OA
BRANCH  29  30
ATOM     30  C   UNL A   1      36.114  32.806  32.439  1.00  0.00     0.338 C 
ATOM     31  O   UNL A   1      35.416  32.393  33.345  1.00  0.00    -0.246 OA
BRANCH  30  32
ATOM     32  C   UNL A   1      37.109  31.947  31.761  1.00  0.00     0.060 A 
ATOM     33  C   UNL A   1      38.119  31.360  32.537  1.00  0.00     0.016 A 
ATOM     34  C   UNL A   1      37.107  31.795  30.375  1.00  0.00     0.016 A 
ATOM     35  C   UNL A   1      39.147  30.640  31.926  1.00  0.00     0.010 A 
ATOM     36  C   UNL A   1      38.154  31.095  29.761  1.00  0.00     0.010 A 
ATOM     37  C   UNL A   1      39.195  30.544  30.531  1.00  0.00    -0.014 A 
BRANCH  37  38
ATOM     38  C   UNL A   1      40.421  30.029  29.873  1.00  0.00     0.031 A 
ATOM     39  C   UNL A   1      41.576  30.969  29.662  1.00  0.00     0.074 A 
ATOM     40  C   UNL A   1      40.520  28.746  29.485  1.00  0.00     0.049 A 
ATOM     41  N   UNL A   1      42.718  30.766  29.053  1.00  0.00    -0.248 NA
ATOM     42  C   UNL A   1      41.422  32.324  30.214  1.00  0.00     0.031 C 
ATOM     43  C   UNL A   1      39.494  27.724  29.676  1.00  0.00     0.029 A 
ATOM     44  N   UNL A   1      41.536  28.090  28.833  1.00  0.00    -0.354 N 
ATOM     45  C   UNL A   1      43.410  31.967  29.140  1.00  0.00     0.074 A 
ATOM     46  C   UNL A   1      42.553  32.901  29.838  1.00  0.00     0.031 C 
ATOM     47  C   UNL A   1      39.924  26.571  29.132  1.00  0.00     0.029 A 
ATOM     48  C   UNL A   1      41.240  26.784  28.528  1.00  0.00     0.049 A 
ATOM     49  H   UNL A   1      42.394  28.515  28.606  1.00  0.00     0.167 HD
ATOM     50  C   UNL A   1      44.651  32.263  28.685  1.00  0.00     0.037 A 
ATOM     51  C   UNL A   1      41.939  25.876  27.819  1.00  0.00     0.037 A 
ATOM     52  C   UNL A   1      45.502  31.336  27.987  1.00  0.00     0.049 A 
ATOM     53  C   UNL A   1      43.284  26.255  27.249  1.00  0.00     0.074 A 
ATOM     54  C   UNL A   1      46.780  31.537  27.497  1.00  0.00     0.029 A 
ATOM     55  N   UNL A   1      45.154  30.030  27.671  1.00  0.00    -0.354 N 
ATOM     56  N   UNL A   1      43.941  27.384  27.352  1.00  0.00    -0.248 NA
ATOM     57  C   UNL A   1      43.983  25.228  26.463  1.00  0.00     0.031 C 
ATOM     58  C   UNL A   1      47.186  30.372  26.837  1.00  0.00     0.029 A 
ATOM     59  C   UNL A   1      46.184  29.424  26.969  1.00  0.00     0.049 A 
ATOM     60  H   UNL A   1      44.302  29.598  27.910  1.00  0.00     0.167 HD
ATOM     61  C   UNL A   1      45.140  27.194  26.674  1.00  0.00     0.074 A 
ATOM     62  C   UNL A   1      45.124  25.836  26.173  1.00  0.00     0.031 C 
ATOM     63  C   UNL A   1      46.162  28.066  26.485  1.00  0.00     0.037 A 
BRANCH  50  64
ATOM     64  C   UNL A   1      45.153  33.661  28.900  1.00  0.00     0.064 A 
ATOM     65  C   UNL A   1      45.918  34.007  30.025  1.00  0.00     0.173 A 
ATOM     66  C   UNL A   1      44.891  34.662  27.953  1.00  0.00     0.173 A 
ATOM     67  F   UNL A   1      46.184  33.090  30.968  1.00  0.00    -0.203 F 
ATOM     68  C   UNL A   1      46.380  35.308  30.204  1.00  0.00     0.198 A 
ATOM     69  C   UNL A   1      45.381  35.954  28.120  1.00  0.00     0.198 A 
ATOM     70  F   UNL A   1      44.168  34.384  26.857  1.00  0.00    -0.203 F 
ATOM     71  F   UNL A   1      47.069  35.626  31.309  1.00  0.00    -0.200 F 
ATOM     72  C   UNL A   1      46.118  36.278  29.249  1.00  0.00     0.200 A 
ATOM     73  F   UNL A   1      45.137  36.887  27.189  1.00  0.00    -0.200 F 
ATOM     74  F   UNL A   1      46.570  37.528  29.420  1.00  0.00    -0.200 F 
ENDBRANCH  50  64
BRANCH  51  75
ATOM     75  C   UNL A   1      41.376  24.520  27.589  1.00  0.00     0.064 A 
ATOM     76  C   UNL A   1      41.951  23.389  28.186  1.00  0.00     0.173 A 
ATOM     77  C   UNL A   1      40.274  24.323  26.746  1.00  0.00     0.173 A 
ATOM     78  F   UNL A   1      43.025  23.522  28.978  1.00  0.00    -0.203 F 
ATOM     79  C   UNL A   1      41.456  22.111  27.932  1.00  0.00     0.198 A 
ATOM     80  C   UNL A   1      39.760  23.047  26.517  1.00  0.00     0.198 A 
ATOM     81  F   UNL A   1      39.692  25.370  26.144  1.00  0.00    -0.203 F 
ATOM     82  F   UNL A   1      42.055  21.043  28.475  1.00  0.00    -0.200 F 
ATOM     83  C   UNL A   1      40.357  21.942  27.103  1.00  0.00     0.200 A 
ATOM     84  F   UNL A   1      38.693  22.890  25.721  1.00  0.00    -0.200 F 
ATOM     85  F   UNL A   1      39.882  20.713  26.860  1.00  0.00    -0.200 F 
ENDBRANCH  51  75
BRANCH  63  86
ATOM     86  C   UNL A   1      47.372  27.569  25.747  1.00  0.00     0.064 A 
ATOM     87  C   UNL A   1      47.492  27.694  24.354  1.00  0.00     0.173 A 
ATOM     88  C   UNL A   1      48.448  27.002  26.449  1.00  0.00     0.173 A 
ATOM     89  F   UNL A   1      46.488  28.215  23.634  1.00  0.00    -0.203 F 
ATOM     90  C   UNL A   1      48.632  27.246  23.691  1.00  0.00     0.198 A 
ATOM     91  C   UNL A   1      49.599  26.585  25.786  1.00  0.00     0.198 A 
ATOM     92  F   UNL A   1      48.389  26.868  27.782  1.00  0.00    -0.203 F 
ATOM     93  F   UNL A   1      48.705  27.330  22.356  1.00  0.00    -0.200 F 
ATOM     94  C   UNL A   1      49.687  26.699  24.407  1.00  0.00     0.200 A 
ATOM     95  F   UNL A   1      50.623  26.074  26.482  1.00  0.00    -0.200 F 
ATOM     96  F   UNL A   1      50.787  26.278  23.767  1.00  0.00    -0.200 F 
ENDBRANCH  63  86
ENDBRANCH  37  38
ENDBRANCH  30  32
ENDBRANCH  29  30
ENDBRANCH  28  29
ENDBRANCH  27  28
ENDBRANCH  26  27
ENDBRANCH  25  26
ENDBRANCH  24  25
ENDBRANCH   1  24
TORSDOF 22
ENDMDL
MODEL 2
REMARK VINA RESULT:     -10.4      4.532      7.363
REMARK SMILES CCOCCC(=O)N1[C@@H](C(=O)OCCOCCOCCOC(=O)c2ccc(-c3c4nc(c(-c5c(F)c(F)c(F)c(F)c5F)c5ccc([nH]5)c(-c5c(F)c(F)c(F)c(F)c5F)c5nc(c(-c6c(F)c(F)c(F)c(F)c6F)c6ccc3[nH]6)C=C5)C=C4)cc2)CC[C@H]2CCCC[C@@H]21
REMARK SMILES IDX 15 1 14 2 13 3 12 4 10 5 11 6 9 7 8 8 94 9 87 10 89 11 93 12
REMARK SMILES IDX 88 13 90 14 92 15 91 16 6 17 7 18 5 19 4 20 3 21 2 22 1 23
REMARK SMILES IDX 16 24 17 25 18 26 19 27 20 28 21 29 22 30 23 31 24 32 25 33
REMARK SMILES IDX 86 34 26 35 85 36 27 37 28 38 29 39 79 40 30 41 84 42 78 43
REMARK SMILES IDX 80 44 31 45 83 46 77 47 76 48 32 50 64 51 44 52 63 53 45 54
REMARK SMILES IDX 48 55 62 56 81 57 46 58 47 59 61 61 82 62 49 63 33 64 34 65
REMARK SMILES IDX 42 66 35 67 36 68 40 69 43 70 37 71 38 72 41 73 39 74 65 75
REMARK SMILES IDX 66 76 74 77 67 78 68 79 72 80 75 81 69 82 70 83 73 84 71 85
REMARK SMILES IDX 50 86 51 87 59 88 52 89 53 90 57 91 60 92 54 93 55 94 58 95
REMARK SMILES IDX 56 96
REMARK H PARENT 80 49 48 60
REMARK Flexibility Score: inf
ROOT
ATOM      1  O   UNL A   1      31.382  27.855  26.665  1.00  0.00    -0.376 OA
ENDROOT
BRANCH   1   2
ATOM      2  C   UNL A   1      31.029  27.314  25.393  1.00  0.00     0.202 C 
BRANCH   2   3
ATOM      3  C   UNL A   1      30.303  25.965  25.461  1.00  0.00     0.261 C 
BRANCH   3   4
ATOM      4  O   UNL A   1      31.231  24.894  25.225  1.00  0.00    -0.462 OA
BRANCH   4   5
ATOM      5  C   UNL A   1      31.641  24.659  23.955  1.00  0.00     0.328 C 
ATOM      6  O   UNL A   1      30.908  24.654  22.977  1.00  0.00    -0.250 OA
BRANCH   5   7
ATOM      7  C   UNL A   1      33.172  24.409  23.952  1.00  0.00     0.195 C 
ATOM      8  N   UNL A   1      33.505  23.087  24.496  1.00  0.00    -0.326 N 
ATOM      9  C   UNL A   1      34.875  22.808  24.930  1.00  0.00     0.089 C 
ATOM     10  C   UNL A   1      33.819  25.585  24.711  1.00  0.00     0.037 C 
ATOM     11  C   UNL A   1      35.722  24.070  25.169  1.00  0.00     0.012 C 
ATOM     12  C   UNL A   1      35.725  21.920  23.996  1.00  0.00     0.025 C 
ATOM     13  C   UNL A   1      34.859  25.174  25.753  1.00  0.00     0.008 C 
ATOM     14  C   UNL A   1      36.936  23.695  26.024  1.00  0.00     0.006 C 
ATOM     15  C   UNL A   1      36.972  21.455  24.763  1.00  0.00     0.002 C 
ATOM     16  C   UNL A   1      37.787  22.622  25.329  1.00  0.00     0.000 C 
BRANCH   8  17
ATOM     17  C   UNL A   1      32.698  22.017  24.102  1.00  0.00     0.225 C 
ATOM     18  O   UNL A   1      32.287  21.899  22.952  1.00  0.00    -0.275 OA
BRANCH  17  19
ATOM     19  C   UNL A   1      32.169  21.208  25.274  1.00  0.00     0.128 C 
BRANCH  19  20
ATOM     20  C   UNL A   1      32.931  19.925  25.553  1.00  0.00     0.170 C 
BRANCH  20  21
ATOM     21  O   UNL A   1      32.420  18.796  24.845  1.00  0.00    -0.381 OA
BRANCH  21  22
ATOM     22  C   UNL A   1      32.524  17.544  25.505  1.00  0.00     0.156 C 
ATOM     23  C   UNL A   1      33.429  16.557  24.787  1.00  0.00     0.035 C 
ENDBRANCH  21  22
ENDBRANCH  20  21
ENDBRANCH  19  20
ENDBRANCH  17  19
ENDBRANCH   8  17
ENDBRANCH   5   7
ENDBRANCH   4   5
ENDBRANCH   3   4
ENDBRANCH   2   3
ENDBRANCH   1   2
BRANCH   1  24
ATOM     24  C   UNL A   1      32.695  28.389  26.766  1.00  0.00     0.188 C 
BRANCH  24  25
ATOM     25  C   UNL A   1      32.784  29.935  26.705  1.00  0.00     0.188 C 
BRANCH  25  26
ATOM     26  O   UNL A   1      31.722  30.706  26.163  1.00  0.00    -0.376 OA
BRANCH  26  27
ATOM     27  C   UNL A   1      31.321  31.891  26.832  1.00  0.00     0.202 C 
BRANCH  27  28
ATOM     28  C   UNL A   1      32.290  33.081  26.874  1.00  0.00     0.261 C 
BRANCH  28  29
ATOM     29  O   UNL A   1      32.671  33.515  28.193  1.00  0.00    -0.460 OA
BRANCH  29  30
ATOM     30  C   UNL A   1      33.820  34.233  28.261  1.00  0.00     0.338 C 
ATOM     31  O   UNL A   1      33.943  35.442  28.209  1.00  0.00    -0.246 OA
BRANCH  30  32
ATOM     32  C   UNL A   1      34.955  33.342  28.585  1.00  0.00     0.060 A 
ATOM     33  C   UNL A   1      34.675  32.079  29.126  1.00  0.00     0.016 A 
ATOM     34  C   UNL A   1      36.274  33.774  28.448  1.00  0.00     0.016 A 
ATOM     35  C   UNL A   1      35.713  31.253  29.558  1.00  0.00     0.010 A 
ATOM     36  C   UNL A   1      37.314  32.954  28.907  1.00  0.00     0.010 A 
ATOM     37  C   UNL A   1      37.035  31.706  29.493  1.00  0.00    -0.014 A 
BRANCH  37  38
ATOM     38  C   UNL A   1      38.103  30.957  30.202  1.00  0.00     0.031 A 
ATOM     39  C   UNL A   1      38.366  31.271  31.650  1.00  0.00     0.074 A 
ATOM     40  C   UNL A   1      38.816  30.001  29.582  1.00  0.00     0.049 A 
ATOM     41  N   UNL A   1      39.286  30.798  32.452  1.00  0.00    -0.248 NA
ATOM     42  C   UNL A   1      37.468  32.253  32.276  1.00  0.00     0.031 C 
ATOM     43  C   UNL A   1      38.626  29.568  28.200  1.00  0.00     0.029 A 
ATOM     44  N   UNL A   1      39.858  29.231  30.039  1.00  0.00    -0.354 N 
ATOM     45  C   UNL A   1      39.083  31.432  33.672  1.00  0.00     0.074 A 
ATOM     46  C   UNL A   1      37.970  32.339  33.498  1.00  0.00     0.031 C 
ATOM     47  C   UNL A   1      39.539  28.623  27.913  1.00  0.00     0.029 A 
ATOM     48  C   UNL A   1      40.395  28.409  29.080  1.00  0.00     0.049 A 
ATOM     49  H   UNL A   1      40.188  29.266  30.965  1.00  0.00     0.167 HD
ATOM     50  C   UNL A   1      39.759  31.266  34.834  1.00  0.00     0.037 A 
ATOM     51  C   UNL A   1      41.470  27.598  29.132  1.00  0.00     0.037 A 
ATOM     52  C   UNL A   1      40.869  30.367  35.005  1.00  0.00     0.049 A 
ATOM     53  C   UNL A   1      42.260  27.494  30.413  1.00  0.00     0.074 A 
ATOM     54  C   UNL A   1      41.612  30.119  36.147  1.00  0.00     0.029 A 
ATOM     55  N   UNL A   1      41.403  29.572  34.001  1.00  0.00    -0.354 N 
ATOM     56  N   UNL A   1      42.052  28.078  31.567  1.00  0.00    -0.248 NA
ATOM     57  C   UNL A   1      43.437  26.613  30.396  1.00  0.00     0.031 C 
ATOM     58  C   UNL A   1      42.629  29.216  35.821  1.00  0.00     0.029 A 
ATOM     59  C   UNL A   1      42.483  28.853  34.491  1.00  0.00     0.049 A 
ATOM     60  H   UNL A   1      41.065  29.524  33.078  1.00  0.00     0.167 HD
ATOM     61  C   UNL A   1      43.048  27.615  32.420  1.00  0.00     0.074 A 
ATOM     62  C   UNL A   1      43.854  26.690  31.652  1.00  0.00     0.031 C 
ATOM     63  C   UNL A   1      43.272  27.926  33.720  1.00  0.00     0.037 A 
BRANCH  50  64
ATOM     64  C   UNL A   1      39.337  32.102  36.006  1.00  0.00     0.064 A 
ATOM     65  C   UNL A   1      39.890  33.369  36.248  1.00  0.00     0.173 A 
ATOM     66  C   UNL A   1      38.343  31.643  36.884  1.00  0.00     0.173 A 
ATOM     67  F   UNL A   1      40.854  33.848  35.447  1.00  0.00    -0.203 F 
ATOM     68  C   UNL A   1      39.482  34.133  37.338  1.00  0.00     0.198 A 
ATOM     69  C   UNL A   1      37.915  32.422  37.955  1.00  0.00     0.198 A 
ATOM     70  F   UNL A   1      37.778  30.441  36.696  1.00  0.00    -0.203 F 
ATOM     71  F   UNL A   1      40.058  35.320  37.576  1.00  0.00    -0.200 F 
ATOM     72  C   UNL A   1      38.490  33.663  38.186  1.00  0.00     0.200 A 
ATOM     73  F   UNL A   1      36.947  31.971  38.764  1.00  0.00    -0.200 F 
ATOM     74  F   UNL A   1      38.093  34.403  39.230  1.00  0.00    -0.200 F 
ENDBRANCH  50  64
BRANCH  51  75
ATOM     75  C   UNL A   1      41.880  26.829  27.927  1.00  0.00     0.064 A 
ATOM     76  C   UNL A   1      42.830  27.343  27.032  1.00  0.00     0.173 A 
ATOM     77  C   UNL A   1      41.313  25.582  27.631  1.00  0.00     0.173 A 
ATOM     78  F   UNL A   1      43.381  28.545  27.257  1.00  0.00    -0.203 F 
ATOM     79  C   UNL A   1      43.180  26.646  25.877  1.00  0.00     0.198 A 
ATOM     80  C   UNL A   1      41.686  24.872  26.491  1.00  0.00     0.198 A 
ATOM     81  F   UNL A   1      40.395  25.050  28.451  1.00  0.00    -0.203 F 
ATOM     82  F   UNL A   1      44.052  27.182  25.013  1.00  0.00    -0.200 F 
ATOM     83  C   UNL A   1      42.613  25.409  25.611  1.00  0.00     0.200 A 
ATOM     84  F   UNL A   1      41.141  23.674  26.242  1.00  0.00    -0.200 F 
ATOM     85  F   UNL A   1      42.950  24.740  24.500  1.00  0.00    -0.200 F 
ENDBRANCH  51  75
BRANCH  63  86
ATOM     86  C   UNL A   1      44.405  27.227  34.416  1.00  0.00     0.064 A 
ATOM     87  C   UNL A   1      45.687  27.793  34.494  1.00  0.00     0.173 A 
ATOM     88  C   UNL A   1      44.194  25.995  35.055  1.00  0.00     0.173 A 
ATOM     89  F   UNL A   1      45.946  28.962  33.890  1.00  0.00    -0.203 F 
ATOM     90  C   UNL A   1      46.719  27.139  35.163  1.00  0.00     0.198 A 
ATOM     91  C   UNL A   1      45.219  25.360  35.750  1.00  0.00     0.198 A 
ATOM     92  F   UNL A   1      42.985  25.415  35.019  1.00  0.00    -0.203 F 
ATOM     93  F   UNL A   1      47.947  27.675  35.183  1.00  0.00    -0.200 F 
ATOM     94  C   UNL A   1      46.483  25.928  35.796  1.00  0.00     0.200 A 
ATOM     95  F   UNL A   1      44.984  24.199  36.375  1.00  0.00    -0.200 F 
ATOM     96  F   UNL A   1      47.476  25.305  36.447  1.00  0.00    -0.200 F 
ENDBRANCH  63  86
ENDBRANCH  37  38
ENDBRANCH  30  32
ENDBRANCH  29  30
ENDBRANCH  28  29
ENDBRANCH  27  28
ENDBRANCH  26  27
ENDBRANCH  25  26
ENDBRANCH  24  25
ENDBRANCH   1  24
TORSDOF 22
ENDMDL
MODEL 3
REMARK VINA RESULT:      -9.9      3.418      5.607
REMARK SMILES CCOCCC(=O)N1[C@@H](C(=O)OCCOCCOCCOC(=O)c2ccc(-c3c4nc(c(-c5c(F)c(F)c(F)c(F)c5F)c5ccc([nH]5)c(-c5c(F)c(F)c(F)c(F)c5F)c5nc(c(-c6c(F)c(F)c(F)c(F)c6F)c6ccc3[nH]6)C=C5)C=C4)cc2)CC[C@H]2CCCC[C@@H]21
REMARK SMILES IDX 15 1 14 2 13 3 12 4 10 5 11 6 9 7 8 8 94 9 87 10 89 11 93 12
REMARK SMILES IDX 88 13 90 14 92 15 91 16 6 17 7 18 5 19 4 20 3 21 2 22 1 23
REMARK SMILES IDX 16 24 17 25 18 26 19 27 20 28 21 29 22 30 23 31 24 32 25 33
REMARK SMILES IDX 86 34 26 35 85 36 27 37 28 38 29 39 79 40 30 41 84 42 78 43
REMARK SMILES IDX 80 44 31 45 83 46 77 47 76 48 32 50 64 51 44 52 63 53 45 54
REMARK SMILES IDX 48 55 62 56 81 57 46 58 47 59 61 61 82 62 49 63 33 64 34 65
REMARK SMILES IDX 42 66 35 67 36 68 40 69 43 70 37 71 38 72 41 73 39 74 65 75
REMARK SMILES IDX 66 76 74 77 67 78 68 79 72 80 75 81 69 82 70 83 73 84 71 85
REMARK SMILES IDX 50 86 51 87 59 88 52 89 53 90 57 91 60 92 54 93 55 94 58 95
REMARK SMILES IDX 56 96
REMARK H PARENT 80 49 48 60
REMARK Flexibility Score: inf
ROOT
ATOM      1  O   UNL A   1      31.388  26.330  26.933  1.00  0.00    -0.376 OA
ENDROOT
BRANCH   1   2
ATOM      2  C   UNL A   1      32.028  25.365  26.100  1.00  0.00     0.202 C 
BRANCH   2   3
ATOM      3  C   UNL A   1      31.132  24.191  25.692  1.00  0.00     0.261 C 
BRANCH   3   4
ATOM      4  O   UNL A   1      31.936  23.039  25.391  1.00  0.00    -0.462 OA
BRANCH   4   5
ATOM      5  C   UNL A   1      32.280  22.807  24.101  1.00  0.00     0.328 C 
ATOM      6  O   UNL A   1      31.496  22.800  23.163  1.00  0.00    -0.250 OA
BRANCH   5   7
ATOM      7  C   UNL A   1      33.810  22.563  24.017  1.00  0.00     0.195 C 
ATOM      8  N   UNL A   1      34.249  21.550  24.984  1.00  0.00    -0.326 N 
ATOM      9  C   UNL A   1      35.669  21.450  25.330  1.00  0.00     0.089 C 
ATOM     10  C   UNL A   1      34.490  23.936  24.188  1.00  0.00     0.037 C 
ATOM     11  C   UNL A   1      36.488  22.701  24.968  1.00  0.00     0.012 C 
ATOM     12  C   UNL A   1      36.444  20.264  24.717  1.00  0.00     0.025 C 
ATOM     13  C   UNL A   1      35.653  23.950  25.179  1.00  0.00     0.008 C 
ATOM     14  C   UNL A   1      37.802  22.674  25.755  1.00  0.00     0.006 C 
ATOM     15  C   UNL A   1      37.784  20.121  25.453  1.00  0.00     0.002 C 
ATOM     16  C   UNL A   1      38.612  21.410  25.431  1.00  0.00     0.000 C 
BRANCH   8  17
ATOM     17  C   UNL A   1      33.445  20.417  25.126  1.00  0.00     0.225 C 
ATOM     18  O   UNL A   1      33.253  19.885  26.215  1.00  0.00    -0.275 OA
BRANCH  17  19
ATOM     19  C   UNL A   1      33.089  19.771  23.797  1.00  0.00     0.128 C 
BRANCH  19  20
ATOM     20  C   UNL A   1      32.631  18.328  23.898  1.00  0.00     0.170 C 
BRANCH  20  21
ATOM     21  O   UNL A   1      33.659  17.383  23.603  1.00  0.00    -0.381 OA
BRANCH  21  22
ATOM     22  C   UNL A   1      33.667  16.201  24.388  1.00  0.00     0.156 C 
ATOM     23  C   UNL A   1      34.949  16.014  25.182  1.00  0.00     0.035 C 
ENDBRANCH  21  22
ENDBRANCH  20  21
ENDBRANCH  19  20
ENDBRANCH  17  19
ENDBRANCH   8  17
ENDBRANCH   5   7
ENDBRANCH   4   5
ENDBRANCH   3   4
ENDBRANCH   2   3
ENDBRANCH   1   2
BRANCH   1  24
ATOM     24  C   UNL A   1      30.959  27.519  26.283  1.00  0.00     0.188 C 
BRANCH  24  25
ATOM     25  C   UNL A   1      31.764  27.905  25.016  1.00  0.00     0.188 C 
BRANCH  25  26
ATOM     26  O   UNL A   1      32.533  29.098  24.977  1.00  0.00    -0.376 OA
BRANCH  26  27
ATOM     27  C   UNL A   1      32.343  30.073  25.990  1.00  0.00     0.202 C 
BRANCH  27  28
ATOM     28  C   UNL A   1      33.241  30.031  27.235  1.00  0.00     0.261 C 
BRANCH  28  29
ATOM     29  O   UNL A   1      34.327  30.975  27.239  1.00  0.00    -0.460 OA
BRANCH  29  30
ATOM     30  C   UNL A   1      34.903  31.196  28.448  1.00  0.00     0.338 C 
ATOM     31  O   UNL A   1      34.447  31.827  29.382  1.00  0.00    -0.246 OA
BRANCH  30  32
ATOM     32  C   UNL A   1      36.148  30.407  28.567  1.00  0.00     0.060 A 
ATOM     33  C   UNL A   1      36.457  29.838  29.812  1.00  0.00     0.016 A 
ATOM     34  C   UNL A   1      37.044  30.305  27.504  1.00  0.00     0.016 A 
ATOM     35  C   UNL A   1      37.676  29.188  30.004  1.00  0.00     0.010 A 
ATOM     36  C   UNL A   1      38.279  29.675  27.706  1.00  0.00     0.010 A 
ATOM     37  C   UNL A   1      38.613  29.144  28.966  1.00  0.00    -0.014 A 
BRANCH  37  38
ATOM     38  C   UNL A   1      40.003  28.708  29.249  1.00  0.00     0.031 A 
ATOM     39  C   UNL A   1      40.909  29.636  30.012  1.00  0.00     0.074 A 
ATOM     40  C   UNL A   1      40.452  27.503  28.856  1.00  0.00     0.049 A 
ATOM     41  N   UNL A   1      42.176  29.502  30.316  1.00  0.00    -0.248 NA
ATOM     42  C   UNL A   1      40.303  30.886  30.495  1.00  0.00     0.031 C 
ATOM     43  C   UNL A   1      39.661  26.494  28.156  1.00  0.00     0.029 A 
ATOM     44  N   UNL A   1      41.696  26.934  28.982  1.00  0.00    -0.354 N 
ATOM     45  C   UNL A   1      42.518  30.652  31.017  1.00  0.00     0.074 A 
ATOM     46  C   UNL A   1      41.335  31.483  31.071  1.00  0.00     0.031 C 
ATOM     47  C   UNL A   1      40.447  25.434  27.893  1.00  0.00     0.029 A 
ATOM     48  C   UNL A   1      41.800  25.705  28.378  1.00  0.00     0.049 A 
ATOM     49  H   UNL A   1      42.440  27.365  29.459  1.00  0.00     0.167 HD
ATOM     50  C   UNL A   1      43.709  30.982  31.570  1.00  0.00     0.037 A 
ATOM     51  C   UNL A   1      42.872  24.905  28.213  1.00  0.00     0.037 A 
ATOM     52  C   UNL A   1      44.887  30.157  31.513  1.00  0.00     0.049 A 
ATOM     53  C   UNL A   1      44.210  25.333  28.765  1.00  0.00     0.074 A 
ATOM     54  C   UNL A   1      46.138  30.398  32.054  1.00  0.00     0.029 A 
ATOM     55  N   UNL A   1      44.961  28.931  30.866  1.00  0.00    -0.354 N 
ATOM     56  N   UNL A   1      44.523  26.410  29.443  1.00  0.00    -0.248 NA
ATOM     57  C   UNL A   1      45.344  24.428  28.527  1.00  0.00     0.031 C 
ATOM     58  C   UNL A   1      46.984  29.345  31.689  1.00  0.00     0.029 A 
ATOM     59  C   UNL A   1      46.245  28.418  30.972  1.00  0.00     0.049 A 
ATOM     60  H   UNL A   1      44.213  28.491  30.401  1.00  0.00     0.167 HD
ATOM     61  C   UNL A   1      45.877  26.299  29.740  1.00  0.00     0.074 A 
ATOM     62  C   UNL A   1      46.323  25.042  29.177  1.00  0.00     0.031 C 
ATOM     63  C   UNL A   1      46.675  27.159  30.418  1.00  0.00     0.037 A 
BRANCH  50  64
ATOM     64  C   UNL A   1      43.808  32.310  32.262  1.00  0.00     0.064 A 
ATOM     65  C   UNL A   1      44.164  33.478  31.570  1.00  0.00     0.173 A 
ATOM     66  C   UNL A   1      43.513  32.422  33.628  1.00  0.00     0.173 A 
ATOM     67  F   UNL A   1      44.470  33.423  30.265  1.00  0.00    -0.203 F 
ATOM     68  C   UNL A   1      44.245  34.703  32.227  1.00  0.00     0.198 A 
ATOM     69  C   UNL A   1      43.565  33.654  34.275  1.00  0.00     0.198 A 
ATOM     70  F   UNL A   1      43.163  31.338  34.336  1.00  0.00    -0.203 F 
ATOM     71  F   UNL A   1      44.633  35.797  31.556  1.00  0.00    -0.200 F 
ATOM     72  C   UNL A   1      43.938  34.791  33.576  1.00  0.00     0.200 A 
ATOM     73  F   UNL A   1      43.255  33.739  35.576  1.00  0.00    -0.200 F 
ATOM     74  F   UNL A   1      44.009  35.973  34.205  1.00  0.00    -0.200 F 
ENDBRANCH  50  64
BRANCH  51  75
ATOM     75  C   UNL A   1      42.736  23.622  27.475  1.00  0.00     0.064 A 
ATOM     76  C   UNL A   1      43.153  23.509  26.141  1.00  0.00     0.173 A 
ATOM     77  C   UNL A   1      42.161  22.494  28.077  1.00  0.00     0.173 A 
ATOM     78  F   UNL A   1      43.683  24.568  25.512  1.00  0.00    -0.203 F 
ATOM     79  C   UNL A   1      42.981  22.321  25.432  1.00  0.00     0.198 A 
ATOM     80  C   UNL A   1      42.018  21.297  27.376  1.00  0.00     0.198 A 
ATOM     81  F   UNL A   1      41.739  22.551  29.348  1.00  0.00    -0.203 F 
ATOM     82  F   UNL A   1      43.341  22.255  24.144  1.00  0.00    -0.200 F 
ATOM     83  C   UNL A   1      42.419  21.215  26.052  1.00  0.00     0.200 A 
ATOM     84  F   UNL A   1      41.482  20.229  27.982  1.00  0.00    -0.200 F 
ATOM     85  F   UNL A   1      42.254  20.074  25.369  1.00  0.00    -0.200 F 
ENDBRANCH  51  75
BRANCH  63  86
ATOM     86  C   UNL A   1      48.106  26.755  30.635  1.00  0.00     0.064 A 
ATOM     87  C   UNL A   1      48.486  25.921  31.697  1.00  0.00     0.173 A 
ATOM     88  C   UNL A   1      49.104  27.170  29.738  1.00  0.00     0.173 A 
ATOM     89  F   UNL A   1      47.575  25.507  32.590  1.00  0.00    -0.203 F 
ATOM     90  C   UNL A   1      49.816  25.540  31.869  1.00  0.00     0.198 A 
ATOM     91  C   UNL A   1      50.426  26.761  29.894  1.00  0.00     0.198 A 
ATOM     92  F   UNL A   1      48.793  27.960  28.700  1.00  0.00    -0.203 F 
ATOM     93  F   UNL A   1      50.164  24.784  32.918  1.00  0.00    -0.200 F 
ATOM     94  C   UNL A   1      50.781  25.954  30.964  1.00  0.00     0.200 A 
ATOM     95  F   UNL A   1      51.354  27.148  29.009  1.00  0.00    -0.200 F 
ATOM     96  F   UNL A   1      52.058  25.578  31.125  1.00  0.00    -0.200 F 
ENDBRANCH  63  86
ENDBRANCH  37  38
ENDBRANCH  30  32
ENDBRANCH  29  30
ENDBRANCH  28  29
ENDBRANCH  27  28
ENDBRANCH  26  27
ENDBRANCH  25  26
ENDBRANCH  24  25
ENDBRANCH   1  24
TORSDOF 22
ENDMDL
