MODEL 1
REMARK VINA RESULT:     -12.0      0.000      0.000
REMARK SMILES CC1(C)Cc2c(-c3ccccc3)c(-c3ccc(Cl)cc3)c(CC(=O)OCCOCCOCCOC(=O)c3ccc(-c4c5nc(c(-c6c(F)c(F)c(F)c(F)c6F)c6ccc([nH]6)c(-c6c(F)c(F)c(F)c(F)c6F)c6nc(c(-c7c(F)c(F)c(F)c(F)c7F)c7ccc4[nH]7)C=C6)C=C5)cc3)n2C1
REMARK SMILES IDX 29 1 28 2 27 3 26 4 25 5 23 6 24 7 22 8 21 9 1 10 2 11 3 12
REMARK SMILES IDX 4 13 101 14 5 15 100 16 6 17 13 18 7 19 8 20 12 21 9 22
REMARK SMILES IDX 11 23 10 24 14 25 15 26 20 27 16 28 19 29 17 30 18 31 30 32
REMARK SMILES IDX 31 33 32 34 33 35 34 36 35 37 36 38 37 39 38 40 99 41 39 42
REMARK SMILES IDX 98 43 40 44 41 45 42 46 92 47 43 48 97 49 91 50 93 51 44 52
REMARK SMILES IDX 96 53 90 54 89 55 45 57 77 58 57 59 76 60 58 61 61 62 75 63
REMARK SMILES IDX 94 64 59 65 60 66 74 68 95 69 62 70 46 71 47 72 55 73 48 74
REMARK SMILES IDX 49 75 53 76 56 77 50 78 51 79 54 80 52 81 78 82 79 83 87 84
REMARK SMILES IDX 80 85 81 86 85 87 88 88 82 89 83 90 86 91 84 92 63 93 64 94
REMARK SMILES IDX 72 95 65 96 66 97 70 98 73 99 67 100 68 101 71 102 69 103
REMARK H PARENT 93 56 61 67
REMARK Flexibility Score: inf
ROOT
ATOM      1  C   UNL A   1      47.081  42.028  26.506  1.00  0.00     0.188 C 
ENDROOT
BRANCH   1   2
ATOM      2  O   UNL A   1      46.924  40.988  25.560  1.00  0.00    -0.376 OA
BRANCH   2   3
ATOM      3  C   UNL A   1      47.137  41.396  24.224  1.00  0.00     0.202 C 
BRANCH   3   4
ATOM      4  C   UNL A   1      45.850  41.791  23.450  1.00  0.00     0.261 C 
BRANCH   4   5
ATOM      5  O   UNL A   1      45.929  41.702  21.974  1.00  0.00    -0.463 OA
BRANCH   5   6
ATOM      6  C   UNL A   1      47.056  42.063  21.313  1.00  0.00     0.311 C 
ATOM      7  O   UNL A   1      47.857  41.205  20.933  1.00  0.00    -0.252 OA
BRANCH   6   8
ATOM      8  C   UNL A   1      47.260  43.552  20.863  1.00  0.00     0.177 C 
BRANCH   8   9
ATOM      9  C   UNL A   1      46.366  44.407  19.929  1.00  0.00     0.037 A 
ATOM     10  C   UNL A   1      48.888  45.709  15.808  1.00  0.00     0.013 C 
ATOM     11  C   UNL A   1      48.160  46.075  17.102  1.00  0.00    -0.012 C 
ATOM     12  C   UNL A   1      48.703  47.407  17.644  1.00  0.00     0.013 C 
ATOM     13  C   UNL A   1      46.643  46.210  16.814  1.00  0.00     0.063 C 
ATOM     14  C   UNL A   1      48.269  44.960  18.196  1.00  0.00     0.129 C 
ATOM     15  C   UNL A   1      46.039  45.570  17.995  1.00  0.00     0.027 A 
ATOM     16  N   UNL A   1      46.931  44.924  18.782  1.00  0.00    -0.346 N 
ATOM     17  C   UNL A   1      44.802  45.487  18.543  1.00  0.00     0.011 A 
ATOM     18  C   UNL A   1      44.939  44.672  19.772  1.00  0.00     0.011 A 
BRANCH  17  19
ATOM     19  C   UNL A   1      43.730  46.282  17.947  1.00  0.00    -0.016 A 
ATOM     20  C   UNL A   1      43.653  47.668  18.135  1.00  0.00     0.009 A 
ATOM     21  C   UNL A   1      42.810  45.660  17.084  1.00  0.00     0.009 A 
ATOM     22  C   UNL A   1      42.751  48.425  17.374  1.00  0.00     0.001 A 
ATOM     23  C   UNL A   1      41.951  46.421  16.289  1.00  0.00     0.001 A 
ATOM     24  C   UNL A   1      41.932  47.807  16.424  1.00  0.00     0.000 A 
ENDBRANCH  17  19
BRANCH  18  25
ATOM     25  C   UNL A   1      43.756  44.477  20.750  1.00  0.00    -0.016 A 
ATOM     26  C   UNL A   1      44.119  44.940  22.492  1.00  0.00     0.010 A 
ATOM     27  C   UNL A   1      42.603  43.121  20.460  1.00  0.00     0.010 A 
ATOM     28  C   UNL A   1      43.452  43.963  23.882  1.00  0.00     0.021 A 
ATOM     29  C   UNL A   1      41.902  42.137  21.830  1.00  0.00     0.021 A 
ATOM     30  C   UNL A   1      42.333  42.571  23.570  1.00  0.00     0.041 A 
ATOM     31  Cl  UNL A   1      41.830  41.529  24.849  1.00  0.00    -0.084 Cl
ENDBRANCH  18  25
ENDBRANCH   8   9
ENDBRANCH   6   8
ENDBRANCH   5   6
ENDBRANCH   4   5
ENDBRANCH   3   4
ENDBRANCH   2   3
ENDBRANCH   1   2
BRANCH   1  32
ATOM     32  C   UNL A   1      46.794  41.707  27.985  1.00  0.00     0.188 C 
BRANCH  32  33
ATOM     33  O   UNL A   1      45.714  40.801  28.093  1.00  0.00    -0.376 OA
BRANCH  33  34
ATOM     34  C   UNL A   1      44.459  41.441  28.185  1.00  0.00     0.202 C 
BRANCH  34  35
ATOM     35  C   UNL A   1      43.336  40.483  27.824  1.00  0.00     0.261 C 
BRANCH  35  36
ATOM     36  O   UNL A   1      43.777  39.252  27.198  1.00  0.00    -0.460 OA
BRANCH  36  37
ATOM     37  C   UNL A   1      43.182  37.926  27.613  1.00  0.00     0.338 C 
ATOM     38  O   UNL A   1      42.106  38.008  26.960  1.00  0.00    -0.246 OA
BRANCH  37  39
ATOM     39  C   UNL A   1      43.957  36.575  29.090  1.00  0.00     0.060 A 
ATOM     40  C   UNL A   1      44.281  35.137  29.050  1.00  0.00     0.016 A 
ATOM     41  C   UNL A   1      44.013  36.651  30.535  1.00  0.00     0.016 A 
ATOM     42  C   UNL A   1      43.458  34.210  29.727  1.00  0.00     0.010 A 
ATOM     43  C   UNL A   1      43.060  35.913  31.216  1.00  0.00     0.010 A 
ATOM     44  C   UNL A   1      42.588  34.746  30.643  1.00  0.00    -0.014 A 
BRANCH  44  45
ATOM     45  C   UNL A   1      41.434  34.091  31.247  1.00  0.00     0.031 A 
ATOM     46  C   UNL A   1      41.741  33.796  32.664  1.00  0.00     0.074 A 
ATOM     47  C   UNL A   1      40.165  33.993  30.783  1.00  0.00     0.049 A 
ATOM     48  N   UNL A   1      42.384  32.758  33.091  1.00  0.00    -0.248 NA
ATOM     49  C   UNL A   1      41.699  34.917  33.625  1.00  0.00     0.031 C 
ATOM     50  C   UNL A   1      39.526  34.479  29.566  1.00  0.00     0.029 A 
ATOM     51  N   UNL A   1      39.106  33.406  31.420  1.00  0.00    -0.354 N 
ATOM     52  C   UNL A   1      42.624  33.053  34.421  1.00  0.00     0.074 A 
ATOM     53  C   UNL A   1      42.601  34.482  34.508  1.00  0.00     0.031 C 
ATOM     54  C   UNL A   1      38.180  34.360  29.637  1.00  0.00     0.029 A 
ATOM     55  C   UNL A   1      37.856  33.641  30.843  1.00  0.00     0.049 A 
ATOM     56  H   UNL A   1      39.218  32.856  32.229  1.00  0.00     0.167 HD
ATOM     57  C   UNL A   1      42.367  32.153  35.406  1.00  0.00     0.037 A 
ATOM     58  C   UNL A   1      36.654  33.258  31.343  1.00  0.00     0.037 A 
ATOM     59  C   UNL A   1      42.140  30.841  34.845  1.00  0.00     0.049 A 
ATOM     60  C   UNL A   1      36.937  32.180  32.327  1.00  0.00     0.074 A 
ATOM     61  C   UNL A   1      42.889  29.997  34.046  1.00  0.00     0.029 A 
ATOM     62  N   UNL A   1      40.832  30.440  34.689  1.00  0.00    -0.354 N 
ATOM     63  N   UNL A   1      37.417  31.012  31.992  1.00  0.00    -0.248 NA
ATOM     64  C   UNL A   1      37.181  32.585  33.704  1.00  0.00     0.031 C 
ATOM     65  C   UNL A   1      41.964  29.451  33.107  1.00  0.00     0.029 A 
ATOM     66  C   UNL A   1      40.684  29.909  33.430  1.00  0.00     0.049 A 
ATOM     67  H   UNL A   1      40.121  30.521  35.365  1.00  0.00     0.167 HD
ATOM     68  C   UNL A   1      38.371  30.727  32.960  1.00  0.00     0.074 A 
ATOM     69  C   UNL A   1      38.134  31.703  34.024  1.00  0.00     0.031 C 
ATOM     70  C   UNL A   1      39.450  29.940  32.672  1.00  0.00     0.037 A 
BRANCH  57  71
ATOM     71  C   UNL A   1      41.943  32.542  36.805  1.00  0.00     0.064 A 
ATOM     72  C   UNL A   1      42.761  32.159  37.880  1.00  0.00     0.173 A 
ATOM     73  C   UNL A   1      40.688  33.089  37.171  1.00  0.00     0.173 A 
ATOM     74  F   UNL A   1      43.963  31.610  37.656  1.00  0.00    -0.203 F 
ATOM     75  C   UNL A   1      42.333  32.265  39.206  1.00  0.00     0.198 A 
ATOM     76  C   UNL A   1      40.292  33.254  38.494  1.00  0.00     0.198 A 
ATOM     77  F   UNL A   1      39.733  33.394  36.289  1.00  0.00    -0.203 F 
ATOM     78  F   UNL A   1      43.103  31.783  40.190  1.00  0.00    -0.200 F 
ATOM     79  C   UNL A   1      41.101  32.814  39.513  1.00  0.00     0.200 A 
ATOM     80  F   UNL A   1      39.084  33.774  38.758  1.00  0.00    -0.200 F 
ATOM     81  F   UNL A   1      40.670  32.873  40.778  1.00  0.00    -0.200 F 
ENDBRANCH  57  71
BRANCH  58  82
ATOM     82  C   UNL A   1      35.345  33.956  31.267  1.00  0.00     0.064 A 
ATOM     83  C   UNL A   1      35.010  34.983  32.167  1.00  0.00     0.173 A 
ATOM     84  C   UNL A   1      34.514  33.828  30.136  1.00  0.00     0.173 A 
ATOM     85  F   UNL A   1      35.768  35.201  33.250  1.00  0.00    -0.203 F 
ATOM     86  C   UNL A   1      33.933  35.848  31.931  1.00  0.00     0.198 A 
ATOM     87  C   UNL A   1      33.439  34.690  29.903  1.00  0.00     0.198 A 
ATOM     88  F   UNL A   1      34.788  32.924  29.184  1.00  0.00    -0.203 F 
ATOM     89  F   UNL A   1      33.684  36.854  32.781  1.00  0.00    -0.200 F 
ATOM     90  C   UNL A   1      33.157  35.709  30.792  1.00  0.00     0.200 A 
ATOM     91  F   UNL A   1      32.720  34.567  28.778  1.00  0.00    -0.200 F 
ATOM     92  F   UNL A   1      32.170  36.578  30.532  1.00  0.00    -0.200 F 
ENDBRANCH  58  82
BRANCH  70  93
ATOM     93  C   UNL A   1      39.447  29.205  31.352  1.00  0.00     0.064 A 
ATOM     94  C   UNL A   1      40.114  29.649  30.194  1.00  0.00     0.173 A 
ATOM     95  C   UNL A   1      38.881  27.925  31.305  1.00  0.00     0.173 A 
ATOM     96  F   UNL A   1      40.761  30.818  30.178  1.00  0.00    -0.203 F 
ATOM     97  C   UNL A   1      40.184  28.862  29.044  1.00  0.00     0.198 A 
ATOM     98  C   UNL A   1      38.982  27.126  30.167  1.00  0.00     0.198 A 
ATOM     99  F   UNL A   1      38.277  27.421  32.392  1.00  0.00    -0.203 F 
ATOM    100  F   UNL A   1      40.830  29.314  27.957  1.00  0.00    -0.200 F 
ATOM    101  C   UNL A   1      39.626  27.597  29.034  1.00  0.00     0.200 A 
ATOM    102  F   UNL A   1      38.482  25.883  30.182  1.00  0.00    -0.200 F 
ATOM    103  F   UNL A   1      39.734  26.820  27.947  1.00  0.00    -0.200 F 
ENDBRANCH  70  93
ENDBRANCH  44  45
ENDBRANCH  37  39
ENDBRANCH  36  37
ENDBRANCH  35  36
ENDBRANCH  34  35
ENDBRANCH  33  34
ENDBRANCH  32  33
ENDBRANCH   1  32
TORSDOF 20
ENDMDL
MODEL 2
REMARK VINA RESULT:     -11.1      8.324     14.680
REMARK SMILES CC1(C)Cc2c(-c3ccccc3)c(-c3ccc(Cl)cc3)c(CC(=O)OCCOCCOCCOC(=O)c3ccc(-c4c5nc(c(-c6c(F)c(F)c(F)c(F)c6F)c6ccc([nH]6)c(-c6c(F)c(F)c(F)c(F)c6F)c6nc(c(-c7c(F)c(F)c(F)c(F)c7F)c7ccc4[nH]7)C=C6)C=C5)cc3)n2C1
REMARK SMILES IDX 29 1 28 2 27 3 26 4 25 5 23 6 24 7 22 8 21 9 1 10 2 11 3 12
REMARK SMILES IDX 4 13 101 14 5 15 100 16 6 17 13 18 7 19 8 20 12 21 9 22
REMARK SMILES IDX 11 23 10 24 14 25 15 26 20 27 16 28 19 29 17 30 18 31 30 32
REMARK SMILES IDX 31 33 32 34 33 35 34 36 35 37 36 38 37 39 38 40 99 41 39 42
REMARK SMILES IDX 98 43 40 44 41 45 42 46 92 47 43 48 97 49 91 50 93 51 44 52
REMARK SMILES IDX 96 53 90 54 89 55 45 57 77 58 57 59 76 60 58 61 61 62 75 63
REMARK SMILES IDX 94 64 59 65 60 66 74 68 95 69 62 70 46 71 47 72 55 73 48 74
REMARK SMILES IDX 49 75 53 76 56 77 50 78 51 79 54 80 52 81 78 82 79 83 87 84
REMARK SMILES IDX 80 85 81 86 85 87 88 88 82 89 83 90 86 91 84 92 63 93 64 94
REMARK SMILES IDX 72 95 65 96 66 97 70 98 73 99 67 100 68 101 71 102 69 103
REMARK H PARENT 93 56 61 67
REMARK Flexibility Score: inf
ROOT
ATOM      1  C   UNL A   1      41.865  26.899  35.476  1.00  0.00     0.188 C 
ENDROOT
BRANCH   1   2
ATOM      2  O   UNL A   1      41.486  27.094  34.127  1.00  0.00    -0.376 OA
BRANCH   2   3
ATOM      3  C   UNL A   1      41.051  28.408  33.843  1.00  0.00     0.202 C 
BRANCH   3   4
ATOM      4  C   UNL A   1      41.823  29.527  34.594  1.00  0.00     0.261 C 
BRANCH   4   5
ATOM      5  O   UNL A   1      41.741  30.881  34.002  1.00  0.00    -0.463 OA
BRANCH   5   6
ATOM      6  C   UNL A   1      40.799  31.766  34.414  1.00  0.00     0.311 C 
ATOM      7  O   UNL A   1      39.971  31.441  35.268  1.00  0.00    -0.252 OA
BRANCH   6   8
ATOM      8  C   UNL A   1      40.870  33.262  33.948  1.00  0.00     0.177 C 
BRANCH   8   9
ATOM      9  C   UNL A   1      41.491  33.839  32.650  1.00  0.00     0.037 A 
ATOM     10  C   UNL A   1      45.902  35.988  33.632  1.00  0.00     0.013 C 
ATOM     11  C   UNL A   1      44.449  36.070  33.162  1.00  0.00    -0.012 C 
ATOM     12  C   UNL A   1      43.901  37.485  33.415  1.00  0.00     0.013 C 
ATOM     13  C   UNL A   1      44.384  35.750  31.646  1.00  0.00     0.063 C 
ATOM     14  C   UNL A   1      43.528  35.003  33.844  1.00  0.00     0.129 C 
ATOM     15  C   UNL A   1      43.174  34.917  31.552  1.00  0.00     0.027 A 
ATOM     16  N   UNL A   1      42.673  34.543  32.753  1.00  0.00    -0.346 N 
ATOM     17  C   UNL A   1      42.381  34.444  30.559  1.00  0.00     0.011 A 
ATOM     18  C   UNL A   1      41.304  33.665  31.214  1.00  0.00     0.011 A 
BRANCH  17  19
ATOM     19  C   UNL A   1      42.642  34.898  29.194  1.00  0.00    -0.016 A 
ATOM     20  C   UNL A   1      43.549  34.231  28.360  1.00  0.00     0.009 A 
ATOM     21  C   UNL A   1      41.895  35.967  28.670  1.00  0.00     0.009 A 
ATOM     22  C   UNL A   1      43.608  34.554  26.997  1.00  0.00     0.001 A 
ATOM     23  C   UNL A   1      41.916  36.250  27.302  1.00  0.00     0.001 A 
ATOM     24  C   UNL A   1      42.764  35.531  26.463  1.00  0.00     0.000 A 
ENDBRANCH  17  19
BRANCH  18  25
ATOM     25  C   UNL A   1      40.118  33.087  30.406  1.00  0.00    -0.016 A 
ATOM     26  C   UNL A   1      39.002  34.352  29.674  1.00  0.00     0.010 A 
ATOM     27  C   UNL A   1      39.391  31.522  30.929  1.00  0.00     0.010 A 
ATOM     28  C   UNL A   1      37.196  34.091  29.617  1.00  0.00     0.021 A 
ATOM     29  C   UNL A   1      37.591  31.221  30.866  1.00  0.00     0.021 A 
ATOM     30  C   UNL A   1      36.477  32.529  30.193  1.00  0.00     0.041 A 
ATOM     31  Cl  UNL A   1      34.769  32.326  30.312  1.00  0.00    -0.084 Cl
ENDBRANCH  18  25
ENDBRANCH   8   9
ENDBRANCH   6   8
ENDBRANCH   5   6
ENDBRANCH   4   5
ENDBRANCH   3   4
ENDBRANCH   2   3
ENDBRANCH   1   2
BRANCH   1  32
ATOM     32  C   UNL A   1      43.077  25.990  35.760  1.00  0.00     0.188 C 
BRANCH  32  33
ATOM     33  O   UNL A   1      43.215  25.019  34.742  1.00  0.00    -0.376 OA
BRANCH  33  34
ATOM     34  C   UNL A   1      42.749  23.743  35.126  1.00  0.00     0.202 C 
BRANCH  34  35
ATOM     35  C   UNL A   1      43.815  22.685  34.892  1.00  0.00     0.261 C 
BRANCH  35  36
ATOM     36  O   UNL A   1      45.022  22.868  35.675  1.00  0.00    -0.460 OA
BRANCH  36  37
ATOM     37  C   UNL A   1      46.346  23.123  34.994  1.00  0.00     0.338 C 
ATOM     38  O   UNL A   1      46.948  22.089  35.396  1.00  0.00    -0.246 OA
BRANCH  37  39
ATOM     39  C   UNL A   1      46.927  24.897  33.935  1.00  0.00     0.060 A 
ATOM     40  C   UNL A   1      46.221  26.162  33.652  1.00  0.00     0.016 A 
ATOM     41  C   UNL A   1      47.974  25.147  32.966  1.00  0.00     0.016 A 
ATOM     42  C   UNL A   1      45.768  26.438  32.343  1.00  0.00     0.010 A 
ATOM     43  C   UNL A   1      47.573  25.201  31.643  1.00  0.00     0.010 A 
ATOM     44  C   UNL A   1      46.297  25.650  31.353  1.00  0.00    -0.014 A 
BRANCH  44  45
ATOM     45  C   UNL A   1      45.799  25.497  29.990  1.00  0.00     0.031 A 
ATOM     46  C   UNL A   1      46.736  26.167  29.063  1.00  0.00     0.074 A 
ATOM     47  C   UNL A   1      44.838  24.668  29.518  1.00  0.00     0.049 A 
ATOM     48  N   UNL A   1      46.736  27.429  28.778  1.00  0.00    -0.248 NA
ATOM     49  C   UNL A   1      48.006  25.480  28.752  1.00  0.00     0.031 C 
ATOM     50  C   UNL A   1      43.990  23.677  30.171  1.00  0.00     0.029 A 
ATOM     51  N   UNL A   1      44.445  24.532  28.214  1.00  0.00    -0.354 N 
ATOM     52  C   UNL A   1      47.919  27.602  28.082  1.00  0.00     0.074 A 
ATOM     53  C   UNL A   1      48.778  26.543  28.515  1.00  0.00     0.031 C 
ATOM     54  C   UNL A   1      43.345  22.909  29.264  1.00  0.00     0.029 A 
ATOM     55  C   UNL A   1      43.605  23.448  27.952  1.00  0.00     0.049 A 
ATOM     56  H   UNL A   1      44.734  25.157  27.510  1.00  0.00     0.167 HD
ATOM     57  C   UNL A   1      47.957  28.280  26.904  1.00  0.00     0.037 A 
ATOM     58  C   UNL A   1      43.169  23.045  26.733  1.00  0.00     0.037 A 
ATOM     59  C   UNL A   1      46.725  29.007  26.699  1.00  0.00     0.049 A 
ATOM     60  C   UNL A   1      43.357  24.202  25.820  1.00  0.00     0.074 A 
ATOM     61  C   UNL A   1      46.052  29.974  27.420  1.00  0.00     0.029 A 
ATOM     62  N   UNL A   1      45.783  28.431  25.875  1.00  0.00    -0.354 N 
ATOM     63  N   UNL A   1      42.689  25.320  25.933  1.00  0.00    -0.248 NA
ATOM     64  C   UNL A   1      44.635  24.305  25.131  1.00  0.00     0.031 C 
ATOM     65  C   UNL A   1      44.674  29.614  27.335  1.00  0.00     0.029 A 
ATOM     66  C   UNL A   1      44.558  28.506  26.493  1.00  0.00     0.049 A 
ATOM     67  H   UNL A   1      45.959  28.032  24.993  1.00  0.00     0.167 HD
ATOM     68  C   UNL A   1      43.628  26.320  25.719  1.00  0.00     0.074 A 
ATOM     69  C   UNL A   1      44.795  25.632  25.166  1.00  0.00     0.031 C 
ATOM     70  C   UNL A   1      43.488  27.550  26.297  1.00  0.00     0.037 A 
BRANCH  57  71
ATOM     71  C   UNL A   1      48.931  27.965  25.790  1.00  0.00     0.064 A 
ATOM     72  C   UNL A   1      50.174  28.619  25.788  1.00  0.00     0.173 A 
ATOM     73  C   UNL A   1      48.643  27.220  24.620  1.00  0.00     0.173 A 
ATOM     74  F   UNL A   1      50.548  29.371  26.834  1.00  0.00    -0.203 F 
ATOM     75  C   UNL A   1      51.030  28.572  24.685  1.00  0.00     0.198 A 
ATOM     76  C   UNL A   1      49.526  27.122  23.549  1.00  0.00     0.198 A 
ATOM     77  F   UNL A   1      47.464  26.636  24.391  1.00  0.00    -0.203 F 
ATOM     78  F   UNL A   1      52.152  29.302  24.687  1.00  0.00    -0.200 F 
ATOM     79  C   UNL A   1      50.707  27.823  23.567  1.00  0.00     0.200 A 
ATOM     80  F   UNL A   1      49.176  26.401  22.474  1.00  0.00    -0.200 F 
ATOM     81  F   UNL A   1      51.503  27.815  22.491  1.00  0.00    -0.200 F 
ENDBRANCH  57  71
BRANCH  58  82
ATOM     82  C   UNL A   1      42.904  21.667  26.243  1.00  0.00     0.064 A 
ATOM     83  C   UNL A   1      43.955  20.792  25.917  1.00  0.00     0.173 A 
ATOM     84  C   UNL A   1      41.626  21.084  26.358  1.00  0.00     0.173 A 
ATOM     85  F   UNL A   1      45.211  21.254  25.825  1.00  0.00    -0.203 F 
ATOM     86  C   UNL A   1      43.746  19.417  25.751  1.00  0.00     0.198 A 
ATOM     87  C   UNL A   1      41.418  19.713  26.189  1.00  0.00     0.198 A 
ATOM     88  F   UNL A   1      40.569  21.820  26.730  1.00  0.00    -0.203 F 
ATOM     89  F   UNL A   1      44.785  18.607  25.502  1.00  0.00    -0.200 F 
ATOM     90  C   UNL A   1      42.479  18.876  25.901  1.00  0.00     0.200 A 
ATOM     91  F   UNL A   1      40.193  19.198  26.374  1.00  0.00    -0.200 F 
ATOM     92  F   UNL A   1      42.290  17.553  25.809  1.00  0.00    -0.200 F 
ENDBRANCH  58  82
BRANCH  70  93
ATOM     93  C   UNL A   1      42.171  27.859  26.973  1.00  0.00     0.064 A 
ATOM     94  C   UNL A   1      41.913  27.646  28.341  1.00  0.00     0.173 A 
ATOM     95  C   UNL A   1      41.193  28.543  26.242  1.00  0.00     0.173 A 
ATOM     96  F   UNL A   1      42.828  27.083  29.135  1.00  0.00    -0.203 F 
ATOM     97  C   UNL A   1      40.724  28.072  28.935  1.00  0.00     0.198 A 
ATOM     98  C   UNL A   1      40.022  28.999  26.845  1.00  0.00     0.198 A 
ATOM     99  F   UNL A   1      41.400  28.823  24.947  1.00  0.00    -0.203 F 
ATOM    100  F   UNL A   1      40.509  27.856  30.242  1.00  0.00    -0.200 F 
ATOM    101  C   UNL A   1      39.783  28.758  28.188  1.00  0.00     0.200 A 
ATOM    102  F   UNL A   1      39.136  29.704  26.127  1.00  0.00    -0.200 F 
ATOM    103  F   UNL A   1      38.662  29.210  28.767  1.00  0.00    -0.200 F 
ENDBRANCH  70  93
ENDBRANCH  44  45
ENDBRANCH  37  39
ENDBRANCH  36  37
ENDBRANCH  35  36
ENDBRANCH  34  35
ENDBRANCH  33  34
ENDBRANCH  32  33
ENDBRANCH   1  32
TORSDOF 20
ENDMDL
MODEL 3
REMARK VINA RESULT:     -11.0      7.103     15.005
REMARK SMILES CC1(C)Cc2c(-c3ccccc3)c(-c3ccc(Cl)cc3)c(CC(=O)OCCOCCOCCOC(=O)c3ccc(-c4c5nc(c(-c6c(F)c(F)c(F)c(F)c6F)c6ccc([nH]6)c(-c6c(F)c(F)c(F)c(F)c6F)c6nc(c(-c7c(F)c(F)c(F)c(F)c7F)c7ccc4[nH]7)C=C6)C=C5)cc3)n2C1
REMARK SMILES IDX 29 1 28 2 27 3 26 4 25 5 23 6 24 7 22 8 21 9 1 10 2 11 3 12
REMARK SMILES IDX 4 13 101 14 5 15 100 16 6 17 13 18 7 19 8 20 12 21 9 22
REMARK SMILES IDX 11 23 10 24 14 25 15 26 20 27 16 28 19 29 17 30 18 31 30 32
REMARK SMILES IDX 31 33 32 34 33 35 34 36 35 37 36 38 37 39 38 40 99 41 39 42
REMARK SMILES IDX 98 43 40 44 41 45 42 46 92 47 43 48 97 49 91 50 93 51 44 52
REMARK SMILES IDX 96 53 90 54 89 55 45 57 77 58 57 59 76 60 58 61 61 62 75 63
REMARK SMILES IDX 94 64 59 65 60 66 74 68 95 69 62 70 46 71 47 72 55 73 48 74
REMARK SMILES IDX 49 75 53 76 56 77 50 78 51 79 54 80 52 81 78 82 79 83 87 84
REMARK SMILES IDX 80 85 81 86 85 87 88 88 82 89 83 90 86 91 84 92 63 93 64 94
REMARK SMILES IDX 72 95 65 96 66 97 70 98 73 99 67 100 68 101 71 102 69 103
REMARK H PARENT 93 56 61 67
REMARK Flexibility Score: inf
ROOT
ATOM      1  C   UNL A   1      46.387  23.040  24.273  1.00  0.00     0.188 C 
ENDROOT
BRANCH   1   2
ATOM      2  O   UNL A   1      46.193  21.851  25.014  1.00  0.00    -0.376 OA
BRANCH   2   3
ATOM      3  C   UNL A   1      45.254  21.980  26.063  1.00  0.00     0.202 C 
BRANCH   3   4
ATOM      4  C   UNL A   1      43.782  21.693  25.658  1.00  0.00     0.261 C 
BRANCH   4   5
ATOM      5  O   UNL A   1      43.276  20.338  25.974  1.00  0.00    -0.463 OA
BRANCH   5   6
ATOM      6  C   UNL A   1      41.945  20.094  26.060  1.00  0.00     0.311 C 
ATOM      7  O   UNL A   1      41.432  19.198  25.386  1.00  0.00    -0.252 OA
BRANCH   6   8
ATOM      8  C   UNL A   1      41.082  20.821  27.151  1.00  0.00     0.177 C 
BRANCH   8   9
ATOM      9  C   UNL A   1      40.565  22.282  27.155  1.00  0.00     0.037 A 
ATOM     10  C   UNL A   1      35.755  22.438  25.787  1.00  0.00     0.013 C 
ATOM     11  C   UNL A   1      37.225  22.790  25.552  1.00  0.00    -0.012 C 
ATOM     12  C   UNL A   1      37.477  22.984  24.047  1.00  0.00     0.013 C 
ATOM     13  C   UNL A   1      37.563  24.099  26.310  1.00  0.00     0.063 C 
ATOM     14  C   UNL A   1      38.206  21.717  26.132  1.00  0.00     0.129 C 
ATOM     15  C   UNL A   1      38.899  23.810  26.856  1.00  0.00     0.027 A 
ATOM     16  N   UNL A   1      39.278  22.518  26.719  1.00  0.00    -0.346 N 
ATOM     17  C   UNL A   1      39.898  24.519  27.437  1.00  0.00     0.011 A 
ATOM     18  C   UNL A   1      40.986  23.557  27.726  1.00  0.00     0.011 A 
BRANCH  17  19
ATOM     19  C   UNL A   1      39.764  25.973  27.500  1.00  0.00    -0.016 A 
ATOM     20  C   UNL A   1      39.148  26.607  28.587  1.00  0.00     0.009 A 
ATOM     21  C   UNL A   1      40.353  26.763  26.496  1.00  0.00     0.009 A 
ATOM     22  C   UNL A   1      39.236  28.000  28.722  1.00  0.00     0.001 A 
ATOM     23  C   UNL A   1      40.485  28.144  26.660  1.00  0.00     0.001 A 
ATOM     24  C   UNL A   1      39.938  28.761  27.782  1.00  0.00     0.000 A 
ENDBRANCH  17  19
BRANCH  18  25
ATOM     25  C   UNL A   1      42.359  24.025  28.264  1.00  0.00    -0.016 A 
ATOM     26  C   UNL A   1      43.261  22.768  29.257  1.00  0.00     0.010 A 
ATOM     27  C   UNL A   1      42.573  25.761  28.705  1.00  0.00     0.010 A 
ATOM     28  C   UNL A   1      44.223  23.249  30.732  1.00  0.00     0.021 A 
ATOM     29  C   UNL A   1      43.546  26.277  30.162  1.00  0.00     0.021 A 
ATOM     30  C   UNL A   1      44.387  24.996  31.189  1.00  0.00     0.041 A 
ATOM     31  Cl  UNL A   1      45.140  25.462  32.669  1.00  0.00    -0.084 Cl
ENDBRANCH  18  25
ENDBRANCH   8   9
ENDBRANCH   6   8
ENDBRANCH   5   6
ENDBRANCH   4   5
ENDBRANCH   3   4
ENDBRANCH   2   3
ENDBRANCH   1   2
BRANCH   1  32
ATOM     32  C   UNL A   1      46.302  24.381  25.027  1.00  0.00     0.188 C 
BRANCH  32  33
ATOM     33  O   UNL A   1      47.597  24.887  25.283  1.00  0.00    -0.376 OA
BRANCH  33  34
ATOM     34  C   UNL A   1      48.171  25.534  24.167  1.00  0.00     0.202 C 
BRANCH  34  35
ATOM     35  C   UNL A   1      49.030  26.709  24.605  1.00  0.00     0.261 C 
BRANCH  35  36
ATOM     36  O   UNL A   1      48.459  28.010  24.315  1.00  0.00    -0.460 OA
BRANCH  36  37
ATOM     37  C   UNL A   1      46.966  28.228  24.400  1.00  0.00     0.338 C 
ATOM     38  O   UNL A   1      46.831  28.904  23.343  1.00  0.00    -0.246 OA
BRANCH  37  39
ATOM     39  C   UNL A   1      45.682  27.707  26.039  1.00  0.00     0.060 A 
ATOM     40  C   UNL A   1      44.216  27.745  26.205  1.00  0.00     0.016 A 
ATOM     41  C   UNL A   1      45.939  27.539  27.454  1.00  0.00     0.016 A 
ATOM     42  C   UNL A   1      43.626  28.722  27.037  1.00  0.00     0.010 A 
ATOM     43  C   UNL A   1      45.564  28.596  28.266  1.00  0.00     0.010 A 
ATOM     44  C   UNL A   1      44.483  29.373  27.889  1.00  0.00    -0.014 A 
BRANCH  44  45
ATOM     45  C   UNL A   1      44.227  30.610  28.618  1.00  0.00     0.031 A 
ATOM     46  C   UNL A   1      45.035  31.693  28.018  1.00  0.00     0.074 A 
ATOM     47  C   UNL A   1      43.236  30.895  29.498  1.00  0.00     0.049 A 
ATOM     48  N   UNL A   1      46.274  31.945  28.294  1.00  0.00    -0.248 NA
ATOM     49  C   UNL A   1      44.573  32.268  26.738  1.00  0.00     0.031 C 
ATOM     50  C   UNL A   1      42.124  30.106  30.012  1.00  0.00     0.029 A 
ATOM     51  N   UNL A   1      43.016  32.095  30.116  1.00  0.00    -0.354 N 
ATOM     52  C   UNL A   1      46.638  32.863  27.324  1.00  0.00     0.074 A 
ATOM     53  C   UNL A   1      45.750  32.634  26.225  1.00  0.00     0.031 C 
ATOM     54  C   UNL A   1      41.242  30.879  30.685  1.00  0.00     0.029 A 
ATOM     55  C   UNL A   1      41.799  32.205  30.792  1.00  0.00     0.049 A 
ATOM     56  H   UNL A   1      43.670  32.830  30.088  1.00  0.00     0.167 HD
ATOM     57  C   UNL A   1      47.295  34.010  27.641  1.00  0.00     0.037 A 
ATOM     58  C   UNL A   1      41.308  33.320  31.390  1.00  0.00     0.037 A 
ATOM     59  C   UNL A   1      47.794  33.947  28.996  1.00  0.00     0.049 A 
ATOM     60  C   UNL A   1      42.467  34.228  31.593  1.00  0.00     0.074 A 
ATOM     61  C   UNL A   1      48.641  33.085  29.666  1.00  0.00     0.029 A 
ATOM     62  N   UNL A   1      47.052  34.575  29.971  1.00  0.00    -0.354 N 
ATOM     63  N   UNL A   1      43.453  33.959  32.407  1.00  0.00    -0.248 NA
ATOM     64  C   UNL A   1      42.779  35.157  30.518  1.00  0.00     0.031 C 
ATOM     65  C   UNL A   1      48.047  32.898  30.950  1.00  0.00     0.029 A 
ATOM     66  C   UNL A   1      46.923  33.721  31.041  1.00  0.00     0.049 A 
ATOM     67  H   UNL A   1      46.676  35.483  29.912  1.00  0.00     0.167 HD
ATOM     68  C   UNL A   1      44.598  34.337  31.717  1.00  0.00     0.074 A 
ATOM     69  C   UNL A   1      44.114  35.128  30.586  1.00  0.00     0.031 C 
ATOM     70  C   UNL A   1      45.794  33.717  31.947  1.00  0.00     0.037 A 
BRANCH  57  71
ATOM     71  C   UNL A   1      47.137  35.303  26.874  1.00  0.00     0.064 A 
ATOM     72  C   UNL A   1      48.223  35.760  26.110  1.00  0.00     0.173 A 
ATOM     73  C   UNL A   1      46.065  36.221  27.002  1.00  0.00     0.173 A 
ATOM     74  F   UNL A   1      49.304  34.987  25.935  1.00  0.00    -0.203 F 
ATOM     75  C   UNL A   1      48.252  37.047  25.567  1.00  0.00     0.198 A 
ATOM     76  C   UNL A   1      46.070  37.478  26.406  1.00  0.00     0.198 A 
ATOM     77  F   UNL A   1      45.007  36.011  27.790  1.00  0.00    -0.203 F 
ATOM     78  F   UNL A   1      49.356  37.476  24.941  1.00  0.00    -0.200 F 
ATOM     79  C   UNL A   1      47.176  37.904  25.713  1.00  0.00     0.200 A 
ATOM     80  F   UNL A   1      45.018  38.291  26.580  1.00  0.00    -0.200 F 
ATOM     81  F   UNL A   1      47.221  39.153  25.235  1.00  0.00    -0.200 F 
ENDBRANCH  57  71
BRANCH  58  82
ATOM     82  C   UNL A   1      39.898  33.774  31.506  1.00  0.00     0.064 A 
ATOM     83  C   UNL A   1      39.138  34.098  30.369  1.00  0.00     0.173 A 
ATOM     84  C   UNL A   1      39.180  33.625  32.710  1.00  0.00     0.173 A 
ATOM     85  F   UNL A   1      39.734  34.221  29.174  1.00  0.00    -0.203 F 
ATOM     86  C   UNL A   1      37.744  34.231  30.426  1.00  0.00     0.198 A 
ATOM     87  C   UNL A   1      37.790  33.760  32.767  1.00  0.00     0.198 A 
ATOM     88  F   UNL A   1      39.803  33.251  33.837  1.00  0.00    -0.203 F 
ATOM     89  F   UNL A   1      37.049  34.479  29.308  1.00  0.00    -0.200 F 
ATOM     90  C   UNL A   1      37.070  34.048  31.623  1.00  0.00     0.200 A 
ATOM     91  F   UNL A   1      37.148  33.544  33.923  1.00  0.00    -0.200 F 
ATOM     92  F   UNL A   1      35.732  34.107  31.664  1.00  0.00    -0.200 F 
ENDBRANCH  58  82
BRANCH  70  93
ATOM     93  C   UNL A   1      45.880  32.783  33.133  1.00  0.00     0.064 A 
ATOM     94  C   UNL A   1      45.680  31.391  33.063  1.00  0.00     0.173 A 
ATOM     95  C   UNL A   1      46.339  33.296  34.352  1.00  0.00     0.173 A 
ATOM     96  F   UNL A   1      45.330  30.803  31.915  1.00  0.00    -0.203 F 
ATOM     97  C   UNL A   1      45.902  30.564  34.164  1.00  0.00     0.198 A 
ATOM     98  C   UNL A   1      46.594  32.465  35.441  1.00  0.00     0.198 A 
ATOM     99  F   UNL A   1      46.600  34.607  34.469  1.00  0.00    -0.203 F 
ATOM    100  F   UNL A   1      45.704  29.240  34.064  1.00  0.00    -0.200 F 
ATOM    101  C   UNL A   1      46.368  31.101  35.351  1.00  0.00     0.200 A 
ATOM    102  F   UNL A   1      47.092  32.985  36.571  1.00  0.00    -0.200 F 
ATOM    103  F   UNL A   1      46.628  30.303  36.395  1.00  0.00    -0.200 F 
ENDBRANCH  70  93
ENDBRANCH  44  45
ENDBRANCH  37  39
ENDBRANCH  36  37
ENDBRANCH  35  36
ENDBRANCH  34  35
ENDBRANCH  33  34
ENDBRANCH  32  33
ENDBRANCH   1  32
TORSDOF 20
ENDMDL
