MODEL 1
REMARK VINA RESULT:     -11.9      0.000      0.000
REMARK SMILES O=C(OCCOCCOCCOC(=O)[C@H](c1c[nH]c2cc(F)ccc12)[NH+]1CCN(c2ccccc2)CC1)c1ccc(-c2c3nc(c(-c4c(F)c(F)c(F)c(F)c4F)c4ccc([nH]4)c(-c4c(F)c(F)c(F)c(F)c4F)c4nc(c(-c5c(F)c(F)c(F)c(F)c5F)c5ccc2[nH]5)C=C4)C=C3)cc1
REMARK SMILES IDX 7 1 6 2 5 3 4 4 3 5 2 6 1 7 38 8 39 9 100 10 40 11 99 12
REMARK SMILES IDX 41 13 42 14 43 15 93 16 44 17 98 18 92 19 94 20 45 21 97 22
REMARK SMILES IDX 91 23 90 24 46 26 78 27 58 28 77 29 59 30 62 31 76 32 95 33
REMARK SMILES IDX 60 34 61 35 75 37 96 38 63 39 47 40 48 41 56 42 49 43 50 44
REMARK SMILES IDX 54 45 57 46 51 47 52 48 55 49 53 50 79 51 80 52 88 53 81 54
REMARK SMILES IDX 82 55 86 56 89 57 83 58 84 59 87 60 85 61 64 62 65 63 73 64
REMARK SMILES IDX 66 65 67 66 71 67 74 68 68 69 69 70 72 71 70 72 8 73 9 74
REMARK SMILES IDX 10 75 11 76 12 77 13 78 14 79 15 80 26 81 27 82 37 83 28 85
REMARK SMILES IDX 36 86 29 87 30 88 31 89 35 90 32 91 34 92 33 93 16 94 17 95
REMARK SMILES IDX 25 96 18 97 19 98 24 99 20 101 23 102 21 103 22 104
REMARK H PARENT 94 25 62 36 26 84 18 100
REMARK Flexibility Score: inf
ROOT
ATOM      1  C   UNL A   1      41.688  20.318  26.195  1.00  0.00     0.188 C 
ENDROOT
BRANCH   1   2
ATOM      2  O   UNL A   1      42.481  21.495  26.363  1.00  0.00    -0.376 OA
BRANCH   2   3
ATOM      3  C   UNL A   1      43.785  21.403  25.784  1.00  0.00     0.202 C 
BRANCH   3   4
ATOM      4  C   UNL A   1      43.974  22.168  24.463  1.00  0.00     0.261 C 
BRANCH   4   5
ATOM      5  O   UNL A   1      43.485  23.524  24.510  1.00  0.00    -0.460 OA
BRANCH   5   6
ATOM      6  C   UNL A   1      44.110  24.598  25.055  1.00  0.00     0.338 C 
ATOM      7  O   UNL A   1      45.209  24.953  24.616  1.00  0.00    -0.246 OA
BRANCH   6   8
ATOM      8  C   UNL A   1      43.483  25.399  26.136  1.00  0.00     0.060 A 
ATOM      9  C   UNL A   1      43.884  26.694  26.451  1.00  0.00     0.016 A 
ATOM     10  C   UNL A   1      42.388  24.863  26.823  1.00  0.00     0.016 A 
ATOM     11  C   UNL A   1      43.346  27.376  27.529  1.00  0.00     0.010 A 
ATOM     12  C   UNL A   1      41.747  25.606  27.822  1.00  0.00     0.010 A 
ATOM     13  C   UNL A   1      42.253  26.855  28.215  1.00  0.00    -0.014 A 
BRANCH  13  14
ATOM     14  C   UNL A   1      41.723  27.604  29.382  1.00  0.00     0.031 A 
ATOM     15  C   UNL A   1      42.462  27.522  30.686  1.00  0.00     0.074 A 
ATOM     16  C   UNL A   1      40.663  28.428  29.242  1.00  0.00     0.049 A 
ATOM     17  N   UNL A   1      42.182  28.079  31.837  1.00  0.00    -0.248 NA
ATOM     18  C   UNL A   1      43.692  26.711  30.701  1.00  0.00     0.031 C 
ATOM     19  C   UNL A   1      39.920  28.651  27.999  1.00  0.00     0.029 A 
ATOM     20  N   UNL A   1      40.039  29.258  30.139  1.00  0.00    -0.354 N 
ATOM     21  C   UNL A   1      43.188  27.672  32.703  1.00  0.00     0.074 A 
ATOM     22  C   UNL A   1      44.053  26.778  31.970  1.00  0.00     0.031 C 
ATOM     23  C   UNL A   1      38.952  29.555  28.205  1.00  0.00     0.029 A 
ATOM     24  C   UNL A   1      38.980  29.954  29.604  1.00  0.00     0.049 A 
ATOM     25  H   UNL A   1      40.321  29.346  31.078  1.00  0.00     0.167 HD
ATOM     26  C   UNL A   1      43.394  28.041  33.988  1.00  0.00     0.037 A 
ATOM     27  C   UNL A   1      38.123  30.816  30.182  1.00  0.00     0.037 A 
ATOM     28  C   UNL A   1      42.539  28.950  34.699  1.00  0.00     0.049 A 
ATOM     29  C   UNL A   1      38.334  31.155  31.632  1.00  0.00     0.074 A 
ATOM     30  C   UNL A   1      42.611  29.357  36.017  1.00  0.00     0.029 A 
ATOM     31  N   UNL A   1      41.454  29.605  34.132  1.00  0.00    -0.354 N 
ATOM     32  N   UNL A   1      39.272  30.737  32.447  1.00  0.00    -0.248 NA
ATOM     33  C   UNL A   1      37.381  32.091  32.239  1.00  0.00     0.031 C 
ATOM     34  C   UNL A   1      41.551  30.238  36.256  1.00  0.00     0.029 A 
ATOM     35  C   UNL A   1      40.845  30.413  35.076  1.00  0.00     0.049 A 
ATOM     36  H   UNL A   1      41.161  29.509  33.197  1.00  0.00     0.167 HD
ATOM     37  C   UNL A   1      39.036  31.372  33.657  1.00  0.00     0.074 A 
ATOM     38  C   UNL A   1      37.882  32.226  33.458  1.00  0.00     0.031 C 
ATOM     39  C   UNL A   1      39.702  31.256  34.832  1.00  0.00     0.037 A 
BRANCH  26  40
ATOM     40  C   UNL A   1      44.577  27.439  34.684  1.00  0.00     0.064 A 
ATOM     41  C   UNL A   1      45.856  28.011  34.588  1.00  0.00     0.173 A 
ATOM     42  C   UNL A   1      44.443  26.252  35.419  1.00  0.00     0.173 A 
ATOM     43  F   UNL A   1      46.043  29.129  33.869  1.00  0.00    -0.203 F 
ATOM     44  C   UNL A   1      46.962  27.397  35.169  1.00  0.00     0.198 A 
ATOM     45  C   UNL A   1      45.547  25.655  36.024  1.00  0.00     0.198 A 
ATOM     46  F   UNL A   1      43.245  25.661  35.537  1.00  0.00    -0.203 F 
ATOM     47  F   UNL A   1      48.183  27.924  35.005  1.00  0.00    -0.200 F 
ATOM     48  C   UNL A   1      46.807  26.222  35.888  1.00  0.00     0.200 A 
ATOM     49  F   UNL A   1      45.396  24.520  36.720  1.00  0.00    -0.200 F 
ATOM     50  F   UNL A   1      47.873  25.625  36.438  1.00  0.00    -0.200 F 
ENDBRANCH  26  40
BRANCH  27  51
ATOM     51  C   UNL A   1      36.995  31.402  29.404  1.00  0.00     0.064 A 
ATOM     52  C   UNL A   1      36.984  32.755  29.036  1.00  0.00     0.173 A 
ATOM     53  C   UNL A   1      35.888  30.623  29.033  1.00  0.00     0.173 A 
ATOM     54  F   UNL A   1      38.011  33.549  29.372  1.00  0.00    -0.203 F 
ATOM     55  C   UNL A   1      35.898  33.311  28.360  1.00  0.00     0.198 A 
ATOM     56  C   UNL A   1      34.818  31.172  28.329  1.00  0.00     0.198 A 
ATOM     57  F   UNL A   1      35.849  29.319  29.347  1.00  0.00    -0.203 F 
ATOM     58  F   UNL A   1      35.891  34.619  28.068  1.00  0.00    -0.200 F 
ATOM     59  C   UNL A   1      34.817  32.518  28.004  1.00  0.00     0.200 A 
ATOM     60  F   UNL A   1      33.787  30.395  27.967  1.00  0.00    -0.200 F 
ATOM     61  F   UNL A   1      33.775  33.054  27.354  1.00  0.00    -0.200 F 
ENDBRANCH  27  51
BRANCH  39  62
ATOM     62  C   UNL A   1      39.206  32.092  35.971  1.00  0.00     0.064 A 
ATOM     63  C   UNL A   1      39.660  33.405  36.165  1.00  0.00     0.173 A 
ATOM     64  C   UNL A   1      38.246  31.584  36.858  1.00  0.00     0.173 A 
ATOM     65  F   UNL A   1      40.591  33.925  35.352  1.00  0.00    -0.203 F 
ATOM     66  C   UNL A   1      39.190  34.169  37.229  1.00  0.00     0.198 A 
ATOM     67  C   UNL A   1      37.756  32.362  37.900  1.00  0.00     0.198 A 
ATOM     68  F   UNL A   1      37.779  30.335  36.706  1.00  0.00    -0.203 F 
ATOM     69  F   UNL A   1      39.676  35.402  37.429  1.00  0.00    -0.200 F 
ATOM     70  C   UNL A   1      38.235  33.650  38.090  1.00  0.00     0.200 A 
ATOM     71  F   UNL A   1      36.824  31.865  38.724  1.00  0.00    -0.200 F 
ATOM     72  F   UNL A   1      37.779  34.391  39.110  1.00  0.00    -0.200 F 
ENDBRANCH  39  62
ENDBRANCH  13  14
ENDBRANCH   6   8
ENDBRANCH   5   6
ENDBRANCH   4   5
ENDBRANCH   3   4
ENDBRANCH   2   3
ENDBRANCH   1   2
BRANCH   1  73
ATOM     73  C   UNL A   1      40.199  20.594  26.401  1.00  0.00     0.188 C 
BRANCH  73  74
ATOM     74  O   UNL A   1      39.722  21.879  26.017  1.00  0.00    -0.376 OA
BRANCH  74  75
ATOM     75  C   UNL A   1      38.355  21.973  25.640  1.00  0.00     0.202 C 
BRANCH  75  76
ATOM     76  C   UNL A   1      37.655  23.346  25.676  1.00  0.00     0.261 C 
BRANCH  76  77
ATOM     77  O   UNL A   1      36.742  23.671  24.607  1.00  0.00    -0.459 OA
BRANCH  77  78
ATOM     78  C   UNL A   1      35.432  23.788  25.006  1.00  0.00     0.370 C 
ATOM     79  O   UNL A   1      35.093  24.467  25.973  1.00  0.00    -0.245 OA
BRANCH  78  80
ATOM     80  C   UNL A   1      34.464  22.887  24.173  1.00  0.00     0.328 C 
BRANCH  80  81
ATOM     81  N   UNL A   1      33.838  21.941  25.138  1.00  0.00    -0.316 N 
ATOM     82  C   UNL A   1      32.667  21.145  24.749  1.00  0.00     0.284 C 
ATOM     83  C   UNL A   1      34.821  21.076  25.816  1.00  0.00     0.284 C 
ATOM     84  H   UNL A   1      33.433  22.630  25.773  1.00  0.00     0.349 HD
ATOM     85  C   UNL A   1      32.955  19.882  23.917  1.00  0.00     0.178 C 
ATOM     86  C   UNL A   1      35.228  19.829  25.002  1.00  0.00     0.178 C 
ATOM     87  N   UNL A   1      34.061  19.107  24.495  1.00  0.00    -0.360 N 
BRANCH  87  88
ATOM     88  C   UNL A   1      33.766  17.810  24.861  1.00  0.00     0.037 A 
ATOM     89  C   UNL A   1      34.754  16.819  24.764  1.00  0.00     0.026 A 
ATOM     90  C   UNL A   1      32.480  17.423  25.245  1.00  0.00     0.026 A 
ATOM     91  C   UNL A   1      34.465  15.479  25.017  1.00  0.00     0.002 A 
ATOM     92  C   UNL A   1      32.180  16.080  25.487  1.00  0.00     0.002 A 
ATOM     93  C   UNL A   1      33.171  15.108  25.368  1.00  0.00     0.000 A 
ENDBRANCH  87  88
ENDBRANCH  80  81
BRANCH  80  94
ATOM     94  C   UNL A   1      33.449  23.651  23.342  1.00  0.00     0.046 A 
ATOM     95  C   UNL A   1      33.312  23.676  21.964  1.00  0.00     0.094 A 
ATOM     96  C   UNL A   1      32.507  24.627  23.845  1.00  0.00     0.009 A 
ATOM     97  N   UNL A   1      32.330  24.570  21.626  1.00  0.00    -0.361 N 
ATOM     98  C   UNL A   1      31.883  25.223  22.748  1.00  0.00     0.049 A 
ATOM     99  C   UNL A   1      32.203  25.136  25.130  1.00  0.00     0.014 A 
ATOM    100  H   UNL A   1      31.995  24.721  20.713  1.00  0.00     0.166 HD
ATOM    101  C   UNL A   1      30.991  26.296  22.867  1.00  0.00     0.065 A 
ATOM    102  C   UNL A   1      31.316  26.208  25.272  1.00  0.00     0.040 A 
ATOM    103  C   UNL A   1      30.729  26.773  24.150  1.00  0.00     0.125 A 
ATOM    104  F   UNL A   1      29.873  27.794  24.306  1.00  0.00    -0.207 F 
ENDBRANCH  80  94
ENDBRANCH  78  80
ENDBRANCH  77  78
ENDBRANCH  76  77
ENDBRANCH  75  76
ENDBRANCH  74  75
ENDBRANCH  73  74
ENDBRANCH   1  73
TORSDOF 20
ENDMDL
MODEL 2
REMARK VINA RESULT:     -11.8      1.486      4.334
REMARK SMILES O=C(OCCOCCOCCOC(=O)[C@H](c1c[nH]c2cc(F)ccc12)[NH+]1CCN(c2ccccc2)CC1)c1ccc(-c2c3nc(c(-c4c(F)c(F)c(F)c(F)c4F)c4ccc([nH]4)c(-c4c(F)c(F)c(F)c(F)c4F)c4nc(c(-c5c(F)c(F)c(F)c(F)c5F)c5ccc2[nH]5)C=C4)C=C3)cc1
REMARK SMILES IDX 7 1 6 2 5 3 4 4 3 5 2 6 1 7 38 8 39 9 100 10 40 11 99 12
REMARK SMILES IDX 41 13 42 14 43 15 93 16 44 17 98 18 92 19 94 20 45 21 97 22
REMARK SMILES IDX 91 23 90 24 46 26 78 27 58 28 77 29 59 30 62 31 76 32 95 33
REMARK SMILES IDX 60 34 61 35 75 37 96 38 63 39 47 40 48 41 56 42 49 43 50 44
REMARK SMILES IDX 54 45 57 46 51 47 52 48 55 49 53 50 79 51 80 52 88 53 81 54
REMARK SMILES IDX 82 55 86 56 89 57 83 58 84 59 87 60 85 61 64 62 65 63 73 64
REMARK SMILES IDX 66 65 67 66 71 67 74 68 68 69 69 70 72 71 70 72 8 73 9 74
REMARK SMILES IDX 10 75 11 76 12 77 13 78 14 79 15 80 26 81 27 82 37 83 28 85
REMARK SMILES IDX 36 86 29 87 30 88 31 89 35 90 32 91 34 92 33 93 16 94 17 95
REMARK SMILES IDX 25 96 18 97 19 98 24 99 20 101 23 102 21 103 22 104
REMARK H PARENT 94 25 62 36 26 84 18 100
REMARK Flexibility Score: inf
ROOT
ATOM      1  C   UNL A   1      42.046  21.321  26.697  1.00  0.00     0.188 C 
ENDROOT
BRANCH   1   2
ATOM      2  O   UNL A   1      42.570  21.441  25.373  1.00  0.00    -0.376 OA
BRANCH   2   3
ATOM      3  C   UNL A   1      43.961  21.128  25.270  1.00  0.00     0.202 C 
BRANCH   3   4
ATOM      4  C   UNL A   1      44.847  22.244  24.689  1.00  0.00     0.261 C 
BRANCH   4   5
ATOM      5  O   UNL A   1      44.187  23.524  24.625  1.00  0.00    -0.460 OA
BRANCH   5   6
ATOM      6  C   UNL A   1      44.668  24.713  25.069  1.00  0.00     0.338 C 
ATOM      7  O   UNL A   1      45.676  25.198  24.545  1.00  0.00    -0.246 OA
BRANCH   6   8
ATOM      8  C   UNL A   1      43.980  25.481  26.138  1.00  0.00     0.060 A 
ATOM      9  C   UNL A   1      44.140  26.853  26.308  1.00  0.00     0.016 A 
ATOM     10  C   UNL A   1      43.073  24.814  26.969  1.00  0.00     0.016 A 
ATOM     11  C   UNL A   1      43.563  27.521  27.375  1.00  0.00     0.010 A 
ATOM     12  C   UNL A   1      42.378  25.515  27.962  1.00  0.00     0.010 A 
ATOM     13  C   UNL A   1      42.654  26.870  28.203  1.00  0.00    -0.014 A 
BRANCH  13  14
ATOM     14  C   UNL A   1      42.080  27.613  29.352  1.00  0.00     0.031 A 
ATOM     15  C   UNL A   1      42.819  27.603  30.659  1.00  0.00     0.074 A 
ATOM     16  C   UNL A   1      40.976  28.373  29.193  1.00  0.00     0.049 A 
ATOM     17  N   UNL A   1      42.506  28.168  31.796  1.00  0.00    -0.248 NA
ATOM     18  C   UNL A   1      44.093  26.863  30.693  1.00  0.00     0.031 C 
ATOM     19  C   UNL A   1      40.224  28.526  27.944  1.00  0.00     0.029 A 
ATOM     20  N   UNL A   1      40.303  29.186  30.070  1.00  0.00    -0.354 N 
ATOM     21  C   UNL A   1      43.530  27.839  32.673  1.00  0.00     0.074 A 
ATOM     22  C   UNL A   1      44.446  26.979  31.961  1.00  0.00     0.031 C 
ATOM     23  C   UNL A   1      39.206  29.378  28.129  1.00  0.00     0.029 A 
ATOM     24  C   UNL A   1      39.208  29.810  29.519  1.00  0.00     0.049 A 
ATOM     25  H   UNL A   1      40.578  29.311  31.007  1.00  0.00     0.167 HD
ATOM     26  C   UNL A   1      43.712  28.247  33.949  1.00  0.00     0.037 A 
ATOM     27  C   UNL A   1      38.302  30.635  30.076  1.00  0.00     0.037 A 
ATOM     28  C   UNL A   1      42.806  29.122  34.639  1.00  0.00     0.049 A 
ATOM     29  C   UNL A   1      38.491  31.017  31.518  1.00  0.00     0.074 A 
ATOM     30  C   UNL A   1      42.852  29.562  35.948  1.00  0.00     0.029 A 
ATOM     31  N   UNL A   1      41.687  29.702  34.056  1.00  0.00    -0.354 N 
ATOM     32  N   UNL A   1      39.449  30.671  32.343  1.00  0.00    -0.248 NA
ATOM     33  C   UNL A   1      37.484  31.911  32.103  1.00  0.00     0.031 C 
ATOM     34  C   UNL A   1      41.743  30.387  36.166  1.00  0.00     0.029 A 
ATOM     35  C   UNL A   1      41.031  30.495  34.981  1.00  0.00     0.049 A 
ATOM     36  H   UNL A   1      41.402  29.568  33.123  1.00  0.00     0.167 HD
ATOM     37  C   UNL A   1      39.174  31.319  33.539  1.00  0.00     0.074 A 
ATOM     38  C   UNL A   1      37.974  32.102  33.319  1.00  0.00     0.031 C 
ATOM     39  C   UNL A   1      39.843  31.266  34.716  1.00  0.00     0.037 A 
BRANCH  26  40
ATOM     40  C   UNL A   1      44.926  27.729  34.661  1.00  0.00     0.064 A 
ATOM     41  C   UNL A   1      44.890  26.535  35.400  1.00  0.00     0.173 A 
ATOM     42  C   UNL A   1      46.126  28.454  34.644  1.00  0.00     0.173 A 
ATOM     43  F   UNL A   1      43.756  25.821  35.474  1.00  0.00    -0.203 F 
ATOM     44  C   UNL A   1      45.999  26.107  36.125  1.00  0.00     0.198 A 
ATOM     45  C   UNL A   1      47.242  28.008  35.348  1.00  0.00     0.198 A 
ATOM     46  F   UNL A   1      46.211  29.604  33.959  1.00  0.00    -0.203 F 
ATOM     47  F   UNL A   1      45.919  25.002  36.879  1.00  0.00    -0.200 F 
ATOM     48  C   UNL A   1      47.174  26.842  36.097  1.00  0.00     0.200 A 
ATOM     49  F   UNL A   1      48.379  28.718  35.318  1.00  0.00    -0.200 F 
ATOM     50  F   UNL A   1      48.237  26.436  36.804  1.00  0.00    -0.200 F 
ENDBRANCH  26  40
BRANCH  27  51
ATOM     51  C   UNL A   1      37.145  31.138  29.284  1.00  0.00     0.064 A 
ATOM     52  C   UNL A   1      37.082  32.468  28.844  1.00  0.00     0.173 A 
ATOM     53  C   UNL A   1      36.062  30.302  28.970  1.00  0.00     0.173 A 
ATOM     54  F   UNL A   1      38.083  33.315  29.123  1.00  0.00    -0.203 F 
ATOM     55  C   UNL A   1      35.969  32.949  28.155  1.00  0.00     0.198 A 
ATOM     56  C   UNL A   1      34.965  30.775  28.253  1.00  0.00     0.198 A 
ATOM     57  F   UNL A   1      36.074  29.017  29.354  1.00  0.00    -0.203 F 
ATOM     58  F   UNL A   1      35.912  34.239  27.794  1.00  0.00    -0.200 F 
ATOM     59  C   UNL A   1      34.912  32.101  27.856  1.00  0.00     0.200 A 
ATOM     60  F   UNL A   1      33.958  29.945  27.947  1.00  0.00    -0.200 F 
ATOM     61  F   UNL A   1      33.844  32.564  27.193  1.00  0.00    -0.200 F 
ENDBRANCH  27  51
BRANCH  39  62
ATOM     62  C   UNL A   1      39.297  32.099  35.836  1.00  0.00     0.064 A 
ATOM     63  C   UNL A   1      38.369  31.577  36.749  1.00  0.00     0.173 A 
ATOM     64  C   UNL A   1      39.731  33.420  36.013  1.00  0.00     0.173 A 
ATOM     65  F   UNL A   1      37.913  30.324  36.607  1.00  0.00    -0.203 F 
ATOM     66  C   UNL A   1      37.871  32.362  37.784  1.00  0.00     0.198 A 
ATOM     67  C   UNL A   1      39.255  34.191  37.067  1.00  0.00     0.198 A 
ATOM     68  F   UNL A   1      40.623  33.958  35.167  1.00  0.00    -0.203 F 
ATOM     69  F   UNL A   1      36.945  31.863  38.613  1.00  0.00    -0.200 F 
ATOM     70  C   UNL A   1      38.320  33.665  37.946  1.00  0.00     0.200 A 
ATOM     71  F   UNL A   1      39.697  35.445  37.231  1.00  0.00    -0.200 F 
ATOM     72  F   UNL A   1      37.843  34.418  38.947  1.00  0.00    -0.200 F 
ENDBRANCH  39  62
ENDBRANCH  13  14
ENDBRANCH   6   8
ENDBRANCH   5   6
ENDBRANCH   4   5
ENDBRANCH   3   4
ENDBRANCH   2   3
ENDBRANCH   1   2
BRANCH   1  73
ATOM     73  C   UNL A   1      40.648  20.703  26.708  1.00  0.00     0.188 C 
BRANCH  73  74
ATOM     74  O   UNL A   1      39.548  21.598  26.831  1.00  0.00    -0.376 OA
BRANCH  74  75
ATOM     75  C   UNL A   1      38.810  21.880  25.650  1.00  0.00     0.202 C 
BRANCH  75  76
ATOM     76  C   UNL A   1      37.364  22.400  25.769  1.00  0.00     0.261 C 
BRANCH  76  77
ATOM     77  O   UNL A   1      36.962  23.489  24.912  1.00  0.00    -0.459 OA
BRANCH  77  78
ATOM     78  C   UNL A   1      35.853  23.219  24.147  1.00  0.00     0.370 C 
ATOM     79  O   UNL A   1      35.929  22.886  22.966  1.00  0.00    -0.245 OA
BRANCH  78  80
ATOM     80  C   UNL A   1      34.514  23.489  24.906  1.00  0.00     0.328 C 
BRANCH  80  81
ATOM     81  N   UNL A   1      33.558  24.020  23.894  1.00  0.00    -0.316 N 
ATOM     82  C   UNL A   1      32.127  24.119  24.201  1.00  0.00     0.284 C 
ATOM     83  C   UNL A   1      34.019  25.275  23.272  1.00  0.00     0.284 C 
ATOM     84  H   UNL A   1      33.589  23.236  23.242  1.00  0.00     0.349 HD
ATOM     85  C   UNL A   1      31.698  25.338  25.037  1.00  0.00     0.178 C 
ATOM     86  C   UNL A   1      33.701  26.540  24.098  1.00  0.00     0.178 C 
ATOM     87  N   UNL A   1      32.303  26.574  24.523  1.00  0.00    -0.360 N 
BRANCH  87  88
ATOM     88  C   UNL A   1      31.423  27.560  24.127  1.00  0.00     0.037 A 
ATOM     89  C   UNL A   1      31.630  28.884  24.544  1.00  0.00     0.026 A 
ATOM     90  C   UNL A   1      30.271  27.274  23.391  1.00  0.00     0.026 A 
ATOM     91  C   UNL A   1      30.705  29.887  24.259  1.00  0.00     0.002 A 
ATOM     92  C   UNL A   1      29.333  28.271  23.113  1.00  0.00     0.002 A 
ATOM     93  C   UNL A   1      29.548  29.576  23.551  1.00  0.00     0.000 A 
ENDBRANCH  87  88
ENDBRANCH  80  81
BRANCH  80  94
ATOM     94  C   UNL A   1      33.972  22.296  25.671  1.00  0.00     0.046 A 
ATOM     95  C   UNL A   1      34.024  22.055  27.035  1.00  0.00     0.094 A 
ATOM     96  C   UNL A   1      33.411  21.098  25.085  1.00  0.00     0.009 A 
ATOM     97  N   UNL A   1      33.500  20.814  27.291  1.00  0.00    -0.361 N 
ATOM     98  C   UNL A   1      33.197  20.179  26.113  1.00  0.00     0.049 A 
ATOM     99  C   UNL A   1      33.166  20.669  23.759  1.00  0.00     0.014 A 
ATOM    100  H   UNL A   1      33.361  20.436  28.190  1.00  0.00     0.166 HD
ATOM    101  C   UNL A   1      32.767  18.865  25.885  1.00  0.00     0.065 A 
ATOM    102  C   UNL A   1      32.737  19.362  23.509  1.00  0.00     0.040 A 
ATOM    103  C   UNL A   1      32.548  18.482  24.563  1.00  0.00     0.125 A 
ATOM    104  F   UNL A   1      32.127  17.235  24.306  1.00  0.00    -0.207 F 
ENDBRANCH  80  94
ENDBRANCH  78  80
ENDBRANCH  77  78
ENDBRANCH  76  77
ENDBRANCH  75  76
ENDBRANCH  74  75
ENDBRANCH  73  74
ENDBRANCH   1  73
TORSDOF 20
ENDMDL
MODEL 3
REMARK VINA RESULT:     -11.6      5.321     10.435
REMARK SMILES O=C(OCCOCCOCCOC(=O)[C@H](c1c[nH]c2cc(F)ccc12)[NH+]1CCN(c2ccccc2)CC1)c1ccc(-c2c3nc(c(-c4c(F)c(F)c(F)c(F)c4F)c4ccc([nH]4)c(-c4c(F)c(F)c(F)c(F)c4F)c4nc(c(-c5c(F)c(F)c(F)c(F)c5F)c5ccc2[nH]5)C=C4)C=C3)cc1
REMARK SMILES IDX 7 1 6 2 5 3 4 4 3 5 2 6 1 7 38 8 39 9 100 10 40 11 99 12
REMARK SMILES IDX 41 13 42 14 43 15 93 16 44 17 98 18 92 19 94 20 45 21 97 22
REMARK SMILES IDX 91 23 90 24 46 26 78 27 58 28 77 29 59 30 62 31 76 32 95 33
REMARK SMILES IDX 60 34 61 35 75 37 96 38 63 39 47 40 48 41 56 42 49 43 50 44
REMARK SMILES IDX 54 45 57 46 51 47 52 48 55 49 53 50 79 51 80 52 88 53 81 54
REMARK SMILES IDX 82 55 86 56 89 57 83 58 84 59 87 60 85 61 64 62 65 63 73 64
REMARK SMILES IDX 66 65 67 66 71 67 74 68 68 69 69 70 72 71 70 72 8 73 9 74
REMARK SMILES IDX 10 75 11 76 12 77 13 78 14 79 15 80 26 81 27 82 37 83 28 85
REMARK SMILES IDX 36 86 29 87 30 88 31 89 35 90 32 91 34 92 33 93 16 94 17 95
REMARK SMILES IDX 25 96 18 97 19 98 24 99 20 101 23 102 21 103 22 104
REMARK H PARENT 94 25 62 36 26 84 18 100
REMARK Flexibility Score: inf
ROOT
ATOM      1  C   UNL A   1      34.810  32.328  29.289  1.00  0.00     0.188 C 
ENDROOT
BRANCH   1   2
ATOM      2  O   UNL A   1      34.145  32.920  30.407  1.00  0.00    -0.376 OA
BRANCH   2   3
ATOM      3  C   UNL A   1      34.704  32.559  31.672  1.00  0.00     0.202 C 
BRANCH   3   4
ATOM      4  C   UNL A   1      35.154  33.735  32.555  1.00  0.00     0.261 C 
BRANCH   4   5
ATOM      5  O   UNL A   1      36.537  33.652  32.959  1.00  0.00    -0.460 OA
BRANCH   5   6
ATOM      6  C   UNL A   1      37.211  32.536  33.335  1.00  0.00     0.338 C 
ATOM      7  O   UNL A   1      36.893  31.952  34.376  1.00  0.00    -0.246 OA
BRANCH   6   8
ATOM      8  C   UNL A   1      38.292  31.960  32.496  1.00  0.00     0.060 A 
ATOM      9  C   UNL A   1      39.285  31.128  33.006  1.00  0.00     0.016 A 
ATOM     10  C   UNL A   1      38.277  32.200  31.118  1.00  0.00     0.016 A 
ATOM     11  C   UNL A   1      40.336  30.688  32.218  1.00  0.00     0.010 A 
ATOM     12  C   UNL A   1      39.259  31.640  30.291  1.00  0.00     0.010 A 
ATOM     13  C   UNL A   1      40.326  30.915  30.844  1.00  0.00    -0.014 A 
BRANCH  13  14
ATOM     14  C   UNL A   1      41.483  30.452  30.039  1.00  0.00     0.031 A 
ATOM     15  C   UNL A   1      41.435  29.080  29.430  1.00  0.00     0.074 A 
ATOM     16  C   UNL A   1      42.507  31.289  29.768  1.00  0.00     0.049 A 
ATOM     17  N   UNL A   1      42.328  28.462  28.701  1.00  0.00    -0.248 NA
ATOM     18  C   UNL A   1      40.210  28.296  29.662  1.00  0.00     0.031 C 
ATOM     19  C   UNL A   1      42.617  32.673  30.237  1.00  0.00     0.029 A 
ATOM     20  N   UNL A   1      43.638  31.119  29.010  1.00  0.00    -0.354 N 
ATOM     21  C   UNL A   1      41.778  27.223  28.406  1.00  0.00     0.074 A 
ATOM     22  C   UNL A   1      40.502  27.147  29.078  1.00  0.00     0.031 C 
ATOM     23  C   UNL A   1      43.740  33.226  29.756  1.00  0.00     0.029 A 
ATOM     24  C   UNL A   1      44.450  32.228  28.971  1.00  0.00     0.049 A 
ATOM     25  H   UNL A   1      43.849  30.280  28.539  1.00  0.00     0.167 HD
ATOM     26  C   UNL A   1      42.275  26.246  27.614  1.00  0.00     0.037 A 
ATOM     27  C   UNL A   1      45.640  32.417  28.371  1.00  0.00     0.037 A 
ATOM     28  C   UNL A   1      43.535  26.342  26.932  1.00  0.00     0.049 A 
ATOM     29  C   UNL A   1      46.203  31.287  27.553  1.00  0.00     0.074 A 
ATOM     30  C   UNL A   1      44.172  25.400  26.148  1.00  0.00     0.029 A 
ATOM     31  N   UNL A   1      44.346  27.470  26.949  1.00  0.00    -0.354 N 
ATOM     32  N   UNL A   1      45.684  30.108  27.309  1.00  0.00    -0.248 NA
ATOM     33  C   UNL A   1      47.506  31.516  26.916  1.00  0.00     0.031 C 
ATOM     34  C   UNL A   1      45.384  25.947  25.712  1.00  0.00     0.029 A 
ATOM     35  C   UNL A   1      45.481  27.245  26.190  1.00  0.00     0.049 A 
ATOM     36  H   UNL A   1      44.144  28.304  27.430  1.00  0.00     0.167 HD
ATOM     37  C   UNL A   1      46.586  29.459  26.478  1.00  0.00     0.074 A 
ATOM     38  C   UNL A   1      47.669  30.391  26.235  1.00  0.00     0.031 C 
ATOM     39  C   UNL A   1      46.532  28.205  25.967  1.00  0.00     0.037 A 
BRANCH  26  40
ATOM     40  C   UNL A   1      41.451  25.001  27.474  1.00  0.00     0.064 A 
ATOM     41  C   UNL A   1      41.833  23.795  28.085  1.00  0.00     0.173 A 
ATOM     42  C   UNL A   1      40.293  24.998  26.685  1.00  0.00     0.173 A 
ATOM     43  F   UNL A   1      42.951  23.737  28.824  1.00  0.00    -0.203 F 
ATOM     44  C   UNL A   1      41.106  22.625  27.879  1.00  0.00     0.198 A 
ATOM     45  C   UNL A   1      39.552  23.833  26.504  1.00  0.00     0.198 A 
ATOM     46  F   UNL A   1      39.888  26.122  26.074  1.00  0.00    -0.203 F 
ATOM     47  F   UNL A   1      41.528  21.472  28.415  1.00  0.00    -0.200 F 
ATOM     48  C   UNL A   1      39.965  22.646  27.091  1.00  0.00     0.200 A 
ATOM     49  F   UNL A   1      38.448  23.853  25.744  1.00  0.00    -0.200 F 
ATOM     50  F   UNL A   1      39.273  21.517  26.884  1.00  0.00    -0.200 F 
ENDBRANCH  26  40
BRANCH  27  51
ATOM     51  C   UNL A   1      46.375  33.703  28.528  1.00  0.00     0.064 A 
ATOM     52  C   UNL A   1      46.257  34.734  27.586  1.00  0.00     0.173 A 
ATOM     53  C   UNL A   1      47.234  33.918  29.618  1.00  0.00     0.173 A 
ATOM     54  F   UNL A   1      45.458  34.580  26.520  1.00  0.00    -0.203 F 
ATOM     55  C   UNL A   1      46.994  35.912  27.708  1.00  0.00     0.198 A 
ATOM     56  C   UNL A   1      47.945  35.109  29.756  1.00  0.00     0.198 A 
ATOM     57  F   UNL A   1      47.376  32.972  30.558  1.00  0.00    -0.203 F 
ATOM     58  F   UNL A   1      46.902  36.858  26.763  1.00  0.00    -0.200 F 
ATOM     59  C   UNL A   1      47.835  36.100  28.795  1.00  0.00     0.200 A 
ATOM     60  F   UNL A   1      48.737  35.295  30.821  1.00  0.00    -0.200 F 
ATOM     61  F   UNL A   1      48.541  37.233  28.911  1.00  0.00    -0.200 F 
ENDBRANCH  27  51
BRANCH  39  62
ATOM     62  C   UNL A   1      47.667  27.793  25.080  1.00  0.00     0.064 A 
ATOM     63  C   UNL A   1      48.868  27.302  25.612  1.00  0.00     0.173 A 
ATOM     64  C   UNL A   1      47.537  27.862  23.686  1.00  0.00     0.173 A 
ATOM     65  F   UNL A   1      49.042  27.235  26.940  1.00  0.00    -0.203 F 
ATOM     66  C   UNL A   1      49.913  26.922  24.775  1.00  0.00     0.198 A 
ATOM     67  C   UNL A   1      48.573  27.453  22.853  1.00  0.00     0.198 A 
ATOM     68  F   UNL A   1      46.404  28.321  23.133  1.00  0.00    -0.203 F 
ATOM     69  F   UNL A   1      51.072  26.506  25.303  1.00  0.00    -0.200 F 
ATOM     70  C   UNL A   1      49.762  26.992  23.398  1.00  0.00     0.200 A 
ATOM     71  F   UNL A   1      48.422  27.508  21.523  1.00  0.00    -0.200 F 
ATOM     72  F   UNL A   1      50.768  26.620  22.594  1.00  0.00    -0.200 F 
ENDBRANCH  39  62
ENDBRANCH  13  14
ENDBRANCH   6   8
ENDBRANCH   5   6
ENDBRANCH   4   5
ENDBRANCH   3   4
ENDBRANCH   2   3
ENDBRANCH   1   2
BRANCH   1  73
ATOM     73  C   UNL A   1      33.984  32.435  28.007  1.00  0.00     0.188 C 
BRANCH  73  74
ATOM     74  O   UNL A   1      33.545  31.215  27.419  1.00  0.00    -0.376 OA
BRANCH  74  75
ATOM     75  C   UNL A   1      34.482  30.147  27.374  1.00  0.00     0.202 C 
BRANCH  75  76
ATOM     76  C   UNL A   1      34.223  28.956  26.431  1.00  0.00     0.261 C 
BRANCH  76  77
ATOM     77  O   UNL A   1      33.496  27.823  26.952  1.00  0.00    -0.459 OA
BRANCH  77  78
ATOM     78  C   UNL A   1      32.316  27.567  26.296  1.00  0.00     0.370 C 
ATOM     79  O   UNL A   1      31.217  27.729  26.822  1.00  0.00    -0.245 OA
BRANCH  78  80
ATOM     80  C   UNL A   1      32.536  26.952  24.876  1.00  0.00     0.328 C 
BRANCH  80  81
ATOM     81  N   UNL A   1      31.843  25.633  24.879  1.00  0.00    -0.316 N 
ATOM     82  C   UNL A   1      31.794  24.815  23.661  1.00  0.00     0.284 C 
ATOM     83  C   UNL A   1      32.220  24.789  26.028  1.00  0.00     0.284 C 
ATOM     84  H   UNL A   1      30.884  25.974  24.953  1.00  0.00     0.349 HD
ATOM     85  C   UNL A   1      33.056  23.992  23.349  1.00  0.00     0.178 C 
ATOM     86  C   UNL A   1      33.529  23.996  25.823  1.00  0.00     0.178 C 
ATOM     87  N   UNL A   1      33.540  23.287  24.544  1.00  0.00    -0.360 N 
BRANCH  87  88
ATOM     88  C   UNL A   1      33.609  21.912  24.451  1.00  0.00     0.037 A 
ATOM     89  C   UNL A   1      32.546  21.201  23.874  1.00  0.00     0.026 A 
ATOM     90  C   UNL A   1      34.670  21.186  24.995  1.00  0.00     0.026 A 
ATOM     91  C   UNL A   1      32.529  19.807  23.862  1.00  0.00     0.002 A 
ATOM     92  C   UNL A   1      34.653  19.789  24.998  1.00  0.00     0.002 A 
ATOM     93  C   UNL A   1      33.580  19.100  24.437  1.00  0.00     0.000 A 
ENDBRANCH  87  88
ENDBRANCH  80  81
BRANCH  80  94
ATOM     94  C   UNL A   1      32.107  27.849  23.728  1.00  0.00     0.046 A 
ATOM     95  C   UNL A   1      32.902  28.633  22.909  1.00  0.00     0.094 A 
ATOM     96  C   UNL A   1      30.743  28.162  23.362  1.00  0.00     0.009 A 
ATOM     97  N   UNL A   1      32.101  29.357  22.065  1.00  0.00    -0.361 N 
ATOM     98  C   UNL A   1      30.781  29.150  22.378  1.00  0.00     0.049 A 
ATOM     99  C   UNL A   1      29.474  27.774  23.854  1.00  0.00     0.014 A 
ATOM    100  H   UNL A   1      32.426  29.938  21.339  1.00  0.00     0.166 HD
ATOM    101  C   UNL A   1      29.630  29.770  21.874  1.00  0.00     0.065 A 
ATOM    102  C   UNL A   1      28.313  28.381  23.367  1.00  0.00     0.040 A 
ATOM    103  C   UNL A   1      28.403  29.366  22.395  1.00  0.00     0.125 A 
ATOM    104  F   UNL A   1      27.279  29.930  21.932  1.00  0.00    -0.207 F 
ENDBRANCH  80  94
ENDBRANCH  78  80
ENDBRANCH  77  78
ENDBRANCH  76  77
ENDBRANCH  75  76
ENDBRANCH  74  75
ENDBRANCH  73  74
ENDBRANCH   1  73
TORSDOF 20
ENDMDL
