MODEL 1
REMARK VINA RESULT:     -10.5      0.000      0.000
REMARK SMILES CCn1cccc1C(=O)N(C)c1snc(C)c1C(=O)OCCOCCOCCOC(=O)c1ccc(-c2c3nc(c(-c4c(F)c(F)c(F)c(F)c4F)c4ccc([nH]4)c(-c4c(F)c(F)c(F)c(F)c4F)c4nc(c(-c5c(F)c(F)c(F)c(F)c5F)c5ccc2[nH]5)C=C4)C=C3)cc1
REMARK SMILES IDX 24 1 23 2 22 3 21 4 20 5 18 6 19 7 17 8 12 9 13 10 14 11
REMARK SMILES IDX 15 12 16 13 10 14 11 15 8 16 9 17 7 18 3 19 4 20 5 21 6 22
REMARK SMILES IDX 2 23 1 24 25 25 26 26 27 27 28 28 29 29 30 30 31 31 32 32
REMARK SMILES IDX 33 33 94 34 34 35 93 36 35 37 36 38 37 39 87 40 38 41 92 42
REMARK SMILES IDX 86 43 88 44 39 45 91 46 85 47 84 48 40 50 72 51 52 52 71 53
REMARK SMILES IDX 53 54 56 55 70 56 89 57 54 58 55 59 69 61 90 62 57 63 41 64
REMARK SMILES IDX 42 65 50 66 43 67 44 68 48 69 51 70 45 71 46 72 49 73 47 74
REMARK SMILES IDX 73 75 74 76 82 77 75 78 76 79 80 80 83 81 77 82 78 83 81 84
REMARK SMILES IDX 79 85 58 86 59 87 67 88 60 89 61 90 65 91 68 92 62 93 63 94
REMARK SMILES IDX 66 95 64 96
REMARK H PARENT 88 49 56 60
REMARK Flexibility Score: inf
ROOT
ATOM      1  C   UNL A   1      37.155  23.669  25.565  1.00  0.00     0.188 C 
ENDROOT
BRANCH   1   2
ATOM      2  O   UNL A   1      36.059  23.717  26.459  1.00  0.00    -0.376 OA
BRANCH   2   3
ATOM      3  C   UNL A   1      35.113  22.659  26.367  1.00  0.00     0.202 C 
BRANCH   3   4
ATOM      4  C   UNL A   1      33.679  22.900  26.876  1.00  0.00     0.261 C 
BRANCH   4   5
ATOM      5  O   UNL A   1      32.939  23.894  26.160  1.00  0.00    -0.460 OA
BRANCH   5   6
ATOM      6  C   UNL A   1      32.125  23.474  25.147  1.00  0.00     0.343 C 
ATOM      7  O   UNL A   1      31.253  22.636  25.279  1.00  0.00    -0.246 OA
BRANCH   6   8
ATOM      8  C   UNL A   1      32.260  24.328  23.964  1.00  0.00     0.117 A 
ATOM      9  C   UNL A   1      31.495  25.451  23.622  1.00  0.00     0.133 A 
ATOM     10  S   UNL A   1      31.989  25.937  22.043  1.00  0.00    -0.017 S 
ATOM     11  N   UNL A   1      33.123  24.784  21.806  1.00  0.00    -0.195 NA
ATOM     12  C   UNL A   1      33.159  23.985  22.869  1.00  0.00     0.068 A 
ATOM     13  C   UNL A   1      34.035  22.780  22.752  1.00  0.00     0.069 C 
BRANCH   9  14
ATOM     14  N   UNL A   1      30.453  26.210  24.247  1.00  0.00    -0.300 N 
ATOM     15  C   UNL A   1      29.265  26.601  23.507  1.00  0.00     0.154 C 
BRANCH  14  16
ATOM     16  C   UNL A   1      30.726  26.751  25.522  1.00  0.00     0.275 C 
ATOM     17  O   UNL A   1      30.247  26.161  26.501  1.00  0.00    -0.267 OA
BRANCH  16  18
ATOM     18  C   UNL A   1      31.576  27.942  25.808  1.00  0.00     0.107 A 
ATOM     19  N   UNL A   1      32.259  28.927  25.093  1.00  0.00    -0.344 N 
ATOM     20  C   UNL A   1      32.927  29.771  25.970  1.00  0.00     0.086 A 
ATOM     21  C   UNL A   1      32.618  29.423  27.253  1.00  0.00     0.020 A 
ATOM     22  C   UNL A   1      31.779  28.306  27.153  1.00  0.00     0.033 A 
BRANCH  19  23
ATOM     23  C   UNL A   1      32.338  29.236  23.674  1.00  0.00     0.119 C 
ATOM     24  C   UNL A   1      33.722  28.952  23.088  1.00  0.00     0.027 C 
ENDBRANCH  19  23
ENDBRANCH  16  18
ENDBRANCH  14  16
ENDBRANCH   9  14
ENDBRANCH   6   8
ENDBRANCH   5   6
ENDBRANCH   4   5
ENDBRANCH   3   4
ENDBRANCH   2   3
ENDBRANCH   1   2
BRANCH   1  25
ATOM     25  C   UNL A   1      37.382  22.286  24.919  1.00  0.00     0.188 C 
BRANCH  25  26
ATOM     26  O   UNL A   1      38.038  21.221  25.597  1.00  0.00    -0.376 OA
BRANCH  26  27
ATOM     27  C   UNL A   1      38.191  19.940  25.001  1.00  0.00     0.202 C 
BRANCH  27  28
ATOM     28  C   UNL A   1      39.364  19.029  25.383  1.00  0.00     0.261 C 
BRANCH  28  29
ATOM     29  O   UNL A   1      40.251  19.534  26.367  1.00  0.00    -0.460 OA
BRANCH  29  30
ATOM     30  C   UNL A   1      41.525  19.178  26.120  1.00  0.00     0.338 C 
ATOM     31  O   UNL A   1      41.949  18.095  25.752  1.00  0.00    -0.246 OA
BRANCH  30  32
ATOM     32  C   UNL A   1      42.415  20.286  26.434  1.00  0.00     0.060 A 
ATOM     33  C   UNL A   1      42.279  20.858  27.702  1.00  0.00     0.016 A 
ATOM     34  C   UNL A   1      43.043  20.935  25.367  1.00  0.00     0.016 A 
ATOM     35  C   UNL A   1      42.607  22.183  27.854  1.00  0.00     0.010 A 
ATOM     36  C   UNL A   1      43.335  22.272  25.508  1.00  0.00     0.010 A 
ATOM     37  C   UNL A   1      43.057  22.892  26.735  1.00  0.00    -0.014 A 
BRANCH  37  38
ATOM     38  C   UNL A   1      43.326  24.320  26.898  1.00  0.00     0.031 A 
ATOM     39  C   UNL A   1      42.023  25.109  27.002  1.00  0.00     0.074 A 
ATOM     40  C   UNL A   1      44.650  24.664  26.910  1.00  0.00     0.049 A 
ATOM     41  N   UNL A   1      41.815  26.380  26.893  1.00  0.00    -0.248 NA
ATOM     42  C   UNL A   1      40.744  24.376  27.240  1.00  0.00     0.031 C 
ATOM     43  C   UNL A   1      45.772  23.701  26.811  1.00  0.00     0.029 A 
ATOM     44  N   UNL A   1      45.330  25.860  26.996  1.00  0.00    -0.354 N 
ATOM     45  C   UNL A   1      40.484  26.617  27.290  1.00  0.00     0.074 A 
ATOM     46  C   UNL A   1      39.841  25.346  27.373  1.00  0.00     0.031 C 
ATOM     47  C   UNL A   1      46.959  24.342  26.756  1.00  0.00     0.029 A 
ATOM     48  C   UNL A   1      46.742  25.773  26.849  1.00  0.00     0.049 A 
ATOM     49  H   UNL A   1      44.869  26.717  27.149  1.00  0.00     0.167 HD
ATOM     50  C   UNL A   1      40.050  27.846  27.685  1.00  0.00     0.037 A 
ATOM     51  C   UNL A   1      47.663  26.784  26.783  1.00  0.00     0.037 A 
ATOM     52  C   UNL A   1      41.066  28.816  27.458  1.00  0.00     0.049 A 
ATOM     53  C   UNL A   1      46.917  27.989  27.165  1.00  0.00     0.074 A 
ATOM     54  C   UNL A   1      41.573  29.350  26.305  1.00  0.00     0.029 A 
ATOM     55  N   UNL A   1      41.934  29.066  28.492  1.00  0.00    -0.354 N 
ATOM     56  N   UNL A   1      46.530  28.247  28.379  1.00  0.00    -0.248 NA
ATOM     57  C   UNL A   1      46.504  28.938  26.128  1.00  0.00     0.031 C 
ATOM     58  C   UNL A   1      42.941  29.526  26.591  1.00  0.00     0.029 A 
ATOM     59  C   UNL A   1      43.177  29.273  27.948  1.00  0.00     0.049 A 
ATOM     60  H   UNL A   1      41.707  29.092  29.451  1.00  0.00     0.167 HD
ATOM     61  C   UNL A   1      45.547  29.184  28.174  1.00  0.00     0.074 A 
ATOM     62  C   UNL A   1      45.811  29.784  26.885  1.00  0.00     0.031 C 
ATOM     63  C   UNL A   1      44.337  29.007  28.765  1.00  0.00     0.037 A 
BRANCH  50  64
ATOM     64  C   UNL A   1      38.861  28.256  28.501  1.00  0.00     0.064 A 
ATOM     65  C   UNL A   1      38.096  29.356  28.043  1.00  0.00     0.173 A 
ATOM     66  C   UNL A   1      38.682  27.889  29.842  1.00  0.00     0.173 A 
ATOM     67  F   UNL A   1      38.159  29.749  26.761  1.00  0.00    -0.203 F 
ATOM     68  C   UNL A   1      37.335  30.134  28.909  1.00  0.00     0.198 A 
ATOM     69  C   UNL A   1      37.873  28.641  30.697  1.00  0.00     0.198 A 
ATOM     70  F   UNL A   1      39.361  26.870  30.383  1.00  0.00    -0.203 F 
ATOM     71  F   UNL A   1      36.760  31.259  28.463  1.00  0.00    -0.200 F 
ATOM     72  C   UNL A   1      37.241  29.788  30.243  1.00  0.00     0.200 A 
ATOM     73  F   UNL A   1      37.774  28.297  31.988  1.00  0.00    -0.200 F 
ATOM     74  F   UNL A   1      36.576  30.576  31.098  1.00  0.00    -0.200 F 
ENDBRANCH  50  64
BRANCH  51  75
ATOM     75  C   UNL A   1      49.122  26.994  26.435  1.00  0.00     0.064 A 
ATOM     76  C   UNL A   1      50.180  27.129  27.342  1.00  0.00     0.173 A 
ATOM     77  C   UNL A   1      49.536  26.947  25.070  1.00  0.00     0.173 A 
ATOM     78  F   UNL A   1      49.957  27.291  28.649  1.00  0.00    -0.203 F 
ATOM     79  C   UNL A   1      51.527  27.103  26.929  1.00  0.00     0.198 A 
ATOM     80  C   UNL A   1      50.867  26.868  24.664  1.00  0.00     0.198 A 
ATOM     81  F   UNL A   1      48.652  26.964  24.063  1.00  0.00    -0.203 F 
ATOM     82  F   UNL A   1      52.503  27.227  27.839  1.00  0.00    -0.200 F 
ATOM     83  C   UNL A   1      51.869  26.929  25.599  1.00  0.00     0.200 A 
ATOM     84  F   UNL A   1      51.156  26.705  23.364  1.00  0.00    -0.200 F 
ATOM     85  F   UNL A   1      53.150  26.829  25.220  1.00  0.00    -0.200 F 
ENDBRANCH  51  75
BRANCH  63  86
ATOM     86  C   UNL A   1      44.394  28.146  30.018  1.00  0.00     0.064 A 
ATOM     87  C   UNL A   1      45.036  28.631  31.171  1.00  0.00     0.173 A 
ATOM     88  C   UNL A   1      43.970  26.808  30.073  1.00  0.00     0.173 A 
ATOM     89  F   UNL A   1      45.446  29.908  31.219  1.00  0.00    -0.203 F 
ATOM     90  C   UNL A   1      45.273  27.816  32.281  1.00  0.00     0.198 A 
ATOM     91  C   UNL A   1      44.202  25.991  31.182  1.00  0.00     0.198 A 
ATOM     92  F   UNL A   1      43.305  26.262  29.057  1.00  0.00    -0.203 F 
ATOM     93  F   UNL A   1      45.900  28.316  33.355  1.00  0.00    -0.200 F 
ATOM     94  C   UNL A   1      44.864  26.493  32.284  1.00  0.00     0.200 A 
ATOM     95  F   UNL A   1      43.778  24.716  31.177  1.00  0.00    -0.200 F 
ATOM     96  F   UNL A   1      45.089  25.712  33.350  1.00  0.00    -0.200 F 
ENDBRANCH  63  86
ENDBRANCH  37  38
ENDBRANCH  30  32
ENDBRANCH  29  30
ENDBRANCH  28  29
ENDBRANCH  27  28
ENDBRANCH  26  27
ENDBRANCH  25  26
ENDBRANCH   1  25
TORSDOF 21
ENDMDL
MODEL 2
REMARK VINA RESULT:     -10.3      5.391     10.739
REMARK SMILES CCn1cccc1C(=O)N(C)c1snc(C)c1C(=O)OCCOCCOCCOC(=O)c1ccc(-c2c3nc(c(-c4c(F)c(F)c(F)c(F)c4F)c4ccc([nH]4)c(-c4c(F)c(F)c(F)c(F)c4F)c4nc(c(-c5c(F)c(F)c(F)c(F)c5F)c5ccc2[nH]5)C=C4)C=C3)cc1
REMARK SMILES IDX 24 1 23 2 22 3 21 4 20 5 18 6 19 7 17 8 12 9 13 10 14 11
REMARK SMILES IDX 15 12 16 13 10 14 11 15 8 16 9 17 7 18 3 19 4 20 5 21 6 22
REMARK SMILES IDX 2 23 1 24 25 25 26 26 27 27 28 28 29 29 30 30 31 31 32 32
REMARK SMILES IDX 33 33 94 34 34 35 93 36 35 37 36 38 37 39 87 40 38 41 92 42
REMARK SMILES IDX 86 43 88 44 39 45 91 46 85 47 84 48 40 50 72 51 52 52 71 53
REMARK SMILES IDX 53 54 56 55 70 56 89 57 54 58 55 59 69 61 90 62 57 63 41 64
REMARK SMILES IDX 42 65 50 66 43 67 44 68 48 69 51 70 45 71 46 72 49 73 47 74
REMARK SMILES IDX 73 75 74 76 82 77 75 78 76 79 80 80 83 81 77 82 78 83 81 84
REMARK SMILES IDX 79 85 58 86 59 87 67 88 60 89 61 90 65 91 68 92 62 93 63 94
REMARK SMILES IDX 66 95 64 96
REMARK H PARENT 88 49 56 60
REMARK Flexibility Score: inf
ROOT
ATOM      1  C   UNL A   1      33.833  30.987  27.634  1.00  0.00     0.188 C 
ENDROOT
BRANCH   1   2
ATOM      2  O   UNL A   1      33.005  30.475  26.606  1.00  0.00    -0.376 OA
BRANCH   2   3
ATOM      3  C   UNL A   1      32.303  29.271  26.891  1.00  0.00     0.202 C 
BRANCH   3   4
ATOM      4  C   UNL A   1      31.589  28.539  25.739  1.00  0.00     0.261 C 
BRANCH   4   5
ATOM      5  O   UNL A   1      31.834  27.131  25.669  1.00  0.00    -0.460 OA
BRANCH   5   6
ATOM      6  C   UNL A   1      33.040  26.717  25.181  1.00  0.00     0.343 C 
ATOM      7  O   UNL A   1      33.982  26.394  25.880  1.00  0.00    -0.246 OA
BRANCH   6   8
ATOM      8  C   UNL A   1      32.977  26.471  23.738  1.00  0.00     0.117 A 
ATOM      9  C   UNL A   1      32.514  25.323  23.081  1.00  0.00     0.133 A 
ATOM     10  S   UNL A   1      32.847  25.534  21.401  1.00  0.00    -0.017 S 
ATOM     11  N   UNL A   1      33.538  27.012  21.502  1.00  0.00    -0.195 NA
ATOM     12  C   UNL A   1      33.573  27.390  22.776  1.00  0.00     0.068 A 
ATOM     13  C   UNL A   1      34.316  28.654  23.063  1.00  0.00     0.069 C 
BRANCH   9  14
ATOM     14  N   UNL A   1      31.893  24.096  23.478  1.00  0.00    -0.300 N 
ATOM     15  C   UNL A   1      30.499  24.059  23.886  1.00  0.00     0.154 C 
BRANCH  14  16
ATOM     16  C   UNL A   1      32.737  22.981  23.672  1.00  0.00     0.275 C 
ATOM     17  O   UNL A   1      32.757  22.123  22.778  1.00  0.00    -0.267 OA
BRANCH  16  18
ATOM     18  C   UNL A   1      33.644  22.757  24.834  1.00  0.00     0.107 A 
ATOM     19  N   UNL A   1      34.943  22.304  25.067  1.00  0.00    -0.344 N 
ATOM     20  C   UNL A   1      35.204  22.290  26.430  1.00  0.00     0.086 A 
ATOM     21  C   UNL A   1      34.137  22.818  27.097  1.00  0.00     0.020 A 
ATOM     22  C   UNL A   1      33.183  23.116  26.115  1.00  0.00     0.033 A 
BRANCH  19  23
ATOM     23  C   UNL A   1      36.026  21.921  24.173  1.00  0.00     0.119 C 
ATOM     24  C   UNL A   1      36.670  23.124  23.483  1.00  0.00     0.027 C 
ENDBRANCH  19  23
ENDBRANCH  16  18
ENDBRANCH  14  16
ENDBRANCH   9  14
ENDBRANCH   6   8
ENDBRANCH   5   6
ENDBRANCH   4   5
ENDBRANCH   3   4
ENDBRANCH   2   3
ENDBRANCH   1   2
BRANCH   1  25
ATOM     25  C   UNL A   1      33.740  32.516  27.816  1.00  0.00     0.188 C 
BRANCH  25  26
ATOM     26  O   UNL A   1      34.356  33.198  28.903  1.00  0.00    -0.376 OA
BRANCH  26  27
ATOM     27  C   UNL A   1      34.429  34.616  28.947  1.00  0.00     0.202 C 
BRANCH  27  28
ATOM     28  C   UNL A   1      33.369  35.438  29.692  1.00  0.00     0.261 C 
BRANCH  28  29
ATOM     29  O   UNL A   1      32.763  34.806  30.808  1.00  0.00    -0.460 OA
BRANCH  29  30
ATOM     30  C   UNL A   1      32.883  35.547  31.925  1.00  0.00     0.338 C 
ATOM     31  O   UNL A   1      32.248  36.538  32.247  1.00  0.00    -0.246 OA
BRANCH  30  32
ATOM     32  C   UNL A   1      33.984  35.044  32.734  1.00  0.00     0.060 A 
ATOM     33  C   UNL A   1      35.225  35.662  32.554  1.00  0.00     0.016 A 
ATOM     34  C   UNL A   1      33.837  33.782  33.317  1.00  0.00     0.016 A 
ATOM     35  C   UNL A   1      36.358  34.921  32.786  1.00  0.00     0.010 A 
ATOM     36  C   UNL A   1      34.970  33.027  33.512  1.00  0.00     0.010 A 
ATOM     37  C   UNL A   1      36.213  33.588  33.187  1.00  0.00    -0.014 A 
BRANCH  37  38
ATOM     38  C   UNL A   1      37.428  32.793  33.353  1.00  0.00     0.031 A 
ATOM     39  C   UNL A   1      37.415  31.582  32.423  1.00  0.00     0.074 A 
ATOM     40  C   UNL A   1      38.307  33.262  34.290  1.00  0.00     0.049 A 
ATOM     41  N   UNL A   1      38.149  30.517  32.441  1.00  0.00    -0.248 NA
ATOM     42  C   UNL A   1      36.418  31.527  31.313  1.00  0.00     0.031 C 
ATOM     43  C   UNL A   1      38.115  34.502  35.080  1.00  0.00     0.029 A 
ATOM     44  N   UNL A   1      39.515  32.816  34.783  1.00  0.00    -0.354 N 
ATOM     45  C   UNL A   1      37.891  29.818  31.245  1.00  0.00     0.074 A 
ATOM     46  C   UNL A   1      36.738  30.415  30.652  1.00  0.00     0.031 C 
ATOM     47  C   UNL A   1      39.101  34.657  35.989  1.00  0.00     0.029 A 
ATOM     48  C   UNL A   1      40.049  33.567  35.866  1.00  0.00     0.049 A 
ATOM     49  H   UNL A   1      39.977  32.030  34.410  1.00  0.00     0.167 HD
ATOM     50  C   UNL A   1      38.755  28.893  30.742  1.00  0.00     0.037 A 
ATOM     51  C   UNL A   1      41.162  33.312  36.623  1.00  0.00     0.037 A 
ATOM     52  C   UNL A   1      39.799  28.644  31.677  1.00  0.00     0.049 A 
ATOM     53  C   UNL A   1      41.853  32.231  35.910  1.00  0.00     0.074 A 
ATOM     54  C   UNL A   1      39.803  28.010  32.889  1.00  0.00     0.029 A 
ATOM     55  N   UNL A   1      40.937  29.404  31.560  1.00  0.00    -0.354 N 
ATOM     56  N   UNL A   1      42.494  32.395  34.791  1.00  0.00    -0.248 NA
ATOM     57  C   UNL A   1      41.770  30.861  36.426  1.00  0.00     0.031 C 
ATOM     58  C   UNL A   1      40.729  28.748  33.651  1.00  0.00     0.029 A 
ATOM     59  C   UNL A   1      41.385  29.673  32.829  1.00  0.00     0.049 A 
ATOM     60  H   UNL A   1      41.356  29.702  30.719  1.00  0.00     0.167 HD
ATOM     61  C   UNL A   1      42.573  31.109  34.315  1.00  0.00     0.074 A 
ATOM     62  C   UNL A   1      42.435  30.235  35.458  1.00  0.00     0.031 C 
ATOM     63  C   UNL A   1      42.185  30.857  33.037  1.00  0.00     0.037 A 
BRANCH  50  64
ATOM     64  C   UNL A   1      38.909  28.338  29.358  1.00  0.00     0.064 A 
ATOM     65  C   UNL A   1      39.062  26.936  29.224  1.00  0.00     0.173 A 
ATOM     66  C   UNL A   1      39.288  29.114  28.253  1.00  0.00     0.173 A 
ATOM     67  F   UNL A   1      38.678  26.107  30.207  1.00  0.00    -0.203 F 
ATOM     68  C   UNL A   1      39.703  26.369  28.128  1.00  0.00     0.198 A 
ATOM     69  C   UNL A   1      39.881  28.533  27.130  1.00  0.00     0.198 A 
ATOM     70  F   UNL A   1      39.194  30.449  28.274  1.00  0.00    -0.203 F 
ATOM     71  F   UNL A   1      39.971  25.055  28.120  1.00  0.00    -0.200 F 
ATOM     72  C   UNL A   1      40.133  27.171  27.090  1.00  0.00     0.200 A 
ATOM     73  F   UNL A   1      40.287  29.312  26.119  1.00  0.00    -0.200 F 
ATOM     74  F   UNL A   1      40.821  26.641  26.070  1.00  0.00    -0.200 F 
ENDBRANCH  50  64
BRANCH  51  75
ATOM     75  C   UNL A   1      41.819  33.785  37.902  1.00  0.00     0.064 A 
ATOM     76  C   UNL A   1      41.397  33.500  39.207  1.00  0.00     0.173 A 
ATOM     77  C   UNL A   1      43.052  34.501  37.840  1.00  0.00     0.173 A 
ATOM     78  F   UNL A   1      40.214  32.927  39.443  1.00  0.00    -0.203 F 
ATOM     79  C   UNL A   1      42.190  33.800  40.332  1.00  0.00     0.198 A 
ATOM     80  C   UNL A   1      43.862  34.752  38.947  1.00  0.00     0.198 A 
ATOM     81  F   UNL A   1      43.532  34.981  36.685  1.00  0.00    -0.203 F 
ATOM     82  F   UNL A   1      41.743  33.497  41.559  1.00  0.00    -0.200 F 
ATOM     83  C   UNL A   1      43.438  34.384  40.198  1.00  0.00     0.200 A 
ATOM     84  F   UNL A   1      45.063  35.324  38.774  1.00  0.00    -0.200 F 
ATOM     85  F   UNL A   1      44.221  34.598  41.264  1.00  0.00    -0.200 F 
ENDBRANCH  51  75
BRANCH  63  86
ATOM     86  C   UNL A   1      42.275  32.072  32.126  1.00  0.00     0.064 A 
ATOM     87  C   UNL A   1      43.523  32.669  31.876  1.00  0.00     0.173 A 
ATOM     88  C   UNL A   1      41.159  32.753  31.611  1.00  0.00     0.173 A 
ATOM     89  F   UNL A   1      44.646  32.070  32.302  1.00  0.00    -0.203 F 
ATOM     90  C   UNL A   1      43.636  33.885  31.197  1.00  0.00     0.198 A 
ATOM     91  C   UNL A   1      41.268  33.967  30.929  1.00  0.00     0.198 A 
ATOM     92  F   UNL A   1      39.934  32.250  31.744  1.00  0.00    -0.203 F 
ATOM     93  F   UNL A   1      44.846  34.425  30.992  1.00  0.00    -0.200 F 
ATOM     94  C   UNL A   1      42.509  34.539  30.731  1.00  0.00     0.200 A 
ATOM     95  F   UNL A   1      40.166  34.577  30.464  1.00  0.00    -0.200 F 
ATOM     96  F   UNL A   1      42.617  35.705  30.078  1.00  0.00    -0.200 F 
ENDBRANCH  63  86
ENDBRANCH  37  38
ENDBRANCH  30  32
ENDBRANCH  29  30
ENDBRANCH  28  29
ENDBRANCH  27  28
ENDBRANCH  26  27
ENDBRANCH  25  26
ENDBRANCH   1  25
TORSDOF 21
ENDMDL
MODEL 3
REMARK VINA RESULT:     -10.0      3.807      8.764
REMARK SMILES CCn1cccc1C(=O)N(C)c1snc(C)c1C(=O)OCCOCCOCCOC(=O)c1ccc(-c2c3nc(c(-c4c(F)c(F)c(F)c(F)c4F)c4ccc([nH]4)c(-c4c(F)c(F)c(F)c(F)c4F)c4nc(c(-c5c(F)c(F)c(F)c(F)c5F)c5ccc2[nH]5)C=C4)C=C3)cc1
REMARK SMILES IDX 24 1 23 2 22 3 21 4 20 5 18 6 19 7 17 8 12 9 13 10 14 11
REMARK SMILES IDX 15 12 16 13 10 14 11 15 8 16 9 17 7 18 3 19 4 20 5 21 6 22
REMARK SMILES IDX 2 23 1 24 25 25 26 26 27 27 28 28 29 29 30 30 31 31 32 32
REMARK SMILES IDX 33 33 94 34 34 35 93 36 35 37 36 38 37 39 87 40 38 41 92 42
REMARK SMILES IDX 86 43 88 44 39 45 91 46 85 47 84 48 40 50 72 51 52 52 71 53
REMARK SMILES IDX 53 54 56 55 70 56 89 57 54 58 55 59 69 61 90 62 57 63 41 64
REMARK SMILES IDX 42 65 50 66 43 67 44 68 48 69 51 70 45 71 46 72 49 73 47 74
REMARK SMILES IDX 73 75 74 76 82 77 75 78 76 79 80 80 83 81 77 82 78 83 81 84
REMARK SMILES IDX 79 85 58 86 59 87 67 88 60 89 61 90 65 91 68 92 62 93 63 94
REMARK SMILES IDX 66 95 64 96
REMARK H PARENT 88 49 56 60
REMARK Flexibility Score: inf
ROOT
ATOM      1  C   UNL A   1      39.436  23.681  27.203  1.00  0.00     0.188 C 
ENDROOT
BRANCH   1   2
ATOM      2  O   UNL A   1      38.532  24.187  26.238  1.00  0.00    -0.376 OA
BRANCH   2   3
ATOM      3  C   UNL A   1      37.206  23.676  26.275  1.00  0.00     0.202 C 
BRANCH   3   4
ATOM      4  C   UNL A   1      36.434  23.522  24.950  1.00  0.00     0.261 C 
BRANCH   4   5
ATOM      5  O   UNL A   1      35.110  24.065  24.952  1.00  0.00    -0.460 OA
BRANCH   5   6
ATOM      6  C   UNL A   1      34.097  23.275  24.490  1.00  0.00     0.343 C 
ATOM      7  O   UNL A   1      34.198  22.531  23.533  1.00  0.00    -0.246 OA
BRANCH   6   8
ATOM      8  C   UNL A   1      32.971  23.247  25.426  1.00  0.00     0.117 A 
ATOM      9  C   UNL A   1      31.785  23.992  25.369  1.00  0.00     0.133 A 
ATOM     10  S   UNL A   1      30.918  23.676  26.825  1.00  0.00    -0.017 S 
ATOM     11  N   UNL A   1      31.990  22.638  27.494  1.00  0.00    -0.195 NA
ATOM     12  C   UNL A   1      33.035  22.509  26.682  1.00  0.00     0.068 A 
ATOM     13  C   UNL A   1      34.183  21.715  27.214  1.00  0.00     0.069 C 
BRANCH   9  14
ATOM     14  N   UNL A   1      31.196  24.910  24.440  1.00  0.00    -0.300 N 
ATOM     15  C   UNL A   1      30.753  24.468  23.129  1.00  0.00     0.154 C 
BRANCH  14  16
ATOM     16  C   UNL A   1      31.271  26.283  24.758  1.00  0.00     0.275 C 
ATOM     17  O   UNL A   1      31.793  26.587  25.840  1.00  0.00    -0.267 OA
BRANCH  16  18
ATOM     18  C   UNL A   1      30.821  27.411  23.893  1.00  0.00     0.107 A 
ATOM     19  N   UNL A   1      31.384  28.508  23.239  1.00  0.00    -0.344 N 
ATOM     20  C   UNL A   1      30.392  29.240  22.599  1.00  0.00     0.086 A 
ATOM     21  C   UNL A   1      29.198  28.592  22.735  1.00  0.00     0.020 A 
ATOM     22  C   UNL A   1      29.464  27.462  23.520  1.00  0.00     0.033 A 
BRANCH  19  23
ATOM     23  C   UNL A   1      32.758  28.957  23.076  1.00  0.00     0.119 C 
ATOM     24  C   UNL A   1      33.633  27.922  22.368  1.00  0.00     0.027 C 
ENDBRANCH  19  23
ENDBRANCH  16  18
ENDBRANCH  14  16
ENDBRANCH   9  14
ENDBRANCH   6   8
ENDBRANCH   5   6
ENDBRANCH   4   5
ENDBRANCH   3   4
ENDBRANCH   2   3
ENDBRANCH   1   2
BRANCH   1  25
ATOM     25  C   UNL A   1      40.105  22.349  26.802  1.00  0.00     0.188 C 
BRANCH  25  26
ATOM     26  O   UNL A   1      41.506  22.128  26.921  1.00  0.00    -0.376 OA
BRANCH  26  27
ATOM     27  C   UNL A   1      42.302  21.775  25.799  1.00  0.00     0.202 C 
BRANCH  27  28
ATOM     28  C   UNL A   1      43.058  22.844  25.001  1.00  0.00     0.261 C 
BRANCH  28  29
ATOM     29  O   UNL A   1      42.721  24.191  25.289  1.00  0.00    -0.460 OA
BRANCH  29  30
ATOM     30  C   UNL A   1      43.815  24.945  25.503  1.00  0.00     0.338 C 
ATOM     31  O   UNL A   1      44.828  25.015  24.826  1.00  0.00    -0.246 OA
BRANCH  30  32
ATOM     32  C   UNL A   1      43.680  25.664  26.761  1.00  0.00     0.060 A 
ATOM     33  C   UNL A   1      42.848  25.088  27.725  1.00  0.00     0.016 A 
ATOM     34  C   UNL A   1      44.050  27.012  26.779  1.00  0.00     0.016 A 
ATOM     35  C   UNL A   1      42.218  25.919  28.619  1.00  0.00     0.010 A 
ATOM     36  C   UNL A   1      43.389  27.849  27.649  1.00  0.00     0.010 A 
ATOM     37  C   UNL A   1      42.437  27.297  28.517  1.00  0.00    -0.014 A 
BRANCH  37  38
ATOM     38  C   UNL A   1      41.698  28.171  29.426  1.00  0.00     0.031 A 
ATOM     39  C   UNL A   1      42.361  28.210  30.801  1.00  0.00     0.074 A 
ATOM     40  C   UNL A   1      40.582  28.755  28.891  1.00  0.00     0.049 A 
ATOM     41  N   UNL A   1      41.899  28.637  31.930  1.00  0.00    -0.248 NA
ATOM     42  C   UNL A   1      43.744  27.670  30.958  1.00  0.00     0.031 C 
ATOM     43  C   UNL A   1      40.131  28.584  27.490  1.00  0.00     0.029 A 
ATOM     44  N   UNL A   1      39.603  29.589  29.389  1.00  0.00    -0.354 N 
ATOM     45  C   UNL A   1      42.976  28.657  32.837  1.00  0.00     0.074 A 
ATOM     46  C   UNL A   1      44.050  27.942  32.226  1.00  0.00     0.031 C 
ATOM     47  C   UNL A   1      38.950  29.205  27.281  1.00  0.00     0.029 A 
ATOM     48  C   UNL A   1      38.530  29.870  28.499  1.00  0.00     0.049 A 
ATOM     49  H   UNL A   1      39.644  29.964  30.298  1.00  0.00     0.167 HD
ATOM     50  C   UNL A   1      42.961  29.413  33.970  1.00  0.00     0.037 A 
ATOM     51  C   UNL A   1      37.376  30.569  28.738  1.00  0.00     0.037 A 
ATOM     52  C   UNL A   1      41.672  29.989  34.152  1.00  0.00     0.049 A 
ATOM     53  C   UNL A   1      37.593  31.204  30.043  1.00  0.00     0.074 A 
ATOM     54  C   UNL A   1      40.467  29.434  34.488  1.00  0.00     0.029 A 
ATOM     55  N   UNL A   1      41.463  31.236  33.617  1.00  0.00    -0.354 N 
ATOM     56  N   UNL A   1      38.393  32.210  30.235  1.00  0.00    -0.248 NA
ATOM     57  C   UNL A   1      36.940  30.647  31.231  1.00  0.00     0.031 C 
ATOM     58  C   UNL A   1      39.535  30.182  33.741  1.00  0.00     0.029 A 
ATOM     59  C   UNL A   1      40.178  31.268  33.136  1.00  0.00     0.049 A 
ATOM     60  H   UNL A   1      42.116  31.973  33.584  1.00  0.00     0.167 HD
ATOM     61  C   UNL A   1      38.596  32.160  31.593  1.00  0.00     0.074 A 
ATOM     62  C   UNL A   1      37.470  31.447  32.153  1.00  0.00     0.031 C 
ATOM     63  C   UNL A   1      39.869  32.190  32.068  1.00  0.00     0.037 A 
BRANCH  50  64
ATOM     64  C   UNL A   1      44.076  29.906  34.842  1.00  0.00     0.064 A 
ATOM     65  C   UNL A   1      43.972  29.678  36.236  1.00  0.00     0.173 A 
ATOM     66  C   UNL A   1      44.997  30.883  34.438  1.00  0.00     0.173 A 
ATOM     67  F   UNL A   1      43.157  28.726  36.717  1.00  0.00    -0.203 F 
ATOM     68  C   UNL A   1      44.620  30.487  37.163  1.00  0.00     0.198 A 
ATOM     69  C   UNL A   1      45.689  31.656  35.374  1.00  0.00     0.198 A 
ATOM     70  F   UNL A   1      45.171  31.186  33.146  1.00  0.00    -0.203 F 
ATOM     71  F   UNL A   1      44.365  30.338  38.471  1.00  0.00    -0.200 F 
ATOM     72  C   UNL A   1      45.463  31.491  36.731  1.00  0.00     0.200 A 
ATOM     73  F   UNL A   1      46.515  32.623  34.952  1.00  0.00    -0.200 F 
ATOM     74  F   UNL A   1      46.028  32.324  37.615  1.00  0.00    -0.200 F 
ENDBRANCH  50  64
BRANCH  51  75
ATOM     75  C   UNL A   1      36.034  30.834  28.089  1.00  0.00     0.064 A 
ATOM     76  C   UNL A   1      35.125  29.868  27.639  1.00  0.00     0.173 A 
ATOM     77  C   UNL A   1      35.544  32.172  28.001  1.00  0.00     0.173 A 
ATOM     78  F   UNL A   1      35.466  28.580  27.558  1.00  0.00    -0.203 F 
ATOM     79  C   UNL A   1      33.812  30.202  27.248  1.00  0.00     0.198 A 
ATOM     80  C   UNL A   1      34.230  32.497  27.666  1.00  0.00     0.198 A 
ATOM     81  F   UNL A   1      36.328  33.229  28.253  1.00  0.00    -0.203 F 
ATOM     82  F   UNL A   1      32.978  29.237  26.833  1.00  0.00    -0.200 F 
ATOM     83  C   UNL A   1      33.354  31.507  27.304  1.00  0.00     0.200 A 
ATOM     84  F   UNL A   1      33.827  33.775  27.728  1.00  0.00    -0.200 F 
ATOM     85  F   UNL A   1      32.083  31.808  27.005  1.00  0.00    -0.200 F 
ENDBRANCH  51  75
BRANCH  63  86
ATOM     86  C   UNL A   1      40.855  32.855  31.120  1.00  0.00     0.064 A 
ATOM     87  C   UNL A   1      40.640  34.180  30.704  1.00  0.00     0.173 A 
ATOM     88  C   UNL A   1      41.919  32.184  30.495  1.00  0.00     0.173 A 
ATOM     89  F   UNL A   1      39.666  34.908  31.271  1.00  0.00    -0.203 F 
ATOM     90  C   UNL A   1      41.411  34.773  29.700  1.00  0.00     0.198 A 
ATOM     91  C   UNL A   1      42.695  32.773  29.493  1.00  0.00     0.198 A 
ATOM     92  F   UNL A   1      42.244  30.943  30.850  1.00  0.00    -0.203 F 
ATOM     93  F   UNL A   1      41.163  36.035  29.325  1.00  0.00    -0.200 F 
ATOM     94  C   UNL A   1      42.433  34.067  29.087  1.00  0.00     0.200 A 
ATOM     95  F   UNL A   1      43.697  32.082  28.926  1.00  0.00    -0.200 F 
ATOM     96  F   UNL A   1      43.174  34.635  28.126  1.00  0.00    -0.200 F 
ENDBRANCH  63  86
ENDBRANCH  37  38
ENDBRANCH  30  32
ENDBRANCH  29  30
ENDBRANCH  28  29
ENDBRANCH  27  28
ENDBRANCH  26  27
ENDBRANCH  25  26
ENDBRANCH   1  25
TORSDOF 21
ENDMDL
