MODEL 1
REMARK VINA RESULT:      -9.5      0.000      0.000
REMARK SMILES CCCN(CCC)c1cc(C(=O)OCCOCCOCCOC(=O)c2ccc(-c3c4nc(c(-c5c(F)c(F)c(F)c(F)c5F)c5ccc([nH]5)c(-c5c(F)c(F)c(F)c(F)c5F)c5nc(c(-c6c(F)c(F)c(F)c(F)c6F)c6ccc3[nH]6)C=C5)C=C4)cc2)cc(C(F)(F)F)c1
REMARK SMILES IDX 17 1 16 2 15 3 14 4 13 5 11 6 12 7 10 8 8 9 9 10 94 11 89 12
REMARK SMILES IDX 88 13 4 14 3 15 2 16 1 17 5 18 6 19 7 20 90 21 91 22 92 23
REMARK SMILES IDX 93 24 18 25 19 26 20 27 21 28 22 29 23 30 24 31 25 32 26 33
REMARK SMILES IDX 87 34 27 35 86 36 28 37 29 38 30 39 80 40 31 41 85 42 79 43
REMARK SMILES IDX 81 44 32 45 84 46 78 47 77 48 33 50 65 51 45 52 64 53 46 54
REMARK SMILES IDX 49 55 63 56 82 57 47 58 48 59 62 61 83 62 50 63 34 64 35 65
REMARK SMILES IDX 43 66 36 67 37 68 41 69 44 70 38 71 39 72 42 73 40 74 66 75
REMARK SMILES IDX 67 76 75 77 68 78 69 79 73 80 76 81 70 82 71 83 74 84 72 85
REMARK SMILES IDX 51 86 52 87 60 88 53 89 54 90 58 91 61 92 55 93 56 94 59 95
REMARK SMILES IDX 57 96
REMARK H PARENT 81 49 49 60
REMARK Flexibility Score: inf
ROOT
ATOM      1  C   UNL A   1      41.548  21.838  26.155  1.00  0.00     0.188 C 
ENDROOT
BRANCH   1   2
ATOM      2  O   UNL A   1      40.267  21.461  25.688  1.00  0.00    -0.376 OA
BRANCH   2   3
ATOM      3  C   UNL A   1      39.115  22.154  26.154  1.00  0.00     0.202 C 
BRANCH   3   4
ATOM      4  C   UNL A   1      37.818  22.145  25.341  1.00  0.00     0.261 C 
BRANCH   4   5
ATOM      5  O   UNL A   1      37.193  23.437  25.281  1.00  0.00    -0.460 OA
BRANCH   5   6
ATOM      6  C   UNL A   1      36.212  23.562  24.342  1.00  0.00     0.338 C 
ATOM      7  O   UNL A   1      36.251  23.196  23.193  1.00  0.00    -0.246 OA
BRANCH   6   8
ATOM      8  C   UNL A   1      34.974  24.026  25.014  1.00  0.00     0.062 A 
ATOM      9  C   UNL A   1      33.432  25.893  25.316  1.00  0.00     0.038 A 
ATOM     10  C   UNL A   1      34.672  25.390  24.927  1.00  0.00     0.041 A 
ATOM     11  C   UNL A   1      32.565  25.005  25.952  1.00  0.00     0.039 A 
ATOM     12  C   UNL A   1      32.879  23.645  26.141  1.00  0.00     0.058 A 
ATOM     13  C   UNL A   1      34.080  23.147  25.622  1.00  0.00     0.029 A 
BRANCH   9  14
ATOM     14  N   UNL A   1      33.058  27.188  25.008  1.00  0.00    -0.372 N 
BRANCH  14  15
ATOM     15  C   UNL A   1      32.176  27.481  23.872  1.00  0.00     0.116 C 
BRANCH  15  16
ATOM     16  C   UNL A   1      31.907  28.977  23.646  1.00  0.00     0.018 C 
ATOM     17  C   UNL A   1      30.502  29.439  24.018  1.00  0.00     0.006 C 
ENDBRANCH  15  16
ENDBRANCH  14  15
BRANCH  14  18
ATOM     18  C   UNL A   1      33.694  28.299  25.730  1.00  0.00     0.116 C 
BRANCH  18  19
ATOM     19  C   UNL A   1      33.308  28.379  27.212  1.00  0.00     0.018 C 
ATOM     20  C   UNL A   1      31.806  28.409  27.464  1.00  0.00     0.006 C 
ENDBRANCH  18  19
ENDBRANCH  14  18
ENDBRANCH   9  14
BRANCH  12  21
ATOM     21  C   UNL A   1      31.913  22.732  26.851  1.00  0.00     0.416 C 
ATOM     22  F   UNL A   1      30.692  23.301  27.032  1.00  0.00    -0.166 F 
ATOM     23  F   UNL A   1      31.693  21.577  26.162  1.00  0.00    -0.166 F 
ATOM     24  F   UNL A   1      32.337  22.349  28.088  1.00  0.00    -0.166 F 
ENDBRANCH  12  21
ENDBRANCH   6   8
ENDBRANCH   5   6
ENDBRANCH   4   5
ENDBRANCH   3   4
ENDBRANCH   2   3
ENDBRANCH   1   2
BRANCH   1  25
ATOM     25  C   UNL A   1      42.225  21.061  27.302  1.00  0.00     0.188 C 
BRANCH  25  26
ATOM     26  O   UNL A   1      41.867  19.730  27.609  1.00  0.00    -0.376 OA
BRANCH  26  27
ATOM     27  C   UNL A   1      42.664  18.646  27.160  1.00  0.00     0.202 C 
BRANCH  27  28
ATOM     28  C   UNL A   1      43.100  18.494  25.699  1.00  0.00     0.261 C 
BRANCH  28  29
ATOM     29  O   UNL A   1      44.453  18.869  25.422  1.00  0.00    -0.460 OA
BRANCH  29  30
ATOM     30  C   UNL A   1      44.618  19.560  24.268  1.00  0.00     0.338 C 
ATOM     31  O   UNL A   1      44.404  19.180  23.131  1.00  0.00    -0.246 OA
BRANCH  30  32
ATOM     32  C   UNL A   1      44.964  20.955  24.584  1.00  0.00     0.060 A 
ATOM     33  C   UNL A   1      45.593  21.216  25.807  1.00  0.00     0.016 A 
ATOM     34  C   UNL A   1      44.617  21.998  23.723  1.00  0.00     0.016 A 
ATOM     35  C   UNL A   1      45.866  22.530  26.181  1.00  0.00     0.010 A 
ATOM     36  C   UNL A   1      44.870  23.316  24.109  1.00  0.00     0.010 A 
ATOM     37  C   UNL A   1      45.480  23.589  25.346  1.00  0.00    -0.014 A 
BRANCH  37  38
ATOM     38  C   UNL A   1      45.578  24.982  25.837  1.00  0.00     0.031 A 
ATOM     39  C   UNL A   1      46.900  25.682  25.756  1.00  0.00     0.074 A 
ATOM     40  C   UNL A   1      44.505  25.618  26.337  1.00  0.00     0.049 A 
ATOM     41  N   UNL A   1      47.233  26.875  26.175  1.00  0.00    -0.248 NA
ATOM     42  C   UNL A   1      47.999  24.932  25.126  1.00  0.00     0.031 C 
ATOM     43  C   UNL A   1      43.169  25.046  26.442  1.00  0.00     0.029 A 
ATOM     44  N   UNL A   1      44.370  26.885  26.849  1.00  0.00    -0.354 N 
ATOM     45  C   UNL A   1      48.578  27.015  25.873  1.00  0.00     0.074 A 
ATOM     46  C   UNL A   1      49.003  25.787  25.235  1.00  0.00     0.031 C 
ATOM     47  C   UNL A   1      42.336  25.966  26.954  1.00  0.00     0.029 A 
ATOM     48  C   UNL A   1      43.098  27.168  27.284  1.00  0.00     0.049 A 
ATOM     49  H   UNL A   1      45.113  27.528  26.899  1.00  0.00     0.167 HD
ATOM     50  C   UNL A   1      49.390  28.070  26.121  1.00  0.00     0.037 A 
ATOM     51  C   UNL A   1      42.619  28.259  27.914  1.00  0.00     0.037 A 
ATOM     52  C   UNL A   1      48.973  29.272  26.790  1.00  0.00     0.049 A 
ATOM     53  C   UNL A   1      43.565  29.386  28.248  1.00  0.00     0.074 A 
ATOM     54  C   UNL A   1      49.730  30.385  27.112  1.00  0.00     0.029 A 
ATOM     55  N   UNL A   1      47.688  29.512  27.253  1.00  0.00    -0.354 N 
ATOM     56  N   UNL A   1      44.837  29.515  27.958  1.00  0.00    -0.248 NA
ATOM     57  C   UNL A   1      43.012  30.510  29.018  1.00  0.00     0.031 C 
ATOM     58  C   UNL A   1      48.914  31.277  27.816  1.00  0.00     0.029 A 
ATOM     59  C   UNL A   1      47.635  30.747  27.879  1.00  0.00     0.049 A 
ATOM     60  H   UNL A   1      46.927  28.896  27.152  1.00  0.00     0.167 HD
ATOM     61  C   UNL A   1      45.230  30.738  28.489  1.00  0.00     0.074 A 
ATOM     62  C   UNL A   1      44.057  31.321  29.104  1.00  0.00     0.031 C 
ATOM     63  C   UNL A   1      46.453  31.322  28.470  1.00  0.00     0.037 A 
BRANCH  50  64
ATOM     64  C   UNL A   1      50.826  27.934  25.715  1.00  0.00     0.064 A 
ATOM     65  C   UNL A   1      51.822  27.578  26.636  1.00  0.00     0.173 A 
ATOM     66  C   UNL A   1      51.208  28.161  24.385  1.00  0.00     0.173 A 
ATOM     67  F   UNL A   1      51.508  27.373  27.924  1.00  0.00    -0.203 F 
ATOM     68  C   UNL A   1      53.154  27.474  26.243  1.00  0.00     0.198 A 
ATOM     69  C   UNL A   1      52.536  28.031  23.990  1.00  0.00     0.198 A 
ATOM     70  F   UNL A   1      50.293  28.508  23.467  1.00  0.00    -0.203 F 
ATOM     71  F   UNL A   1      54.097  27.180  27.148  1.00  0.00    -0.200 F 
ATOM     72  C   UNL A   1      53.508  27.695  24.919  1.00  0.00     0.200 A 
ATOM     73  F   UNL A   1      52.876  28.236  22.710  1.00  0.00    -0.200 F 
ATOM     74  F   UNL A   1      54.791  27.595  24.543  1.00  0.00    -0.200 F 
ENDBRANCH  50  64
BRANCH  51  75
ATOM     75  C   UNL A   1      41.189  28.332  28.316  1.00  0.00     0.064 A 
ATOM     76  C   UNL A   1      40.227  28.896  27.465  1.00  0.00     0.173 A 
ATOM     77  C   UNL A   1      40.758  27.881  29.572  1.00  0.00     0.173 A 
ATOM     78  F   UNL A   1      40.592  29.373  26.265  1.00  0.00    -0.203 F 
ATOM     79  C   UNL A   1      38.897  29.026  27.863  1.00  0.00     0.198 A 
ATOM     80  C   UNL A   1      39.422  27.981  29.957  1.00  0.00     0.198 A 
ATOM     81  F   UNL A   1      41.637  27.341  30.429  1.00  0.00    -0.203 F 
ATOM     82  F   UNL A   1      38.013  29.622  27.053  1.00  0.00    -0.200 F 
ATOM     83  C   UNL A   1      38.495  28.562  29.107  1.00  0.00     0.200 A 
ATOM     84  F   UNL A   1      39.037  27.523  31.156  1.00  0.00    -0.200 F 
ATOM     85  F   UNL A   1      37.218  28.689  29.490  1.00  0.00    -0.200 F 
ENDBRANCH  51  75
BRANCH  63  86
ATOM     86  C   UNL A   1      46.582  32.683  29.089  1.00  0.00     0.064 A 
ATOM     87  C   UNL A   1      46.960  32.855  30.429  1.00  0.00     0.173 A 
ATOM     88  C   UNL A   1      46.383  33.834  28.310  1.00  0.00     0.173 A 
ATOM     89  F   UNL A   1      47.149  31.788  31.219  1.00  0.00    -0.203 F 
ATOM     90  C   UNL A   1      47.118  34.129  30.970  1.00  0.00     0.198 A 
ATOM     91  C   UNL A   1      46.570  35.105  28.846  1.00  0.00     0.198 A 
ATOM     92  F   UNL A   1      46.026  33.724  27.022  1.00  0.00    -0.203 F 
ATOM     93  F   UNL A   1      47.441  34.271  32.262  1.00  0.00    -0.200 F 
ATOM     94  C   UNL A   1      46.931  35.252  30.177  1.00  0.00     0.200 A 
ATOM     95  F   UNL A   1      46.404  36.187  28.074  1.00  0.00    -0.200 F 
ATOM     96  F   UNL A   1      47.097  36.476  30.696  1.00  0.00    -0.200 F 
ENDBRANCH  63  86
ENDBRANCH  37  38
ENDBRANCH  30  32
ENDBRANCH  29  30
ENDBRANCH  28  29
ENDBRANCH  27  28
ENDBRANCH  26  27
ENDBRANCH  25  26
ENDBRANCH   1  25
TORSDOF 23
ENDMDL
MODEL 2
REMARK VINA RESULT:      -9.5      5.141      7.688
REMARK SMILES CCCN(CCC)c1cc(C(=O)OCCOCCOCCOC(=O)c2ccc(-c3c4nc(c(-c5c(F)c(F)c(F)c(F)c5F)c5ccc([nH]5)c(-c5c(F)c(F)c(F)c(F)c5F)c5nc(c(-c6c(F)c(F)c(F)c(F)c6F)c6ccc3[nH]6)C=C5)C=C4)cc2)cc(C(F)(F)F)c1
REMARK SMILES IDX 17 1 16 2 15 3 14 4 13 5 11 6 12 7 10 8 8 9 9 10 94 11 89 12
REMARK SMILES IDX 88 13 4 14 3 15 2 16 1 17 5 18 6 19 7 20 90 21 91 22 92 23
REMARK SMILES IDX 93 24 18 25 19 26 20 27 21 28 22 29 23 30 24 31 25 32 26 33
REMARK SMILES IDX 87 34 27 35 86 36 28 37 29 38 30 39 80 40 31 41 85 42 79 43
REMARK SMILES IDX 81 44 32 45 84 46 78 47 77 48 33 50 65 51 45 52 64 53 46 54
REMARK SMILES IDX 49 55 63 56 82 57 47 58 48 59 62 61 83 62 50 63 34 64 35 65
REMARK SMILES IDX 43 66 36 67 37 68 41 69 44 70 38 71 39 72 42 73 40 74 66 75
REMARK SMILES IDX 67 76 75 77 68 78 69 79 73 80 76 81 70 82 71 83 74 84 72 85
REMARK SMILES IDX 51 86 52 87 60 88 53 89 54 90 58 91 61 92 55 93 56 94 59 95
REMARK SMILES IDX 57 96
REMARK H PARENT 81 49 49 60
REMARK Flexibility Score: inf
ROOT
ATOM      1  C   UNL A   1      41.270  20.387  26.499  1.00  0.00     0.188 C 
ENDROOT
BRANCH   1   2
ATOM      2  O   UNL A   1      39.928  20.321  26.054  1.00  0.00    -0.376 OA
BRANCH   2   3
ATOM      3  C   UNL A   1      39.131  21.500  26.043  1.00  0.00     0.202 C 
BRANCH   3   4
ATOM      4  C   UNL A   1      37.865  21.576  25.185  1.00  0.00     0.261 C 
BRANCH   4   5
ATOM      5  O   UNL A   1      36.754  22.155  25.887  1.00  0.00    -0.460 OA
BRANCH   5   6
ATOM      6  C   UNL A   1      36.716  23.518  25.887  1.00  0.00     0.338 C 
ATOM      7  O   UNL A   1      37.631  24.273  26.104  1.00  0.00    -0.246 OA
BRANCH   6   8
ATOM      8  C   UNL A   1      35.404  23.951  25.348  1.00  0.00     0.062 A 
ATOM      9  C   UNL A   1      33.179  23.224  24.656  1.00  0.00     0.038 A 
ATOM     10  C   UNL A   1      34.512  22.946  24.955  1.00  0.00     0.041 A 
ATOM     11  C   UNL A   1      32.815  24.570  24.602  1.00  0.00     0.039 A 
ATOM     12  C   UNL A   1      33.716  25.610  24.899  1.00  0.00     0.058 A 
ATOM     13  C   UNL A   1      35.011  25.288  25.321  1.00  0.00     0.029 A 
BRANCH   9  14
ATOM     14  N   UNL A   1      32.254  22.209  24.503  1.00  0.00    -0.372 N 
BRANCH  14  15
ATOM     15  C   UNL A   1      31.362  21.814  25.599  1.00  0.00     0.116 C 
BRANCH  15  16
ATOM     16  C   UNL A   1      30.663  22.986  26.305  1.00  0.00     0.018 C 
ATOM     17  C   UNL A   1      29.540  22.586  27.255  1.00  0.00     0.006 C 
ENDBRANCH  15  16
ENDBRANCH  14  15
BRANCH  14  18
ATOM     18  C   UNL A   1      32.285  21.402  23.275  1.00  0.00     0.116 C 
BRANCH  18  19
ATOM     19  C   UNL A   1      32.573  19.915  23.515  1.00  0.00     0.018 C 
ATOM     20  C   UNL A   1      33.557  19.646  24.645  1.00  0.00     0.006 C 
ENDBRANCH  18  19
ENDBRANCH  14  18
ENDBRANCH   9  14
BRANCH  12  21
ATOM     21  C   UNL A   1      33.275  27.049  24.808  1.00  0.00     0.416 C 
ATOM     22  F   UNL A   1      33.980  27.754  23.884  1.00  0.00    -0.166 F 
ATOM     23  F   UNL A   1      31.965  27.166  24.454  1.00  0.00    -0.166 F 
ATOM     24  F   UNL A   1      33.404  27.732  25.980  1.00  0.00    -0.166 F 
ENDBRANCH  12  21
ENDBRANCH   6   8
ENDBRANCH   5   6
ENDBRANCH   4   5
ENDBRANCH   3   4
ENDBRANCH   2   3
ENDBRANCH   1   2
BRANCH   1  25
ATOM     25  C   UNL A   1      42.280  19.290  26.108  1.00  0.00     0.188 C 
BRANCH  25  26
ATOM     26  O   UNL A   1      43.226  19.485  25.079  1.00  0.00    -0.376 OA
BRANCH  26  27
ATOM     27  C   UNL A   1      44.454  20.145  25.342  1.00  0.00     0.202 C 
BRANCH  27  28
ATOM     28  C   UNL A   1      44.706  21.604  24.949  1.00  0.00     0.261 C 
BRANCH  28  29
ATOM     29  O   UNL A   1      43.909  22.571  25.639  1.00  0.00    -0.460 OA
BRANCH  29  30
ATOM     30  C   UNL A   1      44.121  23.853  25.252  1.00  0.00     0.338 C 
ATOM     31  O   UNL A   1      44.686  24.247  24.248  1.00  0.00    -0.246 OA
BRANCH  30  32
ATOM     32  C   UNL A   1      43.412  24.759  26.169  1.00  0.00     0.060 A 
ATOM     33  C   UNL A   1      43.741  26.119  26.134  1.00  0.00     0.016 A 
ATOM     34  C   UNL A   1      42.487  24.271  27.095  1.00  0.00     0.016 A 
ATOM     35  C   UNL A   1      43.152  26.999  27.040  1.00  0.00     0.010 A 
ATOM     36  C   UNL A   1      41.915  25.151  28.017  1.00  0.00     0.010 A 
ATOM     37  C   UNL A   1      42.257  26.514  28.004  1.00  0.00    -0.014 A 
BRANCH  37  38
ATOM     38  C   UNL A   1      41.798  27.406  29.093  1.00  0.00     0.031 A 
ATOM     39  C   UNL A   1      42.569  27.428  30.378  1.00  0.00     0.074 A 
ATOM     40  C   UNL A   1      40.719  28.192  28.939  1.00  0.00     0.049 A 
ATOM     41  N   UNL A   1      42.321  28.084  31.482  1.00  0.00    -0.248 NA
ATOM     42  C   UNL A   1      43.778  26.590  30.429  1.00  0.00     0.031 C 
ATOM     43  C   UNL A   1      39.910  28.269  27.730  1.00  0.00     0.029 A 
ATOM     44  N   UNL A   1      40.120  29.074  29.802  1.00  0.00    -0.354 N 
ATOM     45  C   UNL A   1      43.332  27.730  32.361  1.00  0.00     0.074 A 
ATOM     46  C   UNL A   1      44.198  26.801  31.666  1.00  0.00     0.031 C 
ATOM     47  C   UNL A   1      38.936  29.176  27.910  1.00  0.00     0.029 A 
ATOM     48  C   UNL A   1      39.008  29.687  29.277  1.00  0.00     0.049 A 
ATOM     49  H   UNL A   1      40.455  29.251  30.711  1.00  0.00     0.167 HD
ATOM     50  C   UNL A   1      43.512  28.132  33.641  1.00  0.00     0.037 A 
ATOM     51  C   UNL A   1      38.129  30.532  29.852  1.00  0.00     0.037 A 
ATOM     52  C   UNL A   1      42.628  29.024  34.341  1.00  0.00     0.049 A 
ATOM     53  C   UNL A   1      38.310  30.900  31.305  1.00  0.00     0.074 A 
ATOM     54  C   UNL A   1      42.711  29.468  35.649  1.00  0.00     0.029 A 
ATOM     55  N   UNL A   1      41.490  29.596  33.793  1.00  0.00    -0.354 N 
ATOM     56  N   UNL A   1      39.270  30.564  32.131  1.00  0.00    -0.248 NA
ATOM     57  C   UNL A   1      37.271  31.748  31.908  1.00  0.00     0.031 C 
ATOM     58  C   UNL A   1      41.593  30.269  35.907  1.00  0.00     0.029 A 
ATOM     59  C   UNL A   1      40.848  30.373  34.744  1.00  0.00     0.049 A 
ATOM     60  H   UNL A   1      41.183  29.469  32.867  1.00  0.00     0.167 HD
ATOM     61  C   UNL A   1      38.964  31.174  33.342  1.00  0.00     0.074 A 
ATOM     62  C   UNL A   1      37.738  31.915  33.138  1.00  0.00     0.031 C 
ATOM     63  C   UNL A   1      39.637  31.121  34.518  1.00  0.00     0.037 A 
BRANCH  50  64
ATOM     64  C   UNL A   1      44.683  27.556  34.378  1.00  0.00     0.064 A 
ATOM     65  C   UNL A   1      44.570  26.384  35.140  1.00  0.00     0.173 A 
ATOM     66  C   UNL A   1      45.935  28.185  34.317  1.00  0.00     0.173 A 
ATOM     67  F   UNL A   1      43.388  25.759  35.247  1.00  0.00    -0.203 F 
ATOM     68  C   UNL A   1      45.666  25.874  35.832  1.00  0.00     0.198 A 
ATOM     69  C   UNL A   1      47.034  27.659  34.988  1.00  0.00     0.198 A 
ATOM     70  F   UNL A   1      46.093  29.311  33.605  1.00  0.00    -0.203 F 
ATOM     71  F   UNL A   1      45.525  24.781  36.593  1.00  0.00    -0.200 F 
ATOM     72  C   UNL A   1      46.897  26.509  35.751  1.00  0.00     0.200 A 
ATOM     73  F   UNL A   1      48.224  28.267  34.903  1.00  0.00    -0.200 F 
ATOM     74  F   UNL A   1      47.950  26.016  36.418  1.00  0.00    -0.200 F 
ENDBRANCH  50  64
BRANCH  51  75
ATOM     75  C   UNL A   1      36.970  31.056  29.081  1.00  0.00     0.064 A 
ATOM     76  C   UNL A   1      36.920  32.397  28.675  1.00  0.00     0.173 A 
ATOM     77  C   UNL A   1      35.870  30.243  28.770  1.00  0.00     0.173 A 
ATOM     78  F   UNL A   1      37.932  33.226  28.974  1.00  0.00    -0.203 F 
ATOM     79  C   UNL A   1      35.807  32.910  28.009  1.00  0.00     0.198 A 
ATOM     80  C   UNL A   1      34.772  30.747  28.075  1.00  0.00     0.198 A 
ATOM     81  F   UNL A   1      35.860  28.955  29.143  1.00  0.00    -0.203 F 
ATOM     82  F   UNL A   1      35.763  34.209  27.685  1.00  0.00    -0.200 F 
ATOM     83  C   UNL A   1      34.737  32.082  27.704  1.00  0.00     0.200 A 
ATOM     84  F   UNL A   1      33.744  29.941  27.776  1.00  0.00    -0.200 F 
ATOM     85  F   UNL A   1      33.667  32.575  27.066  1.00  0.00    -0.200 F 
ENDBRANCH  51  75
BRANCH  63  86
ATOM     86  C   UNL A   1      39.095  31.923  35.665  1.00  0.00     0.064 A 
ATOM     87  C   UNL A   1      38.250  31.357  36.631  1.00  0.00     0.173 A 
ATOM     88  C   UNL A   1      39.478  33.263  35.831  1.00  0.00     0.173 A 
ATOM     89  F   UNL A   1      37.843  30.085  36.510  1.00  0.00    -0.203 F 
ATOM     90  C   UNL A   1      37.796  32.109  37.712  1.00  0.00     0.198 A 
ATOM     91  C   UNL A   1      39.046  34.003  36.929  1.00  0.00     0.198 A 
ATOM     92  F   UNL A   1      40.290  33.850  34.939  1.00  0.00    -0.203 F 
ATOM     93  F   UNL A   1      36.958  31.560  38.602  1.00  0.00    -0.200 F 
ATOM     94  C   UNL A   1      38.201  33.427  37.865  1.00  0.00     0.200 A 
ATOM     95  F   UNL A   1      39.451  35.271  37.082  1.00  0.00    -0.200 F 
ATOM     96  F   UNL A   1      37.774  34.144  38.913  1.00  0.00    -0.200 F 
ENDBRANCH  63  86
ENDBRANCH  37  38
ENDBRANCH  30  32
ENDBRANCH  29  30
ENDBRANCH  28  29
ENDBRANCH  27  28
ENDBRANCH  26  27
ENDBRANCH  25  26
ENDBRANCH   1  25
TORSDOF 23
ENDMDL
MODEL 3
REMARK VINA RESULT:      -9.1      3.429      8.918
REMARK SMILES CCCN(CCC)c1cc(C(=O)OCCOCCOCCOC(=O)c2ccc(-c3c4nc(c(-c5c(F)c(F)c(F)c(F)c5F)c5ccc([nH]5)c(-c5c(F)c(F)c(F)c(F)c5F)c5nc(c(-c6c(F)c(F)c(F)c(F)c6F)c6ccc3[nH]6)C=C5)C=C4)cc2)cc(C(F)(F)F)c1
REMARK SMILES IDX 17 1 16 2 15 3 14 4 13 5 11 6 12 7 10 8 8 9 9 10 94 11 89 12
REMARK SMILES IDX 88 13 4 14 3 15 2 16 1 17 5 18 6 19 7 20 90 21 91 22 92 23
REMARK SMILES IDX 93 24 18 25 19 26 20 27 21 28 22 29 23 30 24 31 25 32 26 33
REMARK SMILES IDX 87 34 27 35 86 36 28 37 29 38 30 39 80 40 31 41 85 42 79 43
REMARK SMILES IDX 81 44 32 45 84 46 78 47 77 48 33 50 65 51 45 52 64 53 46 54
REMARK SMILES IDX 49 55 63 56 82 57 47 58 48 59 62 61 83 62 50 63 34 64 35 65
REMARK SMILES IDX 43 66 36 67 37 68 41 69 44 70 38 71 39 72 42 73 40 74 66 75
REMARK SMILES IDX 67 76 75 77 68 78 69 79 73 80 76 81 70 82 71 83 74 84 72 85
REMARK SMILES IDX 51 86 52 87 60 88 53 89 54 90 58 91 61 92 55 93 56 94 59 95
REMARK SMILES IDX 57 96
REMARK H PARENT 81 49 49 60
REMARK Flexibility Score: inf
ROOT
ATOM      1  C   UNL A   1      33.506  26.066  24.891  1.00  0.00     0.188 C 
ENDROOT
BRANCH   1   2
ATOM      2  O   UNL A   1      32.568  25.841  25.926  1.00  0.00    -0.376 OA
BRANCH   2   3
ATOM      3  C   UNL A   1      31.674  26.881  26.306  1.00  0.00     0.202 C 
BRANCH   3   4
ATOM      4  C   UNL A   1      31.921  28.324  25.855  1.00  0.00     0.261 C 
BRANCH   4   5
ATOM      5  O   UNL A   1      32.955  28.972  26.613  1.00  0.00    -0.460 OA
BRANCH   5   6
ATOM      6  C   UNL A   1      32.779  30.311  26.805  1.00  0.00     0.338 C 
ATOM      7  O   UNL A   1      31.758  30.939  26.671  1.00  0.00    -0.246 OA
BRANCH   6   8
ATOM      8  C   UNL A   1      34.005  30.860  27.433  1.00  0.00     0.062 A 
ATOM      9  C   UNL A   1      34.912  32.611  28.871  1.00  0.00     0.038 A 
ATOM     10  C   UNL A   1      33.898  32.109  28.057  1.00  0.00     0.041 A 
ATOM     11  C   UNL A   1      36.107  31.892  28.902  1.00  0.00     0.039 A 
ATOM     12  C   UNL A   1      36.279  30.679  28.208  1.00  0.00     0.058 A 
ATOM     13  C   UNL A   1      35.196  30.140  27.504  1.00  0.00     0.029 A 
BRANCH   9  14
ATOM     14  N   UNL A   1      34.705  33.721  29.668  1.00  0.00    -0.372 N 
BRANCH  14  15
ATOM     15  C   UNL A   1      34.043  34.923  29.150  1.00  0.00     0.116 C 
BRANCH  15  16
ATOM     16  C   UNL A   1      32.877  35.430  30.014  1.00  0.00     0.018 C 
ATOM     17  C   UNL A   1      33.208  36.626  30.900  1.00  0.00     0.006 C 
ENDBRANCH  15  16
ENDBRANCH  14  15
BRANCH  14  18
ATOM     18  C   UNL A   1      35.313  33.754  31.006  1.00  0.00     0.116 C 
BRANCH  18  19
ATOM     19  C   UNL A   1      34.683  32.771  32.000  1.00  0.00     0.018 C 
ATOM     20  C   UNL A   1      34.143  33.425  33.265  1.00  0.00     0.006 C 
ENDBRANCH  18  19
ENDBRANCH  14  18
ENDBRANCH   9  14
BRANCH  12  21
ATOM     21  C   UNL A   1      37.598  29.951  28.260  1.00  0.00     0.416 C 
ATOM     22  F   UNL A   1      38.553  30.648  28.931  1.00  0.00    -0.166 F 
ATOM     23  F   UNL A   1      37.497  28.746  28.889  1.00  0.00    -0.166 F 
ATOM     24  F   UNL A   1      38.121  29.684  27.031  1.00  0.00    -0.166 F 
ENDBRANCH  12  21
ENDBRANCH   6   8
ENDBRANCH   5   6
ENDBRANCH   4   5
ENDBRANCH   3   4
ENDBRANCH   2   3
ENDBRANCH   1   2
BRANCH   1  25
ATOM     25  C   UNL A   1      34.183  24.880  24.176  1.00  0.00     0.188 C 
BRANCH  25  26
ATOM     26  O   UNL A   1      35.240  24.160  24.773  1.00  0.00    -0.376 OA
BRANCH  26  27
ATOM     27  C   UNL A   1      35.816  23.042  24.115  1.00  0.00     0.202 C 
BRANCH  27  28
ATOM     28  C   UNL A   1      36.968  22.234  24.720  1.00  0.00     0.261 C 
BRANCH  28  29
ATOM     29  O   UNL A   1      37.544  22.783  25.909  1.00  0.00    -0.460 OA
BRANCH  29  30
ATOM     30  C   UNL A   1      38.776  22.303  26.209  1.00  0.00     0.338 C 
ATOM     31  O   UNL A   1      39.238  21.209  25.939  1.00  0.00    -0.246 OA
BRANCH  30  32
ATOM     32  C   UNL A   1      39.584  23.380  26.803  1.00  0.00     0.060 A 
ATOM     33  C   UNL A   1      39.295  24.698  26.435  1.00  0.00     0.016 A 
ATOM     34  C   UNL A   1      40.652  23.094  27.657  1.00  0.00     0.016 A 
ATOM     35  C   UNL A   1      40.086  25.741  26.912  1.00  0.00     0.010 A 
ATOM     36  C   UNL A   1      41.458  24.138  28.115  1.00  0.00     0.010 A 
ATOM     37  C   UNL A   1      41.189  25.463  27.732  1.00  0.00    -0.014 A 
BRANCH  37  38
ATOM     38  C   UNL A   1      42.148  26.542  28.062  1.00  0.00     0.031 A 
ATOM     39  C   UNL A   1      41.765  27.551  29.102  1.00  0.00     0.074 A 
ATOM     40  C   UNL A   1      43.344  26.618  27.455  1.00  0.00     0.049 A 
ATOM     41  N   UNL A   1      42.417  28.609  29.509  1.00  0.00    -0.248 NA
ATOM     42  C   UNL A   1      40.468  27.345  29.766  1.00  0.00     0.031 C 
ATOM     43  C   UNL A   1      43.829  25.682  26.449  1.00  0.00     0.029 A 
ATOM     44  N   UNL A   1      44.367  27.522  27.595  1.00  0.00    -0.354 N 
ATOM     45  C   UNL A   1      41.607  29.201  30.465  1.00  0.00     0.074 A 
ATOM     46  C   UNL A   1      40.414  28.388  30.579  1.00  0.00     0.031 C 
ATOM     47  C   UNL A   1      45.072  26.036  26.083  1.00  0.00     0.029 A 
ATOM     48  C   UNL A   1      45.439  27.271  26.773  1.00  0.00     0.049 A 
ATOM     49  H   UNL A   1      44.335  28.278  28.224  1.00  0.00     0.167 HD
ATOM     50  C   UNL A   1      41.831  30.333  31.172  1.00  0.00     0.037 A 
ATOM     51  C   UNL A   1      46.567  27.981  26.575  1.00  0.00     0.037 A 
ATOM     52  C   UNL A   1      42.998  31.160  31.028  1.00  0.00     0.049 A 
ATOM     53  C   UNL A   1      46.754  29.281  27.320  1.00  0.00     0.074 A 
ATOM     54  C   UNL A   1      43.304  32.341  31.681  1.00  0.00     0.029 A 
ATOM     55  N   UNL A   1      44.047  30.898  30.160  1.00  0.00    -0.354 N 
ATOM     56  N   UNL A   1      45.984  29.836  28.225  1.00  0.00    -0.248 NA
ATOM     57  C   UNL A   1      47.956  30.063  26.997  1.00  0.00     0.031 C 
ATOM     58  C   UNL A   1      44.514  32.821  31.169  1.00  0.00     0.029 A 
ATOM     59  C   UNL A   1      44.992  31.908  30.242  1.00  0.00     0.049 A 
ATOM     60  H   UNL A   1      44.111  30.112  29.571  1.00  0.00     0.167 HD
ATOM     61  C   UNL A   1      46.618  31.016  28.594  1.00  0.00     0.074 A 
ATOM     62  C   UNL A   1      47.843  31.090  27.827  1.00  0.00     0.031 C 
ATOM     63  C   UNL A   1      46.217  31.957  29.485  1.00  0.00     0.037 A 
BRANCH  50  64
ATOM     64  C   UNL A   1      40.757  30.767  32.123  1.00  0.00     0.064 A 
ATOM     65  C   UNL A   1      39.833  31.765  31.784  1.00  0.00     0.173 A 
ATOM     66  C   UNL A   1      40.650  30.172  33.388  1.00  0.00     0.173 A 
ATOM     67  F   UNL A   1      39.908  32.380  30.594  1.00  0.00    -0.203 F 
ATOM     68  C   UNL A   1      38.852  32.168  32.688  1.00  0.00     0.198 A 
ATOM     69  C   UNL A   1      39.653  30.557  34.279  1.00  0.00     0.198 A 
ATOM     70  F   UNL A   1      41.513  29.214  33.761  1.00  0.00    -0.203 F 
ATOM     71  F   UNL A   1      38.010  33.157  32.363  1.00  0.00    -0.200 F 
ATOM     72  C   UNL A   1      38.760  31.559  33.931  1.00  0.00     0.200 A 
ATOM     73  F   UNL A   1      39.560  29.962  35.476  1.00  0.00    -0.200 F 
ATOM     74  F   UNL A   1      37.815  31.947  34.800  1.00  0.00    -0.200 F 
ENDBRANCH  50  64
BRANCH  51  75
ATOM     75  C   UNL A   1      47.592  27.517  25.602  1.00  0.00     0.064 A 
ATOM     76  C   UNL A   1      48.706  26.778  26.024  1.00  0.00     0.173 A 
ATOM     77  C   UNL A   1      47.503  27.835  24.239  1.00  0.00     0.173 A 
ATOM     78  F   UNL A   1      48.855  26.474  27.322  1.00  0.00    -0.203 F 
ATOM     79  C   UNL A   1      49.702  26.396  25.126  1.00  0.00     0.198 A 
ATOM     80  C   UNL A   1      48.482  27.425  23.336  1.00  0.00     0.198 A 
ATOM     81  F   UNL A   1      46.463  28.548  23.782  1.00  0.00    -0.203 F 
ATOM     82  F   UNL A   1      50.784  25.742  25.568  1.00  0.00    -0.200 F 
ATOM     83  C   UNL A   1      49.586  26.715  23.781  1.00  0.00     0.200 A 
ATOM     84  F   UNL A   1      48.360  27.728  22.036  1.00  0.00    -0.200 F 
ATOM     85  F   UNL A   1      50.544  26.350  22.919  1.00  0.00    -0.200 F 
ENDBRANCH  51  75
BRANCH  63  86
ATOM     86  C   UNL A   1      47.131  33.123  29.721  1.00  0.00     0.064 A 
ATOM     87  C   UNL A   1      47.027  34.308  28.978  1.00  0.00     0.173 A 
ATOM     88  C   UNL A   1      48.085  33.075  30.750  1.00  0.00     0.173 A 
ATOM     89  F   UNL A   1      46.142  34.401  27.975  1.00  0.00    -0.203 F 
ATOM     90  C   UNL A   1      47.856  35.395  29.246  1.00  0.00     0.198 A 
ATOM     91  C   UNL A   1      48.891  34.173  31.034  1.00  0.00     0.198 A 
ATOM     92  F   UNL A   1      48.220  31.967  31.494  1.00  0.00    -0.203 F 
ATOM     93  F   UNL A   1      47.767  36.503  28.498  1.00  0.00    -0.200 F 
ATOM     94  C   UNL A   1      48.781  35.330  30.278  1.00  0.00     0.200 A 
ATOM     95  F   UNL A   1      49.773  34.113  32.042  1.00  0.00    -0.200 F 
ATOM     96  F   UNL A   1      49.567  36.382  30.543  1.00  0.00    -0.200 F 
ENDBRANCH  63  86
ENDBRANCH  37  38
ENDBRANCH  30  32
ENDBRANCH  29  30
ENDBRANCH  28  29
ENDBRANCH  27  28
ENDBRANCH  26  27
ENDBRANCH  25  26
ENDBRANCH   1  25
TORSDOF 23
ENDMDL
