MODEL 1
REMARK VINA RESULT:     -10.8      0.000      0.000
REMARK SMILES CC(C)C[NH+]1CC[NH+]([C@@H]2CC[C@]([NH3+])(C(=O)OCCOCCOCCOC(=O)c3ccc(-c4c5nc(c(-c6c(F)c(F)c(F)c(F)c6F)c6ccc([nH]6)c(-c6c(F)c(F)c(F)c(F)c6F)c6nc(c(-c7c(F)c(F)c(F)c(F)c7F)c7ccc4[nH]7)C=C6)C=C5)cc3)C2)CC1
REMARK SMILES IDX 20 1 19 2 18 3 17 4 16 5 14 6 15 7 12 8 9 9 10 10 91 11
REMARK SMILES IDX 11 12 8 13 5 14 6 15 93 16 7 18 92 19 4 21 2 22 1 23 3 24
REMARK SMILES IDX 13 25 21 29 22 30 23 31 24 32 25 33 26 34 27 35 28 36 29 37
REMARK SMILES IDX 90 38 30 39 89 40 31 41 32 42 33 43 83 44 34 45 88 46 82 47
REMARK SMILES IDX 84 48 35 49 87 50 81 51 80 52 36 54 68 55 48 56 67 57 49 58
REMARK SMILES IDX 52 59 66 60 85 61 50 62 51 63 65 65 86 66 53 67 37 68 38 69
REMARK SMILES IDX 46 70 39 71 40 72 44 73 47 74 41 75 42 76 45 77 43 78 69 79
REMARK SMILES IDX 70 80 78 81 71 82 72 83 76 84 79 85 73 86 74 87 77 88 75 89
REMARK SMILES IDX 54 90 55 91 63 92 56 93 57 94 61 95 64 96 58 97 59 98 62 99
REMARK SMILES IDX 60 100
REMARK H PARENT 5 17 8 20 13 26 13 27 13 28 84 53 52 64
REMARK Flexibility Score: inf
ROOT
ATOM      1  C   UNL A   1      39.574  22.210  26.183  1.00  0.00     0.188 C 
ENDROOT
BRANCH   1   2
ATOM      2  O   UNL A   1      38.151  22.198  26.116  1.00  0.00    -0.376 OA
BRANCH   2   3
ATOM      3  C   UNL A   1      37.507  22.317  24.855  1.00  0.00     0.202 C 
BRANCH   3   4
ATOM      4  C   UNL A   1      36.310  23.266  24.728  1.00  0.00     0.261 C 
BRANCH   4   5
ATOM      5  O   UNL A   1      35.226  22.735  23.952  1.00  0.00    -0.459 OA
BRANCH   5   6
ATOM      6  C   UNL A   1      34.471  21.757  24.525  1.00  0.00     0.368 C 
ATOM      7  O   UNL A   1      34.856  20.609  24.726  1.00  0.00    -0.245 OA
BRANCH   6   8
ATOM      8  C   UNL A   1      33.073  22.273  24.975  1.00  0.00     0.198 C 
ATOM      9  C   UNL A   1      32.026  24.456  25.274  1.00  0.00     0.191 C 
ATOM     10  C   UNL A   1      32.256  23.863  26.666  1.00  0.00     0.072 C 
ATOM     11  C   UNL A   1      32.887  23.636  24.319  1.00  0.00     0.145 C 
ATOM     12  C   UNL A   1      32.968  22.543  26.483  1.00  0.00     0.087 C 
BRANCH   9  13
ATOM     13  N   UNL A   1      32.134  25.908  25.106  1.00  0.00    -0.323 N 
ATOM     14  N   UNL A   1      30.387  27.245  23.045  1.00  0.00    -0.325 N 
ATOM     15  C   UNL A   1      31.629  26.567  22.652  1.00  0.00     0.324 C 
ATOM     16  C   UNL A   1      29.877  26.707  24.318  1.00  0.00     0.324 C 
ATOM     17  H   UNL A   1      29.725  27.027  22.301  1.00  0.00     0.348 HD
ATOM     18  C   UNL A   1      32.670  26.303  23.786  1.00  0.00     0.324 C 
ATOM     19  C   UNL A   1      30.938  26.707  25.426  1.00  0.00     0.324 C 
ATOM     20  H   UNL A   1      32.811  26.143  25.832  1.00  0.00     0.348 HD
BRANCH  14  21
ATOM     21  C   UNL A   1      30.420  28.715  23.033  1.00  0.00     0.265 C 
BRANCH  21  22
ATOM     22  C   UNL A   1      29.117  29.553  23.094  1.00  0.00     0.038 C 
ATOM     23  C   UNL A   1      29.293  30.909  23.787  1.00  0.00     0.013 C 
ATOM     24  C   UNL A   1      28.605  29.788  21.669  1.00  0.00     0.013 C 
ENDBRANCH  21  22
ENDBRANCH  14  21
ENDBRANCH   9  13
BRANCH   8  25
ATOM     25  N   UNL A   1      31.986  21.362  24.530  1.00  0.00    -0.343 N 
ATOM     26  H   UNL A   1      31.096  21.861  24.546  1.00  0.00     0.345 HD
ATOM     27  H   UNL A   1      31.937  20.559  25.158  1.00  0.00     0.345 HD
ATOM     28  H   UNL A   1      32.179  21.041  23.581  1.00  0.00     0.345 HD
ENDBRANCH   8  25
ENDBRANCH   6   8
ENDBRANCH   5   6
ENDBRANCH   4   5
ENDBRANCH   3   4
ENDBRANCH   2   3
ENDBRANCH   1   2
BRANCH   1  29
ATOM     29  C   UNL A   1      40.320  21.031  26.844  1.00  0.00     0.188 C 
BRANCH  29  30
ATOM     30  O   UNL A   1      41.200  20.366  25.971  1.00  0.00    -0.376 OA
BRANCH  30  31
ATOM     31  C   UNL A   1      42.577  20.412  26.265  1.00  0.00     0.202 C 
BRANCH  31  32
ATOM     32  C   UNL A   1      43.489  21.472  25.618  1.00  0.00     0.261 C 
BRANCH  32  33
ATOM     33  O   UNL A   1      42.880  22.652  25.060  1.00  0.00    -0.460 OA
BRANCH  33  34
ATOM     34  C   UNL A   1      43.610  23.790  25.028  1.00  0.00     0.338 C 
ATOM     35  O   UNL A   1      44.553  24.035  24.287  1.00  0.00    -0.246 OA
BRANCH  34  36
ATOM     36  C   UNL A   1      42.989  24.795  25.927  1.00  0.00     0.060 A 
ATOM     37  C   UNL A   1      43.425  26.128  25.880  1.00  0.00     0.016 A 
ATOM     38  C   UNL A   1      41.989  24.423  26.829  1.00  0.00     0.016 A 
ATOM     39  C   UNL A   1      42.894  27.080  26.760  1.00  0.00     0.010 A 
ATOM     40  C   UNL A   1      41.471  25.373  27.720  1.00  0.00     0.010 A 
ATOM     41  C   UNL A   1      41.941  26.700  27.717  1.00  0.00    -0.014 A 
BRANCH  41  42
ATOM     42  C   UNL A   1      41.563  27.618  28.828  1.00  0.00     0.031 A 
ATOM     43  C   UNL A   1      42.346  27.554  30.112  1.00  0.00     0.074 A 
ATOM     44  C   UNL A   1      40.536  28.483  28.723  1.00  0.00     0.049 A 
ATOM     45  N   UNL A   1      42.134  28.158  31.256  1.00  0.00    -0.248 NA
ATOM     46  C   UNL A   1      43.529  26.680  30.105  1.00  0.00     0.031 C 
ATOM     47  C   UNL A   1      39.719  28.687  27.531  1.00  0.00     0.029 A 
ATOM     48  N   UNL A   1      39.993  29.338  29.655  1.00  0.00    -0.354 N 
ATOM     49  C   UNL A   1      43.146  27.727  32.104  1.00  0.00     0.074 A 
ATOM     50  C   UNL A   1      43.954  26.788  31.355  1.00  0.00     0.031 C 
ATOM     51  C   UNL A   1      38.762  29.591  27.808  1.00  0.00     0.029 A 
ATOM     52  C   UNL A   1      38.874  30.000  29.210  1.00  0.00     0.049 A 
ATOM     53  H   UNL A   1      40.371  29.464  30.555  1.00  0.00     0.167 HD
ATOM     54  C   UNL A   1      43.385  28.083  33.390  1.00  0.00     0.037 A 
ATOM     55  C   UNL A   1      38.020  30.812  29.865  1.00  0.00     0.037 A 
ATOM     56  C   UNL A   1      42.581  29.010  34.141  1.00  0.00     0.049 A 
ATOM     57  C   UNL A   1      38.256  31.129  31.324  1.00  0.00     0.074 A 
ATOM     58  C   UNL A   1      42.754  29.442  35.446  1.00  0.00     0.029 A 
ATOM     59  N   UNL A   1      41.443  29.642  33.660  1.00  0.00    -0.354 N 
ATOM     60  N   UNL A   1      39.224  30.734  32.114  1.00  0.00    -0.248 NA
ATOM     61  C   UNL A   1      37.277  32.009  31.981  1.00  0.00     0.031 C 
ATOM     62  C   UNL A   1      41.688  30.286  35.774  1.00  0.00     0.029 A 
ATOM     63  C   UNL A   1      40.889  30.437  34.652  1.00  0.00     0.049 A 
ATOM     64  H   UNL A   1      41.083  29.539  32.750  1.00  0.00     0.167 HD
ATOM     65  C   UNL A   1      38.991  31.341  33.343  1.00  0.00     0.074 A 
ATOM     66  C   UNL A   1      37.797  32.143  33.193  1.00  0.00     0.031 C 
ATOM     67  C   UNL A   1      39.705  31.244  34.492  1.00  0.00     0.037 A 
BRANCH  54  68
ATOM     68  C   UNL A   1      44.554  27.440  34.081  1.00  0.00     0.064 A 
ATOM     69  C   UNL A   1      44.444  26.191  34.712  1.00  0.00     0.173 A 
ATOM     70  C   UNL A   1      45.810  28.064  34.080  1.00  0.00     0.173 A 
ATOM     71  F   UNL A   1      43.264  25.556  34.751  1.00  0.00    -0.203 F 
ATOM     72  C   UNL A   1      45.541  25.607  35.343  1.00  0.00     0.198 A 
ATOM     73  C   UNL A   1      46.913  27.462  34.682  1.00  0.00     0.198 A 
ATOM     74  F   UNL A   1      45.974  29.255  33.486  1.00  0.00    -0.203 F 
ATOM     75  F   UNL A   1      45.399  24.440  35.984  1.00  0.00    -0.200 F 
ATOM     76  C   UNL A   1      46.775  26.240  35.320  1.00  0.00     0.200 A 
ATOM     77  F   UNL A   1      48.109  28.067  34.644  1.00  0.00    -0.200 F 
ATOM     78  F   UNL A   1      47.831  25.673  35.920  1.00  0.00    -0.200 F 
ENDBRANCH  54  68
BRANCH  55  79
ATOM     79  C   UNL A   1      36.835  31.377  29.160  1.00  0.00     0.064 A 
ATOM     80  C   UNL A   1      36.771  32.736  28.822  1.00  0.00     0.173 A 
ATOM     81  C   UNL A   1      35.726  30.576  28.844  1.00  0.00     0.173 A 
ATOM     82  F   UNL A   1      37.790  33.552  29.133  1.00  0.00    -0.203 F 
ATOM     83  C   UNL A   1      35.640  33.277  28.214  1.00  0.00     0.198 A 
ATOM     84  C   UNL A   1      34.608  31.111  28.207  1.00  0.00     0.198 A 
ATOM     85  F   UNL A   1      35.730  29.272  29.155  1.00  0.00    -0.203 F 
ATOM     86  F   UNL A   1      35.583  34.590  27.956  1.00  0.00    -0.200 F 
ATOM     87  C   UNL A   1      34.562  32.461  27.900  1.00  0.00     0.200 A 
ATOM     88  F   UNL A   1      33.572  30.318  27.898  1.00  0.00    -0.200 F 
ATOM     89  F   UNL A   1      33.474  32.982  27.317  1.00  0.00    -0.200 F 
ENDBRANCH  55  79
BRANCH  67  90
ATOM     90  C   UNL A   1      39.252  32.063  35.671  1.00  0.00     0.064 A 
ATOM     91  C   UNL A   1      39.640  33.400  35.840  1.00  0.00     0.173 A 
ATOM     92  C   UNL A   1      38.377  31.511  36.620  1.00  0.00     0.173 A 
ATOM     93  F   UNL A   1      40.484  33.974  34.970  1.00  0.00    -0.203 F 
ATOM     94  C   UNL A   1      39.192  34.144  36.931  1.00  0.00     0.198 A 
ATOM     95  C   UNL A   1      37.903  32.268  37.689  1.00  0.00     0.198 A 
ATOM     96  F   UNL A   1      37.965  30.239  36.504  1.00  0.00    -0.203 F 
ATOM     97  F   UNL A   1      39.617  35.405  37.098  1.00  0.00    -0.200 F 
ATOM     98  C   UNL A   1      38.318  33.581  37.847  1.00  0.00     0.200 A 
ATOM     99  F   UNL A   1      37.044  31.727  38.564  1.00  0.00    -0.200 F 
ATOM    100  F   UNL A   1      37.881  34.302  38.890  1.00  0.00    -0.200 F 
ENDBRANCH  67  90
ENDBRANCH  41  42
ENDBRANCH  34  36
ENDBRANCH  33  34
ENDBRANCH  32  33
ENDBRANCH  31  32
ENDBRANCH  30  31
ENDBRANCH  29  30
ENDBRANCH   1  29
TORSDOF 21
ENDMDL
MODEL 2
REMARK VINA RESULT:     -10.7      4.376      6.575
REMARK SMILES CC(C)C[NH+]1CC[NH+]([C@@H]2CC[C@]([NH3+])(C(=O)OCCOCCOCCOC(=O)c3ccc(-c4c5nc(c(-c6c(F)c(F)c(F)c(F)c6F)c6ccc([nH]6)c(-c6c(F)c(F)c(F)c(F)c6F)c6nc(c(-c7c(F)c(F)c(F)c(F)c7F)c7ccc4[nH]7)C=C6)C=C5)cc3)C2)CC1
REMARK SMILES IDX 20 1 19 2 18 3 17 4 16 5 14 6 15 7 12 8 9 9 10 10 91 11
REMARK SMILES IDX 11 12 8 13 5 14 6 15 93 16 7 18 92 19 4 21 2 22 1 23 3 24
REMARK SMILES IDX 13 25 21 29 22 30 23 31 24 32 25 33 26 34 27 35 28 36 29 37
REMARK SMILES IDX 90 38 30 39 89 40 31 41 32 42 33 43 83 44 34 45 88 46 82 47
REMARK SMILES IDX 84 48 35 49 87 50 81 51 80 52 36 54 68 55 48 56 67 57 49 58
REMARK SMILES IDX 52 59 66 60 85 61 50 62 51 63 65 65 86 66 53 67 37 68 38 69
REMARK SMILES IDX 46 70 39 71 40 72 44 73 47 74 41 75 42 76 45 77 43 78 69 79
REMARK SMILES IDX 70 80 78 81 71 82 72 83 76 84 79 85 73 86 74 87 77 88 75 89
REMARK SMILES IDX 54 90 55 91 63 92 56 93 57 94 61 95 64 96 58 97 59 98 62 99
REMARK SMILES IDX 60 100
REMARK H PARENT 5 17 8 20 13 26 13 27 13 28 84 53 52 64
REMARK Flexibility Score: inf
ROOT
ATOM      1  C   UNL A   1      36.291  21.728  24.917  1.00  0.00     0.188 C 
ENDROOT
BRANCH   1   2
ATOM      2  O   UNL A   1      35.495  22.602  25.712  1.00  0.00    -0.376 OA
BRANCH   2   3
ATOM      3  C   UNL A   1      34.950  22.134  26.938  1.00  0.00     0.202 C 
BRANCH   3   4
ATOM      4  C   UNL A   1      33.555  21.497  26.926  1.00  0.00     0.261 C 
BRANCH   4   5
ATOM      5  O   UNL A   1      32.854  21.655  25.685  1.00  0.00    -0.459 OA
BRANCH   5   6
ATOM      6  C   UNL A   1      31.819  22.539  25.662  1.00  0.00     0.368 C 
ATOM      7  O   UNL A   1      30.887  22.539  26.460  1.00  0.00    -0.245 OA
BRANCH   6   8
ATOM      8  C   UNL A   1      31.980  23.614  24.548  1.00  0.00     0.198 C 
ATOM      9  C   UNL A   1      31.108  25.856  24.141  1.00  0.00     0.191 C 
ATOM     10  C   UNL A   1      30.441  24.915  23.136  1.00  0.00     0.072 C 
ATOM     11  C   UNL A   1      31.722  24.962  25.212  1.00  0.00     0.145 C 
ATOM     12  C   UNL A   1      30.928  23.516  23.434  1.00  0.00     0.087 C 
BRANCH   9  13
ATOM     13  N   UNL A   1      30.336  26.990  24.656  1.00  0.00    -0.323 N 
ATOM     14  N   UNL A   1      30.807  29.711  23.446  1.00  0.00    -0.325 N 
ATOM     15  C   UNL A   1      31.716  29.175  24.467  1.00  0.00     0.324 C 
ATOM     16  C   UNL A   1      30.102  28.622  22.749  1.00  0.00     0.324 C 
ATOM     17  H   UNL A   1      31.415  30.193  22.785  1.00  0.00     0.348 HD
ATOM     18  C   UNL A   1      31.171  28.000  25.341  1.00  0.00     0.324 C 
ATOM     19  C   UNL A   1      29.413  27.650  23.716  1.00  0.00     0.324 C 
ATOM     20  H   UNL A   1      29.733  26.528  25.338  1.00  0.00     0.348 HD
BRANCH  14  21
ATOM     21  C   UNL A   1      29.894  30.776  23.887  1.00  0.00     0.265 C 
BRANCH  21  22
ATOM     22  C   UNL A   1      28.723  31.259  22.992  1.00  0.00     0.038 C 
ATOM     23  C   UNL A   1      27.340  30.978  23.589  1.00  0.00     0.013 C 
ATOM     24  C   UNL A   1      28.863  32.766  22.754  1.00  0.00     0.013 C 
ENDBRANCH  21  22
ENDBRANCH  14  21
ENDBRANCH   9  13
BRANCH   8  25
ATOM     25  N   UNL A   1      33.351  23.605  23.974  1.00  0.00    -0.343 N 
ATOM     26  H   UNL A   1      33.954  24.219  24.522  1.00  0.00     0.345 HD
ATOM     27  H   UNL A   1      33.318  23.933  23.008  1.00  0.00     0.345 HD
ATOM     28  H   UNL A   1      33.723  22.655  23.997  1.00  0.00     0.345 HD
ENDBRANCH   8  25
ENDBRANCH   6   8
ENDBRANCH   5   6
ENDBRANCH   4   5
ENDBRANCH   3   4
ENDBRANCH   2   3
ENDBRANCH   1   2
BRANCH   1  29
ATOM     29  C   UNL A   1      36.075  20.202  25.005  1.00  0.00     0.188 C 
BRANCH  29  30
ATOM     30  O   UNL A   1      37.252  19.458  24.808  1.00  0.00    -0.376 OA
BRANCH  30  31
ATOM     31  C   UNL A   1      38.474  20.047  25.190  1.00  0.00     0.202 C 
BRANCH  31  32
ATOM     32  C   UNL A   1      39.581  19.209  25.859  1.00  0.00     0.261 C 
BRANCH  32  33
ATOM     33  O   UNL A   1      40.923  19.732  25.870  1.00  0.00    -0.460 OA
BRANCH  33  34
ATOM     34  C   UNL A   1      41.502  19.969  27.069  1.00  0.00     0.338 C 
ATOM     35  O   UNL A   1      42.034  19.145  27.801  1.00  0.00    -0.246 OA
BRANCH  34  36
ATOM     36  C   UNL A   1      41.553  21.433  27.307  1.00  0.00     0.060 A 
ATOM     37  C   UNL A   1      41.079  22.311  26.319  1.00  0.00     0.016 A 
ATOM     38  C   UNL A   1      42.082  21.944  28.494  1.00  0.00     0.016 A 
ATOM     39  C   UNL A   1      41.171  23.697  26.499  1.00  0.00     0.010 A 
ATOM     40  C   UNL A   1      42.189  23.332  28.664  1.00  0.00     0.010 A 
ATOM     41  C   UNL A   1      41.766  24.219  27.656  1.00  0.00    -0.014 A 
BRANCH  41  42
ATOM     42  C   UNL A   1      42.118  25.664  27.752  1.00  0.00     0.031 A 
ATOM     43  C   UNL A   1      43.440  26.121  27.194  1.00  0.00     0.074 A 
ATOM     44  C   UNL A   1      41.302  26.562  28.336  1.00  0.00     0.049 A 
ATOM     45  N   UNL A   1      44.021  27.293  27.265  1.00  0.00    -0.248 NA
ATOM     46  C   UNL A   1      44.216  25.110  26.459  1.00  0.00     0.031 C 
ATOM     47  C   UNL A   1      39.979  26.276  28.880  1.00  0.00     0.029 A 
ATOM     48  N   UNL A   1      41.488  27.902  28.589  1.00  0.00    -0.354 N 
ATOM     49  C   UNL A   1      45.232  27.156  26.599  1.00  0.00     0.074 A 
ATOM     50  C   UNL A   1      45.317  25.780  26.156  1.00  0.00     0.031 C 
ATOM     51  C   UNL A   1      39.478  27.400  29.424  1.00  0.00     0.029 A 
ATOM     52  C   UNL A   1      40.464  28.476  29.303  1.00  0.00     0.049 A 
ATOM     53  H   UNL A   1      42.280  28.403  28.286  1.00  0.00     0.167 HD
ATOM     54  C   UNL A   1      46.187  28.090  26.370  1.00  0.00     0.037 A 
ATOM     55  C   UNL A   1      40.350  29.713  29.828  1.00  0.00     0.037 A 
ATOM     56  C   UNL A   1      46.111  29.458  26.815  1.00  0.00     0.049 A 
ATOM     57  C   UNL A   1      41.464  30.715  29.636  1.00  0.00     0.074 A 
ATOM     58  C   UNL A   1      47.024  30.481  26.619  1.00  0.00     0.029 A 
ATOM     59  N   UNL A   1      45.066  29.993  27.554  1.00  0.00    -0.354 N 
ATOM     60  N   UNL A   1      42.597  30.585  28.989  1.00  0.00    -0.248 NA
ATOM     61  C   UNL A   1      41.280  32.041  30.249  1.00  0.00     0.031 C 
ATOM     62  C   UNL A   1      46.561  31.616  27.291  1.00  0.00     0.029 A 
ATOM     63  C   UNL A   1      45.326  31.323  27.846  1.00  0.00     0.049 A 
ATOM     64  H   UNL A   1      44.259  29.500  27.830  1.00  0.00     0.167 HD
ATOM     65  C   UNL A   1      43.240  31.814  29.087  1.00  0.00     0.074 A 
ATOM     66  C   UNL A   1      42.367  32.683  29.844  1.00  0.00     0.031 C 
ATOM     67  C   UNL A   1      44.446  32.188  28.591  1.00  0.00     0.037 A 
BRANCH  54  68
ATOM     68  C   UNL A   1      47.419  27.656  25.629  1.00  0.00     0.064 A 
ATOM     69  C   UNL A   1      47.489  27.690  24.227  1.00  0.00     0.173 A 
ATOM     70  C   UNL A   1      48.558  27.233  26.331  1.00  0.00     0.173 A 
ATOM     71  F   UNL A   1      46.425  28.075  23.507  1.00  0.00    -0.203 F 
ATOM     72  C   UNL A   1      48.643  27.289  23.557  1.00  0.00     0.198 A 
ATOM     73  C   UNL A   1      49.721  26.866  25.659  1.00  0.00     0.198 A 
ATOM     74  F   UNL A   1      48.549  27.188  27.671  1.00  0.00    -0.203 F 
ATOM     75  F   UNL A   1      48.668  27.280  22.218  1.00  0.00    -0.200 F 
ATOM     76  C   UNL A   1      49.760  26.885  24.273  1.00  0.00     0.200 A 
ATOM     77  F   UNL A   1      50.805  26.492  26.354  1.00  0.00    -0.200 F 
ATOM     78  F   UNL A   1      50.871  26.508  23.628  1.00  0.00    -0.200 F 
ENDBRANCH  54  68
BRANCH  55  79
ATOM     79  C   UNL A   1      39.139  30.083  30.614  1.00  0.00     0.064 A 
ATOM     80  C   UNL A   1      38.009  30.630  29.991  1.00  0.00     0.173 A 
ATOM     81  C   UNL A   1      39.103  29.931  32.009  1.00  0.00     0.173 A 
ATOM     82  F   UNL A   1      38.005  30.828  28.664  1.00  0.00    -0.203 F 
ATOM     83  C   UNL A   1      36.898  31.029  30.733  1.00  0.00     0.198 A 
ATOM     84  C   UNL A   1      37.980  30.300  32.746  1.00  0.00     0.198 A 
ATOM     85  F   UNL A   1      40.162  29.424  32.657  1.00  0.00    -0.203 F 
ATOM     86  F   UNL A   1      35.855  31.603  30.118  1.00  0.00    -0.200 F 
ATOM     87  C   UNL A   1      36.882  30.857  32.109  1.00  0.00     0.200 A 
ATOM     88  F   UNL A   1      37.965  30.125  34.075  1.00  0.00    -0.200 F 
ATOM     89  F   UNL A   1      35.814  31.241  32.822  1.00  0.00    -0.200 F 
ENDBRANCH  55  79
BRANCH  67  90
ATOM     90  C   UNL A   1      44.879  33.614  28.801  1.00  0.00     0.064 A 
ATOM     91  C   UNL A   1      44.482  34.646  27.939  1.00  0.00     0.173 A 
ATOM     92  C   UNL A   1      45.667  33.957  29.912  1.00  0.00     0.173 A 
ATOM     93  F   UNL A   1      43.739  34.373  26.856  1.00  0.00    -0.203 F 
ATOM     94  C   UNL A   1      44.880  35.963  28.165  1.00  0.00     0.198 A 
ATOM     95  C   UNL A   1      46.034  35.279  30.154  1.00  0.00     0.198 A 
ATOM     96  F   UNL A   1      46.068  33.013  30.776  1.00  0.00    -0.203 F 
ATOM     97  F   UNL A   1      44.530  36.924  27.298  1.00  0.00    -0.200 F 
ATOM     98  C   UNL A   1      45.647  36.279  29.276  1.00  0.00     0.200 A 
ATOM     99  F   UNL A   1      46.759  35.584  31.239  1.00  0.00    -0.200 F 
ATOM    100  F   UNL A   1      46.020  37.547  29.496  1.00  0.00    -0.200 F 
ENDBRANCH  67  90
ENDBRANCH  41  42
ENDBRANCH  34  36
ENDBRANCH  33  34
ENDBRANCH  32  33
ENDBRANCH  31  32
ENDBRANCH  30  31
ENDBRANCH  29  30
ENDBRANCH   1  29
TORSDOF 21
ENDMDL
MODEL 3
REMARK VINA RESULT:     -10.5      4.520      7.300
REMARK SMILES CC(C)C[NH+]1CC[NH+]([C@@H]2CC[C@]([NH3+])(C(=O)OCCOCCOCCOC(=O)c3ccc(-c4c5nc(c(-c6c(F)c(F)c(F)c(F)c6F)c6ccc([nH]6)c(-c6c(F)c(F)c(F)c(F)c6F)c6nc(c(-c7c(F)c(F)c(F)c(F)c7F)c7ccc4[nH]7)C=C6)C=C5)cc3)C2)CC1
REMARK SMILES IDX 20 1 19 2 18 3 17 4 16 5 14 6 15 7 12 8 9 9 10 10 91 11
REMARK SMILES IDX 11 12 8 13 5 14 6 15 93 16 7 18 92 19 4 21 2 22 1 23 3 24
REMARK SMILES IDX 13 25 21 29 22 30 23 31 24 32 25 33 26 34 27 35 28 36 29 37
REMARK SMILES IDX 90 38 30 39 89 40 31 41 32 42 33 43 83 44 34 45 88 46 82 47
REMARK SMILES IDX 84 48 35 49 87 50 81 51 80 52 36 54 68 55 48 56 67 57 49 58
REMARK SMILES IDX 52 59 66 60 85 61 50 62 51 63 65 65 86 66 53 67 37 68 38 69
REMARK SMILES IDX 46 70 39 71 40 72 44 73 47 74 41 75 42 76 45 77 43 78 69 79
REMARK SMILES IDX 70 80 78 81 71 82 72 83 76 84 79 85 73 86 74 87 77 88 75 89
REMARK SMILES IDX 54 90 55 91 63 92 56 93 57 94 61 95 64 96 58 97 59 98 62 99
REMARK SMILES IDX 60 100
REMARK H PARENT 5 17 8 20 13 26 13 27 13 28 84 53 52 64
REMARK Flexibility Score: inf
ROOT
ATOM      1  C   UNL A   1      36.195  24.041  25.020  1.00  0.00     0.188 C 
ENDROOT
BRANCH   1   2
ATOM      2  O   UNL A   1      34.895  24.529  25.337  1.00  0.00    -0.376 OA
BRANCH   2   3
ATOM      3  C   UNL A   1      34.412  25.703  24.699  1.00  0.00     0.202 C 
BRANCH   3   4
ATOM      4  C   UNL A   1      33.434  26.604  25.463  1.00  0.00     0.261 C 
BRANCH   4   5
ATOM      5  O   UNL A   1      32.759  25.945  26.544  1.00  0.00    -0.459 OA
BRANCH   5   6
ATOM      6  C   UNL A   1      31.399  25.913  26.501  1.00  0.00     0.368 C 
ATOM      7  O   UNL A   1      30.669  26.832  26.860  1.00  0.00    -0.245 OA
BRANCH   6   8
ATOM      8  C   UNL A   1      30.855  24.599  25.869  1.00  0.00     0.198 C 
ATOM      9  C   UNL A   1      31.837  22.598  24.875  1.00  0.00     0.191 C 
ATOM     10  C   UNL A   1      31.199  23.406  23.744  1.00  0.00     0.072 C 
ATOM     11  C   UNL A   1      31.942  23.547  26.064  1.00  0.00     0.145 C 
ATOM     12  C   UNL A   1      30.653  24.679  24.349  1.00  0.00     0.087 C 
BRANCH   9  13
ATOM     13  N   UNL A   1      33.055  21.835  24.589  1.00  0.00    -0.323 N 
ATOM     14  N   UNL A   1      33.061  18.876  25.168  1.00  0.00    -0.325 N 
ATOM     15  C   UNL A   1      33.281  19.853  26.242  1.00  0.00     0.324 C 
ATOM     16  C   UNL A   1      32.318  19.485  24.052  1.00  0.00     0.324 C 
ATOM     17  H   UNL A   1      32.488  18.148  25.592  1.00  0.00     0.348 HD
ATOM     18  C   UNL A   1      33.700  21.292  25.804  1.00  0.00     0.324 C 
ATOM     19  C   UNL A   1      32.958  20.788  23.557  1.00  0.00     0.324 C 
ATOM     20  H   UNL A   1      33.650  22.556  24.181  1.00  0.00     0.348 HD
BRANCH  14  21
ATOM     21  C   UNL A   1      34.246  18.136  24.712  1.00  0.00     0.265 C 
BRANCH  21  22
ATOM     22  C   UNL A   1      34.155  16.650  24.280  1.00  0.00     0.038 C 
ATOM     23  C   UNL A   1      32.978  15.899  24.913  1.00  0.00     0.013 C 
ATOM     24  C   UNL A   1      34.027  16.577  22.756  1.00  0.00     0.013 C 
ENDBRANCH  21  22
ENDBRANCH  14  21
ENDBRANCH   9  13
BRANCH   8  25
ATOM     25  N   UNL A   1      29.608  24.145  26.539  1.00  0.00    -0.343 N 
ATOM     26  H   UNL A   1      29.626  23.130  26.639  1.00  0.00     0.345 HD
ATOM     27  H   UNL A   1      28.802  24.417  25.976  1.00  0.00     0.345 HD
ATOM     28  H   UNL A   1      29.542  24.577  27.461  1.00  0.00     0.345 HD
ENDBRANCH   8  25
ENDBRANCH   6   8
ENDBRANCH   5   6
ENDBRANCH   4   5
ENDBRANCH   3   4
ENDBRANCH   2   3
ENDBRANCH   1   2
BRANCH   1  29
ATOM     29  C   UNL A   1      36.699  22.728  25.657  1.00  0.00     0.188 C 
BRANCH  29  30
ATOM     30  O   UNL A   1      37.342  21.873  24.744  1.00  0.00    -0.376 OA
BRANCH  30  31
ATOM     31  C   UNL A   1      37.381  20.498  25.048  1.00  0.00     0.202 C 
BRANCH  31  32
ATOM     32  C   UNL A   1      38.690  19.827  25.509  1.00  0.00     0.261 C 
BRANCH  32  33
ATOM     33  O   UNL A   1      39.856  20.653  25.690  1.00  0.00    -0.460 OA
BRANCH  33  34
ATOM     34  C   UNL A   1      40.402  20.718  26.926  1.00  0.00     0.338 C 
ATOM     35  O   UNL A   1      40.785  19.777  27.608  1.00  0.00    -0.246 OA
BRANCH  34  36
ATOM     36  C   UNL A   1      40.633  22.140  27.283  1.00  0.00     0.060 A 
ATOM     37  C   UNL A   1      39.930  23.147  26.604  1.00  0.00     0.016 A 
ATOM     38  C   UNL A   1      41.553  22.484  28.276  1.00  0.00     0.016 A 
ATOM     39  C   UNL A   1      40.176  24.498  26.886  1.00  0.00     0.010 A 
ATOM     40  C   UNL A   1      41.810  23.836  28.544  1.00  0.00     0.010 A 
ATOM     41  C   UNL A   1      41.150  24.853  27.830  1.00  0.00    -0.014 A 
BRANCH  41  42
ATOM     42  C   UNL A   1      41.618  26.263  27.953  1.00  0.00     0.031 A 
ATOM     43  C   UNL A   1      42.986  26.615  27.433  1.00  0.00     0.074 A 
ATOM     44  C   UNL A   1      40.865  27.219  28.531  1.00  0.00     0.049 A 
ATOM     45  N   UNL A   1      43.660  27.734  27.534  1.00  0.00    -0.248 NA
ATOM     46  C   UNL A   1      43.693  25.551  26.702  1.00  0.00     0.031 C 
ATOM     47  C   UNL A   1      39.509  27.037  29.039  1.00  0.00     0.029 A 
ATOM     48  N   UNL A   1      41.155  28.536  28.806  1.00  0.00    -0.354 N 
ATOM     49  C   UNL A   1      44.872  27.504  26.894  1.00  0.00     0.074 A 
ATOM     50  C   UNL A   1      44.854  26.132  26.434  1.00  0.00     0.031 C 
ATOM     51  C   UNL A   1      39.090  28.193  29.586  1.00  0.00     0.029 A 
ATOM     52  C   UNL A   1      40.164  29.184  29.503  1.00  0.00     0.049 A 
ATOM     53  H   UNL A   1      41.993  28.972  28.529  1.00  0.00     0.167 HD
ATOM     54  C   UNL A   1      45.906  28.359  26.701  1.00  0.00     0.037 A 
ATOM     55  C   UNL A   1      40.140  30.420  30.042  1.00  0.00     0.037 A 
ATOM     56  C   UNL A   1      45.932  29.722  27.162  1.00  0.00     0.049 A 
ATOM     57  C   UNL A   1      41.338  31.329  29.890  1.00  0.00     0.074 A 
ATOM     58  C   UNL A   1      46.932  30.668  27.002  1.00  0.00     0.029 A 
ATOM     59  N   UNL A   1      44.917  30.334  27.884  1.00  0.00    -0.354 N 
ATOM     60  N   UNL A   1      42.472  31.113  29.269  1.00  0.00    -0.248 NA
ATOM     61  C   UNL A   1      41.250  32.658  30.517  1.00  0.00     0.031 C 
ATOM     62  C   UNL A   1      46.548  31.830  27.679  1.00  0.00     0.029 A 
ATOM     63  C   UNL A   1      45.280  31.634  28.200  1.00  0.00     0.049 A 
ATOM     64  H   UNL A   1      44.067  29.906  28.134  1.00  0.00     0.167 HD
ATOM     65  C   UNL A   1      43.212  32.283  29.399  1.00  0.00     0.074 A 
ATOM     66  C   UNL A   1      42.395  33.212  30.147  1.00  0.00     0.031 C 
ATOM     67  C   UNL A   1      44.457  32.561  28.936  1.00  0.00     0.037 A 
BRANCH  54  68
ATOM     68  C   UNL A   1      47.116  27.832  25.983  1.00  0.00     0.064 A 
ATOM     69  C   UNL A   1      48.227  27.329  26.677  1.00  0.00     0.173 A 
ATOM     70  C   UNL A   1      47.149  27.796  24.581  1.00  0.00     0.173 A 
ATOM     71  F   UNL A   1      48.252  27.350  28.017  1.00  0.00    -0.203 F 
ATOM     72  C   UNL A   1      49.338  26.840  25.993  1.00  0.00     0.198 A 
ATOM     73  C   UNL A   1      48.246  27.274  23.901  1.00  0.00     0.198 A 
ATOM     74  F   UNL A   1      46.111  28.257  23.866  1.00  0.00    -0.203 F 
ATOM     75  F   UNL A   1      50.409  26.414  26.676  1.00  0.00    -0.200 F 
ATOM     76  C   UNL A   1      49.343  26.805  24.606  1.00  0.00     0.200 A 
ATOM     77  F   UNL A   1      48.242  27.226  22.561  1.00  0.00    -0.200 F 
ATOM     78  F   UNL A   1      50.408  26.326  23.951  1.00  0.00    -0.200 F 
ENDBRANCH  54  68
BRANCH  55  79
ATOM     79  C   UNL A   1      38.946  30.880  30.805  1.00  0.00     0.064 A 
ATOM     80  C   UNL A   1      37.911  31.588  30.176  1.00  0.00     0.173 A 
ATOM     81  C   UNL A   1      38.832  30.655  32.185  1.00  0.00     0.173 A 
ATOM     82  F   UNL A   1      37.987  31.860  28.864  1.00  0.00    -0.203 F 
ATOM     83  C   UNL A   1      36.821  32.068  30.899  1.00  0.00     0.198 A 
ATOM     84  C   UNL A   1      37.726  31.107  32.902  1.00  0.00     0.198 A 
ATOM     85  F   UNL A   1      39.798  29.994  32.839  1.00  0.00    -0.203 F 
ATOM     86  F   UNL A   1      35.876  32.791  30.283  1.00  0.00    -0.200 F 
ATOM     87  C   UNL A   1      36.726  31.820  32.261  1.00  0.00     0.200 A 
ATOM     88  F   UNL A   1      37.634  30.859  34.216  1.00  0.00    -0.200 F 
ATOM     89  F   UNL A   1      35.678  32.283  32.956  1.00  0.00    -0.200 F 
ENDBRANCH  55  79
BRANCH  67  90
ATOM     90  C   UNL A   1      45.001  33.943  29.176  1.00  0.00     0.064 A 
ATOM     91  C   UNL A   1      45.783  34.249  30.300  1.00  0.00     0.173 A 
ATOM     92  C   UNL A   1      44.775  34.964  28.239  1.00  0.00     0.173 A 
ATOM     93  F   UNL A   1      46.020  33.315  31.232  1.00  0.00    -0.203 F 
ATOM     94  C   UNL A   1      46.292  35.533  30.491  1.00  0.00     0.198 A 
ATOM     95  C   UNL A   1      45.315  36.236  28.415  1.00  0.00     0.198 A 
ATOM     96  F   UNL A   1      44.043  34.726  27.140  1.00  0.00    -0.203 F 
ATOM     97  F   UNL A   1      46.993  35.814  31.598  1.00  0.00    -0.200 F 
ATOM     98  C   UNL A   1      46.066  36.521  29.545  1.00  0.00     0.200 A 
ATOM     99  F   UNL A   1      45.110  37.184  27.491  1.00  0.00    -0.200 F 
ATOM    100  F   UNL A   1      46.565  37.751  29.727  1.00  0.00    -0.200 F 
ENDBRANCH  67  90
ENDBRANCH  41  42
ENDBRANCH  34  36
ENDBRANCH  33  34
ENDBRANCH  32  33
ENDBRANCH  31  32
ENDBRANCH  30  31
ENDBRANCH  29  30
ENDBRANCH   1  29
TORSDOF 21
ENDMDL
