MODEL 1
REMARK VINA RESULT:      -9.4      0.000      0.000
REMARK SMILES CCNC(=O)C[NH2+][C@@H](C)[C@@H](C)C(=O)OCCOCCOCCOC(=O)c1ccc(-c2c3nc(c(-c4c(F)c(F)c(F)c(F)c4F)c4ccc([nH]4)c(-c4c(F)c(F)c(F)c(F)c4F)c4nc(c(-c5c(F)c(F)c(F)c(F)c5F)c5ccc2[nH]5)C=C4)C=C3)cc1
REMARK SMILES IDX 17 1 16 2 15 3 14 4 12 5 13 6 10 7 11 8 8 9 9 10 7 11 6 14
REMARK SMILES IDX 4 15 3 16 5 18 2 19 1 20 18 21 19 22 20 23 21 24 22 25 23 26
REMARK SMILES IDX 24 27 25 28 26 29 27 30 88 31 28 32 87 33 29 34 30 35 31 36
REMARK SMILES IDX 81 37 32 38 86 39 80 40 82 41 33 42 85 43 79 44 78 45 34 47
REMARK SMILES IDX 66 48 46 49 65 50 47 51 50 52 64 53 83 54 48 55 49 56 63 58
REMARK SMILES IDX 84 59 51 60 35 61 36 62 44 63 37 64 38 65 42 66 45 67 39 68
REMARK SMILES IDX 40 69 43 70 41 71 67 72 68 73 76 74 69 75 70 76 74 77 77 78
REMARK SMILES IDX 71 79 72 80 75 81 73 82 52 83 53 84 61 85 54 86 55 87 59 88
REMARK SMILES IDX 62 89 56 90 57 91 60 92 58 93
REMARK H PARENT 7 12 7 13 3 17 82 46 50 57
REMARK Flexibility Score: inf
ROOT
ATOM      1  O   UNL A   1      32.209  27.401  27.464  1.00  0.00    -0.376 OA
ENDROOT
BRANCH   1   2
ATOM      2  C   UNL A   1      32.421  26.583  26.315  1.00  0.00     0.202 C 
BRANCH   2   3
ATOM      3  C   UNL A   1      31.530  25.343  26.115  1.00  0.00     0.261 C 
BRANCH   3   4
ATOM      4  O   UNL A   1      32.090  24.042  26.464  1.00  0.00    -0.463 OA
BRANCH   4   5
ATOM      5  C   UNL A   1      33.009  23.570  25.586  1.00  0.00     0.314 C 
ATOM      6  O   UNL A   1      32.710  23.145  24.469  1.00  0.00    -0.252 OA
BRANCH   5   7
ATOM      7  C   UNL A   1      34.469  23.496  26.038  1.00  0.00     0.154 C 
ATOM      8  C   UNL A   1      35.215  24.487  25.127  1.00  0.00     0.026 C 
BRANCH   7   9
ATOM      9  C   UNL A   1      35.291  22.180  26.170  1.00  0.00     0.193 C 
ATOM     10  C   UNL A   1      36.334  22.005  25.079  1.00  0.00     0.076 C 
BRANCH   9  11
ATOM     11  N   UNL A   1      34.327  21.049  26.131  1.00  0.00    -0.336 N 
ATOM     12  H   UNL A   1      34.433  20.517  26.994  1.00  0.00     0.346 HD
ATOM     13  H   UNL A   1      33.405  21.472  26.016  1.00  0.00     0.346 HD
BRANCH  11  14
ATOM     14  C   UNL A   1      34.484  20.117  25.002  1.00  0.00     0.362 C 
BRANCH  14  15
ATOM     15  C   UNL A   1      33.181  19.346  24.751  1.00  0.00     0.275 C 
ATOM     16  N   UNL A   1      33.230  18.098  24.199  1.00  0.00    -0.351 N 
ATOM     17  H   UNL A   1      32.369  17.715  23.915  1.00  0.00     0.163 HD
ATOM     18  O   UNL A   1      32.081  19.843  25.002  1.00  0.00    -0.269 OA
BRANCH  16  19
ATOM     19  C   UNL A   1      34.399  17.269  23.981  1.00  0.00     0.112 C 
ATOM     20  C   UNL A   1      34.448  16.146  25.002  1.00  0.00     0.027 C 
ENDBRANCH  16  19
ENDBRANCH  14  15
ENDBRANCH  11  14
ENDBRANCH   9  11
ENDBRANCH   7   9
ENDBRANCH   5   7
ENDBRANCH   4   5
ENDBRANCH   3   4
ENDBRANCH   2   3
ENDBRANCH   1   2
BRANCH   1  21
ATOM     21  C   UNL A   1      32.272  28.806  27.309  1.00  0.00     0.188 C 
BRANCH  21  22
ATOM     22  C   UNL A   1      31.691  29.420  26.030  1.00  0.00     0.188 C 
BRANCH  22  23
ATOM     23  O   UNL A   1      31.676  30.835  26.041  1.00  0.00    -0.376 OA
BRANCH  23  24
ATOM     24  C   UNL A   1      32.605  31.515  26.876  1.00  0.00     0.202 C 
BRANCH  24  25
ATOM     25  C   UNL A   1      32.177  32.952  27.197  1.00  0.00     0.261 C 
BRANCH  25  26
ATOM     26  O   UNL A   1      33.289  33.841  27.414  1.00  0.00    -0.460 OA
BRANCH  26  27
ATOM     27  C   UNL A   1      33.664  34.017  28.702  1.00  0.00     0.338 C 
ATOM     28  O   UNL A   1      33.032  34.580  29.579  1.00  0.00    -0.246 OA
BRANCH  27  29
ATOM     29  C   UNL A   1      34.868  33.194  28.956  1.00  0.00     0.060 A 
ATOM     30  C   UNL A   1      34.683  31.902  29.464  1.00  0.00     0.016 A 
ATOM     31  C   UNL A   1      36.154  33.664  28.676  1.00  0.00     0.016 A 
ATOM     32  C   UNL A   1      35.786  31.105  29.766  1.00  0.00     0.010 A 
ATOM     33  C   UNL A   1      37.261  32.866  28.982  1.00  0.00     0.010 A 
ATOM     34  C   UNL A   1      37.081  31.605  29.578  1.00  0.00    -0.014 A 
BRANCH  34  35
ATOM     35  C   UNL A   1      38.220  30.921  30.237  1.00  0.00     0.031 A 
ATOM     36  C   UNL A   1      38.489  31.235  31.685  1.00  0.00     0.074 A 
ATOM     37  C   UNL A   1      38.961  29.998  29.600  1.00  0.00     0.049 A 
ATOM     38  N   UNL A   1      39.429  30.788  32.478  1.00  0.00    -0.248 NA
ATOM     39  C   UNL A   1      37.568  32.190  32.324  1.00  0.00     0.031 C 
ATOM     40  C   UNL A   1      38.773  29.568  28.217  1.00  0.00     0.029 A 
ATOM     41  N   UNL A   1      40.027  29.256  30.044  1.00  0.00    -0.354 N 
ATOM     42  C   UNL A   1      39.214  31.408  33.701  1.00  0.00     0.074 A 
ATOM     43  C   UNL A   1      38.084  32.295  33.538  1.00  0.00     0.031 C 
ATOM     44  C   UNL A   1      39.698  28.637  27.922  1.00  0.00     0.029 A 
ATOM     45  C   UNL A   1      40.563  28.432  29.085  1.00  0.00     0.049 A 
ATOM     46  H   UNL A   1      40.375  29.309  30.964  1.00  0.00     0.167 HD
ATOM     47  C   UNL A   1      39.885  31.242  34.866  1.00  0.00     0.037 A 
ATOM     48  C   UNL A   1      41.638  27.620  29.139  1.00  0.00     0.037 A 
ATOM     49  C   UNL A   1      41.007  30.360  35.032  1.00  0.00     0.049 A 
ATOM     50  C   UNL A   1      42.414  27.504  30.427  1.00  0.00     0.074 A 
ATOM     51  C   UNL A   1      41.761  30.126  36.168  1.00  0.00     0.029 A 
ATOM     52  N   UNL A   1      41.540  29.565  34.027  1.00  0.00    -0.354 N 
ATOM     53  N   UNL A   1      42.204  28.091  31.581  1.00  0.00    -0.248 NA
ATOM     54  C   UNL A   1      43.578  26.605  30.419  1.00  0.00     0.031 C 
ATOM     55  C   UNL A   1      42.782  29.228  35.838  1.00  0.00     0.029 A 
ATOM     56  C   UNL A   1      42.626  28.854  34.512  1.00  0.00     0.049 A 
ATOM     57  H   UNL A   1      41.197  29.513  33.106  1.00  0.00     0.167 HD
ATOM     58  C   UNL A   1      43.185  27.610  32.441  1.00  0.00     0.074 A 
ATOM     59  C   UNL A   1      43.982  26.672  31.680  1.00  0.00     0.031 C 
ATOM     60  C   UNL A   1      43.406  27.917  33.744  1.00  0.00     0.037 A 
BRANCH  47  61
ATOM     61  C   UNL A   1      39.433  32.061  36.040  1.00  0.00     0.064 A 
ATOM     62  C   UNL A   1      38.405  31.628  36.892  1.00  0.00     0.173 A 
ATOM     63  C   UNL A   1      40.038  33.296  36.317  1.00  0.00     0.173 A 
ATOM     64  F   UNL A   1      37.779  30.465  36.658  1.00  0.00    -0.203 F 
ATOM     65  C   UNL A   1      37.978  32.417  37.958  1.00  0.00     0.198 A 
ATOM     66  C   UNL A   1      39.631  34.066  37.403  1.00  0.00     0.198 A 
ATOM     67  F   UNL A   1      41.025  33.757  35.534  1.00  0.00    -0.203 F 
ATOM     68  F   UNL A   1      36.953  32.012  38.721  1.00  0.00    -0.200 F 
ATOM     69  C   UNL A   1      38.595  33.631  38.216  1.00  0.00     0.200 A 
ATOM     70  F   UNL A   1      40.237  35.234  37.657  1.00  0.00    -0.200 F 
ATOM     71  F   UNL A   1      38.184  34.388  39.242  1.00  0.00    -0.200 F 
ENDBRANCH  47  61
BRANCH  48  72
ATOM     72  C   UNL A   1      42.057  26.863  27.930  1.00  0.00     0.064 A 
ATOM     73  C   UNL A   1      41.552  25.585  27.657  1.00  0.00     0.173 A 
ATOM     74  C   UNL A   1      42.999  27.395  27.035  1.00  0.00     0.173 A 
ATOM     75  F   UNL A   1      40.672  25.019  28.497  1.00  0.00    -0.203 F 
ATOM     76  C   UNL A   1      41.985  24.859  26.548  1.00  0.00     0.198 A 
ATOM     77  C   UNL A   1      43.408  26.682  25.911  1.00  0.00     0.198 A 
ATOM     78  F   UNL A   1      43.519  28.611  27.253  1.00  0.00    -0.203 F 
ATOM     79  F   UNL A   1      41.526  23.618  26.341  1.00  0.00    -0.200 F 
ATOM     80  C   UNL A   1      42.909  25.411  25.673  1.00  0.00     0.200 A 
ATOM     81  F   UNL A   1      44.293  27.223  25.063  1.00  0.00    -0.200 F 
ATOM     82  F   UNL A   1      43.324  24.714  24.606  1.00  0.00    -0.200 F 
ENDBRANCH  48  72
BRANCH  60  83
ATOM     83  C   UNL A   1      44.526  27.200  34.445  1.00  0.00     0.064 A 
ATOM     84  C   UNL A   1      45.819  27.740  34.519  1.00  0.00     0.173 A 
ATOM     85  C   UNL A   1      44.291  25.973  35.084  1.00  0.00     0.173 A 
ATOM     86  F   UNL A   1      46.100  28.905  33.917  1.00  0.00    -0.203 F 
ATOM     87  C   UNL A   1      46.842  27.061  35.177  1.00  0.00     0.198 A 
ATOM     88  C   UNL A   1      45.308  25.313  35.768  1.00  0.00     0.198 A 
ATOM     89  F   UNL A   1      43.071  25.417  35.054  1.00  0.00    -0.203 F 
ATOM     90  F   UNL A   1      48.083  27.568  35.187  1.00  0.00    -0.200 F 
ATOM     91  C   UNL A   1      46.584  25.852  35.806  1.00  0.00     0.200 A 
ATOM     92  F   UNL A   1      45.053  24.154  36.391  1.00  0.00    -0.200 F 
ATOM     93  F   UNL A   1      47.569  25.202  36.442  1.00  0.00    -0.200 F 
ENDBRANCH  60  83
ENDBRANCH  34  35
ENDBRANCH  27  29
ENDBRANCH  26  27
ENDBRANCH  25  26
ENDBRANCH  24  25
ENDBRANCH  23  24
ENDBRANCH  22  23
ENDBRANCH  21  22
ENDBRANCH   1  21
TORSDOF 22
ENDMDL
MODEL 2
REMARK VINA RESULT:      -9.2      1.622      3.180
REMARK SMILES CCNC(=O)C[NH2+][C@@H](C)[C@@H](C)C(=O)OCCOCCOCCOC(=O)c1ccc(-c2c3nc(c(-c4c(F)c(F)c(F)c(F)c4F)c4ccc([nH]4)c(-c4c(F)c(F)c(F)c(F)c4F)c4nc(c(-c5c(F)c(F)c(F)c(F)c5F)c5ccc2[nH]5)C=C4)C=C3)cc1
REMARK SMILES IDX 17 1 16 2 15 3 14 4 12 5 13 6 10 7 11 8 8 9 9 10 7 11 6 14
REMARK SMILES IDX 4 15 3 16 5 18 2 19 1 20 18 21 19 22 20 23 21 24 22 25 23 26
REMARK SMILES IDX 24 27 25 28 26 29 27 30 88 31 28 32 87 33 29 34 30 35 31 36
REMARK SMILES IDX 81 37 32 38 86 39 80 40 82 41 33 42 85 43 79 44 78 45 34 47
REMARK SMILES IDX 66 48 46 49 65 50 47 51 50 52 64 53 83 54 48 55 49 56 63 58
REMARK SMILES IDX 84 59 51 60 35 61 36 62 44 63 37 64 38 65 42 66 45 67 39 68
REMARK SMILES IDX 40 69 43 70 41 71 67 72 68 73 76 74 69 75 70 76 74 77 77 78
REMARK SMILES IDX 71 79 72 80 75 81 73 82 52 83 53 84 61 85 54 86 55 87 59 88
REMARK SMILES IDX 62 89 56 90 57 91 60 92 58 93
REMARK H PARENT 7 12 7 13 3 17 82 46 50 57
REMARK Flexibility Score: inf
ROOT
ATOM      1  O   UNL A   1      32.885  27.129  23.573  1.00  0.00    -0.376 OA
ENDROOT
BRANCH   1   2
ATOM      2  C   UNL A   1      33.426  26.593  22.368  1.00  0.00     0.202 C 
BRANCH   2   3
ATOM      3  C   UNL A   1      33.129  25.125  22.012  1.00  0.00     0.261 C 
BRANCH   3   4
ATOM      4  O   UNL A   1      32.530  24.285  23.044  1.00  0.00    -0.463 OA
BRANCH   4   5
ATOM      5  C   UNL A   1      33.204  23.136  23.297  1.00  0.00     0.314 C 
ATOM      6  O   UNL A   1      32.865  22.046  22.834  1.00  0.00    -0.252 OA
BRANCH   5   7
ATOM      7  C   UNL A   1      34.391  23.192  24.260  1.00  0.00     0.154 C 
ATOM      8  C   UNL A   1      34.894  21.740  24.352  1.00  0.00     0.026 C 
BRANCH   7   9
ATOM      9  C   UNL A   1      34.350  23.827  25.681  1.00  0.00     0.193 C 
ATOM     10  C   UNL A   1      33.907  22.858  26.765  1.00  0.00     0.076 C 
BRANCH   9  11
ATOM     11  N   UNL A   1      33.415  24.981  25.625  1.00  0.00    -0.336 N 
ATOM     12  H   UNL A   1      33.880  25.781  26.053  1.00  0.00     0.346 HD
ATOM     13  H   UNL A   1      33.193  25.112  24.638  1.00  0.00     0.346 HD
BRANCH  11  14
ATOM     14  C   UNL A   1      32.124  24.789  26.306  1.00  0.00     0.362 C 
BRANCH  14  15
ATOM     15  C   UNL A   1      31.430  26.138  26.541  1.00  0.00     0.275 C 
ATOM     16  N   UNL A   1      30.431  26.538  25.700  1.00  0.00    -0.351 N 
ATOM     17  H   UNL A   1      30.131  27.470  25.798  1.00  0.00     0.163 HD
ATOM     18  O   UNL A   1      31.778  26.889  27.454  1.00  0.00    -0.269 OA
BRANCH  16  19
ATOM     19  C   UNL A   1      29.761  25.756  24.680  1.00  0.00     0.112 C 
ATOM     20  C   UNL A   1      29.309  26.651  23.540  1.00  0.00     0.027 C 
ENDBRANCH  16  19
ENDBRANCH  14  15
ENDBRANCH  11  14
ENDBRANCH   9  11
ENDBRANCH   7   9
ENDBRANCH   5   7
ENDBRANCH   4   5
ENDBRANCH   3   4
ENDBRANCH   2   3
ENDBRANCH   1   2
BRANCH   1  21
ATOM     21  C   UNL A   1      32.885  28.535  23.743  1.00  0.00     0.188 C 
BRANCH  21  22
ATOM     22  C   UNL A   1      31.557  29.283  23.580  1.00  0.00     0.188 C 
BRANCH  22  23
ATOM     23  O   UNL A   1      30.973  29.668  24.811  1.00  0.00    -0.376 OA
BRANCH  23  24
ATOM     24  C   UNL A   1      31.812  29.764  25.956  1.00  0.00     0.202 C 
BRANCH  24  25
ATOM     25  C   UNL A   1      32.294  31.195  26.221  1.00  0.00     0.261 C 
BRANCH  25  26
ATOM     26  O   UNL A   1      32.777  31.392  27.564  1.00  0.00    -0.460 OA
BRANCH  26  27
ATOM     27  C   UNL A   1      33.631  32.426  27.741  1.00  0.00     0.338 C 
ATOM     28  O   UNL A   1      33.344  33.608  27.822  1.00  0.00    -0.246 OA
BRANCH  27  29
ATOM     29  C   UNL A   1      34.965  31.880  28.078  1.00  0.00     0.060 A 
ATOM     30  C   UNL A   1      35.083  30.494  28.242  1.00  0.00     0.016 A 
ATOM     31  C   UNL A   1      36.088  32.702  28.202  1.00  0.00     0.016 A 
ATOM     32  C   UNL A   1      36.306  29.934  28.605  1.00  0.00     0.010 A 
ATOM     33  C   UNL A   1      37.315  32.142  28.571  1.00  0.00     0.010 A 
ATOM     34  C   UNL A   1      37.415  30.763  28.826  1.00  0.00    -0.014 A 
BRANCH  34  35
ATOM     35  C   UNL A   1      38.584  30.222  29.563  1.00  0.00     0.031 A 
ATOM     36  C   UNL A   1      38.788  30.669  30.986  1.00  0.00     0.074 A 
ATOM     37  C   UNL A   1      39.408  29.312  29.017  1.00  0.00     0.049 A 
ATOM     38  N   UNL A   1      39.737  30.359  31.832  1.00  0.00    -0.248 NA
ATOM     39  C   UNL A   1      37.781  31.597  31.526  1.00  0.00     0.031 C 
ATOM     40  C   UNL A   1      39.291  28.761  27.670  1.00  0.00     0.029 A 
ATOM     41  N   UNL A   1      40.514  28.691  29.543  1.00  0.00    -0.354 N 
ATOM     42  C   UNL A   1      39.442  31.054  32.997  1.00  0.00     0.074 A 
ATOM     43  C   UNL A   1      38.254  31.837  32.739  1.00  0.00     0.031 C 
ATOM     44  C   UNL A   1      40.291  27.884  27.471  1.00  0.00     0.029 A 
ATOM     45  C   UNL A   1      41.136  27.837  28.665  1.00  0.00     0.049 A 
ATOM     46  H   UNL A   1      40.832  28.842  30.463  1.00  0.00     0.167 HD
ATOM     47  C   UNL A   1      40.091  31.032  34.185  1.00  0.00     0.037 A 
ATOM     48  C   UNL A   1      42.267  27.117  28.807  1.00  0.00     0.037 A 
ATOM     49  C   UNL A   1      41.272  30.254  34.446  1.00  0.00     0.049 A 
ATOM     50  C   UNL A   1      43.014  27.163  30.116  1.00  0.00     0.074 A 
ATOM     51  C   UNL A   1      42.010  30.169  35.613  1.00  0.00     0.029 A 
ATOM     52  N   UNL A   1      41.890  29.426  33.520  1.00  0.00    -0.354 N 
ATOM     53  N   UNL A   1      42.729  27.820  31.215  1.00  0.00    -0.248 NA
ATOM     54  C   UNL A   1      44.241  26.357  30.206  1.00  0.00     0.031 C 
ATOM     55  C   UNL A   1      43.103  29.329  35.378  1.00  0.00     0.029 A 
ATOM     56  C   UNL A   1      43.011  28.841  34.084  1.00  0.00     0.049 A 
ATOM     57  H   UNL A   1      41.577  29.276  32.598  1.00  0.00     0.167 HD
ATOM     58  C   UNL A   1      43.719  27.485  32.132  1.00  0.00     0.074 A 
ATOM     59  C   UNL A   1      44.604  26.554  31.465  1.00  0.00     0.031 C 
ATOM     60  C   UNL A   1      43.881  27.910  33.410  1.00  0.00     0.037 A 
BRANCH  47  61
ATOM     61  C   UNL A   1      39.547  31.904  35.280  1.00  0.00     0.064 A 
ATOM     62  C   UNL A   1      38.626  31.420  36.222  1.00  0.00     0.173 A 
ATOM     63  C   UNL A   1      39.955  33.242  35.389  1.00  0.00     0.173 A 
ATOM     64  F   UNL A   1      38.188  30.155  36.149  1.00  0.00    -0.203 F 
ATOM     65  C   UNL A   1      38.108  32.254  37.211  1.00  0.00     0.198 A 
ATOM     66  C   UNL A   1      39.461  34.062  36.399  1.00  0.00     0.198 A 
ATOM     67  F   UNL A   1      40.833  33.755  34.514  1.00  0.00    -0.203 F 
ATOM     68  F   UNL A   1      37.184  31.787  38.061  1.00  0.00    -0.200 F 
ATOM     69  C   UNL A   1      38.530  33.570  37.302  1.00  0.00     0.200 A 
ATOM     70  F   UNL A   1      39.879  35.332  36.492  1.00  0.00    -0.200 F 
ATOM     71  F   UNL A   1      38.033  34.371  38.255  1.00  0.00    -0.200 F 
ENDBRANCH  47  61
BRANCH  48  72
ATOM     72  C   UNL A   1      42.775  26.302  27.672  1.00  0.00     0.064 A 
ATOM     73  C   UNL A   1      43.661  26.837  26.728  1.00  0.00     0.173 A 
ATOM     74  C   UNL A   1      42.357  24.974  27.492  1.00  0.00     0.173 A 
ATOM     75  F   UNL A   1      44.067  28.111  26.837  1.00  0.00    -0.203 F 
ATOM     76  C   UNL A   1      44.096  26.083  25.638  1.00  0.00     0.198 A 
ATOM     77  C   UNL A   1      42.815  24.212  26.421  1.00  0.00     0.198 A 
ATOM     78  F   UNL A   1      41.503  24.415  28.363  1.00  0.00    -0.203 F 
ATOM     79  F   UNL A   1      44.900  26.637  24.721  1.00  0.00    -0.200 F 
ATOM     80  C   UNL A   1      43.677  24.769  25.489  1.00  0.00     0.200 A 
ATOM     81  F   UNL A   1      42.416  22.940  26.287  1.00  0.00    -0.200 F 
ATOM     82  F   UNL A   1      44.096  24.045  24.442  1.00  0.00    -0.200 F 
ENDBRANCH  48  72
BRANCH  60  83
ATOM     83  C   UNL A   1      45.031  27.338  34.191  1.00  0.00     0.064 A 
ATOM     84  C   UNL A   1      44.911  26.145  34.920  1.00  0.00     0.173 A 
ATOM     85  C   UNL A   1      46.282  27.975  34.179  1.00  0.00     0.173 A 
ATOM     86  F   UNL A   1      43.736  25.502  34.973  1.00  0.00    -0.203 F 
ATOM     87  C   UNL A   1      45.991  25.630  35.634  1.00  0.00     0.198 A 
ATOM     88  C   UNL A   1      47.367  27.440  34.867  1.00  0.00     0.198 A 
ATOM     89  F   UNL A   1      46.455  29.112  33.489  1.00  0.00    -0.203 F 
ATOM     90  F   UNL A   1      45.838  24.520  36.369  1.00  0.00    -0.200 F 
ATOM     91  C   UNL A   1      47.219  26.275  35.602  1.00  0.00     0.200 A 
ATOM     92  F   UNL A   1      48.557  28.055  34.820  1.00  0.00    -0.200 F 
ATOM     93  F   UNL A   1      48.257  25.776  36.286  1.00  0.00    -0.200 F 
ENDBRANCH  60  83
ENDBRANCH  34  35
ENDBRANCH  27  29
ENDBRANCH  26  27
ENDBRANCH  25  26
ENDBRANCH  24  25
ENDBRANCH  23  24
ENDBRANCH  22  23
ENDBRANCH  21  22
ENDBRANCH   1  21
TORSDOF 22
ENDMDL
MODEL 3
REMARK VINA RESULT:      -8.9      1.327      2.195
REMARK SMILES CCNC(=O)C[NH2+][C@@H](C)[C@@H](C)C(=O)OCCOCCOCCOC(=O)c1ccc(-c2c3nc(c(-c4c(F)c(F)c(F)c(F)c4F)c4ccc([nH]4)c(-c4c(F)c(F)c(F)c(F)c4F)c4nc(c(-c5c(F)c(F)c(F)c(F)c5F)c5ccc2[nH]5)C=C4)C=C3)cc1
REMARK SMILES IDX 17 1 16 2 15 3 14 4 12 5 13 6 10 7 11 8 8 9 9 10 7 11 6 14
REMARK SMILES IDX 4 15 3 16 5 18 2 19 1 20 18 21 19 22 20 23 21 24 22 25 23 26
REMARK SMILES IDX 24 27 25 28 26 29 27 30 88 31 28 32 87 33 29 34 30 35 31 36
REMARK SMILES IDX 81 37 32 38 86 39 80 40 82 41 33 42 85 43 79 44 78 45 34 47
REMARK SMILES IDX 66 48 46 49 65 50 47 51 50 52 64 53 83 54 48 55 49 56 63 58
REMARK SMILES IDX 84 59 51 60 35 61 36 62 44 63 37 64 38 65 42 66 45 67 39 68
REMARK SMILES IDX 40 69 43 70 41 71 67 72 68 73 76 74 69 75 70 76 74 77 77 78
REMARK SMILES IDX 71 79 72 80 75 81 73 82 52 83 53 84 61 85 54 86 55 87 59 88
REMARK SMILES IDX 62 89 56 90 57 91 60 92 58 93
REMARK H PARENT 7 12 7 13 3 17 82 46 50 57
REMARK Flexibility Score: inf
ROOT
ATOM      1  O   UNL A   1      32.890  26.782  23.816  1.00  0.00    -0.376 OA
ENDROOT
BRANCH   1   2
ATOM      2  C   UNL A   1      33.271  26.222  22.560  1.00  0.00     0.202 C 
BRANCH   2   3
ATOM      3  C   UNL A   1      32.834  24.785  22.227  1.00  0.00     0.261 C 
BRANCH   3   4
ATOM      4  O   UNL A   1      32.476  23.909  23.339  1.00  0.00    -0.463 OA
BRANCH   4   5
ATOM      5  C   UNL A   1      33.217  22.777  23.425  1.00  0.00     0.314 C 
ATOM      6  O   UNL A   1      32.906  21.729  22.858  1.00  0.00    -0.252 OA
BRANCH   5   7
ATOM      7  C   UNL A   1      34.452  22.790  24.328  1.00  0.00     0.154 C 
ATOM      8  C   UNL A   1      35.647  22.878  23.362  1.00  0.00     0.026 C 
BRANCH   7   9
ATOM      9  C   UNL A   1      34.749  21.740  25.439  1.00  0.00     0.193 C 
ATOM     10  C   UNL A   1      36.099  21.059  25.284  1.00  0.00     0.076 C 
BRANCH   9  11
ATOM     11  N   UNL A   1      33.664  20.724  25.390  1.00  0.00    -0.336 N 
ATOM     12  H   UNL A   1      33.269  20.644  26.326  1.00  0.00     0.346 HD
ATOM     13  H   UNL A   1      33.003  21.056  24.689  1.00  0.00     0.346 HD
BRANCH  11  14
ATOM     14  C   UNL A   1      34.072  19.379  24.953  1.00  0.00     0.362 C 
BRANCH  14  15
ATOM     15  C   UNL A   1      32.865  18.430  24.925  1.00  0.00     0.275 C 
ATOM     16  N   UNL A   1      32.394  17.971  23.728  1.00  0.00    -0.351 N 
ATOM     17  H   UNL A   1      31.532  17.499  23.754  1.00  0.00     0.163 HD
ATOM     18  O   UNL A   1      32.283  18.099  25.960  1.00  0.00    -0.269 OA
BRANCH  16  19
ATOM     19  C   UNL A   1      33.013  18.097  22.423  1.00  0.00     0.112 C 
ATOM     20  C   UNL A   1      31.972  18.452  21.377  1.00  0.00     0.027 C 
ENDBRANCH  16  19
ENDBRANCH  14  15
ENDBRANCH  11  14
ENDBRANCH   9  11
ENDBRANCH   7   9
ENDBRANCH   5   7
ENDBRANCH   4   5
ENDBRANCH   3   4
ENDBRANCH   2   3
ENDBRANCH   1   2
BRANCH   1  21
ATOM     21  C   UNL A   1      33.291  28.107  24.110  1.00  0.00     0.188 C 
BRANCH  21  22
ATOM     22  C   UNL A   1      32.229  29.212  24.060  1.00  0.00     0.188 C 
BRANCH  22  23
ATOM     23  O   UNL A   1      31.457  29.305  25.243  1.00  0.00    -0.376 OA
BRANCH  23  24
ATOM     24  C   UNL A   1      32.109  29.686  26.448  1.00  0.00     0.202 C 
BRANCH  24  25
ATOM     25  C   UNL A   1      32.508  31.166  26.465  1.00  0.00     0.261 C 
BRANCH  25  26
ATOM     26  O   UNL A   1      32.814  31.657  27.783  1.00  0.00    -0.460 OA
BRANCH  26  27
ATOM     27  C   UNL A   1      33.738  32.643  27.850  1.00  0.00     0.338 C 
ATOM     28  O   UNL A   1      33.529  33.844  27.848  1.00  0.00    -0.246 OA
BRANCH  27  29
ATOM     29  C   UNL A   1      35.048  32.037  28.180  1.00  0.00     0.060 A 
ATOM     30  C   UNL A   1      35.089  30.658  28.422  1.00  0.00     0.016 A 
ATOM     31  C   UNL A   1      36.221  32.795  28.223  1.00  0.00     0.016 A 
ATOM     32  C   UNL A   1      36.288  30.047  28.783  1.00  0.00     0.010 A 
ATOM     33  C   UNL A   1      37.423  32.184  28.589  1.00  0.00     0.010 A 
ATOM     34  C   UNL A   1      37.450  30.818  28.922  1.00  0.00    -0.014 A 
BRANCH  34  35
ATOM     35  C   UNL A   1      38.608  30.250  29.656  1.00  0.00     0.031 A 
ATOM     36  C   UNL A   1      38.834  30.701  31.074  1.00  0.00     0.074 A 
ATOM     37  C   UNL A   1      39.403  29.313  29.113  1.00  0.00     0.049 A 
ATOM     38  N   UNL A   1      39.779  30.371  31.917  1.00  0.00    -0.248 NA
ATOM     39  C   UNL A   1      37.857  31.662  31.614  1.00  0.00     0.031 C 
ATOM     40  C   UNL A   1      39.262  28.755  27.770  1.00  0.00     0.029 A 
ATOM     41  N   UNL A   1      40.495  28.665  29.636  1.00  0.00    -0.354 N 
ATOM     42  C   UNL A   1      39.511  31.084  33.078  1.00  0.00     0.074 A 
ATOM     43  C   UNL A   1      38.344  31.897  32.821  1.00  0.00     0.031 C 
ATOM     44  C   UNL A   1      40.236  27.849  27.572  1.00  0.00     0.029 A 
ATOM     45  C   UNL A   1      41.087  27.788  28.761  1.00  0.00     0.049 A 
ATOM     46  H   UNL A   1      40.823  28.814  30.553  1.00  0.00     0.167 HD
ATOM     47  C   UNL A   1      40.167  31.053  34.263  1.00  0.00     0.037 A 
ATOM     48  C   UNL A   1      42.198  27.037  28.901  1.00  0.00     0.037 A 
ATOM     49  C   UNL A   1      41.327  30.244  34.522  1.00  0.00     0.049 A 
ATOM     50  C   UNL A   1      42.955  27.072  30.206  1.00  0.00     0.074 A 
ATOM     51  C   UNL A   1      42.070  30.147  35.686  1.00  0.00     0.029 A 
ATOM     52  N   UNL A   1      41.916  29.392  33.599  1.00  0.00    -0.354 N 
ATOM     53  N   UNL A   1      42.695  27.745  31.301  1.00  0.00    -0.248 NA
ATOM     54  C   UNL A   1      44.159  26.233  30.294  1.00  0.00     0.031 C 
ATOM     55  C   UNL A   1      43.138  29.275  35.450  1.00  0.00     0.029 A 
ATOM     56  C   UNL A   1      43.024  28.780  34.160  1.00  0.00     0.049 A 
ATOM     57  H   UNL A   1      41.593  29.244  32.680  1.00  0.00     0.167 HD
ATOM     58  C   UNL A   1      43.681  27.390  32.215  1.00  0.00     0.074 A 
ATOM     59  C   UNL A   1      44.535  26.429  31.550  1.00  0.00     0.031 C 
ATOM     60  C   UNL A   1      43.863  27.819  33.488  1.00  0.00     0.037 A 
BRANCH  47  61
ATOM     61  C   UNL A   1      39.655  31.947  35.354  1.00  0.00     0.064 A 
ATOM     62  C   UNL A   1      38.691  31.511  36.276  1.00  0.00     0.173 A 
ATOM     63  C   UNL A   1      40.136  33.259  35.479  1.00  0.00     0.173 A 
ATOM     64  F   UNL A   1      38.182  30.274  36.187  1.00  0.00    -0.203 F 
ATOM     65  C   UNL A   1      38.204  32.367  37.262  1.00  0.00     0.198 A 
ATOM     66  C   UNL A   1      39.672  34.100  36.486  1.00  0.00     0.198 A 
ATOM     67  F   UNL A   1      41.058  33.726  34.623  1.00  0.00    -0.203 F 
ATOM     68  F   UNL A   1      37.240  31.949  38.093  1.00  0.00    -0.200 F 
ATOM     69  C   UNL A   1      38.699  33.657  37.370  1.00  0.00     0.200 A 
ATOM     70  F   UNL A   1      40.160  35.344  36.595  1.00  0.00    -0.200 F 
ATOM     71  F   UNL A   1      38.232  34.479  38.319  1.00  0.00    -0.200 F 
ENDBRANCH  47  61
BRANCH  48  72
ATOM     72  C   UNL A   1      42.675  26.200  27.769  1.00  0.00     0.064 A 
ATOM     73  C   UNL A   1      43.625  26.678  26.857  1.00  0.00     0.173 A 
ATOM     74  C   UNL A   1      42.166  24.908  27.561  1.00  0.00     0.173 A 
ATOM     75  F   UNL A   1      44.120  27.917  26.994  1.00  0.00    -0.203 F 
ATOM     76  C   UNL A   1      44.033  25.906  25.769  1.00  0.00     0.198 A 
ATOM     77  C   UNL A   1      42.596  24.126  26.493  1.00  0.00     0.198 A 
ATOM     78  F   UNL A   1      41.250  24.405  28.401  1.00  0.00    -0.203 F 
ATOM     79  F   UNL A   1      44.901  26.409  24.882  1.00  0.00    -0.200 F 
ATOM     80  C   UNL A   1      43.522  24.629  25.592  1.00  0.00     0.200 A 
ATOM     81  F   UNL A   1      42.108  22.889  26.331  1.00  0.00    -0.200 F 
ATOM     82  F   UNL A   1      43.916  23.887  24.547  1.00  0.00    -0.200 F 
ENDBRANCH  48  72
BRANCH  60  83
ATOM     83  C   UNL A   1      45.002  27.221  34.266  1.00  0.00     0.064 A 
ATOM     84  C   UNL A   1      44.851  26.043  35.013  1.00  0.00     0.173 A 
ATOM     85  C   UNL A   1      46.272  27.818  34.234  1.00  0.00     0.173 A 
ATOM     86  F   UNL A   1      43.656  25.438  35.085  1.00  0.00    -0.203 F 
ATOM     87  C   UNL A   1      45.920  25.503  35.724  1.00  0.00     0.198 A 
ATOM     88  C   UNL A   1      47.346  27.258  34.920  1.00  0.00     0.198 A 
ATOM     89  F   UNL A   1      46.475  28.940  33.528  1.00  0.00    -0.203 F 
ATOM     90  F   UNL A   1      45.739  24.408  36.475  1.00  0.00    -0.200 F 
ATOM     91  C   UNL A   1      47.167  26.107  35.672  1.00  0.00     0.200 A 
ATOM     92  F   UNL A   1      48.555  27.833  34.854  1.00  0.00    -0.200 F 
ATOM     93  F   UNL A   1      48.196  25.585  36.354  1.00  0.00    -0.200 F 
ENDBRANCH  60  83
ENDBRANCH  34  35
ENDBRANCH  27  29
ENDBRANCH  26  27
ENDBRANCH  25  26
ENDBRANCH  24  25
ENDBRANCH  23  24
ENDBRANCH  22  23
ENDBRANCH  21  22
ENDBRANCH   1  21
TORSDOF 22
ENDMDL
