MODEL 1
REMARK VINA RESULT:     -11.9      0.000      0.000
REMARK SMILES O=C(OCCOCCOCCOC(=O)[C@]12C[NH2+]C[C@H]1CN(C(=O)c1ccccc1-n1cncn1)C2)c1ccc(-c2c3nc(c(-c4c(F)c(F)c(F)c(F)c4F)c4ccc([nH]4)c(-c4c(F)c(F)c(F)c(F)c4F)c4nc(c(-c5c(F)c(F)c(F)c(F)c5F)c5ccc2[nH]5)C=C4)C=C3)cc1
REMARK SMILES IDX 8 1 7 2 6 3 5 4 4 5 3 6 2 7 1 8 36 9 37 10 98 11 38 12 97 13
REMARK SMILES IDX 39 14 40 15 41 16 91 17 42 18 96 19 90 20 92 21 43 22 95 23
REMARK SMILES IDX 89 24 88 25 44 27 76 28 56 29 75 30 57 31 60 32 74 33 93 34
REMARK SMILES IDX 58 35 59 36 73 38 94 39 61 40 45 41 46 42 54 43 47 44 48 45
REMARK SMILES IDX 52 46 55 47 49 48 50 49 53 50 51 51 77 52 78 53 86 54 79 55
REMARK SMILES IDX 80 56 84 57 87 58 81 59 82 60 85 61 83 62 62 63 63 64 71 65
REMARK SMILES IDX 64 66 65 67 69 68 72 69 66 70 67 71 70 72 68 73 9 74 10 75
REMARK SMILES IDX 11 76 12 77 13 78 14 79 15 80 16 81 19 82 35 83 17 84 18 85
REMARK SMILES IDX 20 86 21 87 22 90 23 91 24 92 25 93 29 94 26 95 28 96 27 97
REMARK SMILES IDX 30 98 31 99 34 100 32 101 33 102
REMARK H PARENT 92 26 60 37 17 88 17 89
REMARK Flexibility Score: inf
ROOT
ATOM      1  C   UNL A   1      37.477  20.927  24.644  1.00  0.00     0.188 C 
ENDROOT
BRANCH   1   2
ATOM      2  C   UNL A   1      38.098  19.586  25.003  1.00  0.00     0.188 C 
BRANCH   2   3
ATOM      3  O   UNL A   1      39.454  19.564  25.450  1.00  0.00    -0.376 OA
BRANCH   3   4
ATOM      4  C   UNL A   1      39.904  20.803  25.995  1.00  0.00     0.202 C 
BRANCH   4   5
ATOM      5  C   UNL A   1      41.398  20.894  26.351  1.00  0.00     0.261 C 
BRANCH   5   6
ATOM      6  O   UNL A   1      42.216  21.606  25.395  1.00  0.00    -0.460 OA
BRANCH   6   7
ATOM      7  C   UNL A   1      42.662  22.886  25.422  1.00  0.00     0.338 C 
ATOM      8  O   UNL A   1      43.496  23.251  24.594  1.00  0.00    -0.246 OA
BRANCH   7   9
ATOM      9  C   UNL A   1      42.067  23.920  26.300  1.00  0.00     0.060 A 
ATOM     10  C   UNL A   1      41.224  24.934  25.871  1.00  0.00     0.016 A 
ATOM     11  C   UNL A   1      42.492  23.913  27.641  1.00  0.00     0.016 A 
ATOM     12  C   UNL A   1      41.076  26.074  26.637  1.00  0.00     0.010 A 
ATOM     13  C   UNL A   1      42.267  25.012  28.453  1.00  0.00     0.010 A 
ATOM     14  C   UNL A   1      41.669  26.134  27.893  1.00  0.00    -0.014 A 
BRANCH  14  15
ATOM     15  C   UNL A   1      41.663  27.427  28.560  1.00  0.00     0.031 A 
ATOM     16  C   UNL A   1      42.826  28.314  28.268  1.00  0.00     0.074 A 
ATOM     17  C   UNL A   1      40.633  27.761  29.365  1.00  0.00     0.049 A 
ATOM     18  N   UNL A   1      43.612  28.913  29.104  1.00  0.00    -0.248 NA
ATOM     19  C   UNL A   1      43.220  28.476  26.858  1.00  0.00     0.031 C 
ATOM     20  C   UNL A   1      39.362  27.050  29.552  1.00  0.00     0.029 A 
ATOM     21  N   UNL A   1      40.459  28.881  30.113  1.00  0.00    -0.354 N 
ATOM     22  C   UNL A   1      44.507  29.653  28.329  1.00  0.00     0.074 A 
ATOM     23  C   UNL A   1      44.288  29.266  26.961  1.00  0.00     0.031 C 
ATOM     24  C   UNL A   1      38.468  27.881  30.129  1.00  0.00     0.029 A 
ATOM     25  C   UNL A   1      39.139  29.124  30.461  1.00  0.00     0.049 A 
ATOM     26  H   UNL A   1      41.202  29.467  30.384  1.00  0.00     0.167 HD
ATOM     27  C   UNL A   1      45.238  30.674  28.853  1.00  0.00     0.037 A 
ATOM     28  C   UNL A   1      38.626  30.309  30.875  1.00  0.00     0.037 A 
ATOM     29  C   UNL A   1      45.396  30.539  30.273  1.00  0.00     0.049 A 
ATOM     30  C   UNL A   1      39.761  31.149  31.337  1.00  0.00     0.074 A 
ATOM     31  C   UNL A   1      46.005  29.605  31.090  1.00  0.00     0.029 A 
ATOM     32  N   UNL A   1      44.604  31.293  31.101  1.00  0.00    -0.354 N 
ATOM     33  N   UNL A   1      40.460  30.896  32.408  1.00  0.00    -0.248 NA
ATOM     34  C   UNL A   1      40.417  31.992  30.346  1.00  0.00     0.031 C 
ATOM     35  C   UNL A   1      45.170  29.524  32.241  1.00  0.00     0.029 A 
ATOM     36  C   UNL A   1      44.138  30.448  32.075  1.00  0.00     0.049 A 
ATOM     37  H   UNL A   1      44.408  32.254  31.013  1.00  0.00     0.167 HD
ATOM     38  C   UNL A   1      41.770  31.184  32.051  1.00  0.00     0.074 A 
ATOM     39  C   UNL A   1      41.674  31.919  30.792  1.00  0.00     0.031 C 
ATOM     40  C   UNL A   1      42.822  30.555  32.650  1.00  0.00     0.037 A 
BRANCH  27  41
ATOM     41  C   UNL A   1      45.504  31.973  28.131  1.00  0.00     0.064 A 
ATOM     42  C   UNL A   1      44.416  32.782  27.742  1.00  0.00     0.173 A 
ATOM     43  C   UNL A   1      46.740  32.283  27.526  1.00  0.00     0.173 A 
ATOM     44  F   UNL A   1      43.191  32.571  28.248  1.00  0.00    -0.203 F 
ATOM     45  C   UNL A   1      44.541  33.757  26.749  1.00  0.00     0.198 A 
ATOM     46  C   UNL A   1      46.871  33.289  26.572  1.00  0.00     0.198 A 
ATOM     47  F   UNL A   1      47.842  31.554  27.745  1.00  0.00    -0.203 F 
ATOM     48  F   UNL A   1      43.453  34.408  26.315  1.00  0.00    -0.200 F 
ATOM     49  C   UNL A   1      45.766  34.000  26.155  1.00  0.00     0.200 A 
ATOM     50  F   UNL A   1      48.063  33.498  25.995  1.00  0.00    -0.200 F 
ATOM     51  F   UNL A   1      45.874  34.881  25.153  1.00  0.00    -0.200 F 
ENDBRANCH  27  41
BRANCH  28  52
ATOM     52  C   UNL A   1      37.297  30.866  30.522  1.00  0.00     0.064 A 
ATOM     53  C   UNL A   1      36.406  31.306  31.512  1.00  0.00     0.173 A 
ATOM     54  C   UNL A   1      36.972  31.207  29.192  1.00  0.00     0.173 A 
ATOM     55  F   UNL A   1      36.669  31.072  32.806  1.00  0.00    -0.203 F 
ATOM     56  C   UNL A   1      35.263  32.048  31.191  1.00  0.00     0.198 A 
ATOM     57  C   UNL A   1      35.827  31.936  28.873  1.00  0.00     0.198 A 
ATOM     58  F   UNL A   1      37.805  30.923  28.181  1.00  0.00    -0.203 F 
ATOM     59  F   UNL A   1      34.463  32.498  32.168  1.00  0.00    -0.200 F 
ATOM     60  C   UNL A   1      34.977  32.366  29.873  1.00  0.00     0.200 A 
ATOM     61  F   UNL A   1      35.585  32.266  27.596  1.00  0.00    -0.200 F 
ATOM     62  F   UNL A   1      33.910  33.118  29.571  1.00  0.00    -0.200 F 
ENDBRANCH  28  52
BRANCH  40  63
ATOM     63  C   UNL A   1      42.541  29.702  33.852  1.00  0.00     0.064 A 
ATOM     64  C   UNL A   1      42.091  28.372  33.771  1.00  0.00     0.173 A 
ATOM     65  C   UNL A   1      42.898  30.188  35.115  1.00  0.00     0.173 A 
ATOM     66  F   UNL A   1      41.840  27.801  32.586  1.00  0.00    -0.203 F 
ATOM     67  C   UNL A   1      41.961  27.583  34.911  1.00  0.00     0.198 A 
ATOM     68  C   UNL A   1      42.801  29.386  36.249  1.00  0.00     0.198 A 
ATOM     69  F   UNL A   1      43.397  31.427  35.242  1.00  0.00    -0.203 F 
ATOM     70  F   UNL A   1      41.526  26.318  34.810  1.00  0.00    -0.200 F 
ATOM     71  C   UNL A   1      42.323  28.090  36.149  1.00  0.00     0.200 A 
ATOM     72  F   UNL A   1      43.207  29.860  37.435  1.00  0.00    -0.200 F 
ATOM     73  F   UNL A   1      42.243  27.316  37.241  1.00  0.00    -0.200 F 
ENDBRANCH  40  63
ENDBRANCH  14  15
ENDBRANCH   7   9
ENDBRANCH   6   7
ENDBRANCH   5   6
ENDBRANCH   4   5
ENDBRANCH   3   4
ENDBRANCH   2   3
ENDBRANCH   1   2
BRANCH   1  74
ATOM     74  O   UNL A   1      36.080  21.053  24.841  1.00  0.00    -0.376 OA
BRANCH  74  75
ATOM     75  C   UNL A   1      35.671  21.487  26.143  1.00  0.00     0.202 C 
BRANCH  75  76
ATOM     76  C   UNL A   1      34.151  21.434  26.443  1.00  0.00     0.261 C 
BRANCH  76  77
ATOM     77  O   UNL A   1      33.447  21.335  25.186  1.00  0.00    -0.463 OA
BRANCH  77  78
ATOM     78  C   UNL A   1      32.181  21.834  24.967  1.00  0.00     0.320 C 
ATOM     79  O   UNL A   1      31.158  21.327  25.374  1.00  0.00    -0.251 OA
BRANCH  78  80
ATOM     80  C   UNL A   1      32.347  23.200  24.252  1.00  0.00     0.144 C 
ATOM     81  C   UNL A   1      32.542  22.923  22.760  1.00  0.00     0.281 C 
ATOM     82  C   UNL A   1      33.490  24.195  24.518  1.00  0.00     0.088 C 
ATOM     83  C   UNL A   1      31.138  24.017  24.742  1.00  0.00     0.145 C 
ATOM     84  N   UNL A   1      33.988  22.978  22.537  1.00  0.00    -0.345 N 
ATOM     85  C   UNL A   1      34.558  23.945  23.458  1.00  0.00     0.267 C 
ATOM     86  C   UNL A   1      32.826  25.575  24.263  1.00  0.00     0.130 C 
ATOM     87  N   UNL A   1      31.454  25.418  24.685  1.00  0.00    -0.337 N 
ATOM     88  H   UNL A   1      34.178  23.264  21.577  1.00  0.00     0.346 HD
ATOM     89  H   UNL A   1      34.401  22.059  22.694  1.00  0.00     0.346 HD
BRANCH  87  90
ATOM     90  C   UNL A   1      30.594  26.486  24.907  1.00  0.00     0.256 C 
ATOM     91  O   UNL A   1      29.414  26.456  24.567  1.00  0.00    -0.269 OA
BRANCH  90  92
ATOM     92  C   UNL A   1      31.102  27.737  25.571  1.00  0.00     0.065 A 
ATOM     93  C   UNL A   1      31.486  27.630  26.915  1.00  0.00     0.016 A 
ATOM     94  C   UNL A   1      31.219  28.994  24.956  1.00  0.00     0.079 A 
ATOM     95  C   UNL A   1      32.100  28.695  27.586  1.00  0.00     0.001 A 
ATOM     96  C   UNL A   1      31.908  30.042  25.599  1.00  0.00     0.029 A 
ATOM     97  C   UNL A   1      32.344  29.889  26.915  1.00  0.00     0.002 A 
BRANCH  94  98
ATOM     98  N   UNL A   1      30.574  29.291  23.738  1.00  0.00    -0.220 N 
ATOM     99  C   UNL A   1      30.869  28.843  22.473  1.00  0.00     0.225 A 
ATOM    100  N   UNL A   1      29.523  30.147  23.676  1.00  0.00    -0.155 NA
ATOM    101  N   UNL A   1      30.152  29.489  21.583  1.00  0.00    -0.223 NA
ATOM    102  C   UNL A   1      29.360  30.283  22.357  1.00  0.00     0.246 A 
ENDBRANCH  94  98
ENDBRANCH  90  92
ENDBRANCH  87  90
ENDBRANCH  78  80
ENDBRANCH  77  78
ENDBRANCH  76  77
ENDBRANCH  75  76
ENDBRANCH  74  75
ENDBRANCH   1  74
TORSDOF 20
ENDMDL
MODEL 2
REMARK VINA RESULT:     -11.8      2.547      3.900
REMARK SMILES O=C(OCCOCCOCCOC(=O)[C@]12C[NH2+]C[C@H]1CN(C(=O)c1ccccc1-n1cncn1)C2)c1ccc(-c2c3nc(c(-c4c(F)c(F)c(F)c(F)c4F)c4ccc([nH]4)c(-c4c(F)c(F)c(F)c(F)c4F)c4nc(c(-c5c(F)c(F)c(F)c(F)c5F)c5ccc2[nH]5)C=C4)C=C3)cc1
REMARK SMILES IDX 8 1 7 2 6 3 5 4 4 5 3 6 2 7 1 8 36 9 37 10 98 11 38 12 97 13
REMARK SMILES IDX 39 14 40 15 41 16 91 17 42 18 96 19 90 20 92 21 43 22 95 23
REMARK SMILES IDX 89 24 88 25 44 27 76 28 56 29 75 30 57 31 60 32 74 33 93 34
REMARK SMILES IDX 58 35 59 36 73 38 94 39 61 40 45 41 46 42 54 43 47 44 48 45
REMARK SMILES IDX 52 46 55 47 49 48 50 49 53 50 51 51 77 52 78 53 86 54 79 55
REMARK SMILES IDX 80 56 84 57 87 58 81 59 82 60 85 61 83 62 62 63 63 64 71 65
REMARK SMILES IDX 64 66 65 67 69 68 72 69 66 70 67 71 70 72 68 73 9 74 10 75
REMARK SMILES IDX 11 76 12 77 13 78 14 79 15 80 16 81 19 82 35 83 17 84 18 85
REMARK SMILES IDX 20 86 21 87 22 90 23 91 24 92 25 93 29 94 26 95 28 96 27 97
REMARK SMILES IDX 30 98 31 99 34 100 32 101 33 102
REMARK H PARENT 92 26 60 37 17 88 17 89
REMARK Flexibility Score: inf
ROOT
ATOM      1  C   UNL A   1      38.846  20.566  25.339  1.00  0.00     0.188 C 
ENDROOT
BRANCH   1   2
ATOM      2  C   UNL A   1      40.018  19.886  26.030  1.00  0.00     0.188 C 
BRANCH   2   3
ATOM      3  O   UNL A   1      40.798  20.651  26.950  1.00  0.00    -0.376 OA
BRANCH   3   4
ATOM      4  C   UNL A   1      42.184  20.312  26.956  1.00  0.00     0.202 C 
BRANCH   4   5
ATOM      5  C   UNL A   1      42.597  19.096  26.109  1.00  0.00     0.261 C 
BRANCH   5   6
ATOM      6  O   UNL A   1      43.096  19.407  24.788  1.00  0.00    -0.460 OA
BRANCH   6   7
ATOM      7  C   UNL A   1      44.264  19.990  24.420  1.00  0.00     0.338 C 
ATOM      8  O   UNL A   1      45.000  19.411  23.620  1.00  0.00    -0.246 OA
BRANCH   7   9
ATOM      9  C   UNL A   1      44.620  21.375  24.805  1.00  0.00     0.060 A 
ATOM     10  C   UNL A   1      45.650  21.717  25.669  1.00  0.00     0.016 A 
ATOM     11  C   UNL A   1      43.766  22.388  24.332  1.00  0.00     0.016 A 
ATOM     12  C   UNL A   1      45.635  22.945  26.302  1.00  0.00     0.010 A 
ATOM     13  C   UNL A   1      43.804  23.654  24.891  1.00  0.00     0.010 A 
ATOM     14  C   UNL A   1      44.659  23.876  25.964  1.00  0.00    -0.014 A 
BRANCH  14  15
ATOM     15  C   UNL A   1      44.560  25.057  26.807  1.00  0.00     0.031 A 
ATOM     16  C   UNL A   1      45.671  26.044  26.676  1.00  0.00     0.074 A 
ATOM     17  C   UNL A   1      43.496  25.212  27.622  1.00  0.00     0.049 A 
ATOM     18  N   UNL A   1      46.402  26.561  27.611  1.00  0.00    -0.248 NA
ATOM     19  C   UNL A   1      46.081  26.429  25.315  1.00  0.00     0.031 C 
ATOM     20  C   UNL A   1      42.268  24.408  27.671  1.00  0.00     0.029 A 
ATOM     21  N   UNL A   1      43.238  26.200  28.517  1.00  0.00    -0.354 N 
ATOM     22  C   UNL A   1      47.265  27.455  26.974  1.00  0.00     0.074 A 
ATOM     23  C   UNL A   1      47.097  27.257  25.560  1.00  0.00     0.031 C 
ATOM     24  C   UNL A   1      41.314  25.094  28.335  1.00  0.00     0.029 A 
ATOM     25  C   UNL A   1      41.899  26.313  28.859  1.00  0.00     0.049 A 
ATOM     26  H   UNL A   1      43.938  26.784  28.889  1.00  0.00     0.167 HD
ATOM     27  C   UNL A   1      47.921  28.432  27.658  1.00  0.00     0.037 A 
ATOM     28  C   UNL A   1      41.306  27.395  29.422  1.00  0.00     0.037 A 
ATOM     29  C   UNL A   1      48.059  28.104  29.049  1.00  0.00     0.049 A 
ATOM     30  C   UNL A   1      42.378  28.225  30.030  1.00  0.00     0.074 A 
ATOM     31  C   UNL A   1      48.709  27.099  29.741  1.00  0.00     0.029 A 
ATOM     32  N   UNL A   1      47.206  28.684  29.952  1.00  0.00    -0.354 N 
ATOM     33  N   UNL A   1      43.070  27.862  31.073  1.00  0.00    -0.248 NA
ATOM     34  C   UNL A   1      43.000  29.238  29.187  1.00  0.00     0.031 C 
ATOM     35  C   UNL A   1      47.858  26.806  30.845  1.00  0.00     0.029 A 
ATOM     36  C   UNL A   1      46.775  27.682  30.783  1.00  0.00     0.049 A 
ATOM     37  H   UNL A   1      46.953  29.634  29.997  1.00  0.00     0.167 HD
ATOM     38  C   UNL A   1      44.367  28.274  30.798  1.00  0.00     0.074 A 
ATOM     39  C   UNL A   1      44.250  29.176  29.654  1.00  0.00     0.031 C 
ATOM     40  C   UNL A   1      45.444  27.628  31.331  1.00  0.00     0.037 A 
BRANCH  27  41
ATOM     41  C   UNL A   1      48.120  29.834  27.136  1.00  0.00     0.064 A 
ATOM     42  C   UNL A   1      49.400  30.422  27.207  1.00  0.00     0.173 A 
ATOM     43  C   UNL A   1      47.055  30.724  26.883  1.00  0.00     0.173 A 
ATOM     44  F   UNL A   1      50.485  29.672  27.453  1.00  0.00    -0.203 F 
ATOM     45  C   UNL A   1      49.581  31.805  27.130  1.00  0.00     0.198 A 
ATOM     46  C   UNL A   1      47.246  32.098  26.758  1.00  0.00     0.198 A 
ATOM     47  F   UNL A   1      45.779  30.318  26.861  1.00  0.00    -0.203 F 
ATOM     48  F   UNL A   1      50.796  32.330  27.338  1.00  0.00    -0.200 F 
ATOM     49  C   UNL A   1      48.502  32.643  26.918  1.00  0.00     0.200 A 
ATOM     50  F   UNL A   1      46.184  32.896  26.570  1.00  0.00    -0.200 F 
ATOM     51  F   UNL A   1      48.661  33.973  26.918  1.00  0.00    -0.200 F 
ENDBRANCH  27  41
BRANCH  28  52
ATOM     52  C   UNL A   1      39.952  27.918  29.115  1.00  0.00     0.064 A 
ATOM     53  C   UNL A   1      38.965  28.009  30.106  1.00  0.00     0.173 A 
ATOM     54  C   UNL A   1      39.676  28.572  27.896  1.00  0.00     0.173 A 
ATOM     55  F   UNL A   1      39.171  27.462  31.314  1.00  0.00    -0.203 F 
ATOM     56  C   UNL A   1      37.776  28.716  29.893  1.00  0.00     0.198 A 
ATOM     57  C   UNL A   1      38.486  29.266  27.680  1.00  0.00     0.198 A 
ATOM     58  F   UNL A   1      40.592  28.633  26.919  1.00  0.00    -0.203 F 
ATOM     59  F   UNL A   1      36.878  28.827  30.882  1.00  0.00    -0.200 F 
ATOM     60  C   UNL A   1      37.540  29.347  28.683  1.00  0.00     0.200 A 
ATOM     61  F   UNL A   1      38.290  29.902  26.516  1.00  0.00    -0.200 F 
ATOM     62  F   UNL A   1      36.424  30.066  28.497  1.00  0.00    -0.200 F 
ENDBRANCH  28  52
BRANCH  40  63
ATOM     63  C   UNL A   1      45.193  26.596  32.391  1.00  0.00     0.064 A 
ATOM     64  C   UNL A   1      45.065  26.903  33.757  1.00  0.00     0.173 A 
ATOM     65  C   UNL A   1      44.907  25.285  31.992  1.00  0.00     0.173 A 
ATOM     66  F   UNL A   1      45.211  28.159  34.198  1.00  0.00    -0.203 F 
ATOM     67  C   UNL A   1      44.713  25.927  34.686  1.00  0.00     0.198 A 
ATOM     68  C   UNL A   1      44.519  24.320  32.918  1.00  0.00     0.198 A 
ATOM     69  F   UNL A   1      44.946  24.953  30.693  1.00  0.00    -0.203 F 
ATOM     70  F   UNL A   1      44.601  26.243  35.985  1.00  0.00    -0.200 F 
ATOM     71  C   UNL A   1      44.434  24.637  34.264  1.00  0.00     0.200 A 
ATOM     72  F   UNL A   1      44.194  23.089  32.499  1.00  0.00    -0.200 F 
ATOM     73  F   UNL A   1      44.049  23.709  35.151  1.00  0.00    -0.200 F 
ENDBRANCH  40  63
ENDBRANCH  14  15
ENDBRANCH   7   9
ENDBRANCH   6   7
ENDBRANCH   5   6
ENDBRANCH   4   5
ENDBRANCH   3   4
ENDBRANCH   2   3
ENDBRANCH   1   2
BRANCH   1  74
ATOM     74  O   UNL A   1      38.286  21.689  25.997  1.00  0.00    -0.376 OA
BRANCH  74  75
ATOM     75  C   UNL A   1      36.958  22.046  25.598  1.00  0.00     0.202 C 
BRANCH  75  76
ATOM     76  C   UNL A   1      35.985  20.875  25.307  1.00  0.00     0.261 C 
BRANCH  76  77
ATOM     77  O   UNL A   1      34.669  21.259  25.758  1.00  0.00    -0.463 OA
BRANCH  77  78
ATOM     78  C   UNL A   1      33.653  21.664  24.919  1.00  0.00     0.320 C 
ATOM     79  O   UNL A   1      33.260  21.040  23.957  1.00  0.00    -0.251 OA
BRANCH  78  80
ATOM     80  C   UNL A   1      33.047  22.955  25.527  1.00  0.00     0.144 C 
ATOM     81  C   UNL A   1      33.164  22.852  27.049  1.00  0.00     0.281 C 
ATOM     82  C   UNL A   1      31.579  23.390  25.374  1.00  0.00     0.088 C 
ATOM     83  C   UNL A   1      33.761  24.086  24.765  1.00  0.00     0.145 C 
ATOM     84  N   UNL A   1      31.855  22.387  27.512  1.00  0.00    -0.345 N 
ATOM     85  C   UNL A   1      30.838  22.916  26.620  1.00  0.00     0.267 C 
ATOM     86  C   UNL A   1      31.666  24.941  25.386  1.00  0.00     0.130 C 
ATOM     87  N   UNL A   1      32.924  25.254  24.750  1.00  0.00    -0.337 N 
ATOM     88  H   UNL A   1      31.687  22.720  28.461  1.00  0.00     0.346 HD
ATOM     89  H   UNL A   1      31.826  21.369  27.512  1.00  0.00     0.346 HD
BRANCH  87  90
ATOM     90  C   UNL A   1      33.252  26.523  24.288  1.00  0.00     0.256 C 
ATOM     91  O   UNL A   1      33.785  26.701  23.196  1.00  0.00    -0.269 OA
BRANCH  90  92
ATOM     92  C   UNL A   1      32.971  27.731  25.138  1.00  0.00     0.065 A 
ATOM     93  C   UNL A   1      33.669  27.830  26.350  1.00  0.00     0.016 A 
ATOM     94  C   UNL A   1      32.070  28.760  24.818  1.00  0.00     0.079 A 
ATOM     95  C   UNL A   1      33.587  28.977  27.149  1.00  0.00     0.001 A 
ATOM     96  C   UNL A   1      32.044  29.948  25.576  1.00  0.00     0.029 A 
ATOM     97  C   UNL A   1      32.802  30.051  26.741  1.00  0.00     0.002 A 
BRANCH  94  98
ATOM     98  N   UNL A   1      31.096  28.609  23.810  1.00  0.00    -0.220 N 
ATOM     99  C   UNL A   1      31.006  29.243  22.594  1.00  0.00     0.225 A 
ATOM    100  N   UNL A   1      30.036  27.775  23.959  1.00  0.00    -0.155 NA
ATOM    101  N   UNL A   1      29.859  28.966  22.020  1.00  0.00    -0.223 NA
ATOM    102  C   UNL A   1      29.294  28.084  22.892  1.00  0.00     0.246 A 
ENDBRANCH  94  98
ENDBRANCH  90  92
ENDBRANCH  87  90
ENDBRANCH  78  80
ENDBRANCH  77  78
ENDBRANCH  76  77
ENDBRANCH  75  76
ENDBRANCH  74  75
ENDBRANCH   1  74
TORSDOF 20
ENDMDL
MODEL 3
REMARK VINA RESULT:     -11.8      1.413      1.980
REMARK SMILES O=C(OCCOCCOCCOC(=O)[C@]12C[NH2+]C[C@H]1CN(C(=O)c1ccccc1-n1cncn1)C2)c1ccc(-c2c3nc(c(-c4c(F)c(F)c(F)c(F)c4F)c4ccc([nH]4)c(-c4c(F)c(F)c(F)c(F)c4F)c4nc(c(-c5c(F)c(F)c(F)c(F)c5F)c5ccc2[nH]5)C=C4)C=C3)cc1
REMARK SMILES IDX 8 1 7 2 6 3 5 4 4 5 3 6 2 7 1 8 36 9 37 10 98 11 38 12 97 13
REMARK SMILES IDX 39 14 40 15 41 16 91 17 42 18 96 19 90 20 92 21 43 22 95 23
REMARK SMILES IDX 89 24 88 25 44 27 76 28 56 29 75 30 57 31 60 32 74 33 93 34
REMARK SMILES IDX 58 35 59 36 73 38 94 39 61 40 45 41 46 42 54 43 47 44 48 45
REMARK SMILES IDX 52 46 55 47 49 48 50 49 53 50 51 51 77 52 78 53 86 54 79 55
REMARK SMILES IDX 80 56 84 57 87 58 81 59 82 60 85 61 83 62 62 63 63 64 71 65
REMARK SMILES IDX 64 66 65 67 69 68 72 69 66 70 67 71 70 72 68 73 9 74 10 75
REMARK SMILES IDX 11 76 12 77 13 78 14 79 15 80 16 81 19 82 35 83 17 84 18 85
REMARK SMILES IDX 20 86 21 87 22 90 23 91 24 92 25 93 29 94 26 95 28 96 27 97
REMARK SMILES IDX 30 98 31 99 34 100 32 101 33 102
REMARK H PARENT 92 26 60 37 17 88 17 89
REMARK Flexibility Score: inf
ROOT
ATOM      1  C   UNL A   1      35.599  21.268  25.023  1.00  0.00     0.188 C 
ENDROOT
BRANCH   1   2
ATOM      2  C   UNL A   1      36.446  20.015  24.865  1.00  0.00     0.188 C 
BRANCH   2   3
ATOM      3  O   UNL A   1      37.866  20.141  24.954  1.00  0.00    -0.376 OA
BRANCH   3   4
ATOM      4  C   UNL A   1      38.305  21.400  25.461  1.00  0.00     0.202 C 
BRANCH   4   5
ATOM      5  C   UNL A   1      39.656  21.411  26.197  1.00  0.00     0.261 C 
BRANCH   5   6
ATOM      6  O   UNL A   1      40.180  22.724  26.502  1.00  0.00    -0.460 OA
BRANCH   6   7
ATOM      7  C   UNL A   1      41.408  23.243  26.257  1.00  0.00     0.338 C 
ATOM      8  O   UNL A   1      42.234  22.571  25.639  1.00  0.00    -0.246 OA
BRANCH   7   9
ATOM      9  C   UNL A   1      41.751  24.653  26.552  1.00  0.00     0.060 A 
ATOM     10  C   UNL A   1      42.788  25.061  27.377  1.00  0.00     0.016 A 
ATOM     11  C   UNL A   1      40.876  25.625  26.032  1.00  0.00     0.016 A 
ATOM     12  C   UNL A   1      42.766  26.325  27.935  1.00  0.00     0.010 A 
ATOM     13  C   UNL A   1      40.905  26.923  26.512  1.00  0.00     0.010 A 
ATOM     14  C   UNL A   1      41.772  27.221  27.556  1.00  0.00    -0.014 A 
BRANCH  14  15
ATOM     15  C   UNL A   1      41.669  28.449  28.327  1.00  0.00     0.031 A 
ATOM     16  C   UNL A   1      42.777  29.430  28.138  1.00  0.00     0.074 A 
ATOM     17  C   UNL A   1      40.605  28.649  29.132  1.00  0.00     0.049 A 
ATOM     18  N   UNL A   1      43.507  30.005  29.039  1.00  0.00    -0.248 NA
ATOM     19  C   UNL A   1      43.186  29.735  26.756  1.00  0.00     0.031 C 
ATOM     20  C   UNL A   1      39.380  27.845  29.229  1.00  0.00     0.029 A 
ATOM     21  N   UNL A   1      40.344  29.688  29.967  1.00  0.00    -0.354 N 
ATOM     22  C   UNL A   1      44.366  30.863  28.351  1.00  0.00     0.074 A 
ATOM     23  C   UNL A   1      44.199  30.579  26.950  1.00  0.00     0.031 C 
ATOM     24  C   UNL A   1      38.423  28.566  29.852  1.00  0.00     0.029 A 
ATOM     25  C   UNL A   1      39.005  29.817  30.302  1.00  0.00     0.049 A 
ATOM     26  H   UNL A   1      41.042  30.295  30.303  1.00  0.00     0.167 HD
ATOM     27  C   UNL A   1      45.019  31.881  28.975  1.00  0.00     0.037 A 
ATOM     28  C   UNL A   1      38.409  30.928  30.800  1.00  0.00     0.037 A 
ATOM     29  C   UNL A   1      45.159  31.636  30.382  1.00  0.00     0.049 A 
ATOM     30  C   UNL A   1      39.478  31.796  31.357  1.00  0.00     0.074 A 
ATOM     31  C   UNL A   1      45.812  30.677  31.133  1.00  0.00     0.029 A 
ATOM     32  N   UNL A   1      44.304  32.266  31.250  1.00  0.00    -0.354 N 
ATOM     33  N   UNL A   1      40.172  31.498  32.420  1.00  0.00    -0.248 NA
ATOM     34  C   UNL A   1      40.096  32.759  30.455  1.00  0.00     0.031 C 
ATOM     35  C   UNL A   1      44.963  30.447  32.252  1.00  0.00     0.029 A 
ATOM     36  C   UNL A   1      43.876  31.314  32.139  1.00  0.00     0.049 A 
ATOM     37  H   UNL A   1      44.048  33.216  31.238  1.00  0.00     0.167 HD
ATOM     38  C   UNL A   1      41.467  31.898  32.120  1.00  0.00     0.074 A 
ATOM     39  C   UNL A   1      41.346  32.729  30.925  1.00  0.00     0.031 C 
ATOM     40  C   UNL A   1      42.546  31.288  32.690  1.00  0.00     0.037 A 
BRANCH  27  41
ATOM     41  C   UNL A   1      45.213  33.250  28.370  1.00  0.00     0.064 A 
ATOM     42  C   UNL A   1      46.519  33.766  28.236  1.00  0.00     0.173 A 
ATOM     43  C   UNL A   1      44.170  34.189  28.230  1.00  0.00     0.173 A 
ATOM     44  F   UNL A   1      47.588  32.965  28.360  1.00  0.00    -0.203 F 
ATOM     45  C   UNL A   1      46.757  35.134  28.075  1.00  0.00     0.198 A 
ATOM     46  C   UNL A   1      44.411  35.545  28.020  1.00  0.00     0.198 A 
ATOM     47  F   UNL A   1      42.884  33.855  28.404  1.00  0.00    -0.203 F 
ATOM     48  F   UNL A   1      48.015  35.596  28.088  1.00  0.00    -0.200 F 
ATOM     49  C   UNL A   1      45.703  36.023  27.980  1.00  0.00     0.200 A 
ATOM     50  F   UNL A   1      43.375  36.394  27.949  1.00  0.00    -0.200 F 
ATOM     51  F   UNL A   1      45.929  37.341  27.900  1.00  0.00    -0.200 F 
ENDBRANCH  27  41
BRANCH  28  52
ATOM     52  C   UNL A   1      37.053  31.427  30.463  1.00  0.00     0.064 A 
ATOM     53  C   UNL A   1      36.134  31.770  31.465  1.00  0.00     0.173 A 
ATOM     54  C   UNL A   1      36.717  31.814  29.148  1.00  0.00     0.173 A 
ATOM     55  F   UNL A   1      36.401  31.489  32.749  1.00  0.00    -0.203 F 
ATOM     56  C   UNL A   1      34.953  32.463  31.170  1.00  0.00     0.198 A 
ATOM     57  C   UNL A   1      35.536  32.492  28.854  1.00  0.00     0.198 A 
ATOM     58  F   UNL A   1      37.570  31.624  28.131  1.00  0.00    -0.203 F 
ATOM     59  F   UNL A   1      34.124  32.821  32.160  1.00  0.00    -0.200 F 
ATOM     60  C   UNL A   1      34.658  32.827  29.866  1.00  0.00     0.200 A 
ATOM     61  F   UNL A   1      35.283  32.870  27.592  1.00  0.00    -0.200 F 
ATOM     62  F   UNL A   1      33.553  33.533  29.591  1.00  0.00    -0.200 F 
ENDBRANCH  28  52
BRANCH  40  63
ATOM     63  C   UNL A   1      42.299  30.321  33.810  1.00  0.00     0.064 A 
ATOM     64  C   UNL A   1      41.948  28.974  33.608  1.00  0.00     0.173 A 
ATOM     65  C   UNL A   1      42.590  30.724  35.118  1.00  0.00     0.173 A 
ATOM     66  F   UNL A   1      41.767  28.487  32.373  1.00  0.00    -0.203 F 
ATOM     67  C   UNL A   1      41.848  28.086  34.676  1.00  0.00     0.198 A 
ATOM     68  C   UNL A   1      42.525  29.826  36.180  1.00  0.00     0.198 A 
ATOM     69  F   UNL A   1      42.996  31.980  35.360  1.00  0.00    -0.203 F 
ATOM     70  F   UNL A   1      41.508  26.807  34.459  1.00  0.00    -0.200 F 
ATOM     71  C   UNL A   1      42.143  28.512  35.961  1.00  0.00     0.200 A 
ATOM     72  F   UNL A   1      42.867  30.227  37.412  1.00  0.00    -0.200 F 
ATOM     73  F   UNL A   1      42.093  27.647  36.984  1.00  0.00    -0.200 F 
ENDBRANCH  40  63
ENDBRANCH  14  15
ENDBRANCH   7   9
ENDBRANCH   6   7
ENDBRANCH   5   6
ENDBRANCH   4   5
ENDBRANCH   3   4
ENDBRANCH   2   3
ENDBRANCH   1   2
BRANCH   1  74
ATOM     74  O   UNL A   1      34.266  21.081  25.466  1.00  0.00    -0.376 OA
BRANCH  74  75
ATOM     75  C   UNL A   1      34.056  21.198  26.877  1.00  0.00     0.202 C 
BRANCH  75  76
ATOM     76  C   UNL A   1      33.117  22.340  27.343  1.00  0.00     0.261 C 
BRANCH  76  77
ATOM     77  O   UNL A   1      32.211  22.647  26.263  1.00  0.00    -0.463 OA
BRANCH  77  78
ATOM     78  C   UNL A   1      31.506  23.827  26.157  1.00  0.00     0.320 C 
ATOM     79  O   UNL A   1      30.783  24.280  27.018  1.00  0.00    -0.251 OA
BRANCH  78  80
ATOM     80  C   UNL A   1      31.932  24.494  24.824  1.00  0.00     0.144 C 
ATOM     81  C   UNL A   1      30.881  24.142  23.770  1.00  0.00     0.281 C 
ATOM     82  C   UNL A   1      33.230  24.177  24.061  1.00  0.00     0.088 C 
ATOM     83  C   UNL A   1      32.182  25.962  25.216  1.00  0.00     0.145 C 
ATOM     84  N   UNL A   1      31.436  23.011  23.025  1.00  0.00    -0.345 N 
ATOM     85  C   UNL A   1      32.881  23.150  22.989  1.00  0.00     0.267 C 
ATOM     86  C   UNL A   1      33.582  25.529  23.383  1.00  0.00     0.130 C 
ATOM     87  N   UNL A   1      33.129  26.544  24.305  1.00  0.00    -0.337 N 
ATOM     88  H   UNL A   1      31.066  23.010  22.075  1.00  0.00     0.346 HD
ATOM     89  H   UNL A   1      31.179  22.134  23.478  1.00  0.00     0.346 HD
BRANCH  87  90
ATOM     90  C   UNL A   1      33.517  27.876  24.227  1.00  0.00     0.256 C 
ATOM     91  O   UNL A   1      34.392  28.256  23.453  1.00  0.00    -0.269 OA
BRANCH  90  92
ATOM     92  C   UNL A   1      32.873  28.903  25.117  1.00  0.00     0.065 A 
ATOM     93  C   UNL A   1      33.515  29.180  26.333  1.00  0.00     0.016 A 
ATOM     94  C   UNL A   1      31.687  29.598  24.831  1.00  0.00     0.079 A 
ATOM     95  C   UNL A   1      33.078  30.214  27.170  1.00  0.00     0.001 A 
ATOM     96  C   UNL A   1      31.290  30.691  25.629  1.00  0.00     0.029 A 
ATOM     97  C   UNL A   1      31.987  30.993  26.798  1.00  0.00     0.002 A 
BRANCH  94  98
ATOM     98  N   UNL A   1      30.803  29.178  23.817  1.00  0.00    -0.220 N 
ATOM     99  C   UNL A   1      30.839  29.451  22.471  1.00  0.00     0.225 A 
ATOM    100  N   UNL A   1      29.711  28.419  24.090  1.00  0.00    -0.155 NA
ATOM    101  N   UNL A   1      29.740  29.029  21.892  1.00  0.00    -0.223 NA
ATOM    102  C   UNL A   1      29.076  28.423  22.916  1.00  0.00     0.246 A 
ENDBRANCH  94  98
ENDBRANCH  90  92
ENDBRANCH  87  90
ENDBRANCH  78  80
ENDBRANCH  77  78
ENDBRANCH  76  77
ENDBRANCH  75  76
ENDBRANCH  74  75
ENDBRANCH   1  74
TORSDOF 20
ENDMDL
