MODEL 1
REMARK VINA RESULT:     -10.0      0.000      0.000
REMARK SMILES C[C@H](C(=O)OCCOCCOCCOC(=O)c1ccc(-c2c3nc(c(-c4c(F)c(F)c(F)c(F)c4F)c4ccc([nH]4)c(-c4c(F)c(F)c(F)c(F)c4F)c4nc(c(-c5c(F)c(F)c(F)c(F)c5F)c5ccc2[nH]5)C=C4)C=C3)cc1)c1ccc2c(c1)OCCO2
REMARK SMILES IDX 10 1 9 2 8 3 7 4 6 5 5 6 3 7 4 8 2 9 1 10 80 11 81 12 85 13
REMARK SMILES IDX 82 14 84 15 83 16 86 17 89 18 87 19 88 20 11 21 12 22 13 23
REMARK SMILES IDX 14 24 15 25 16 26 17 27 18 28 79 29 19 30 78 31 20 32 21 33
REMARK SMILES IDX 22 34 72 35 23 36 77 37 71 38 73 39 24 40 76 41 70 42 69 43
REMARK SMILES IDX 25 45 57 46 37 47 56 48 38 49 41 50 55 51 74 52 39 53 40 54
REMARK SMILES IDX 54 56 75 57 42 58 26 59 27 60 35 61 28 62 29 63 33 64 36 65
REMARK SMILES IDX 30 66 31 67 34 68 32 69 58 70 59 71 67 72 60 73 61 74 65 75
REMARK SMILES IDX 68 76 62 77 63 78 66 79 64 80 43 81 44 82 52 83 45 84 46 85
REMARK SMILES IDX 50 86 53 87 47 88 48 89 51 90 49 91
REMARK H PARENT 73 44 41 55
REMARK Flexibility Score: inf
ROOT
ATOM      1  C   UNL A   1      38.399  33.937  29.171  1.00  0.00     0.188 C 
ENDROOT
BRANCH   1   2
ATOM      2  C   UNL A   1      39.244  34.588  30.276  1.00  0.00     0.188 C 
BRANCH   2   3
ATOM      3  O   UNL A   1      38.663  34.730  31.564  1.00  0.00    -0.376 OA
BRANCH   3   4
ATOM      4  C   UNL A   1      39.492  34.459  32.695  1.00  0.00     0.202 C 
BRANCH   4   5
ATOM      5  C   UNL A   1      38.818  33.951  33.981  1.00  0.00     0.261 C 
BRANCH   5   6
ATOM      6  O   UNL A   1      37.687  34.742  34.410  1.00  0.00    -0.463 OA
BRANCH   6   7
ATOM      7  C   UNL A   1      36.490  34.087  34.471  1.00  0.00     0.313 C 
ATOM      8  O   UNL A   1      36.017  33.727  35.542  1.00  0.00    -0.252 OA
BRANCH   7   9
ATOM      9  C   UNL A   1      35.744  34.034  33.093  1.00  0.00     0.126 C 
ATOM     10  C   UNL A   1      35.383  32.569  32.764  1.00  0.00     0.025 C 
BRANCH   9  11
ATOM     11  C   UNL A   1      34.479  34.921  33.042  1.00  0.00    -0.030 A 
ATOM     12  C   UNL A   1      34.478  36.227  33.573  1.00  0.00     0.009 A 
ATOM     13  C   UNL A   1      33.411  34.560  32.219  1.00  0.00     0.055 A 
ATOM     14  C   UNL A   1      33.758  37.234  32.935  1.00  0.00     0.051 A 
ATOM     15  C   UNL A   1      32.854  35.562  31.455  1.00  0.00     0.161 A 
ATOM     16  C   UNL A   1      33.099  36.895  31.767  1.00  0.00     0.161 A 
ATOM     17  O   UNL A   1      32.307  35.197  30.256  1.00  0.00    -0.486 OA
ATOM     18  O   UNL A   1      32.963  37.846  30.782  1.00  0.00    -0.486 OA
ATOM     19  C   UNL A   1      32.854  35.991  29.188  1.00  0.00     0.271 C 
ATOM     20  C   UNL A   1      33.605  37.251  29.636  1.00  0.00     0.271 C 
ENDBRANCH   9  11
ENDBRANCH   7   9
ENDBRANCH   6   7
ENDBRANCH   5   6
ENDBRANCH   4   5
ENDBRANCH   3   4
ENDBRANCH   2   3
ENDBRANCH   1   2
BRANCH   1  21
ATOM     21  O   UNL A   1      37.185  33.343  29.610  1.00  0.00    -0.376 OA
BRANCH  21  22
ATOM     22  C   UNL A   1      35.971  34.034  29.310  1.00  0.00     0.202 C 
BRANCH  22  23
ATOM     23  C   UNL A   1      34.737  33.146  29.098  1.00  0.00     0.261 C 
BRANCH  23  24
ATOM     24  O   UNL A   1      34.806  32.348  27.901  1.00  0.00    -0.460 OA
BRANCH  24  25
ATOM     25  C   UNL A   1      34.579  31.020  28.030  1.00  0.00     0.338 C 
ATOM     26  O   UNL A   1      33.539  30.430  27.788  1.00  0.00    -0.246 OA
BRANCH  25  27
ATOM     27  C   UNL A   1      35.880  30.348  28.280  1.00  0.00     0.060 A 
ATOM     28  C   UNL A   1      36.064  29.689  29.505  1.00  0.00     0.016 A 
ATOM     29  C   UNL A   1      36.882  30.300  27.304  1.00  0.00     0.016 A 
ATOM     30  C   UNL A   1      37.269  29.036  29.777  1.00  0.00     0.010 A 
ATOM     31  C   UNL A   1      38.085  29.643  27.574  1.00  0.00     0.010 A 
ATOM     32  C   UNL A   1      38.300  29.045  28.828  1.00  0.00    -0.014 A 
BRANCH  32  33
ATOM     33  C   UNL A   1      39.672  28.630  29.214  1.00  0.00     0.031 A 
ATOM     34  C   UNL A   1      40.451  29.531  30.134  1.00  0.00     0.074 A 
ATOM     35  C   UNL A   1      40.222  27.486  28.773  1.00  0.00     0.049 A 
ATOM     36  N   UNL A   1      41.675  29.411  30.580  1.00  0.00    -0.248 NA
ATOM     37  C   UNL A   1      39.751  30.734  30.613  1.00  0.00     0.031 C 
ATOM     38  C   UNL A   1      39.569  26.509  27.906  1.00  0.00     0.029 A 
ATOM     39  N   UNL A   1      41.470  26.958  28.998  1.00  0.00    -0.354 N 
ATOM     40  C   UNL A   1      41.890  30.520  31.387  1.00  0.00     0.074 A 
ATOM     41  C   UNL A   1      40.687  31.322  31.341  1.00  0.00     0.031 C 
ATOM     42  C   UNL A   1      40.426  25.500  27.665  1.00  0.00     0.029 A 
ATOM     43  C   UNL A   1      41.697  25.776  28.337  1.00  0.00     0.049 A 
ATOM     44  H   UNL A   1      42.140  27.387  29.578  1.00  0.00     0.167 HD
ATOM     45  C   UNL A   1      42.987  30.839  32.114  1.00  0.00     0.037 A 
ATOM     46  C   UNL A   1      42.808  25.016  28.271  1.00  0.00     0.037 A 
ATOM     47  C   UNL A   1      44.186  30.049  32.166  1.00  0.00     0.049 A 
ATOM     48  C   UNL A   1      44.046  25.435  29.027  1.00  0.00     0.074 A 
ATOM     49  C   UNL A   1      45.341  30.281  32.892  1.00  0.00     0.029 A 
ATOM     50  N   UNL A   1      44.388  28.875  31.456  1.00  0.00    -0.354 N 
ATOM     51  N   UNL A   1      44.230  26.466  29.816  1.00  0.00    -0.248 NA
ATOM     52  C   UNL A   1      45.235  24.579  28.881  1.00  0.00     0.031 C 
ATOM     53  C   UNL A   1      46.263  29.277  32.580  1.00  0.00     0.029 A 
ATOM     54  C   UNL A   1      45.662  28.389  31.703  1.00  0.00     0.049 A 
ATOM     55  H   UNL A   1      43.727  28.452  30.863  1.00  0.00     0.167 HD
ATOM     56  C   UNL A   1      45.535  26.363  30.285  1.00  0.00     0.074 A 
ATOM     57  C   UNL A   1      46.096  25.164  29.700  1.00  0.00     0.031 C 
ATOM     58  C   UNL A   1      46.207  27.186  31.128  1.00  0.00     0.037 A 
BRANCH  45  59
ATOM     59  C   UNL A   1      42.946  32.117  32.896  1.00  0.00     0.064 A 
ATOM     60  C   UNL A   1      43.382  33.332  32.346  1.00  0.00     0.173 A 
ATOM     61  C   UNL A   1      42.439  32.131  34.203  1.00  0.00     0.173 A 
ATOM     62  F   UNL A   1      43.894  33.367  31.105  1.00  0.00    -0.203 F 
ATOM     63  C   UNL A   1      43.337  34.510  33.087  1.00  0.00     0.198 A 
ATOM     64  C   UNL A   1      42.368  33.316  34.931  1.00  0.00     0.198 A 
ATOM     65  F   UNL A   1      42.010  30.996  34.775  1.00  0.00    -0.203 F 
ATOM     66  F   UNL A   1      43.805  35.650  32.560  1.00  0.00    -0.200 F 
ATOM     67  C   UNL A   1      42.823  34.502  34.375  1.00  0.00     0.200 A 
ATOM     68  F   UNL A   1      41.863  33.308  36.172  1.00  0.00    -0.200 F 
ATOM     69  F   UNL A   1      42.774  35.638  35.085  1.00  0.00    -0.200 F 
ENDBRANCH  45  59
BRANCH  46  70
ATOM     70  C   UNL A   1      42.820  23.778  27.448  1.00  0.00     0.064 A 
ATOM     71  C   UNL A   1      42.461  22.540  27.998  1.00  0.00     0.173 A 
ATOM     72  C   UNL A   1      43.235  23.800  26.108  1.00  0.00     0.173 A 
ATOM     73  F   UNL A   1      42.089  22.462  29.285  1.00  0.00    -0.203 F 
ATOM     74  C   UNL A   1      42.540  21.368  27.248  1.00  0.00     0.198 A 
ATOM     75  C   UNL A   1      43.286  22.632  25.351  1.00  0.00     0.198 A 
ATOM     76  F   UNL A   1      43.600  24.957  25.536  1.00  0.00    -0.203 F 
ATOM     77  F   UNL A   1      42.248  20.190  27.817  1.00  0.00    -0.200 F 
ATOM     78  C   UNL A   1      42.948  21.415  25.923  1.00  0.00     0.200 A 
ATOM     79  F   UNL A   1      43.677  22.682  24.069  1.00  0.00    -0.200 F 
ATOM     80  F   UNL A   1      43.030  20.287  25.205  1.00  0.00    -0.200 F 
ENDBRANCH  46  70
BRANCH  58  81
ATOM     81  C   UNL A   1      47.608  26.804  31.508  1.00  0.00     0.064 A 
ATOM     82  C   UNL A   1      47.875  25.929  32.572  1.00  0.00     0.173 A 
ATOM     83  C   UNL A   1      48.699  27.279  30.761  1.00  0.00     0.173 A 
ATOM     84  F   UNL A   1      46.870  25.456  33.324  1.00  0.00    -0.203 F 
ATOM     85  C   UNL A   1      49.181  25.563  32.888  1.00  0.00     0.198 A 
ATOM     86  C   UNL A   1      50.001  26.886  31.062  1.00  0.00     0.198 A 
ATOM     87  F   UNL A   1      48.500  28.110  29.728  1.00  0.00    -0.203 F 
ATOM     88  F   UNL A   1      49.414  24.760  33.937  1.00  0.00    -0.200 F 
ATOM     89  C   UNL A   1      50.241  26.035  32.129  1.00  0.00     0.200 A 
ATOM     90  F   UNL A   1      51.022  27.330  30.316  1.00  0.00    -0.200 F 
ATOM     91  F   UNL A   1      51.496  25.672  32.429  1.00  0.00    -0.200 F 
ENDBRANCH  58  81
ENDBRANCH  32  33
ENDBRANCH  25  27
ENDBRANCH  24  25
ENDBRANCH  23  24
ENDBRANCH  22  23
ENDBRANCH  21  22
ENDBRANCH   1  21
TORSDOF 18
ENDMDL
MODEL 2
REMARK VINA RESULT:      -9.8      4.231     10.218
REMARK SMILES C[C@H](C(=O)OCCOCCOCCOC(=O)c1ccc(-c2c3nc(c(-c4c(F)c(F)c(F)c(F)c4F)c4ccc([nH]4)c(-c4c(F)c(F)c(F)c(F)c4F)c4nc(c(-c5c(F)c(F)c(F)c(F)c5F)c5ccc2[nH]5)C=C4)C=C3)cc1)c1ccc2c(c1)OCCO2
REMARK SMILES IDX 10 1 9 2 8 3 7 4 6 5 5 6 3 7 4 8 2 9 1 10 80 11 81 12 85 13
REMARK SMILES IDX 82 14 84 15 83 16 86 17 89 18 87 19 88 20 11 21 12 22 13 23
REMARK SMILES IDX 14 24 15 25 16 26 17 27 18 28 79 29 19 30 78 31 20 32 21 33
REMARK SMILES IDX 22 34 72 35 23 36 77 37 71 38 73 39 24 40 76 41 70 42 69 43
REMARK SMILES IDX 25 45 57 46 37 47 56 48 38 49 41 50 55 51 74 52 39 53 40 54
REMARK SMILES IDX 54 56 75 57 42 58 26 59 27 60 35 61 28 62 29 63 33 64 36 65
REMARK SMILES IDX 30 66 31 67 34 68 32 69 58 70 59 71 67 72 60 73 61 74 65 75
REMARK SMILES IDX 68 76 62 77 63 78 66 79 64 80 43 81 44 82 52 83 45 84 46 85
REMARK SMILES IDX 50 86 53 87 47 88 48 89 51 90 49 91
REMARK H PARENT 73 44 41 55
REMARK Flexibility Score: inf
ROOT
ATOM      1  C   UNL A   1      28.629  31.157  23.688  1.00  0.00     0.188 C 
ENDROOT
BRANCH   1   2
ATOM      2  C   UNL A   1      28.881  30.780  22.221  1.00  0.00     0.188 C 
BRANCH   2   3
ATOM      3  O   UNL A   1      29.065  29.407  21.907  1.00  0.00    -0.376 OA
BRANCH   3   4
ATOM      4  C   UNL A   1      29.077  28.479  22.992  1.00  0.00     0.202 C 
BRANCH   4   5
ATOM      5  C   UNL A   1      30.345  27.634  23.208  1.00  0.00     0.261 C 
BRANCH   5   6
ATOM      6  O   UNL A   1      31.385  27.866  22.231  1.00  0.00    -0.463 OA
BRANCH   6   7
ATOM      7  C   UNL A   1      32.227  26.816  21.996  1.00  0.00     0.313 C 
ATOM      8  O   UNL A   1      31.908  25.902  21.246  1.00  0.00    -0.252 OA
BRANCH   7   9
ATOM      9  C   UNL A   1      33.653  27.018  22.617  1.00  0.00     0.126 C 
ATOM     10  C   UNL A   1      34.017  28.518  22.583  1.00  0.00     0.025 C 
BRANCH   9  11
ATOM     11  C   UNL A   1      33.781  26.468  24.056  1.00  0.00    -0.030 A 
ATOM     12  C   UNL A   1      33.608  27.306  25.178  1.00  0.00     0.009 A 
ATOM     13  C   UNL A   1      33.782  25.091  24.275  1.00  0.00     0.055 A 
ATOM     14  C   UNL A   1      32.984  26.812  26.321  1.00  0.00     0.051 A 
ATOM     15  C   UNL A   1      32.989  24.628  25.304  1.00  0.00     0.161 A 
ATOM     16  C   UNL A   1      32.525  25.508  26.275  1.00  0.00     0.161 A 
ATOM     17  O   UNL A   1      32.468  23.371  25.168  1.00  0.00    -0.486 OA
ATOM     18  O   UNL A   1      31.396  25.176  26.989  1.00  0.00    -0.486 OA
ATOM     19  C   UNL A   1      31.041  23.393  25.349  1.00  0.00     0.271 C 
ATOM     20  C   UNL A   1      30.489  24.674  25.988  1.00  0.00     0.271 C 
ENDBRANCH   9  11
ENDBRANCH   7   9
ENDBRANCH   6   7
ENDBRANCH   5   6
ENDBRANCH   4   5
ENDBRANCH   3   4
ENDBRANCH   2   3
ENDBRANCH   1   2
BRANCH   1  21
ATOM     21  O   UNL A   1      29.668  31.903  24.306  1.00  0.00    -0.376 OA
BRANCH  21  22
ATOM     22  C   UNL A   1      30.598  31.184  25.118  1.00  0.00     0.202 C 
BRANCH  22  23
ATOM     23  C   UNL A   1      31.017  31.878  26.422  1.00  0.00     0.261 C 
BRANCH  23  24
ATOM     24  O   UNL A   1      32.425  31.760  26.706  1.00  0.00    -0.460 OA
BRANCH  24  25
ATOM     25  C   UNL A   1      33.008  32.781  27.376  1.00  0.00     0.338 C 
ATOM     26  O   UNL A   1      32.512  33.865  27.630  1.00  0.00    -0.246 OA
BRANCH  25  27
ATOM     27  C   UNL A   1      34.273  32.282  27.973  1.00  0.00     0.060 A 
ATOM     28  C   UNL A   1      34.359  30.923  28.313  1.00  0.00     0.016 A 
ATOM     29  C   UNL A   1      35.387  33.113  28.135  1.00  0.00     0.016 A 
ATOM     30  C   UNL A   1      35.534  30.411  28.868  1.00  0.00     0.010 A 
ATOM     31  C   UNL A   1      36.564  32.600  28.686  1.00  0.00     0.010 A 
ATOM     32  C   UNL A   1      36.628  31.256  29.095  1.00  0.00    -0.014 A 
BRANCH  32  33
ATOM     33  C   UNL A   1      37.753  30.807  29.952  1.00  0.00     0.031 A 
ATOM     34  C   UNL A   1      38.752  29.847  29.363  1.00  0.00     0.074 A 
ATOM     35  C   UNL A   1      37.901  31.235  31.218  1.00  0.00     0.049 A 
ATOM     36  N   UNL A   1      39.792  29.280  29.918  1.00  0.00    -0.248 NA
ATOM     37  C   UNL A   1      38.545  29.477  27.953  1.00  0.00     0.031 C 
ATOM     38  C   UNL A   1      37.028  32.185  31.901  1.00  0.00     0.029 A 
ATOM     39  N   UNL A   1      38.850  30.911  32.157  1.00  0.00    -0.354 N 
ATOM     40  C   UNL A   1      40.358  28.487  28.928  1.00  0.00     0.074 A 
ATOM     41  C   UNL A   1      39.527  28.615  27.751  1.00  0.00     0.031 C 
ATOM     42  C   UNL A   1      37.478  32.364  33.156  1.00  0.00     0.029 A 
ATOM     43  C   UNL A   1      38.653  31.518  33.373  1.00  0.00     0.049 A 
ATOM     44  H   UNL A   1      39.601  30.301  31.976  1.00  0.00     0.167 HD
ATOM     45  C   UNL A   1      41.477  27.728  28.989  1.00  0.00     0.037 A 
ATOM     46  C   UNL A   1      39.333  31.390  34.529  1.00  0.00     0.037 A 
ATOM     47  C   UNL A   1      42.308  27.595  30.154  1.00  0.00     0.049 A 
ATOM     48  C   UNL A   1      40.532  30.475  34.594  1.00  0.00     0.074 A 
ATOM     49  C   UNL A   1      43.474  26.866  30.303  1.00  0.00     0.029 A 
ATOM     50  N   UNL A   1      42.055  28.200  31.375  1.00  0.00    -0.354 N 
ATOM     51  N   UNL A   1      41.083  29.757  33.645  1.00  0.00    -0.248 NA
ATOM     52  C   UNL A   1      41.206  30.355  35.897  1.00  0.00     0.031 C 
ATOM     53  C   UNL A   1      43.898  26.985  31.629  1.00  0.00     0.029 A 
ATOM     54  C   UNL A   1      43.028  27.835  32.292  1.00  0.00     0.049 A 
ATOM     55  H   UNL A   1      41.297  28.798  31.564  1.00  0.00     0.167 HD
ATOM     56  C   UNL A   1      42.181  29.131  34.224  1.00  0.00     0.074 A 
ATOM     57  C   UNL A   1      42.227  29.561  35.605  1.00  0.00     0.031 C 
ATOM     58  C   UNL A   1      43.074  28.280  33.662  1.00  0.00     0.037 A 
BRANCH  45  59
ATOM     59  C   UNL A   1      41.854  26.960  27.758  1.00  0.00     0.064 A 
ATOM     60  C   UNL A   1      42.612  27.542  26.730  1.00  0.00     0.173 A 
ATOM     61  C   UNL A   1      41.475  25.618  27.616  1.00  0.00     0.173 A 
ATOM     62  F   UNL A   1      42.982  28.830  26.809  1.00  0.00    -0.203 F 
ATOM     63  C   UNL A   1      42.954  26.814  25.593  1.00  0.00     0.198 A 
ATOM     64  C   UNL A   1      41.843  24.884  26.492  1.00  0.00     0.198 A 
ATOM     65  F   UNL A   1      40.749  25.015  28.570  1.00  0.00    -0.203 F 
ATOM     66  F   UNL A   1      43.635  27.404  24.601  1.00  0.00    -0.200 F 
ATOM     67  C   UNL A   1      42.576  25.485  25.479  1.00  0.00     0.200 A 
ATOM     68  F   UNL A   1      41.486  23.597  26.387  1.00  0.00    -0.200 F 
ATOM     69  F   UNL A   1      42.910  24.784  24.387  1.00  0.00    -0.200 F 
ENDBRANCH  45  59
BRANCH  46  70
ATOM     70  C   UNL A   1      38.899  32.137  35.740  1.00  0.00     0.064 A 
ATOM     71  C   UNL A   1      39.270  33.474  35.937  1.00  0.00     0.173 A 
ATOM     72  C   UNL A   1      38.144  31.515  36.745  1.00  0.00     0.173 A 
ATOM     73  F   UNL A   1      40.020  34.102  35.019  1.00  0.00    -0.203 F 
ATOM     74  C   UNL A   1      38.923  34.154  37.103  1.00  0.00     0.198 A 
ATOM     75  C   UNL A   1      37.774  32.204  37.898  1.00  0.00     0.198 A 
ATOM     76  F   UNL A   1      37.772  30.234  36.611  1.00  0.00    -0.203 F 
ATOM     77  F   UNL A   1      39.342  35.412  37.292  1.00  0.00    -0.200 F 
ATOM     78  C   UNL A   1      38.171  33.520  38.081  1.00  0.00     0.200 A 
ATOM     79  F   UNL A   1      37.043  31.589  38.838  1.00  0.00    -0.200 F 
ATOM     80  F   UNL A   1      37.845  34.172  39.205  1.00  0.00    -0.200 F 
ENDBRANCH  46  70
BRANCH  58  81
ATOM     81  C   UNL A   1      44.204  27.785  34.518  1.00  0.00     0.064 A 
ATOM     82  C   UNL A   1      45.400  28.506  34.654  1.00  0.00     0.173 A 
ATOM     83  C   UNL A   1      44.066  26.598  35.256  1.00  0.00     0.173 A 
ATOM     84  F   UNL A   1      45.586  29.640  33.962  1.00  0.00    -0.203 F 
ATOM     85  C   UNL A   1      46.424  28.045  35.479  1.00  0.00     0.198 A 
ATOM     86  C   UNL A   1      45.080  26.157  36.103  1.00  0.00     0.198 A 
ATOM     87  F   UNL A   1      42.939  25.875  35.170  1.00  0.00    -0.203 F 
ATOM     88  F   UNL A   1      47.574  28.728  35.559  1.00  0.00    -0.200 F 
ATOM     89  C   UNL A   1      46.260  26.877  36.208  1.00  0.00     0.200 A 
ATOM     90  F   UNL A   1      44.912  25.037  36.819  1.00  0.00    -0.200 F 
ATOM     91  F   UNL A   1      47.243  26.442  37.008  1.00  0.00    -0.200 F 
ENDBRANCH  58  81
ENDBRANCH  32  33
ENDBRANCH  25  27
ENDBRANCH  24  25
ENDBRANCH  23  24
ENDBRANCH  22  23
ENDBRANCH  21  22
ENDBRANCH   1  21
TORSDOF 18
ENDMDL
MODEL 3
REMARK VINA RESULT:      -9.5      4.886     11.098
REMARK SMILES C[C@H](C(=O)OCCOCCOCCOC(=O)c1ccc(-c2c3nc(c(-c4c(F)c(F)c(F)c(F)c4F)c4ccc([nH]4)c(-c4c(F)c(F)c(F)c(F)c4F)c4nc(c(-c5c(F)c(F)c(F)c(F)c5F)c5ccc2[nH]5)C=C4)C=C3)cc1)c1ccc2c(c1)OCCO2
REMARK SMILES IDX 10 1 9 2 8 3 7 4 6 5 5 6 3 7 4 8 2 9 1 10 80 11 81 12 85 13
REMARK SMILES IDX 82 14 84 15 83 16 86 17 89 18 87 19 88 20 11 21 12 22 13 23
REMARK SMILES IDX 14 24 15 25 16 26 17 27 18 28 79 29 19 30 78 31 20 32 21 33
REMARK SMILES IDX 22 34 72 35 23 36 77 37 71 38 73 39 24 40 76 41 70 42 69 43
REMARK SMILES IDX 25 45 57 46 37 47 56 48 38 49 41 50 55 51 74 52 39 53 40 54
REMARK SMILES IDX 54 56 75 57 42 58 26 59 27 60 35 61 28 62 29 63 33 64 36 65
REMARK SMILES IDX 30 66 31 67 34 68 32 69 58 70 59 71 67 72 60 73 61 74 65 75
REMARK SMILES IDX 68 76 62 77 63 78 66 79 64 80 43 81 44 82 52 83 45 84 46 85
REMARK SMILES IDX 50 86 53 87 47 88 48 89 51 90 49 91
REMARK H PARENT 73 44 41 55
REMARK Flexibility Score: inf
ROOT
ATOM      1  C   UNL A   1      31.985  27.659  23.464  1.00  0.00     0.188 C 
ENDROOT
BRANCH   1   2
ATOM      2  C   UNL A   1      33.055  27.965  22.406  1.00  0.00     0.188 C 
BRANCH   2   3
ATOM      3  O   UNL A   1      33.647  26.872  21.720  1.00  0.00    -0.376 OA
BRANCH   3   4
ATOM      4  C   UNL A   1      32.773  25.870  21.198  1.00  0.00     0.202 C 
BRANCH   4   5
ATOM      5  C   UNL A   1      33.133  24.395  21.448  1.00  0.00     0.261 C 
BRANCH   5   6
ATOM      6  O   UNL A   1      32.935  23.960  22.811  1.00  0.00    -0.463 OA
BRANCH   6   7
ATOM      7  C   UNL A   1      34.054  23.922  23.594  1.00  0.00     0.313 C 
ATOM      8  O   UNL A   1      34.326  24.839  24.359  1.00  0.00    -0.252 OA
BRANCH   7   9
ATOM      9  C   UNL A   1      34.801  22.544  23.537  1.00  0.00     0.126 C 
ATOM     10  C   UNL A   1      36.315  22.775  23.734  1.00  0.00     0.025 C 
BRANCH   9  11
ATOM     11  C   UNL A   1      34.278  21.517  24.568  1.00  0.00    -0.030 A 
ATOM     12  C   UNL A   1      32.970  21.602  25.087  1.00  0.00     0.009 A 
ATOM     13  C   UNL A   1      34.980  20.331  24.782  1.00  0.00     0.055 A 
ATOM     14  C   UNL A   1      32.250  20.437  25.344  1.00  0.00     0.051 A 
ATOM     15  C   UNL A   1      34.235  19.172  24.835  1.00  0.00     0.161 A 
ATOM     16  C   UNL A   1      32.860  19.236  25.031  1.00  0.00     0.161 A 
ATOM     17  O   UNL A   1      34.846  18.022  24.415  1.00  0.00    -0.486 OA
ATOM     18  O   UNL A   1      32.078  18.182  24.618  1.00  0.00    -0.486 OA
ATOM     19  C   UNL A   1      34.047  17.362  23.416  1.00  0.00     0.271 C 
ATOM     20  C   UNL A   1      32.599  17.856  23.314  1.00  0.00     0.271 C 
ENDBRANCH   9  11
ENDBRANCH   7   9
ENDBRANCH   6   7
ENDBRANCH   5   6
ENDBRANCH   4   5
ENDBRANCH   3   4
ENDBRANCH   2   3
ENDBRANCH   1   2
BRANCH   1  21
ATOM     21  O   UNL A   1      31.239  28.782  23.910  1.00  0.00    -0.376 OA
BRANCH  21  22
ATOM     22  C   UNL A   1      31.234  29.050  25.314  1.00  0.00     0.202 C 
BRANCH  22  23
ATOM     23  C   UNL A   1      31.768  30.428  25.729  1.00  0.00     0.261 C 
BRANCH  23  24
ATOM     24  O   UNL A   1      33.064  30.373  26.356  1.00  0.00    -0.460 OA
BRANCH  24  25
ATOM     25  C   UNL A   1      33.432  31.437  27.107  1.00  0.00     0.338 C 
ATOM     26  O   UNL A   1      32.744  32.402  27.394  1.00  0.00    -0.246 OA
BRANCH  25  27
ATOM     27  C   UNL A   1      34.741  31.129  27.739  1.00  0.00     0.060 A 
ATOM     28  C   UNL A   1      35.050  29.788  28.010  1.00  0.00     0.016 A 
ATOM     29  C   UNL A   1      35.686  32.128  27.998  1.00  0.00     0.016 A 
ATOM     30  C   UNL A   1      36.274  29.453  28.595  1.00  0.00     0.010 A 
ATOM     31  C   UNL A   1      36.911  31.793  28.579  1.00  0.00     0.010 A 
ATOM     32  C   UNL A   1      37.193  30.459  28.919  1.00  0.00    -0.014 A 
BRANCH  32  33
ATOM     33  C   UNL A   1      38.346  30.159  29.806  1.00  0.00     0.031 A 
ATOM     34  C   UNL A   1      39.411  29.230  29.290  1.00  0.00     0.074 A 
ATOM     35  C   UNL A   1      38.460  30.695  31.033  1.00  0.00     0.049 A 
ATOM     36  N   UNL A   1      40.488  28.783  29.885  1.00  0.00    -0.248 NA
ATOM     37  C   UNL A   1      39.234  28.736  27.915  1.00  0.00     0.031 C 
ATOM     38  C   UNL A   1      37.519  31.632  31.642  1.00  0.00     0.029 A 
ATOM     39  N   UNL A   1      39.427  30.515  31.992  1.00  0.00    -0.354 N 
ATOM     40  C   UNL A   1      41.111  27.957  28.960  1.00  0.00     0.074 A 
ATOM     41  C   UNL A   1      40.276  27.932  27.779  1.00  0.00     0.031 C 
ATOM     42  C   UNL A   1      37.952  31.941  32.877  1.00  0.00     0.029 A 
ATOM     43  C   UNL A   1      39.184  31.200  33.157  1.00  0.00     0.049 A 
ATOM     44  H   UNL A   1      40.220  29.947  31.857  1.00  0.00     0.167 HD
ATOM     45  C   UNL A   1      42.281  27.286  29.076  1.00  0.00     0.037 A 
ATOM     46  C   UNL A   1      39.869  31.213  34.317  1.00  0.00     0.037 A 
ATOM     47  C   UNL A   1      43.116  27.305  30.246  1.00  0.00     0.049 A 
ATOM     48  C   UNL A   1      41.129  30.393  34.451  1.00  0.00     0.074 A 
ATOM     49  C   UNL A   1      44.331  26.674  30.448  1.00  0.00     0.029 A 
ATOM     50  N   UNL A   1      42.818  27.985  31.417  1.00  0.00    -0.354 N 
ATOM     51  N   UNL A   1      41.732  29.642  33.559  1.00  0.00    -0.248 NA
ATOM     52  C   UNL A   1      41.807  30.424  35.757  1.00  0.00     0.031 C 
ATOM     53  C   UNL A   1      44.742  26.928  31.760  1.00  0.00     0.029 A 
ATOM     54  C   UNL A   1      43.812  27.763  32.356  1.00  0.00     0.049 A 
ATOM     55  H   UNL A   1      42.019  28.541  31.560  1.00  0.00     0.167 HD
ATOM     56  C   UNL A   1      42.870  29.144  34.183  1.00  0.00     0.074 A 
ATOM     57  C   UNL A   1      42.882  29.684  35.525  1.00  0.00     0.031 C 
ATOM     58  C   UNL A   1      43.823  28.317  33.686  1.00  0.00     0.037 A 
BRANCH  45  59
ATOM     59  C   UNL A   1      42.715  26.453  27.908  1.00  0.00     0.064 A 
ATOM     60  C   UNL A   1      42.297  25.122  27.757  1.00  0.00     0.173 A 
ATOM     61  C   UNL A   1      43.539  27.000  26.915  1.00  0.00     0.173 A 
ATOM     62  F   UNL A   1      41.524  24.546  28.691  1.00  0.00    -0.203 F 
ATOM     63  C   UNL A   1      42.710  24.362  26.666  1.00  0.00     0.198 A 
ATOM     64  C   UNL A   1      43.927  26.247  25.810  1.00  0.00     0.198 A 
ATOM     65  F   UNL A   1      43.967  28.268  27.013  1.00  0.00    -0.203 F 
ATOM     66  F   UNL A   1      42.339  23.078  26.567  1.00  0.00    -0.200 F 
ATOM     67  C   UNL A   1      43.517  24.928  25.691  1.00  0.00     0.200 A 
ATOM     68  F   UNL A   1      44.699  26.797  24.864  1.00  0.00    -0.200 F 
ATOM     69  F   UNL A   1      43.909  24.197  24.637  1.00  0.00    -0.200 F 
ENDBRANCH  45  59
BRANCH  46  70
ATOM     70  C   UNL A   1      39.379  32.020  35.467  1.00  0.00     0.064 A 
ATOM     71  C   UNL A   1      39.829  33.331  35.674  1.00  0.00     0.173 A 
ATOM     72  C   UNL A   1      38.488  31.480  36.407  1.00  0.00     0.173 A 
ATOM     73  F   UNL A   1      40.707  33.879  34.820  1.00  0.00    -0.203 F 
ATOM     74  C   UNL A   1      39.426  34.064  36.789  1.00  0.00     0.198 A 
ATOM     75  C   UNL A   1      38.064  32.223  37.506  1.00  0.00     0.198 A 
ATOM     76  F   UNL A   1      38.036  30.226  36.261  1.00  0.00    -0.203 F 
ATOM     77  F   UNL A   1      39.918  35.293  36.993  1.00  0.00    -0.200 F 
ATOM     78  C   UNL A   1      38.540  33.511  37.701  1.00  0.00     0.200 A 
ATOM     79  F   UNL A   1      37.204  31.687  38.383  1.00  0.00    -0.200 F 
ATOM     80  F   UNL A   1      38.159  34.213  38.777  1.00  0.00    -0.200 F 
ENDBRANCH  46  70
BRANCH  58  81
ATOM     81  C   UNL A   1      44.983  27.973  34.575  1.00  0.00     0.064 A 
ATOM     82  C   UNL A   1      46.123  28.787  34.652  1.00  0.00     0.173 A 
ATOM     83  C   UNL A   1      44.929  26.840  35.403  1.00  0.00     0.173 A 
ATOM     84  F   UNL A   1      46.229  29.874  33.875  1.00  0.00    -0.203 F 
ATOM     85  C   UNL A   1      47.175  28.466  35.508  1.00  0.00     0.198 A 
ATOM     86  C   UNL A   1      45.969  26.539  36.279  1.00  0.00     0.198 A 
ATOM     87  F   UNL A   1      43.858  26.032  35.376  1.00  0.00    -0.203 F 
ATOM     88  F   UNL A   1      48.273  29.235  35.533  1.00  0.00    -0.200 F 
ATOM     89  C   UNL A   1      47.094  27.348  36.325  1.00  0.00     0.200 A 
ATOM     90  F   UNL A   1      45.881  25.468  37.079  1.00  0.00    -0.200 F 
ATOM     91  F   UNL A   1      48.103  27.049  37.154  1.00  0.00    -0.200 F 
ENDBRANCH  58  81
ENDBRANCH  32  33
ENDBRANCH  25  27
ENDBRANCH  24  25
ENDBRANCH  23  24
ENDBRANCH  22  23
ENDBRANCH  21  22
ENDBRANCH   1  21
TORSDOF 18
ENDMDL
