MODEL 1
REMARK VINA RESULT:     -11.4      0.000      0.000
REMARK SMILES O=C(OCCOCCOCCOC(=O)c1ccc(Cn2nnc3ccccc32)nc1)c1ccc(-c2c3nc(c(-c4c(F)c(F)c(F)c(F)c4F)c4ccc([nH]4)c(-c4c(F)c(F)c(F)c(F)c4F)c4nc(c(-c5c(F)c(F)c(F)c(F)c5F)c5ccc2[nH]5)C=C4)C=C3)cc1
REMARK SMILES IDX 7 1 6 2 5 3 4 4 3 5 2 6 1 7 31 8 32 9 93 10 33 11 92 12
REMARK SMILES IDX 34 13 35 14 36 15 86 16 37 17 91 18 85 19 87 20 38 21 90 22
REMARK SMILES IDX 84 23 83 24 39 26 71 27 51 28 70 29 52 30 55 31 69 32 88 33
REMARK SMILES IDX 53 34 54 35 68 37 89 38 56 39 40 40 41 41 49 42 42 43 43 44
REMARK SMILES IDX 47 45 50 46 44 47 45 48 48 49 46 50 72 51 73 52 81 53 74 54
REMARK SMILES IDX 75 55 79 56 82 57 76 58 77 59 80 60 78 61 57 62 58 63 66 64
REMARK SMILES IDX 59 65 60 66 64 67 67 68 61 69 62 70 65 71 63 72 8 73 9 74
REMARK SMILES IDX 10 75 11 76 12 77 13 78 14 79 15 80 16 81 30 82 17 83 29 84
REMARK SMILES IDX 18 85 19 86 20 87 21 88 28 89 22 90 23 91 27 92 24 93 26 94
REMARK SMILES IDX 25 95
REMARK H PARENT 87 25 55 36
REMARK Flexibility Score: inf
ROOT
ATOM      1  C   UNL A   1      32.941  30.457  27.238  1.00  0.00     0.188 C 
ENDROOT
BRANCH   1   2
ATOM      2  O   UNL A   1      31.654  30.746  26.706  1.00  0.00    -0.376 OA
BRANCH   2   3
ATOM      3  C   UNL A   1      31.332  32.128  26.712  1.00  0.00     0.202 C 
BRANCH   3   4
ATOM      4  C   UNL A   1      32.442  33.087  27.178  1.00  0.00     0.261 C 
BRANCH   4   5
ATOM      5  O   UNL A   1      32.109  34.256  27.973  1.00  0.00    -0.460 OA
BRANCH   5   6
ATOM      6  C   UNL A   1      32.856  34.965  28.853  1.00  0.00     0.338 C 
ATOM      7  O   UNL A   1      32.467  36.032  29.314  1.00  0.00    -0.246 OA
BRANCH   6   8
ATOM      8  C   UNL A   1      34.219  34.496  29.131  1.00  0.00     0.060 A 
ATOM      9  C   UNL A   1      35.127  34.531  28.075  1.00  0.00     0.016 A 
ATOM     10  C   UNL A   1      34.561  33.904  30.351  1.00  0.00     0.016 A 
ATOM     11  C   UNL A   1      36.301  33.807  28.196  1.00  0.00     0.010 A 
ATOM     12  C   UNL A   1      35.700  33.108  30.433  1.00  0.00     0.010 A 
ATOM     13  C   UNL A   1      36.553  33.019  29.335  1.00  0.00    -0.014 A 
BRANCH  13  14
ATOM     14  C   UNL A   1      37.920  32.505  29.480  1.00  0.00     0.031 A 
ATOM     15  C   UNL A   1      37.902  31.052  29.185  1.00  0.00     0.074 A 
ATOM     16  C   UNL A   1      39.071  33.164  29.738  1.00  0.00     0.049 A 
ATOM     17  N   UNL A   1      38.087  30.082  30.016  1.00  0.00    -0.248 NA
ATOM     18  C   UNL A   1      37.393  30.635  27.864  1.00  0.00     0.031 C 
ATOM     19  C   UNL A   1      39.275  34.612  29.770  1.00  0.00     0.029 A 
ATOM     20  N   UNL A   1      40.339  32.674  29.972  1.00  0.00    -0.354 N 
ATOM     21  C   UNL A   1      37.960  28.936  29.242  1.00  0.00     0.074 A 
ATOM     22  C   UNL A   1      37.315  29.314  28.014  1.00  0.00     0.031 C 
ATOM     23  C   UNL A   1      40.594  34.884  29.866  1.00  0.00     0.029 A 
ATOM     24  C   UNL A   1      41.342  33.642  29.928  1.00  0.00     0.049 A 
ATOM     25  H   UNL A   1      40.521  31.723  30.152  1.00  0.00     0.167 HD
ATOM     26  C   UNL A   1      38.769  27.875  29.482  1.00  0.00     0.037 A 
ATOM     27  C   UNL A   1      42.690  33.466  29.886  1.00  0.00     0.037 A 
ATOM     28  C   UNL A   1      39.313  27.899  30.808  1.00  0.00     0.049 A 
ATOM     29  C   UNL A   1      42.997  32.125  30.437  1.00  0.00     0.074 A 
ATOM     30  C   UNL A   1      38.920  27.519  32.070  1.00  0.00     0.029 A 
ATOM     31  N   UNL A   1      40.376  28.745  30.952  1.00  0.00    -0.354 N 
ATOM     32  N   UNL A   1      42.874  31.822  31.699  1.00  0.00    -0.248 NA
ATOM     33  C   UNL A   1      43.164  30.988  29.533  1.00  0.00     0.031 C 
ATOM     34  C   UNL A   1      39.778  28.197  32.987  1.00  0.00     0.029 A 
ATOM     35  C   UNL A   1      40.692  28.955  32.265  1.00  0.00     0.049 A 
ATOM     36  H   UNL A   1      40.859  29.155  30.198  1.00  0.00     0.167 HD
ATOM     37  C   UNL A   1      42.514  30.493  31.689  1.00  0.00     0.074 A 
ATOM     38  C   UNL A   1      42.876  29.991  30.371  1.00  0.00     0.031 C 
ATOM     39  C   UNL A   1      41.629  29.999  32.597  1.00  0.00     0.037 A 
BRANCH  26  40
ATOM     40  C   UNL A   1      39.488  27.172  28.361  1.00  0.00     0.064 A 
ATOM     41  C   UNL A   1      39.532  25.771  28.339  1.00  0.00     0.173 A 
ATOM     42  C   UNL A   1      40.380  27.831  27.481  1.00  0.00     0.173 A 
ATOM     43  F   UNL A   1      38.782  25.057  29.191  1.00  0.00    -0.203 F 
ATOM     44  C   UNL A   1      40.407  25.082  27.494  1.00  0.00     0.198 A 
ATOM     45  C   UNL A   1      41.199  27.144  26.594  1.00  0.00     0.198 A 
ATOM     46  F   UNL A   1      40.581  29.154  27.533  1.00  0.00    -0.203 F 
ATOM     47  F   UNL A   1      40.491  23.748  27.572  1.00  0.00    -0.200 F 
ATOM     48  C   UNL A   1      41.228  25.768  26.614  1.00  0.00     0.200 A 
ATOM     49  F   UNL A   1      42.013  27.831  25.780  1.00  0.00    -0.200 F 
ATOM     50  F   UNL A   1      42.087  25.108  25.827  1.00  0.00    -0.200 F 
ENDBRANCH  26  40
BRANCH  27  51
ATOM     51  C   UNL A   1      43.743  34.326  29.270  1.00  0.00     0.064 A 
ATOM     52  C   UNL A   1      44.103  34.192  27.914  1.00  0.00     0.173 A 
ATOM     53  C   UNL A   1      44.246  35.470  29.921  1.00  0.00     0.173 A 
ATOM     54  F   UNL A   1      43.652  33.155  27.191  1.00  0.00    -0.203 F 
ATOM     55  C   UNL A   1      44.873  35.156  27.250  1.00  0.00     0.198 A 
ATOM     56  C   UNL A   1      45.029  36.422  29.265  1.00  0.00     0.198 A 
ATOM     57  F   UNL A   1      43.919  35.748  31.190  1.00  0.00    -0.203 F 
ATOM     58  F   UNL A   1      45.128  35.025  25.940  1.00  0.00    -0.200 F 
ATOM     59  C   UNL A   1      45.325  36.276  27.924  1.00  0.00     0.200 A 
ATOM     60  F   UNL A   1      45.441  37.511  29.928  1.00  0.00    -0.200 F 
ATOM     61  F   UNL A   1      46.006  37.233  27.277  1.00  0.00    -0.200 F 
ENDBRANCH  27  51
BRANCH  39  62
ATOM     62  C   UNL A   1      41.526  30.666  33.928  1.00  0.00     0.064 A 
ATOM     63  C   UNL A   1      40.615  31.685  34.247  1.00  0.00     0.173 A 
ATOM     64  C   UNL A   1      42.358  30.188  34.952  1.00  0.00     0.173 A 
ATOM     65  F   UNL A   1      39.760  32.153  33.327  1.00  0.00    -0.203 F 
ATOM     66  C   UNL A   1      40.559  32.210  35.539  1.00  0.00     0.198 A 
ATOM     67  C   UNL A   1      42.268  30.682  36.246  1.00  0.00     0.198 A 
ATOM     68  F   UNL A   1      43.240  29.208  34.697  1.00  0.00    -0.203 F 
ATOM     69  F   UNL A   1      39.715  33.211  35.826  1.00  0.00    -0.200 F 
ATOM     70  C   UNL A   1      41.373  31.696  36.539  1.00  0.00     0.200 A 
ATOM     71  F   UNL A   1      43.042  30.164  37.209  1.00  0.00    -0.200 F 
ATOM     72  F   UNL A   1      41.292  32.172  37.789  1.00  0.00    -0.200 F 
ENDBRANCH  39  62
ENDBRANCH  13  14
ENDBRANCH   6   8
ENDBRANCH   5   6
ENDBRANCH   4   5
ENDBRANCH   3   4
ENDBRANCH   2   3
ENDBRANCH   1   2
BRANCH   1  73
ATOM     73  C   UNL A   1      33.387  29.026  26.936  1.00  0.00     0.188 C 
BRANCH  73  74
ATOM     74  O   UNL A   1      34.275  28.831  25.840  1.00  0.00    -0.376 OA
BRANCH  74  75
ATOM     75  C   UNL A   1      33.763  28.236  24.657  1.00  0.00     0.202 C 
BRANCH  75  76
ATOM     76  C   UNL A   1      32.651  28.932  23.857  1.00  0.00     0.261 C 
BRANCH  76  77
ATOM     77  O   UNL A   1      31.302  28.579  24.161  1.00  0.00    -0.460 OA
BRANCH  77  78
ATOM     78  C   UNL A   1      30.758  27.636  23.357  1.00  0.00     0.339 C 
ATOM     79  O   UNL A   1      30.236  27.801  22.274  1.00  0.00    -0.246 OA
BRANCH  78  80
ATOM     80  C   UNL A   1      30.711  26.351  24.071  1.00  0.00     0.078 A 
ATOM     81  C   UNL A   1      30.735  25.165  23.335  1.00  0.00     0.019 A 
ATOM     82  C   UNL A   1      30.589  26.263  25.444  1.00  0.00     0.127 A 
ATOM     83  C   UNL A   1      30.718  23.941  24.001  1.00  0.00     0.027 A 
ATOM     84  N   UNL A   1      30.531  25.085  26.109  1.00  0.00    -0.258 NA
ATOM     85  C   UNL A   1      30.664  23.937  25.391  1.00  0.00     0.062 A 
BRANCH  85  86
ATOM     86  C   UNL A   1      30.856  22.659  26.170  1.00  0.00     0.202 C 
BRANCH  86  87
ATOM     87  N   UNL A   1      32.043  21.972  25.691  1.00  0.00    -0.239 N 
ATOM     88  N   UNL A   1      31.939  20.752  25.121  1.00  0.00    -0.066 NA
ATOM     89  C   UNL A   1      33.332  22.442  25.649  1.00  0.00     0.089 A 
ATOM     90  N   UNL A   1      33.136  20.435  24.640  1.00  0.00    -0.130 NA
ATOM     91  C   UNL A   1      33.999  21.460  24.928  1.00  0.00     0.113 A 
ATOM     92  C   UNL A   1      33.951  23.614  26.098  1.00  0.00     0.030 A 
ATOM     93  C   UNL A   1      35.352  21.644  24.608  1.00  0.00     0.032 A 
ATOM     94  C   UNL A   1      35.296  23.788  25.762  1.00  0.00     0.002 A 
ATOM     95  C   UNL A   1      35.987  22.823  25.025  1.00  0.00     0.002 A 
ENDBRANCH  86  87
ENDBRANCH  85  86
ENDBRANCH  78  80
ENDBRANCH  77  78
ENDBRANCH  76  77
ENDBRANCH  75  76
ENDBRANCH  74  75
ENDBRANCH  73  74
ENDBRANCH   1  73
TORSDOF 19
ENDMDL
MODEL 2
REMARK VINA RESULT:     -11.1      4.125      8.983
REMARK SMILES O=C(OCCOCCOCCOC(=O)c1ccc(Cn2nnc3ccccc32)nc1)c1ccc(-c2c3nc(c(-c4c(F)c(F)c(F)c(F)c4F)c4ccc([nH]4)c(-c4c(F)c(F)c(F)c(F)c4F)c4nc(c(-c5c(F)c(F)c(F)c(F)c5F)c5ccc2[nH]5)C=C4)C=C3)cc1
REMARK SMILES IDX 7 1 6 2 5 3 4 4 3 5 2 6 1 7 31 8 32 9 93 10 33 11 92 12
REMARK SMILES IDX 34 13 35 14 36 15 86 16 37 17 91 18 85 19 87 20 38 21 90 22
REMARK SMILES IDX 84 23 83 24 39 26 71 27 51 28 70 29 52 30 55 31 69 32 88 33
REMARK SMILES IDX 53 34 54 35 68 37 89 38 56 39 40 40 41 41 49 42 42 43 43 44
REMARK SMILES IDX 47 45 50 46 44 47 45 48 48 49 46 50 72 51 73 52 81 53 74 54
REMARK SMILES IDX 75 55 79 56 82 57 76 58 77 59 80 60 78 61 57 62 58 63 66 64
REMARK SMILES IDX 59 65 60 66 64 67 67 68 61 69 62 70 65 71 63 72 8 73 9 74
REMARK SMILES IDX 10 75 11 76 12 77 13 78 14 79 15 80 16 81 30 82 17 83 29 84
REMARK SMILES IDX 18 85 19 86 20 87 21 88 28 89 22 90 23 91 27 92 24 93 26 94
REMARK SMILES IDX 25 95
REMARK H PARENT 87 25 55 36
REMARK Flexibility Score: inf
ROOT
ATOM      1  C   UNL A   1      45.379  19.775  24.287  1.00  0.00     0.188 C 
ENDROOT
BRANCH   1   2
ATOM      2  O   UNL A   1      46.316  20.527  25.047  1.00  0.00    -0.376 OA
BRANCH   2   3
ATOM      3  C   UNL A   1      45.772  21.711  25.612  1.00  0.00     0.202 C 
BRANCH   3   4
ATOM      4  C   UNL A   1      46.001  23.012  24.825  1.00  0.00     0.261 C 
BRANCH   4   5
ATOM      5  O   UNL A   1      44.869  23.811  24.391  1.00  0.00    -0.460 OA
BRANCH   5   6
ATOM      6  C   UNL A   1      43.627  23.938  24.915  1.00  0.00     0.338 C 
ATOM      7  O   UNL A   1      42.764  23.085  24.742  1.00  0.00    -0.246 OA
BRANCH   6   8
ATOM      8  C   UNL A   1      43.287  25.204  25.577  1.00  0.00     0.060 A 
ATOM      9  C   UNL A   1      44.002  25.528  26.728  1.00  0.00     0.016 A 
ATOM     10  C   UNL A   1      42.202  25.983  25.165  1.00  0.00     0.016 A 
ATOM     11  C   UNL A   1      43.503  26.523  27.552  1.00  0.00     0.010 A 
ATOM     12  C   UNL A   1      41.656  26.920  26.039  1.00  0.00     0.010 A 
ATOM     13  C   UNL A   1      42.281  27.160  27.260  1.00  0.00    -0.014 A 
BRANCH  13  14
ATOM     14  C   UNL A   1      41.973  28.362  28.043  1.00  0.00     0.031 A 
ATOM     15  C   UNL A   1      43.121  29.294  27.934  1.00  0.00     0.074 A 
ATOM     16  C   UNL A   1      40.843  28.701  28.703  1.00  0.00     0.049 A 
ATOM     17  N   UNL A   1      43.952  29.625  28.865  1.00  0.00    -0.248 NA
ATOM     18  C   UNL A   1      43.522  29.720  26.579  1.00  0.00     0.031 C 
ATOM     19  C   UNL A   1      39.552  28.014  28.660  1.00  0.00     0.029 A 
ATOM     20  N   UNL A   1      40.585  29.782  29.520  1.00  0.00    -0.354 N 
ATOM     21  C   UNL A   1      44.829  30.507  28.246  1.00  0.00     0.074 A 
ATOM     22  C   UNL A   1      44.669  30.348  26.826  1.00  0.00     0.031 C 
ATOM     23  C   UNL A   1      38.620  28.758  29.291  1.00  0.00     0.029 A 
ATOM     24  C   UNL A   1      39.233  29.966  29.811  1.00  0.00     0.049 A 
ATOM     25  H   UNL A   1      41.292  30.372  29.866  1.00  0.00     0.167 HD
ATOM     26  C   UNL A   1      45.291  31.581  28.931  1.00  0.00     0.037 A 
ATOM     27  C   UNL A   1      38.628  31.042  30.382  1.00  0.00     0.037 A 
ATOM     28  C   UNL A   1      45.193  31.400  30.350  1.00  0.00     0.049 A 
ATOM     29  C   UNL A   1      39.647  31.787  31.157  1.00  0.00     0.074 A 
ATOM     30  C   UNL A   1      45.932  30.808  31.347  1.00  0.00     0.029 A 
ATOM     31  N   UNL A   1      43.941  31.618  30.848  1.00  0.00    -0.354 N 
ATOM     32  N   UNL A   1      40.174  31.343  32.263  1.00  0.00    -0.248 NA
ATOM     33  C   UNL A   1      40.333  32.927  30.549  1.00  0.00     0.031 C 
ATOM     34  C   UNL A   1      45.059  30.651  32.464  1.00  0.00     0.029 A 
ATOM     35  C   UNL A   1      43.815  31.175  32.135  1.00  0.00     0.049 A 
ATOM     36  H   UNL A   1      43.213  32.044  30.340  1.00  0.00     0.167 HD
ATOM     37  C   UNL A   1      41.457  31.842  32.246  1.00  0.00     0.074 A 
ATOM     38  C   UNL A   1      41.447  32.935  31.283  1.00  0.00     0.031 C 
ATOM     39  C   UNL A   1      42.501  31.112  32.725  1.00  0.00     0.037 A 
BRANCH  26  40
ATOM     40  C   UNL A   1      45.281  32.958  28.322  1.00  0.00     0.064 A 
ATOM     41  C   UNL A   1      46.479  33.683  28.233  1.00  0.00     0.173 A 
ATOM     42  C   UNL A   1      44.095  33.698  28.100  1.00  0.00     0.173 A 
ATOM     43  F   UNL A   1      47.651  33.090  28.503  1.00  0.00    -0.203 F 
ATOM     44  C   UNL A   1      46.483  35.050  27.941  1.00  0.00     0.198 A 
ATOM     45  C   UNL A   1      44.106  35.040  27.743  1.00  0.00     0.198 A 
ATOM     46  F   UNL A   1      42.882  33.183  28.341  1.00  0.00    -0.203 F 
ATOM     47  F   UNL A   1      47.638  35.729  27.962  1.00  0.00    -0.200 F 
ATOM     48  C   UNL A   1      45.300  35.724  27.684  1.00  0.00     0.200 A 
ATOM     49  F   UNL A   1      42.945  35.679  27.539  1.00  0.00    -0.200 F 
ATOM     50  F   UNL A   1      45.303  37.039  27.435  1.00  0.00    -0.200 F 
ENDBRANCH  26  40
BRANCH  27  51
ATOM     51  C   UNL A   1      37.241  31.562  30.196  1.00  0.00     0.064 A 
ATOM     52  C   UNL A   1      36.317  31.592  31.260  1.00  0.00     0.173 A 
ATOM     53  C   UNL A   1      36.861  32.277  29.042  1.00  0.00     0.173 A 
ATOM     54  F   UNL A   1      36.593  30.971  32.416  1.00  0.00    -0.203 F 
ATOM     55  C   UNL A   1      35.123  32.320  31.186  1.00  0.00     0.198 A 
ATOM     56  C   UNL A   1      35.662  32.987  28.962  1.00  0.00     0.198 A 
ATOM     57  F   UNL A   1      37.682  32.382  27.989  1.00  0.00    -0.203 F 
ATOM     58  F   UNL A   1      34.308  32.382  32.250  1.00  0.00    -0.200 F 
ATOM     59  C   UNL A   1      34.802  33.028  30.041  1.00  0.00     0.200 A 
ATOM     60  F   UNL A   1      35.378  33.683  27.852  1.00  0.00    -0.200 F 
ATOM     61  F   UNL A   1      33.693  33.779  29.991  1.00  0.00    -0.200 F 
ENDBRANCH  27  51
BRANCH  39  62
ATOM     62  C   UNL A   1      42.235  30.106  33.794  1.00  0.00     0.064 A 
ATOM     63  C   UNL A   1      41.796  28.792  33.568  1.00  0.00     0.173 A 
ATOM     64  C   UNL A   1      42.512  30.485  35.116  1.00  0.00     0.173 A 
ATOM     65  F   UNL A   1      41.559  28.352  32.323  1.00  0.00    -0.203 F 
ATOM     66  C   UNL A   1      41.627  27.906  34.633  1.00  0.00     0.198 A 
ATOM     67  C   UNL A   1      42.385  29.587  36.167  1.00  0.00     0.198 A 
ATOM     68  F   UNL A   1      42.944  31.729  35.380  1.00  0.00    -0.203 F 
ATOM     69  F   UNL A   1      41.167  26.665  34.414  1.00  0.00    -0.200 F 
ATOM     70  C   UNL A   1      41.938  28.299  35.927  1.00  0.00     0.200 A 
ATOM     71  F   UNL A   1      42.710  29.969  37.409  1.00  0.00    -0.200 F 
ATOM     72  F   UNL A   1      41.815  27.436  36.945  1.00  0.00    -0.200 F 
ENDBRANCH  39  62
ENDBRANCH  13  14
ENDBRANCH   6   8
ENDBRANCH   5   6
ENDBRANCH   4   5
ENDBRANCH   3   4
ENDBRANCH   2   3
ENDBRANCH   1   2
BRANCH   1  73
ATOM     73  C   UNL A   1      44.301  19.133  25.162  1.00  0.00     0.188 C 
BRANCH  73  74
ATOM     74  O   UNL A   1      42.958  19.570  24.978  1.00  0.00    -0.376 OA
BRANCH  74  75
ATOM     75  C   UNL A   1      42.034  19.362  26.035  1.00  0.00     0.202 C 
BRANCH  75  76
ATOM     76  C   UNL A   1      41.372  20.559  26.735  1.00  0.00     0.261 C 
BRANCH  76  77
ATOM     77  O   UNL A   1      40.044  20.902  26.339  1.00  0.00    -0.460 OA
BRANCH  77  78
ATOM     78  C   UNL A   1      39.747  22.221  26.398  1.00  0.00     0.339 C 
ATOM     79  O   UNL A   1      40.412  23.106  26.893  1.00  0.00    -0.246 OA
BRANCH  78  80
ATOM     80  C   UNL A   1      38.369  22.433  25.928  1.00  0.00     0.078 A 
ATOM     81  C   UNL A   1      37.792  21.493  25.071  1.00  0.00     0.019 A 
ATOM     82  C   UNL A   1      37.633  23.555  26.254  1.00  0.00     0.127 A 
ATOM     83  C   UNL A   1      36.479  21.670  24.640  1.00  0.00     0.027 A 
ATOM     84  N   UNL A   1      36.370  23.767  25.815  1.00  0.00    -0.258 NA
ATOM     85  C   UNL A   1      35.780  22.793  25.070  1.00  0.00     0.062 A 
BRANCH  85  86
ATOM     86  C   UNL A   1      34.299  22.929  24.812  1.00  0.00     0.202 C 
BRANCH  86  87
ATOM     87  N   UNL A   1      34.081  23.841  23.703  1.00  0.00    -0.239 N 
ATOM     88  N   UNL A   1      33.926  23.363  22.449  1.00  0.00    -0.066 NA
ATOM     89  C   UNL A   1      33.912  25.203  23.749  1.00  0.00     0.089 A 
ATOM     90  N   UNL A   1      33.589  24.386  21.672  1.00  0.00    -0.130 NA
ATOM     91  C   UNL A   1      33.551  25.517  22.446  1.00  0.00     0.113 A 
ATOM     92  C   UNL A   1      33.976  26.152  24.775  1.00  0.00     0.030 A 
ATOM     93  C   UNL A   1      33.210  26.840  22.128  1.00  0.00     0.032 A 
ATOM     94  C   UNL A   1      33.623  27.463  24.446  1.00  0.00     0.002 A 
ATOM     95  C   UNL A   1      33.242  27.805  23.146  1.00  0.00     0.002 A 
ENDBRANCH  86  87
ENDBRANCH  85  86
ENDBRANCH  78  80
ENDBRANCH  77  78
ENDBRANCH  76  77
ENDBRANCH  75  76
ENDBRANCH  74  75
ENDBRANCH  73  74
ENDBRANCH   1  73
TORSDOF 19
ENDMDL
MODEL 3
REMARK VINA RESULT:     -11.0      0.975      2.208
REMARK SMILES O=C(OCCOCCOCCOC(=O)c1ccc(Cn2nnc3ccccc32)nc1)c1ccc(-c2c3nc(c(-c4c(F)c(F)c(F)c(F)c4F)c4ccc([nH]4)c(-c4c(F)c(F)c(F)c(F)c4F)c4nc(c(-c5c(F)c(F)c(F)c(F)c5F)c5ccc2[nH]5)C=C4)C=C3)cc1
REMARK SMILES IDX 7 1 6 2 5 3 4 4 3 5 2 6 1 7 31 8 32 9 93 10 33 11 92 12
REMARK SMILES IDX 34 13 35 14 36 15 86 16 37 17 91 18 85 19 87 20 38 21 90 22
REMARK SMILES IDX 84 23 83 24 39 26 71 27 51 28 70 29 52 30 55 31 69 32 88 33
REMARK SMILES IDX 53 34 54 35 68 37 89 38 56 39 40 40 41 41 49 42 42 43 43 44
REMARK SMILES IDX 47 45 50 46 44 47 45 48 48 49 46 50 72 51 73 52 81 53 74 54
REMARK SMILES IDX 75 55 79 56 82 57 76 58 77 59 80 60 78 61 57 62 58 63 66 64
REMARK SMILES IDX 59 65 60 66 64 67 67 68 61 69 62 70 65 71 63 72 8 73 9 74
REMARK SMILES IDX 10 75 11 76 12 77 13 78 14 79 15 80 16 81 30 82 17 83 29 84
REMARK SMILES IDX 18 85 19 86 20 87 21 88 28 89 22 90 23 91 27 92 24 93 26 94
REMARK SMILES IDX 25 95
REMARK H PARENT 87 25 55 36
REMARK Flexibility Score: inf
ROOT
ATOM      1  C   UNL A   1      32.594  30.148  26.879  1.00  0.00     0.188 C 
ENDROOT
BRANCH   1   2
ATOM      2  O   UNL A   1      31.435  30.731  26.298  1.00  0.00    -0.376 OA
BRANCH   2   3
ATOM      3  C   UNL A   1      31.363  32.139  26.460  1.00  0.00     0.202 C 
BRANCH   3   4
ATOM      4  C   UNL A   1      32.383  32.770  27.424  1.00  0.00     0.261 C 
BRANCH   4   5
ATOM      5  O   UNL A   1      32.208  34.137  27.879  1.00  0.00    -0.460 OA
BRANCH   5   6
ATOM      6  C   UNL A   1      32.906  34.862  28.785  1.00  0.00     0.338 C 
ATOM      7  O   UNL A   1      32.484  35.927  29.221  1.00  0.00    -0.246 OA
BRANCH   6   8
ATOM      8  C   UNL A   1      34.263  34.414  29.123  1.00  0.00     0.060 A 
ATOM      9  C   UNL A   1      35.225  34.498  28.119  1.00  0.00     0.016 A 
ATOM     10  C   UNL A   1      34.552  33.794  30.343  1.00  0.00     0.016 A 
ATOM     11  C   UNL A   1      36.407  33.795  28.283  1.00  0.00     0.010 A 
ATOM     12  C   UNL A   1      35.703  33.020  30.465  1.00  0.00     0.010 A 
ATOM     13  C   UNL A   1      36.615  32.980  29.413  1.00  0.00    -0.014 A 
BRANCH  13  14
ATOM     14  C   UNL A   1      37.983  32.490  29.617  1.00  0.00     0.031 A 
ATOM     15  C   UNL A   1      38.005  31.038  29.319  1.00  0.00     0.074 A 
ATOM     16  C   UNL A   1      39.109  33.169  29.927  1.00  0.00     0.049 A 
ATOM     17  N   UNL A   1      38.169  30.069  30.156  1.00  0.00    -0.248 NA
ATOM     18  C   UNL A   1      37.562  30.615  27.976  1.00  0.00     0.031 C 
ATOM     19  C   UNL A   1      39.286  34.621  29.972  1.00  0.00     0.029 A 
ATOM     20  N   UNL A   1      40.374  32.701  30.216  1.00  0.00    -0.354 N 
ATOM     21  C   UNL A   1      38.098  28.923  29.374  1.00  0.00     0.074 A 
ATOM     22  C   UNL A   1      37.501  29.293  28.120  1.00  0.00     0.031 C 
ATOM     23  C   UNL A   1      40.593  34.916  30.126  1.00  0.00     0.029 A 
ATOM     24  C   UNL A   1      41.361  33.687  30.219  1.00  0.00     0.049 A 
ATOM     25  H   UNL A   1      40.565  31.754  30.403  1.00  0.00     0.167 HD
ATOM     26  C   UNL A   1      38.914  27.876  29.648  1.00  0.00     0.037 A 
ATOM     27  C   UNL A   1      42.712  33.535  30.237  1.00  0.00     0.037 A 
ATOM     28  C   UNL A   1      39.399  27.907  30.997  1.00  0.00     0.049 A 
ATOM     29  C   UNL A   1      43.018  32.199  30.799  1.00  0.00     0.074 A 
ATOM     30  C   UNL A   1      38.957  27.516  32.239  1.00  0.00     0.029 A 
ATOM     31  N   UNL A   1      40.438  28.770  31.190  1.00  0.00    -0.354 N 
ATOM     32  N   UNL A   1      42.845  31.890  32.053  1.00  0.00    -0.248 NA
ATOM     33  C   UNL A   1      43.246  31.068  29.900  1.00  0.00     0.031 C 
ATOM     34  C   UNL A   1      39.761  28.206  33.195  1.00  0.00     0.029 A 
ATOM     35  C   UNL A   1      40.692  28.983  32.516  1.00  0.00     0.049 A 
ATOM     36  H   UNL A   1      40.947  29.192  30.459  1.00  0.00     0.167 HD
ATOM     37  C   UNL A   1      42.510  30.555  32.025  1.00  0.00     0.074 A 
ATOM     38  C   UNL A   1      42.939  30.063  30.723  1.00  0.00     0.031 C 
ATOM     39  C   UNL A   1      41.595  30.043  32.891  1.00  0.00     0.037 A 
BRANCH  26  40
ATOM     40  C   UNL A   1      39.695  27.190  28.559  1.00  0.00     0.064 A 
ATOM     41  C   UNL A   1      40.495  27.953  27.695  1.00  0.00     0.173 A 
ATOM     42  C   UNL A   1      39.451  25.855  28.155  1.00  0.00     0.173 A 
ATOM     43  F   UNL A   1      40.720  29.250  27.950  1.00  0.00    -0.203 F 
ATOM     44  C   UNL A   1      41.011  27.414  26.513  1.00  0.00     0.198 A 
ATOM     45  C   UNL A   1      40.021  25.303  27.015  1.00  0.00     0.198 A 
ATOM     46  F   UNL A   1      38.556  25.078  28.778  1.00  0.00    -0.203 F 
ATOM     47  F   UNL A   1      41.686  28.201  25.665  1.00  0.00    -0.200 F 
ATOM     48  C   UNL A   1      40.785  26.088  26.181  1.00  0.00     0.200 A 
ATOM     49  F   UNL A   1      39.754  24.028  26.696  1.00  0.00    -0.200 F 
ATOM     50  F   UNL A   1      41.254  25.581  25.034  1.00  0.00    -0.200 F 
ENDBRANCH  26  40
BRANCH  27  51
ATOM     51  C   UNL A   1      43.775  34.416  29.670  1.00  0.00     0.064 A 
ATOM     52  C   UNL A   1      44.619  35.180  30.501  1.00  0.00     0.173 A 
ATOM     53  C   UNL A   1      44.161  34.343  28.317  1.00  0.00     0.173 A 
ATOM     54  F   UNL A   1      44.362  35.290  31.813  1.00  0.00    -0.203 F 
ATOM     55  C   UNL A   1      45.786  35.786  30.019  1.00  0.00     0.198 A 
ATOM     56  C   UNL A   1      45.314  34.964  27.832  1.00  0.00     0.198 A 
ATOM     57  F   UNL A   1      43.481  33.593  27.440  1.00  0.00    -0.203 F 
ATOM     58  F   UNL A   1      46.600  36.440  30.861  1.00  0.00    -0.200 F 
ATOM     59  C   UNL A   1      46.139  35.668  28.686  1.00  0.00     0.200 A 
ATOM     60  F   UNL A   1      45.650  34.820  26.542  1.00  0.00    -0.200 F 
ATOM     61  F   UNL A   1      47.288  36.190  28.235  1.00  0.00    -0.200 F 
ENDBRANCH  27  51
BRANCH  39  62
ATOM     62  C   UNL A   1      41.421  30.704  34.218  1.00  0.00     0.064 A 
ATOM     63  C   UNL A   1      42.230  30.476  35.341  1.00  0.00     0.173 A 
ATOM     64  C   UNL A   1      40.415  31.676  34.323  1.00  0.00     0.173 A 
ATOM     65  F   UNL A   1      43.240  29.595  35.291  1.00  0.00    -0.203 F 
ATOM     66  C   UNL A   1      42.021  31.186  36.525  1.00  0.00     0.198 A 
ATOM     67  C   UNL A   1      40.239  32.411  35.488  1.00  0.00     0.198 A 
ATOM     68  F   UNL A   1      39.620  31.937  33.272  1.00  0.00    -0.203 F 
ATOM     69  F   UNL A   1      42.772  30.933  37.607  1.00  0.00    -0.200 F 
ATOM     70  C   UNL A   1      41.038  32.163  36.590  1.00  0.00     0.200 A 
ATOM     71  F   UNL A   1      39.302  33.368  35.533  1.00  0.00    -0.200 F 
ATOM     72  F   UNL A   1      40.863  32.873  37.713  1.00  0.00    -0.200 F 
ENDBRANCH  39  62
ENDBRANCH  13  14
ENDBRANCH   6   8
ENDBRANCH   5   6
ENDBRANCH   4   5
ENDBRANCH   3   4
ENDBRANCH   2   3
ENDBRANCH   1   2
BRANCH   1  73
ATOM     73  C   UNL A   1      32.865  28.739  26.349  1.00  0.00     0.188 C 
BRANCH  73  74
ATOM     74  O   UNL A   1      34.065  28.533  25.611  1.00  0.00    -0.376 OA
BRANCH  74  75
ATOM     75  C   UNL A   1      33.965  28.338  24.208  1.00  0.00     0.202 C 
BRANCH  75  76
ATOM     76  C   UNL A   1      32.803  28.960  23.418  1.00  0.00     0.261 C 
BRANCH  76  77
ATOM     77  O   UNL A   1      31.487  28.483  23.697  1.00  0.00    -0.460 OA
BRANCH  77  78
ATOM     78  C   UNL A   1      30.903  27.784  22.696  1.00  0.00     0.339 C 
ATOM     79  O   UNL A   1      30.049  28.172  21.927  1.00  0.00    -0.246 OA
BRANCH  78  80
ATOM     80  C   UNL A   1      31.317  26.375  22.776  1.00  0.00     0.078 A 
ATOM     81  C   UNL A   1      30.763  25.560  23.765  1.00  0.00     0.019 A 
ATOM     82  C   UNL A   1      32.277  25.830  21.945  1.00  0.00     0.127 A 
ATOM     83  C   UNL A   1      31.128  24.217  23.834  1.00  0.00     0.027 A 
ATOM     84  N   UNL A   1      32.675  24.539  22.020  1.00  0.00    -0.258 NA
ATOM     85  C   UNL A   1      32.050  23.727  22.915  1.00  0.00     0.062 A 
BRANCH  85  86
ATOM     86  C   UNL A   1      32.322  22.246  22.806  1.00  0.00     0.202 C 
BRANCH  86  87
ATOM     87  N   UNL A   1      33.217  21.836  23.873  1.00  0.00    -0.239 N 
ATOM     88  N   UNL A   1      32.781  21.004  24.844  1.00  0.00    -0.066 NA
ATOM     89  C   UNL A   1      34.554  22.115  24.009  1.00  0.00     0.089 A 
ATOM     90  N   UNL A   1      33.833  20.675  25.586  1.00  0.00    -0.130 NA
ATOM     91  C   UNL A   1      34.931  21.321  25.084  1.00  0.00     0.113 A 
ATOM     92  C   UNL A   1      35.455  22.907  23.290  1.00  0.00     0.030 A 
ATOM     93  C   UNL A   1      36.280  21.282  25.468  1.00  0.00     0.032 A 
ATOM     94  C   UNL A   1      36.797  22.849  23.677  1.00  0.00     0.002 A 
ATOM     95  C   UNL A   1      37.207  22.048  24.745  1.00  0.00     0.002 A 
ENDBRANCH  86  87
ENDBRANCH  85  86
ENDBRANCH  78  80
ENDBRANCH  77  78
ENDBRANCH  76  77
ENDBRANCH  75  76
ENDBRANCH  74  75
ENDBRANCH  73  74
ENDBRANCH   1  73
TORSDOF 19
ENDMDL
