MODEL 1
REMARK VINA RESULT:     -10.4      0.000      0.000
REMARK SMILES Cc1ccc(O)c(C[C@H](NC=O)C(=O)OCCOCCOCCOC(=O)c2ccc(-c3c4nc(c(-c5c(F)c(F)c(F)c(F)c5F)c5ccc([nH]5)c(-c5c(F)c(F)c(F)c(F)c5F)c5nc(c(-c6c(F)c(F)c(F)c(F)c6F)c6ccc3[nH]6)C=C5)C=C4)cc2)n1
REMARK SMILES IDX 19 1 18 2 17 3 16 4 15 5 13 6 14 7 9 8 8 9 7 10 1 11 2 12
REMARK SMILES IDX 3 13 90 14 4 15 5 16 6 17 10 19 11 20 12 22 20 23 21 24
REMARK SMILES IDX 22 25 23 26 24 27 25 28 26 29 27 30 28 31 89 32 29 33 88 34
REMARK SMILES IDX 30 35 31 36 32 37 82 38 33 39 87 40 81 41 83 42 34 43 86 44
REMARK SMILES IDX 80 45 79 46 35 48 67 49 47 50 66 51 48 52 51 53 65 54 84 55
REMARK SMILES IDX 49 56 50 57 64 59 85 60 52 61 36 62 37 63 45 64 38 65 39 66
REMARK SMILES IDX 43 67 46 68 40 69 41 70 44 71 42 72 68 73 69 74 77 75 70 76
REMARK SMILES IDX 71 77 75 78 78 79 72 80 73 81 76 82 74 83 53 84 54 85 62 86
REMARK SMILES IDX 55 87 56 88 60 89 63 90 57 91 58 92 61 93 59 94
REMARK H PARENT 6 18 10 21 83 47 51 58
REMARK Flexibility Score: inf
ROOT
ATOM      1  C   UNL A   1      39.878  22.216  26.449  1.00  0.00     0.188 C 
ENDROOT
BRANCH   1   2
ATOM      2  O   UNL A   1      38.561  22.710  26.244  1.00  0.00    -0.376 OA
BRANCH   2   3
ATOM      3  C   UNL A   1      37.728  22.062  25.287  1.00  0.00     0.202 C 
BRANCH   3   4
ATOM      4  C   UNL A   1      36.401  21.460  25.763  1.00  0.00     0.261 C 
BRANCH   4   5
ATOM      5  O   UNL A   1      35.344  22.407  26.024  1.00  0.00    -0.462 OA
BRANCH   5   6
ATOM      6  C   UNL A   1      34.274  22.352  25.178  1.00  0.00     0.329 C 
ATOM      7  O   UNL A   1      34.220  22.925  24.093  1.00  0.00    -0.250 OA
BRANCH   6   8
ATOM      8  C   UNL A   1      33.073  21.552  25.748  1.00  0.00     0.198 C 
BRANCH   8   9
ATOM      9  C   UNL A   1      32.115  21.032  24.662  1.00  0.00     0.097 C 
BRANCH   9  10
ATOM     10  C   UNL A   1      32.582  19.739  24.064  1.00  0.00     0.085 A 
ATOM     11  C   UNL A   1      33.612  16.576  25.624  1.00  0.00     0.067 C 
ATOM     12  C   UNL A   1      33.238  17.566  24.563  1.00  0.00     0.038 A 
ATOM     13  C   UNL A   1      32.968  17.155  23.264  1.00  0.00     0.027 A 
ATOM     14  N   UNL A   1      33.067  18.844  24.965  1.00  0.00    -0.254 NA
ATOM     15  C   UNL A   1      32.513  18.092  22.337  1.00  0.00     0.050 A 
ATOM     16  C   UNL A   1      32.302  19.401  22.745  1.00  0.00     0.137 A 
BRANCH  16  17
ATOM     17  O   UNL A   1      31.758  20.325  21.903  1.00  0.00    -0.506 OA
ATOM     18  H   UNL A   1      30.881  20.625  22.041  1.00  0.00     0.293 HD
ENDBRANCH  16  17
ENDBRANCH   9  10
ENDBRANCH   8   9
BRANCH   8  19
ATOM     19  N   UNL A   1      32.305  22.268  26.770  1.00  0.00    -0.345 N 
ATOM     20  C   UNL A   1      31.108  22.876  26.533  1.00  0.00     0.337 C 
ATOM     21  H   UNL A   1      32.676  22.312  27.681  1.00  0.00     0.164 HD
ATOM     22  O   UNL A   1      30.425  23.379  27.411  1.00  0.00    -0.279 OA
ENDBRANCH   8  19
ENDBRANCH   6   8
ENDBRANCH   5   6
ENDBRANCH   4   5
ENDBRANCH   3   4
ENDBRANCH   2   3
ENDBRANCH   1   2
BRANCH   1  23
ATOM     23  C   UNL A   1      40.162  20.729  26.168  1.00  0.00     0.188 C 
BRANCH  23  24
ATOM     24  O   UNL A   1      41.518  20.436  25.926  1.00  0.00    -0.376 OA
BRANCH  24  25
ATOM     25  C   UNL A   1      42.030  19.222  26.454  1.00  0.00     0.202 C 
BRANCH  25  26
ATOM     26  C   UNL A   1      43.167  18.478  25.725  1.00  0.00     0.261 C 
BRANCH  26  27
ATOM     27  O   UNL A   1      43.589  19.009  24.459  1.00  0.00    -0.460 OA
BRANCH  27  28
ATOM     28  C   UNL A   1      44.862  19.453  24.338  1.00  0.00     0.338 C 
ATOM     29  O   UNL A   1      45.801  18.873  23.827  1.00  0.00    -0.246 OA
BRANCH  28  30
ATOM     30  C   UNL A   1      44.855  20.879  24.745  1.00  0.00     0.060 A 
ATOM     31  C   UNL A   1      44.424  21.856  23.833  1.00  0.00     0.016 A 
ATOM     32  C   UNL A   1      45.192  21.239  26.052  1.00  0.00     0.016 A 
ATOM     33  C   UNL A   1      44.322  23.193  24.231  1.00  0.00     0.010 A 
ATOM     34  C   UNL A   1      45.124  22.581  26.437  1.00  0.00     0.010 A 
ATOM     35  C   UNL A   1      44.700  23.566  25.528  1.00  0.00    -0.014 A 
BRANCH  35  36
ATOM     36  C   UNL A   1      44.840  24.995  25.900  1.00  0.00     0.031 A 
ATOM     37  C   UNL A   1      46.198  25.625  25.786  1.00  0.00     0.074 A 
ATOM     38  C   UNL A   1      43.803  25.712  26.367  1.00  0.00     0.049 A 
ATOM     39  N   UNL A   1      46.611  26.800  26.187  1.00  0.00    -0.248 NA
ATOM     40  C   UNL A   1      47.234  24.809  25.133  1.00  0.00     0.031 C 
ATOM     41  C   UNL A   1      42.424  25.242  26.468  1.00  0.00     0.029 A 
ATOM     42  N   UNL A   1      43.762  26.992  26.868  1.00  0.00    -0.354 N 
ATOM     43  C   UNL A   1      47.954  26.862  25.840  1.00  0.00     0.074 A 
ATOM     44  C   UNL A   1      48.293  25.599  25.219  1.00  0.00     0.031 C 
ATOM     45  C   UNL A   1      41.674  26.214  27.017  1.00  0.00     0.029 A 
ATOM     46  C   UNL A   1      42.529  27.355  27.349  1.00  0.00     0.049 A 
ATOM     47  H   UNL A   1      44.544  27.591  26.880  1.00  0.00     0.167 HD
ATOM     48  C   UNL A   1      48.826  27.881  26.023  1.00  0.00     0.037 A 
ATOM     49  C   UNL A   1      42.148  28.464  28.013  1.00  0.00     0.037 A 
ATOM     50  C   UNL A   1      48.496  29.126  26.661  1.00  0.00     0.049 A 
ATOM     51  C   UNL A   1      43.169  29.532  28.325  1.00  0.00     0.074 A 
ATOM     52  C   UNL A   1      49.307  30.222  26.892  1.00  0.00     0.029 A 
ATOM     53  N   UNL A   1      47.249  29.433  27.188  1.00  0.00    -0.354 N 
ATOM     54  N   UNL A   1      44.434  29.594  27.987  1.00  0.00    -0.248 NA
ATOM     55  C   UNL A   1      42.709  30.677  29.126  1.00  0.00     0.031 C 
ATOM     56  C   UNL A   1      48.569  31.169  27.608  1.00  0.00     0.029 A 
ATOM     57  C   UNL A   1      47.280  30.687  27.775  1.00  0.00     0.049 A 
ATOM     58  H   UNL A   1      46.460  28.845  27.151  1.00  0.00     0.167 HD
ATOM     59  C   UNL A   1      44.913  30.792  28.506  1.00  0.00     0.074 A 
ATOM     60  C   UNL A   1      43.800  31.430  29.176  1.00  0.00     0.031 C 
ATOM     61  C   UNL A   1      46.162  31.315  28.433  1.00  0.00     0.037 A 
BRANCH  48  62
ATOM     62  C   UNL A   1      50.236  27.665  25.556  1.00  0.00     0.064 A 
ATOM     63  C   UNL A   1      50.596  27.806  24.208  1.00  0.00     0.173 A 
ATOM     64  C   UNL A   1      51.240  27.314  26.470  1.00  0.00     0.173 A 
ATOM     65  F   UNL A   1      49.669  28.125  23.291  1.00  0.00    -0.203 F 
ATOM     66  C   UNL A   1      51.901  27.569  23.786  1.00  0.00     0.198 A 
ATOM     67  C   UNL A   1      52.551  27.107  26.051  1.00  0.00     0.198 A 
ATOM     68  F   UNL A   1      50.950  27.167  27.772  1.00  0.00    -0.203 F 
ATOM     69  F   UNL A   1      52.209  27.653  22.484  1.00  0.00    -0.200 F 
ATOM     70  C   UNL A   1      52.878  27.225  24.708  1.00  0.00     0.200 A 
ATOM     71  F   UNL A   1      53.496  26.786  26.944  1.00  0.00    -0.200 F 
ATOM     72  F   UNL A   1      54.135  26.998  24.302  1.00  0.00    -0.200 F 
ENDBRANCH  48  62
BRANCH  49  73
ATOM     73  C   UNL A   1      40.738  28.623  28.458  1.00  0.00     0.064 A 
ATOM     74  C   UNL A   1      40.352  28.276  29.761  1.00  0.00     0.173 A 
ATOM     75  C   UNL A   1      39.744  29.096  27.589  1.00  0.00     0.173 A 
ATOM     76  F   UNL A   1      41.259  27.787  30.619  1.00  0.00    -0.203 F 
ATOM     77  C   UNL A   1      39.025  28.387  30.173  1.00  0.00     0.198 A 
ATOM     78  C   UNL A   1      38.423  29.232  28.011  1.00  0.00     0.198 A 
ATOM     79  F   UNL A   1      40.057  29.429  26.328  1.00  0.00    -0.203 F 
ATOM     80  F   UNL A   1      38.676  28.008  31.410  1.00  0.00    -0.200 F 
ATOM     81  C   UNL A   1      38.063  28.873  29.300  1.00  0.00     0.200 A 
ATOM     82  F   UNL A   1      37.496  29.707  27.166  1.00  0.00    -0.200 F 
ATOM     83  F   UNL A   1      36.789  28.981  29.699  1.00  0.00    -0.200 F 
ENDBRANCH  49  73
BRANCH  61  84
ATOM     84  C   UNL A   1      46.394  32.659  29.062  1.00  0.00     0.064 A 
ATOM     85  C   UNL A   1      46.877  32.785  30.372  1.00  0.00     0.173 A 
ATOM     86  C   UNL A   1      46.194  33.834  28.319  1.00  0.00     0.173 A 
ATOM     87  F   UNL A   1      47.070  31.695  31.128  1.00  0.00    -0.203 F 
ATOM     88  C   UNL A   1      47.139  34.039  30.921  1.00  0.00     0.198 A 
ATOM     89  C   UNL A   1      46.484  35.083  28.861  1.00  0.00     0.198 A 
ATOM     90  F   UNL A   1      45.739  33.768  27.060  1.00  0.00    -0.203 F 
ATOM     91  F   UNL A   1      47.567  34.138  32.187  1.00  0.00    -0.200 F 
ATOM     92  C   UNL A   1      46.952  35.185  30.162  1.00  0.00     0.200 A 
ATOM     93  F   UNL A   1      46.317  36.188  28.120  1.00  0.00    -0.200 F 
ATOM     94  F   UNL A   1      47.220  36.389  30.686  1.00  0.00    -0.200 F 
ENDBRANCH  61  84
ENDBRANCH  35  36
ENDBRANCH  28  30
ENDBRANCH  27  28
ENDBRANCH  26  27
ENDBRANCH  25  26
ENDBRANCH  24  25
ENDBRANCH  23  24
ENDBRANCH   1  23
TORSDOF 21
ENDMDL
MODEL 2
REMARK VINA RESULT:     -10.3      2.932      8.600
REMARK SMILES Cc1ccc(O)c(C[C@H](NC=O)C(=O)OCCOCCOCCOC(=O)c2ccc(-c3c4nc(c(-c5c(F)c(F)c(F)c(F)c5F)c5ccc([nH]5)c(-c5c(F)c(F)c(F)c(F)c5F)c5nc(c(-c6c(F)c(F)c(F)c(F)c6F)c6ccc3[nH]6)C=C5)C=C4)cc2)n1
REMARK SMILES IDX 19 1 18 2 17 3 16 4 15 5 13 6 14 7 9 8 8 9 7 10 1 11 2 12
REMARK SMILES IDX 3 13 90 14 4 15 5 16 6 17 10 19 11 20 12 22 20 23 21 24
REMARK SMILES IDX 22 25 23 26 24 27 25 28 26 29 27 30 28 31 89 32 29 33 88 34
REMARK SMILES IDX 30 35 31 36 32 37 82 38 33 39 87 40 81 41 83 42 34 43 86 44
REMARK SMILES IDX 80 45 79 46 35 48 67 49 47 50 66 51 48 52 51 53 65 54 84 55
REMARK SMILES IDX 49 56 50 57 64 59 85 60 52 61 36 62 37 63 45 64 38 65 39 66
REMARK SMILES IDX 43 67 46 68 40 69 41 70 44 71 42 72 68 73 69 74 77 75 70 76
REMARK SMILES IDX 71 77 75 78 78 79 72 80 73 81 76 82 74 83 53 84 54 85 62 86
REMARK SMILES IDX 55 87 56 88 60 89 63 90 57 91 58 92 61 93 59 94
REMARK H PARENT 6 18 10 21 83 47 51 58
REMARK Flexibility Score: inf
ROOT
ATOM      1  C   UNL A   1      36.973  23.165  24.260  1.00  0.00     0.188 C 
ENDROOT
BRANCH   1   2
ATOM      2  O   UNL A   1      35.810  22.773  23.541  1.00  0.00    -0.376 OA
BRANCH   2   3
ATOM      3  C   UNL A   1      34.537  23.204  24.014  1.00  0.00     0.202 C 
BRANCH   3   4
ATOM      4  C   UNL A   1      33.651  24.033  23.076  1.00  0.00     0.261 C 
BRANCH   4   5
ATOM      5  O   UNL A   1      33.530  25.432  23.408  1.00  0.00    -0.462 OA
BRANCH   5   6
ATOM      6  C   UNL A   1      33.162  26.256  22.384  1.00  0.00     0.329 C 
ATOM      7  O   UNL A   1      33.413  26.045  21.200  1.00  0.00    -0.250 OA
BRANCH   6   8
ATOM      8  C   UNL A   1      32.450  27.551  22.856  1.00  0.00     0.198 C 
BRANCH   8   9
ATOM      9  C   UNL A   1      31.834  27.433  24.261  1.00  0.00     0.097 C 
BRANCH   9  10
ATOM     10  C   UNL A   1      32.475  28.369  25.243  1.00  0.00     0.085 A 
ATOM     11  C   UNL A   1      31.422  31.654  26.505  1.00  0.00     0.067 C 
ATOM     12  C   UNL A   1      32.209  30.387  26.362  1.00  0.00     0.038 A 
ATOM     13  C   UNL A   1      33.131  30.007  27.329  1.00  0.00     0.027 A 
ATOM     14  N   UNL A   1      31.889  29.592  25.319  1.00  0.00    -0.254 NA
ATOM     15  C   UNL A   1      33.759  28.766  27.216  1.00  0.00     0.050 A 
ATOM     16  C   UNL A   1      33.416  27.927  26.166  1.00  0.00     0.137 A 
BRANCH  16  17
ATOM     17  O   UNL A   1      33.922  26.665  26.076  1.00  0.00    -0.506 OA
ATOM     18  H   UNL A   1      33.956  26.232  25.246  1.00  0.00     0.293 HD
ENDBRANCH  16  17
ENDBRANCH   9  10
ENDBRANCH   8   9
BRANCH   8  19
ATOM     19  N   UNL A   1      31.437  28.054  21.924  1.00  0.00    -0.345 N 
ATOM     20  C   UNL A   1      30.389  28.843  22.296  1.00  0.00     0.337 C 
ATOM     21  H   UNL A   1      31.519  27.808  20.975  1.00  0.00     0.164 HD
ATOM     22  O   UNL A   1      29.611  29.344  21.500  1.00  0.00    -0.279 OA
ENDBRANCH   8  19
ENDBRANCH   6   8
ENDBRANCH   5   6
ENDBRANCH   4   5
ENDBRANCH   3   4
ENDBRANCH   2   3
ENDBRANCH   1   2
BRANCH   1  23
ATOM     23  C   UNL A   1      37.271  22.486  25.609  1.00  0.00     0.188 C 
BRANCH  23  24
ATOM     24  O   UNL A   1      37.777  21.176  25.496  1.00  0.00    -0.376 OA
BRANCH  24  25
ATOM     25  C   UNL A   1      39.185  21.010  25.546  1.00  0.00     0.202 C 
BRANCH  25  26
ATOM     26  C   UNL A   1      39.793  19.642  25.916  1.00  0.00     0.261 C 
BRANCH  26  27
ATOM     27  O   UNL A   1      41.067  19.316  25.340  1.00  0.00    -0.460 OA
BRANCH  27  28
ATOM     28  C   UNL A   1      42.137  19.206  26.161  1.00  0.00     0.338 C 
ATOM     29  O   UNL A   1      42.790  18.206  26.394  1.00  0.00    -0.246 OA
BRANCH  28  30
ATOM     30  C   UNL A   1      42.512  20.585  26.558  1.00  0.00     0.060 A 
ATOM     31  C   UNL A   1      42.948  21.492  25.578  1.00  0.00     0.016 A 
ATOM     32  C   UNL A   1      42.352  21.005  27.881  1.00  0.00     0.016 A 
ATOM     33  C   UNL A   1      43.215  22.822  25.920  1.00  0.00     0.010 A 
ATOM     34  C   UNL A   1      42.654  22.324  28.227  1.00  0.00     0.010 A 
ATOM     35  C   UNL A   1      43.097  23.237  27.253  1.00  0.00    -0.014 A 
BRANCH  35  36
ATOM     36  C   UNL A   1      43.607  24.560  27.688  1.00  0.00     0.031 A 
ATOM     37  C   UNL A   1      42.606  25.618  28.056  1.00  0.00     0.074 A 
ATOM     38  C   UNL A   1      44.922  24.838  27.718  1.00  0.00     0.049 A 
ATOM     39  N   UNL A   1      42.789  26.886  28.319  1.00  0.00    -0.248 NA
ATOM     40  C   UNL A   1      41.204  25.179  28.131  1.00  0.00     0.031 C 
ATOM     41  C   UNL A   1      45.996  23.888  27.447  1.00  0.00     0.029 A 
ATOM     42  N   UNL A   1      45.573  26.022  27.974  1.00  0.00    -0.354 N 
ATOM     43  C   UNL A   1      41.526  27.398  28.585  1.00  0.00     0.074 A 
ATOM     44  C   UNL A   1      40.583  26.310  28.427  1.00  0.00     0.031 C 
ATOM     45  C   UNL A   1      47.175  24.531  27.531  1.00  0.00     0.029 A 
ATOM     46  C   UNL A   1      46.934  25.947  27.814  1.00  0.00     0.049 A 
ATOM     47  H   UNL A   1      45.106  26.846  28.245  1.00  0.00     0.167 HD
ATOM     48  C   UNL A   1      41.182  28.661  28.929  1.00  0.00     0.037 A 
ATOM     49  C   UNL A   1      47.869  26.917  27.855  1.00  0.00     0.037 A 
ATOM     50  C   UNL A   1      42.116  29.746  29.062  1.00  0.00     0.049 A 
ATOM     51  C   UNL A   1      47.448  28.344  28.110  1.00  0.00     0.074 A 
ATOM     52  C   UNL A   1      41.869  31.062  29.410  1.00  0.00     0.029 A 
ATOM     53  N   UNL A   1      43.481  29.642  28.835  1.00  0.00    -0.354 N 
ATOM     54  N   UNL A   1      46.257  28.824  28.372  1.00  0.00    -0.248 NA
ATOM     55  C   UNL A   1      48.504  29.367  28.058  1.00  0.00     0.031 C 
ATOM     56  C   UNL A   1      43.074  31.766  29.338  1.00  0.00     0.029 A 
ATOM     57  C   UNL A   1      44.083  30.878  29.000  1.00  0.00     0.049 A 
ATOM     58  H   UNL A   1      43.951  28.812  28.592  1.00  0.00     0.167 HD
ATOM     59  C   UNL A   1      46.422  30.194  28.544  1.00  0.00     0.074 A 
ATOM     60  C   UNL A   1      47.832  30.469  28.364  1.00  0.00     0.031 C 
ATOM     61  C   UNL A   1      45.490  31.138  28.826  1.00  0.00     0.037 A 
BRANCH  48  62
ATOM     62  C   UNL A   1      39.724  28.937  29.146  1.00  0.00     0.064 A 
ATOM     63  C   UNL A   1      39.121  28.772  30.402  1.00  0.00     0.173 A 
ATOM     64  C   UNL A   1      38.919  29.374  28.084  1.00  0.00     0.173 A 
ATOM     65  F   UNL A   1      39.844  28.340  31.447  1.00  0.00    -0.203 F 
ATOM     66  C   UNL A   1      37.760  29.000  30.579  1.00  0.00     0.198 A 
ATOM     67  C   UNL A   1      37.564  29.631  28.271  1.00  0.00     0.198 A 
ATOM     68  F   UNL A   1      39.446  29.550  26.863  1.00  0.00    -0.203 F 
ATOM     69  F   UNL A   1      37.193  28.780  31.774  1.00  0.00    -0.200 F 
ATOM     70  C   UNL A   1      36.983  29.434  29.515  1.00  0.00     0.200 A 
ATOM     71  F   UNL A   1      36.817  30.061  27.244  1.00  0.00    -0.200 F 
ATOM     72  F   UNL A   1      35.672  29.654  29.685  1.00  0.00    -0.200 F 
ENDBRANCH  48  62
BRANCH  49  73
ATOM     73  C   UNL A   1      49.301  26.587  27.627  1.00  0.00     0.064 A 
ATOM     74  C   UNL A   1      49.813  26.474  26.327  1.00  0.00     0.173 A 
ATOM     75  C   UNL A   1      50.179  26.352  28.696  1.00  0.00     0.173 A 
ATOM     76  F   UNL A   1      49.006  26.656  25.271  1.00  0.00    -0.203 F 
ATOM     77  C   UNL A   1      51.145  26.128  26.105  1.00  0.00     0.198 A 
ATOM     78  C   UNL A   1      51.517  26.033  28.472  1.00  0.00     0.198 A 
ATOM     79  F   UNL A   1      49.736  26.434  29.959  1.00  0.00    -0.203 F 
ATOM     80  F   UNL A   1      51.598  25.985  24.851  1.00  0.00    -0.200 F 
ATOM     81  C   UNL A   1      51.998  25.916  27.177  1.00  0.00     0.200 A 
ATOM     82  F   UNL A   1      52.339  25.833  29.512  1.00  0.00    -0.200 F 
ATOM     83  F   UNL A   1      53.278  25.586  26.963  1.00  0.00    -0.200 F 
ENDBRANCH  49  73
BRANCH  61  84
ATOM     84  C   UNL A   1      45.959  32.555  28.994  1.00  0.00     0.064 A 
ATOM     85  C   UNL A   1      45.969  33.458  27.922  1.00  0.00     0.173 A 
ATOM     86  C   UNL A   1      46.340  33.031  30.258  1.00  0.00     0.173 A 
ATOM     87  F   UNL A   1      45.629  33.050  26.691  1.00  0.00    -0.203 F 
ATOM     88  C   UNL A   1      46.355  34.785  28.107  1.00  0.00     0.198 A 
ATOM     89  C   UNL A   1      46.697  34.363  30.445  1.00  0.00     0.198 A 
ATOM     90  F   UNL A   1      46.342  32.209  31.318  1.00  0.00    -0.203 F 
ATOM     91  F   UNL A   1      46.391  35.622  27.062  1.00  0.00    -0.200 F 
ATOM     92  C   UNL A   1      46.709  35.238  29.370  1.00  0.00     0.200 A 
ATOM     93  F   UNL A   1      47.024  34.803  31.670  1.00  0.00    -0.200 F 
ATOM     94  F   UNL A   1      47.065  36.517  29.549  1.00  0.00    -0.200 F 
ENDBRANCH  61  84
ENDBRANCH  35  36
ENDBRANCH  28  30
ENDBRANCH  27  28
ENDBRANCH  26  27
ENDBRANCH  25  26
ENDBRANCH  24  25
ENDBRANCH  23  24
ENDBRANCH   1  23
TORSDOF 21
ENDMDL
MODEL 3
REMARK VINA RESULT:     -10.2      3.246      8.971
REMARK SMILES Cc1ccc(O)c(C[C@H](NC=O)C(=O)OCCOCCOCCOC(=O)c2ccc(-c3c4nc(c(-c5c(F)c(F)c(F)c(F)c5F)c5ccc([nH]5)c(-c5c(F)c(F)c(F)c(F)c5F)c5nc(c(-c6c(F)c(F)c(F)c(F)c6F)c6ccc3[nH]6)C=C5)C=C4)cc2)n1
REMARK SMILES IDX 19 1 18 2 17 3 16 4 15 5 13 6 14 7 9 8 8 9 7 10 1 11 2 12
REMARK SMILES IDX 3 13 90 14 4 15 5 16 6 17 10 19 11 20 12 22 20 23 21 24
REMARK SMILES IDX 22 25 23 26 24 27 25 28 26 29 27 30 28 31 89 32 29 33 88 34
REMARK SMILES IDX 30 35 31 36 32 37 82 38 33 39 87 40 81 41 83 42 34 43 86 44
REMARK SMILES IDX 80 45 79 46 35 48 67 49 47 50 66 51 48 52 51 53 65 54 84 55
REMARK SMILES IDX 49 56 50 57 64 59 85 60 52 61 36 62 37 63 45 64 38 65 39 66
REMARK SMILES IDX 43 67 46 68 40 69 41 70 44 71 42 72 68 73 69 74 77 75 70 76
REMARK SMILES IDX 71 77 75 78 78 79 72 80 73 81 76 82 74 83 53 84 54 85 62 86
REMARK SMILES IDX 55 87 56 88 60 89 63 90 57 91 58 92 61 93 59 94
REMARK H PARENT 6 18 10 21 83 47 51 58
REMARK Flexibility Score: inf
ROOT
ATOM      1  C   UNL A   1      32.562  23.105  26.145  1.00  0.00     0.188 C 
ENDROOT
BRANCH   1   2
ATOM      2  O   UNL A   1      31.715  24.125  25.628  1.00  0.00    -0.376 OA
BRANCH   2   3
ATOM      3  C   UNL A   1      31.046  23.897  24.391  1.00  0.00     0.202 C 
BRANCH   3   4
ATOM      4  C   UNL A   1      31.691  24.422  23.104  1.00  0.00     0.261 C 
BRANCH   4   5
ATOM      5  O   UNL A   1      32.707  25.431  23.282  1.00  0.00    -0.462 OA
BRANCH   5   6
ATOM      6  C   UNL A   1      32.702  26.447  22.370  1.00  0.00     0.329 C 
ATOM      7  O   UNL A   1      33.278  26.407  21.285  1.00  0.00    -0.250 OA
BRANCH   6   8
ATOM      8  C   UNL A   1      31.957  27.716  22.860  1.00  0.00     0.198 C 
BRANCH   8   9
ATOM      9  C   UNL A   1      31.431  27.598  24.301  1.00  0.00     0.097 C 
BRANCH   9  10
ATOM     10  C   UNL A   1      32.194  28.466  25.257  1.00  0.00     0.085 A 
ATOM     11  C   UNL A   1      31.482  31.815  26.592  1.00  0.00     0.067 C 
ATOM     12  C   UNL A   1      32.152  30.488  26.402  1.00  0.00     0.038 A 
ATOM     13  C   UNL A   1      33.085  30.021  27.321  1.00  0.00     0.027 A 
ATOM     14  N   UNL A   1      31.718  29.734  25.370  1.00  0.00    -0.254 NA
ATOM     15  C   UNL A   1      33.600  28.733  27.169  1.00  0.00     0.050 A 
ATOM     16  C   UNL A   1      33.137  27.937  26.131  1.00  0.00     0.137 A 
BRANCH  16  17
ATOM     17  O   UNL A   1      33.531  26.638  26.007  1.00  0.00    -0.506 OA
ATOM     18  H   UNL A   1      33.722  26.131  26.771  1.00  0.00     0.293 HD
ENDBRANCH  16  17
ENDBRANCH   9  10
ENDBRANCH   8   9
BRANCH   8  19
ATOM     19  N   UNL A   1      30.868  28.150  21.981  1.00  0.00    -0.345 N 
ATOM     20  C   UNL A   1      30.277  29.377  22.054  1.00  0.00     0.337 C 
ATOM     21  H   UNL A   1      30.544  27.519  21.299  1.00  0.00     0.164 HD
ATOM     22  O   UNL A   1      29.444  29.770  21.252  1.00  0.00    -0.279 OA
ENDBRANCH   8  19
ENDBRANCH   6   8
ENDBRANCH   5   6
ENDBRANCH   4   5
ENDBRANCH   3   4
ENDBRANCH   2   3
ENDBRANCH   1   2
BRANCH   1  23
ATOM     23  C   UNL A   1      33.916  22.852  25.458  1.00  0.00     0.188 C 
BRANCH  23  24
ATOM     24  O   UNL A   1      34.118  21.516  25.056  1.00  0.00    -0.376 OA
BRANCH  24  25
ATOM     25  C   UNL A   1      35.429  21.141  24.664  1.00  0.00     0.202 C 
BRANCH  25  26
ATOM     26  C   UNL A   1      36.538  20.977  25.722  1.00  0.00     0.261 C 
BRANCH  26  27
ATOM     27  O   UNL A   1      37.595  21.948  25.717  1.00  0.00    -0.460 OA
BRANCH  27  28
ATOM     28  C   UNL A   1      38.827  21.564  26.127  1.00  0.00     0.338 C 
ATOM     29  O   UNL A   1      39.340  20.468  25.995  1.00  0.00    -0.246 OA
BRANCH  28  30
ATOM     30  C   UNL A   1      39.530  22.792  26.570  1.00  0.00     0.060 A 
ATOM     31  C   UNL A   1      39.096  24.043  26.104  1.00  0.00     0.016 A 
ATOM     32  C   UNL A   1      40.563  22.712  27.507  1.00  0.00     0.016 A 
ATOM     33  C   UNL A   1      39.688  25.216  26.585  1.00  0.00     0.010 A 
ATOM     34  C   UNL A   1      41.177  23.882  27.959  1.00  0.00     0.010 A 
ATOM     35  C   UNL A   1      40.751  25.139  27.494  1.00  0.00    -0.014 A 
BRANCH  35  36
ATOM     36  C   UNL A   1      41.557  26.339  27.828  1.00  0.00     0.031 A 
ATOM     37  C   UNL A   1      40.894  27.444  28.600  1.00  0.00     0.074 A 
ATOM     38  C   UNL A   1      42.833  26.472  27.424  1.00  0.00     0.049 A 
ATOM     39  N   UNL A   1      41.329  28.645  28.882  1.00  0.00    -0.248 NA
ATOM     40  C   UNL A   1      39.549  27.149  29.119  1.00  0.00     0.031 C 
ATOM     41  C   UNL A   1      43.612  25.455  26.726  1.00  0.00     0.029 A 
ATOM     42  N   UNL A   1      43.690  27.542  27.531  1.00  0.00    -0.354 N 
ATOM     43  C   UNL A   1      40.311  29.250  29.606  1.00  0.00     0.074 A 
ATOM     44  C   UNL A   1      39.227  28.295  29.699  1.00  0.00     0.031 C 
ATOM     45  C   UNL A   1      44.829  25.955  26.448  1.00  0.00     0.029 A 
ATOM     46  C   UNL A   1      44.896  27.344  26.907  1.00  0.00     0.049 A 
ATOM     47  H   UNL A   1      43.461  28.371  28.010  1.00  0.00     0.167 HD
ATOM     48  C   UNL A   1      40.281  30.491  30.146  1.00  0.00     0.037 A 
ATOM     49  C   UNL A   1      45.918  28.199  26.699  1.00  0.00     0.037 A 
ATOM     50  C   UNL A   1      41.348  31.448  30.033  1.00  0.00     0.049 A 
ATOM     51  C   UNL A   1      45.810  29.621  27.193  1.00  0.00     0.074 A 
ATOM     52  C   UNL A   1      41.417  32.731  30.546  1.00  0.00     0.029 A 
ATOM     53  N   UNL A   1      42.532  31.230  29.341  1.00  0.00    -0.354 N 
ATOM     54  N   UNL A   1      44.853  30.188  27.887  1.00  0.00    -0.248 NA
ATOM     55  C   UNL A   1      46.920  30.526  26.861  1.00  0.00     0.031 C 
ATOM     56  C   UNL A   1      42.616  33.308  30.119  1.00  0.00     0.029 A 
ATOM     57  C   UNL A   1      43.321  32.367  29.385  1.00  0.00     0.049 A 
ATOM     58  H   UNL A   1      42.773  30.391  28.887  1.00  0.00     0.167 HD
ATOM     59  C   UNL A   1      45.255  31.501  28.098  1.00  0.00     0.074 A 
ATOM     60  C   UNL A   1      46.550  31.647  27.465  1.00  0.00     0.031 C 
ATOM     61  C   UNL A   1      44.612  32.497  28.757  1.00  0.00     0.037 A 
BRANCH  48  62
ATOM     62  C   UNL A   1      39.032  30.891  30.873  1.00  0.00     0.064 A 
ATOM     63  C   UNL A   1      38.898  30.716  32.259  1.00  0.00     0.173 A 
ATOM     64  C   UNL A   1      37.955  31.456  30.175  1.00  0.00     0.173 A 
ATOM     65  F   UNL A   1      39.893  30.164  32.969  1.00  0.00    -0.203 F 
ATOM     66  C   UNL A   1      37.719  31.061  32.913  1.00  0.00     0.198 A 
ATOM     67  C   UNL A   1      36.788  31.828  30.837  1.00  0.00     0.198 A 
ATOM     68  F   UNL A   1      38.031  31.645  28.850  1.00  0.00    -0.203 F 
ATOM     69  F   UNL A   1      37.592  30.832  34.228  1.00  0.00    -0.200 F 
ATOM     70  C   UNL A   1      36.667  31.621  32.203  1.00  0.00     0.200 A 
ATOM     71  F   UNL A   1      35.777  32.379  30.152  1.00  0.00    -0.200 F 
ATOM     72  F   UNL A   1      35.532  31.953  32.834  1.00  0.00    -0.200 F 
ENDBRANCH  48  62
BRANCH  49  73
ATOM     73  C   UNL A   1      47.131  27.750  25.965  1.00  0.00     0.064 A 
ATOM     74  C   UNL A   1      48.267  27.308  26.658  1.00  0.00     0.173 A 
ATOM     75  C   UNL A   1      47.194  27.780  24.564  1.00  0.00     0.173 A 
ATOM     76  F   UNL A   1      48.268  27.293  27.999  1.00  0.00    -0.203 F 
ATOM     77  C   UNL A   1      49.421  26.922  25.979  1.00  0.00     0.198 A 
ATOM     78  C   UNL A   1      48.339  27.368  23.885  1.00  0.00     0.198 A 
ATOM     79  F   UNL A   1      46.140  28.207  23.853  1.00  0.00    -0.203 F 
ATOM     80  F   UNL A   1      50.507  26.544  26.668  1.00  0.00    -0.200 F 
ATOM     81  C   UNL A   1      49.454  26.944  24.593  1.00  0.00     0.200 A 
ATOM     82  F   UNL A   1      48.365  27.386  22.545  1.00  0.00    -0.200 F 
ATOM     83  F   UNL A   1      50.563  26.571  23.941  1.00  0.00    -0.200 F 
ENDBRANCH  49  73
BRANCH  61  84
ATOM     84  C   UNL A   1      45.304  33.826  28.863  1.00  0.00     0.064 A 
ATOM     85  C   UNL A   1      46.212  34.103  29.893  1.00  0.00     0.173 A 
ATOM     86  C   UNL A   1      45.104  34.809  27.881  1.00  0.00     0.173 A 
ATOM     87  F   UNL A   1      46.427  33.203  30.865  1.00  0.00    -0.203 F 
ATOM     88  C   UNL A   1      46.887  35.321  29.945  1.00  0.00     0.198 A 
ATOM     89  C   UNL A   1      45.802  36.013  27.920  1.00  0.00     0.198 A 
ATOM     90  F   UNL A   1      44.250  34.592  26.870  1.00  0.00    -0.203 F 
ATOM     91  F   UNL A   1      47.724  35.579  30.959  1.00  0.00    -0.200 F 
ATOM     92  C   UNL A   1      46.688  36.271  28.953  1.00  0.00     0.200 A 
ATOM     93  F   UNL A   1      45.620  36.923  26.951  1.00  0.00    -0.200 F 
ATOM     94  F   UNL A   1      47.350  37.435  28.996  1.00  0.00    -0.200 F 
ENDBRANCH  61  84
ENDBRANCH  35  36
ENDBRANCH  28  30
ENDBRANCH  27  28
ENDBRANCH  26  27
ENDBRANCH  25  26
ENDBRANCH  24  25
ENDBRANCH  23  24
ENDBRANCH   1  23
TORSDOF 21
ENDMDL
