MODEL 1
REMARK VINA RESULT:     -13.9      0.000      0.000
REMARK SMILES Cc1ccc(Nc2c(C)cccc2Cl)c(CC(=O)OCCOCCOCCOC(=O)c2ccc(-c3c4nc(c(-c5c(F)c(F)c(F)c(F)c5F)c5ccc([nH]5)c(-c5c(F)c(F)c(F)c(F)c5F)c5nc(c(-c6c(F)c(F)c(F)c(F)c6F)c6ccc3[nH]6)C=C5)C=C4)cc2)c1
REMARK SMILES IDX 23 1 22 2 21 3 20 4 19 5 17 6 18 7 16 8 15 9 1 10 2 11 3 12
REMARK SMILES IDX 94 13 4 14 5 15 6 16 7 18 8 19 13 20 9 21 10 22 12 23 14 24
REMARK SMILES IDX 11 25 24 26 25 27 26 28 27 29 28 30 29 31 30 32 31 33 32 34
REMARK SMILES IDX 93 35 33 36 92 37 34 38 35 39 36 40 86 41 37 42 91 43 85 44
REMARK SMILES IDX 87 45 38 46 90 47 84 48 83 49 39 51 71 52 51 53 70 54 52 55
REMARK SMILES IDX 55 56 69 57 88 58 53 59 54 60 68 62 89 63 56 64 40 65 41 66
REMARK SMILES IDX 49 67 42 68 43 69 47 70 50 71 44 72 45 73 48 74 46 75 72 76
REMARK SMILES IDX 73 77 81 78 74 79 75 80 79 81 82 82 76 83 77 84 80 85 78 86
REMARK SMILES IDX 57 87 58 88 66 89 59 90 60 91 64 92 67 93 61 94 62 95 65 96
REMARK SMILES IDX 63 97
REMARK H PARENT 6 17 87 50 55 61
REMARK Flexibility Score: inf
ROOT
ATOM      1  C   UNL A   1      33.130  36.253  29.717  1.00  0.00     0.188 C 
ENDROOT
BRANCH   1   2
ATOM      2  O   UNL A   1      32.532  35.380  28.785  1.00  0.00    -0.376 OA
BRANCH   2   3
ATOM      3  C   UNL A   1      33.198  34.220  28.333  1.00  0.00     0.202 C 
BRANCH   3   4
ATOM      4  C   UNL A   1      32.715  32.940  27.452  1.00  0.00     0.261 C 
BRANCH   4   5
ATOM      5  O   UNL A   1      33.027  31.160  27.365  1.00  0.00    -0.463 OA
BRANCH   5   6
ATOM      6  C   UNL A   1      34.141  29.982  27.137  1.00  0.00     0.310 C 
ATOM      7  O   UNL A   1      35.375  29.956  27.024  1.00  0.00    -0.252 OA
BRANCH   6   8
ATOM      8  C   UNL A   1      33.630  28.676  27.396  1.00  0.00     0.160 C 
BRANCH   8   9
ATOM      9  C   UNL A   1      33.120  28.311  26.049  1.00  0.00    -0.013 A 
ATOM     10  C   UNL A   1      33.643  24.512  26.067  1.00  0.00     0.044 C 
ATOM     11  C   UNL A   1      32.981  25.844  25.934  1.00  0.00    -0.051 A 
ATOM     12  C   UNL A   1      31.621  26.013  25.962  1.00  0.00     0.005 A 
ATOM     13  C   UNL A   1      33.733  26.995  25.896  1.00  0.00     0.009 A 
ATOM     14  C   UNL A   1      31.064  27.324  25.935  1.00  0.00     0.026 A 
ATOM     15  C   UNL A   1      31.797  28.741  25.774  1.00  0.00     0.042 A 
BRANCH  15  16
ATOM     16  N   UNL A   1      30.939  30.377  24.967  1.00  0.00    -0.354 N 
ATOM     17  H   UNL A   1      31.082  31.197  25.493  1.00  0.00     0.167 HD
BRANCH  16  18
ATOM     18  C   UNL A   1      29.943  30.640  23.444  1.00  0.00     0.060 A 
ATOM     19  C   UNL A   1      29.240  31.987  23.005  1.00  0.00    -0.026 A 
ATOM     20  C   UNL A   1      29.450  29.496  22.777  1.00  0.00     0.064 A 
ATOM     21  C   UNL A   1      29.296  33.501  23.402  1.00  0.00     0.046 C 
ATOM     22  C   UNL A   1      28.152  31.949  22.088  1.00  0.00     0.005 A 
ATOM     23  C   UNL A   1      28.312  29.580  21.922  1.00  0.00     0.023 A 
ATOM     24  Cl  UNL A   1      30.201  27.978  22.717  1.00  0.00    -0.082 Cl
ATOM     25  C   UNL A   1      27.653  30.765  21.610  1.00  0.00     0.002 A 
ENDBRANCH  16  18
ENDBRANCH  15  16
ENDBRANCH   8   9
ENDBRANCH   6   8
ENDBRANCH   5   6
ENDBRANCH   4   5
ENDBRANCH   3   4
ENDBRANCH   2   3
ENDBRANCH   1   2
BRANCH   1  26
ATOM     26  C   UNL A   1      32.547  36.483  31.111  1.00  0.00     0.188 C 
BRANCH  26  27
ATOM     27  O   UNL A   1      33.039  37.637  31.755  1.00  0.00    -0.376 OA
BRANCH  27  28
ATOM     28  C   UNL A   1      33.966  37.399  32.813  1.00  0.00     0.202 C 
BRANCH  28  29
ATOM     29  C   UNL A   1      34.228  35.910  33.301  1.00  0.00     0.261 C 
BRANCH  29  30
ATOM     30  O   UNL A   1      35.276  35.149  32.564  1.00  0.00    -0.460 OA
BRANCH  30  31
ATOM     31  C   UNL A   1      35.052  33.960  31.827  1.00  0.00     0.338 C 
ATOM     32  O   UNL A   1      34.192  33.204  32.234  1.00  0.00    -0.246 OA
BRANCH  31  33
ATOM     33  C   UNL A   1      36.122  33.831  30.508  1.00  0.00     0.060 A 
ATOM     34  C   UNL A   1      36.439  32.819  28.850  1.00  0.00     0.016 A 
ATOM     35  C   UNL A   1      37.479  33.710  31.694  1.00  0.00     0.016 A 
ATOM     36  C   UNL A   1      37.939  31.661  28.786  1.00  0.00     0.010 A 
ATOM     37  C   UNL A   1      38.753  32.544  31.522  1.00  0.00     0.010 A 
ATOM     38  C   UNL A   1      39.127  31.459  30.159  1.00  0.00    -0.014 A 
BRANCH  38  39
ATOM     39  C   UNL A   1      40.790  30.597  30.360  1.00  0.00     0.031 A 
ATOM     40  C   UNL A   1      41.395  28.983  29.535  1.00  0.00     0.074 A 
ATOM     41  C   UNL A   1      41.865  31.207  30.906  1.00  0.00     0.049 A 
ATOM     42  N   UNL A   1      41.723  27.846  30.127  1.00  0.00    -0.248 NA
ATOM     43  C   UNL A   1      41.140  28.460  27.986  1.00  0.00     0.031 C 
ATOM     44  C   UNL A   1      43.278  30.810  30.744  1.00  0.00     0.029 A 
ATOM     45  N   UNL A   1      41.959  32.380  31.656  1.00  0.00    -0.354 N 
ATOM     46  C   UNL A   1      41.752  26.818  29.126  1.00  0.00     0.074 A 
ATOM     47  C   UNL A   1      40.883  27.176  28.085  1.00  0.00     0.031 C 
ATOM     48  C   UNL A   1      44.031  31.498  31.624  1.00  0.00     0.029 A 
ATOM     49  C   UNL A   1      43.106  32.232  32.466  1.00  0.00     0.049 A 
ATOM     50  H   UNL A   1      41.349  33.153  31.628  1.00  0.00     0.167 HD
ATOM     51  C   UNL A   1      42.864  26.070  28.840  1.00  0.00     0.037 A 
ATOM     52  C   UNL A   1      42.911  32.033  33.797  1.00  0.00     0.037 A 
ATOM     53  C   UNL A   1      43.889  26.536  29.733  1.00  0.00     0.049 A 
ATOM     54  C   UNL A   1      43.282  30.609  34.158  1.00  0.00     0.074 A 
ATOM     55  C   UNL A   1      44.903  27.468  29.607  1.00  0.00     0.029 A 
ATOM     56  N   UNL A   1      43.577  26.469  31.075  1.00  0.00    -0.354 N 
ATOM     57  N   UNL A   1      43.325  29.620  33.298  1.00  0.00    -0.248 NA
ATOM     58  C   UNL A   1      43.772  30.222  35.473  1.00  0.00     0.031 C 
ATOM     59  C   UNL A   1      45.168  27.981  30.915  1.00  0.00     0.029 A 
ATOM     60  C   UNL A   1      44.316  27.359  31.814  1.00  0.00     0.049 A 
ATOM     61  H   UNL A   1      42.906  25.857  31.456  1.00  0.00     0.167 HD
ATOM     62  C   UNL A   1      43.872  28.519  33.891  1.00  0.00     0.074 A 
ATOM     63  C   UNL A   1      44.124  28.943  35.255  1.00  0.00     0.031 C 
ATOM     64  C   UNL A   1      44.116  27.340  33.250  1.00  0.00     0.037 A 
BRANCH  51  65
ATOM     65  C   UNL A   1      43.082  25.273  27.537  1.00  0.00     0.064 A 
ATOM     66  C   UNL A   1      42.294  24.138  27.261  1.00  0.00     0.173 A 
ATOM     67  C   UNL A   1      44.029  25.572  26.518  1.00  0.00     0.173 A 
ATOM     68  F   UNL A   1      41.319  23.758  28.095  1.00  0.00    -0.203 F 
ATOM     69  C   UNL A   1      42.465  23.351  26.112  1.00  0.00     0.198 A 
ATOM     70  C   UNL A   1      44.253  24.740  25.408  1.00  0.00     0.198 A 
ATOM     71  F   UNL A   1      44.747  26.705  26.533  1.00  0.00    -0.203 F 
ATOM     72  F   UNL A   1      41.650  22.309  25.896  1.00  0.00    -0.200 F 
ATOM     73  C   UNL A   1      43.458  23.635  25.197  1.00  0.00     0.200 A 
ATOM     74  F   UNL A   1      45.233  25.029  24.536  1.00  0.00    -0.200 F 
ATOM     75  F   UNL A   1      43.626  22.872  24.108  1.00  0.00    -0.200 F 
ENDBRANCH  51  65
BRANCH  52  76
ATOM     76  C   UNL A   1      41.787  32.897  34.281  1.00  0.00     0.064 A 
ATOM     77  C   UNL A   1      40.565  32.242  34.583  1.00  0.00     0.173 A 
ATOM     78  C   UNL A   1      41.993  34.149  34.880  1.00  0.00     0.173 A 
ATOM     79  F   UNL A   1      40.341  31.000  34.122  1.00  0.00    -0.203 F 
ATOM     80  C   UNL A   1      39.632  32.784  35.468  1.00  0.00     0.198 A 
ATOM     81  C   UNL A   1      41.050  34.692  35.764  1.00  0.00     0.198 A 
ATOM     82  F   UNL A   1      43.152  34.800  34.706  1.00  0.00    -0.203 F 
ATOM     83  F   UNL A   1      38.560  32.065  35.836  1.00  0.00    -0.200 F 
ATOM     84  C   UNL A   1      39.869  34.018  36.044  1.00  0.00     0.200 A 
ATOM     85  F   UNL A   1      41.316  35.835  36.413  1.00  0.00    -0.200 F 
ATOM     86  F   UNL A   1      38.991  34.530  36.920  1.00  0.00    -0.200 F 
ENDBRANCH  52  76
BRANCH  64  87
ATOM     87  C   UNL A   1      44.162  25.996  33.951  1.00  0.00     0.064 A 
ATOM     88  C   UNL A   1      43.044  25.423  34.573  1.00  0.00     0.173 A 
ATOM     89  C   UNL A   1      45.294  25.143  33.842  1.00  0.00     0.173 A 
ATOM     90  F   UNL A   1      41.855  26.037  34.595  1.00  0.00    -0.203 F 
ATOM     91  C   UNL A   1      43.094  24.156  35.150  1.00  0.00     0.198 A 
ATOM     92  C   UNL A   1      45.290  23.832  34.298  1.00  0.00     0.198 A 
ATOM     93  F   UNL A   1      46.438  25.535  33.259  1.00  0.00    -0.203 F 
ATOM     94  F   UNL A   1      42.037  23.709  35.841  1.00  0.00    -0.200 F 
ATOM     95  C   UNL A   1      44.207  23.354  34.998  1.00  0.00     0.200 A 
ATOM     96  F   UNL A   1      46.339  23.036  34.045  1.00  0.00    -0.200 F 
ATOM     97  F   UNL A   1      44.231  22.121  35.515  1.00  0.00    -0.200 F 
ENDBRANCH  64  87
ENDBRANCH  38  39
ENDBRANCH  31  33
ENDBRANCH  30  31
ENDBRANCH  29  30
ENDBRANCH  28  29
ENDBRANCH  27  28
ENDBRANCH  26  27
ENDBRANCH   1  26
TORSDOF 20
ENDMDL
MODEL 2
REMARK VINA RESULT:     -13.1      1.172      3.157
REMARK SMILES Cc1ccc(Nc2c(C)cccc2Cl)c(CC(=O)OCCOCCOCCOC(=O)c2ccc(-c3c4nc(c(-c5c(F)c(F)c(F)c(F)c5F)c5ccc([nH]5)c(-c5c(F)c(F)c(F)c(F)c5F)c5nc(c(-c6c(F)c(F)c(F)c(F)c6F)c6ccc3[nH]6)C=C5)C=C4)cc2)c1
REMARK SMILES IDX 23 1 22 2 21 3 20 4 19 5 17 6 18 7 16 8 15 9 1 10 2 11 3 12
REMARK SMILES IDX 94 13 4 14 5 15 6 16 7 18 8 19 13 20 9 21 10 22 12 23 14 24
REMARK SMILES IDX 11 25 24 26 25 27 26 28 27 29 28 30 29 31 30 32 31 33 32 34
REMARK SMILES IDX 93 35 33 36 92 37 34 38 35 39 36 40 86 41 37 42 91 43 85 44
REMARK SMILES IDX 87 45 38 46 90 47 84 48 83 49 39 51 71 52 51 53 70 54 52 55
REMARK SMILES IDX 55 56 69 57 88 58 53 59 54 60 68 62 89 63 56 64 40 65 41 66
REMARK SMILES IDX 49 67 42 68 43 69 47 70 50 71 44 72 45 73 48 74 46 75 72 76
REMARK SMILES IDX 73 77 81 78 74 79 75 80 79 81 82 82 76 83 77 84 80 85 78 86
REMARK SMILES IDX 57 87 58 88 66 89 59 90 60 91 64 92 67 93 61 94 62 95 65 96
REMARK SMILES IDX 63 97
REMARK H PARENT 6 17 87 50 55 61
REMARK Flexibility Score: inf
ROOT
ATOM      1  C   UNL A   1      33.768  35.094  28.101  1.00  0.00     0.188 C 
ENDROOT
BRANCH   1   2
ATOM      2  O   UNL A   1      32.934  33.972  28.280  1.00  0.00    -0.376 OA
BRANCH   2   3
ATOM      3  C   UNL A   1      32.129  33.479  27.231  1.00  0.00     0.202 C 
BRANCH   3   4
ATOM      4  C   UNL A   1      31.696  31.976  26.779  1.00  0.00     0.261 C 
BRANCH   4   5
ATOM      5  O   UNL A   1      32.449  30.339  26.623  1.00  0.00    -0.463 OA
BRANCH   5   6
ATOM      6  C   UNL A   1      32.733  29.058  25.643  1.00  0.00     0.310 C 
ATOM      7  O   UNL A   1      33.001  27.862  25.824  1.00  0.00    -0.252 OA
BRANCH   6   8
ATOM      8  C   UNL A   1      32.315  29.285  24.298  1.00  0.00     0.160 C 
BRANCH   8   9
ATOM      9  C   UNL A   1      30.923  28.769  24.355  1.00  0.00    -0.013 A 
ATOM     10  C   UNL A   1      28.941  31.875  23.295  1.00  0.00     0.044 C 
ATOM     11  C   UNL A   1      29.441  30.470  23.340  1.00  0.00    -0.051 A 
ATOM     12  C   UNL A   1      29.300  29.589  22.299  1.00  0.00     0.005 A 
ATOM     13  C   UNL A   1      30.189  30.030  24.407  1.00  0.00     0.009 A 
ATOM     14  C   UNL A   1      29.895  28.297  22.371  1.00  0.00     0.026 A 
ATOM     15  C   UNL A   1      30.685  27.604  23.582  1.00  0.00     0.042 A 
BRANCH  15  16
ATOM     16  N   UNL A   1      30.770  25.613  23.890  1.00  0.00    -0.354 N 
ATOM     17  H   UNL A   1      29.995  25.125  23.529  1.00  0.00     0.167 HD
BRANCH  16  18
ATOM     18  C   UNL A   1      32.008  24.530  24.711  1.00  0.00     0.060 A 
ATOM     19  C   UNL A   1      31.762  23.620  25.981  1.00  0.00    -0.026 A 
ATOM     20  C   UNL A   1      33.374  24.772  24.439  1.00  0.00     0.064 A 
ATOM     21  C   UNL A   1      30.537  23.073  26.789  1.00  0.00     0.046 C 
ATOM     22  C   UNL A   1      32.866  23.205  26.777  1.00  0.00     0.005 A 
ATOM     23  C   UNL A   1      34.388  24.353  25.351  1.00  0.00     0.023 A 
ATOM     24  Cl  UNL A   1      34.009  25.373  22.988  1.00  0.00    -0.082 Cl
ATOM     25  C   UNL A   1      34.145  23.620  26.509  1.00  0.00     0.002 A 
ENDBRANCH  16  18
ENDBRANCH  15  16
ENDBRANCH   8   9
ENDBRANCH   6   8
ENDBRANCH   5   6
ENDBRANCH   4   5
ENDBRANCH   3   4
ENDBRANCH   2   3
ENDBRANCH   1   2
BRANCH   1  26
ATOM     26  C   UNL A   1      33.465  36.447  28.743  1.00  0.00     0.188 C 
BRANCH  26  27
ATOM     27  O   UNL A   1      32.425  36.412  29.694  1.00  0.00    -0.376 OA
BRANCH  27  28
ATOM     28  C   UNL A   1      32.807  36.733  31.030  1.00  0.00     0.202 C 
BRANCH  28  29
ATOM     29  C   UNL A   1      33.198  35.565  32.033  1.00  0.00     0.261 C 
BRANCH  29  30
ATOM     30  O   UNL A   1      34.492  34.875  31.769  1.00  0.00    -0.460 OA
BRANCH  30  31
ATOM     31  C   UNL A   1      34.631  33.508  31.424  1.00  0.00     0.338 C 
ATOM     32  O   UNL A   1      34.039  32.696  32.108  1.00  0.00    -0.246 OA
BRANCH  31  33
ATOM     33  C   UNL A   1      35.683  33.300  30.101  1.00  0.00     0.060 A 
ATOM     34  C   UNL A   1      36.020  32.147  28.543  1.00  0.00     0.016 A 
ATOM     35  C   UNL A   1      37.064  33.360  31.262  1.00  0.00     0.016 A 
ATOM     36  C   UNL A   1      37.573  31.060  28.558  1.00  0.00     0.010 A 
ATOM     37  C   UNL A   1      38.390  32.244  31.177  1.00  0.00     0.010 A 
ATOM     38  C   UNL A   1      38.793  31.049  29.918  1.00  0.00    -0.014 A 
BRANCH  38  39
ATOM     39  C   UNL A   1      40.499  30.290  30.165  1.00  0.00     0.031 A 
ATOM     40  C   UNL A   1      41.206  28.688  29.397  1.00  0.00     0.074 A 
ATOM     41  C   UNL A   1      41.530  30.976  30.705  1.00  0.00     0.049 A 
ATOM     42  N   UNL A   1      41.590  27.590  30.028  1.00  0.00    -0.248 NA
ATOM     43  C   UNL A   1      41.002  28.105  27.862  1.00  0.00     0.031 C 
ATOM     44  C   UNL A   1      42.966  30.655  30.572  1.00  0.00     0.029 A 
ATOM     45  N   UNL A   1      41.547  32.174  31.420  1.00  0.00    -0.354 N 
ATOM     46  C   UNL A   1      41.690  26.536  29.059  1.00  0.00     0.074 A 
ATOM     47  C   UNL A   1      40.817  26.813  27.997  1.00  0.00     0.031 C 
ATOM     48  C   UNL A   1      43.667  31.411  31.439  1.00  0.00     0.029 A 
ATOM     49  C   UNL A   1      42.690  32.117  32.247  1.00  0.00     0.049 A 
ATOM     50  H   UNL A   1      40.895  32.910  31.360  1.00  0.00     0.167 HD
ATOM     51  C   UNL A   1      42.846  25.844  28.809  1.00  0.00     0.037 A 
ATOM     52  C   UNL A   1      42.489  31.946  33.581  1.00  0.00     0.037 A 
ATOM     53  C   UNL A   1      43.832  26.394  29.701  1.00  0.00     0.049 A 
ATOM     54  C   UNL A   1      42.934  30.557  33.990  1.00  0.00     0.074 A 
ATOM     55  C   UNL A   1      44.793  27.379  29.558  1.00  0.00     0.029 A 
ATOM     56  N   UNL A   1      43.505  26.350  31.040  1.00  0.00    -0.354 N 
ATOM     57  N   UNL A   1      43.045  29.547  33.162  1.00  0.00    -0.248 NA
ATOM     58  C   UNL A   1      43.427  30.238  35.323  1.00  0.00     0.031 C 
ATOM     59  C   UNL A   1      45.010  27.945  30.853  1.00  0.00     0.029 A 
ATOM     60  C   UNL A   1      44.182  27.303  31.760  1.00  0.00     0.049 A 
ATOM     61  H   UNL A   1      42.865  25.713  31.431  1.00  0.00     0.167 HD
ATOM     62  C   UNL A   1      43.645  28.497  33.794  1.00  0.00     0.074 A 
ATOM     63  C   UNL A   1      43.854  28.975  35.148  1.00  0.00     0.031 C 
ATOM     64  C   UNL A   1      43.964  27.315  33.194  1.00  0.00     0.037 A 
BRANCH  51  65
ATOM     65  C   UNL A   1      43.127  25.022  27.535  1.00  0.00     0.064 A 
ATOM     66  C   UNL A   1      42.450  23.807  27.312  1.00  0.00     0.173 A 
ATOM     67  C   UNL A   1      44.031  25.372  26.492  1.00  0.00     0.173 A 
ATOM     68  F   UNL A   1      41.525  23.368  28.174  1.00  0.00    -0.203 F 
ATOM     69  C   UNL A   1      42.684  22.997  26.191  1.00  0.00     0.198 A 
ATOM     70  C   UNL A   1      44.322  24.523  25.411  1.00  0.00     0.198 A 
ATOM     71  F   UNL A   1      44.635  26.568  26.454  1.00  0.00    -0.203 F 
ATOM     72  F   UNL A   1      41.972  21.874  26.025  1.00  0.00    -0.200 F 
ATOM     73  C   UNL A   1      43.636  23.340  25.252  1.00  0.00     0.200 A 
ATOM     74  F   UNL A   1      45.261  24.871  24.515  1.00  0.00    -0.200 F 
ATOM     75  F   UNL A   1      43.865  22.555  24.190  1.00  0.00    -0.200 F 
ENDBRANCH  51  65
BRANCH  52  76
ATOM     76  C   UNL A   1      41.311  32.759  34.025  1.00  0.00     0.064 A 
ATOM     77  C   UNL A   1      40.109  32.050  34.284  1.00  0.00     0.173 A 
ATOM     78  C   UNL A   1      41.440  34.018  34.631  1.00  0.00     0.173 A 
ATOM     79  F   UNL A   1      39.956  30.800  33.815  1.00  0.00    -0.203 F 
ATOM     80  C   UNL A   1      39.122  32.549  35.134  1.00  0.00     0.198 A 
ATOM     81  C   UNL A   1      40.442  34.517  35.482  1.00  0.00     0.198 A 
ATOM     82  F   UNL A   1      42.575  34.719  34.499  1.00  0.00    -0.203 F 
ATOM     83  F   UNL A   1      38.070  31.782  35.465  1.00  0.00    -0.200 F 
ATOM     84  C   UNL A   1      39.283  33.791  35.719  1.00  0.00     0.200 A 
ATOM     85  F   UNL A   1      40.635  35.670  36.140  1.00  0.00    -0.200 F 
ATOM     86  F   UNL A   1      38.353  34.262  36.564  1.00  0.00    -0.200 F 
ENDBRANCH  52  76
BRANCH  64  87
ATOM     87  C   UNL A   1      44.077  25.998  33.936  1.00  0.00     0.064 A 
ATOM     88  C   UNL A   1      42.999  25.410  34.612  1.00  0.00     0.173 A 
ATOM     89  C   UNL A   1      45.232  25.178  33.817  1.00  0.00     0.173 A 
ATOM     90  F   UNL A   1      41.791  25.987  34.654  1.00  0.00    -0.203 F 
ATOM     91  C   UNL A   1      43.108  24.166  35.229  1.00  0.00     0.198 A 
ATOM     92  C   UNL A   1      45.285  23.883  34.315  1.00  0.00     0.198 A 
ATOM     93  F   UNL A   1      46.343  25.586  33.184  1.00  0.00    -0.203 F 
ATOM     94  F   UNL A   1      42.089  23.710  35.968  1.00  0.00    -0.200 F 
ATOM     95  C   UNL A   1      44.242  23.395  35.066  1.00  0.00     0.200 A 
ATOM     96  F   UNL A   1      46.351  23.113  34.054  1.00  0.00    -0.200 F 
ATOM     97  F   UNL A   1      44.322  22.181  35.622  1.00  0.00    -0.200 F 
ENDBRANCH  64  87
ENDBRANCH  38  39
ENDBRANCH  31  33
ENDBRANCH  30  31
ENDBRANCH  29  30
ENDBRANCH  28  29
ENDBRANCH  27  28
ENDBRANCH  26  27
ENDBRANCH   1  26
TORSDOF 20
ENDMDL
MODEL 3
REMARK VINA RESULT:     -13.1      1.513      3.656
REMARK SMILES Cc1ccc(Nc2c(C)cccc2Cl)c(CC(=O)OCCOCCOCCOC(=O)c2ccc(-c3c4nc(c(-c5c(F)c(F)c(F)c(F)c5F)c5ccc([nH]5)c(-c5c(F)c(F)c(F)c(F)c5F)c5nc(c(-c6c(F)c(F)c(F)c(F)c6F)c6ccc3[nH]6)C=C5)C=C4)cc2)c1
REMARK SMILES IDX 23 1 22 2 21 3 20 4 19 5 17 6 18 7 16 8 15 9 1 10 2 11 3 12
REMARK SMILES IDX 94 13 4 14 5 15 6 16 7 18 8 19 13 20 9 21 10 22 12 23 14 24
REMARK SMILES IDX 11 25 24 26 25 27 26 28 27 29 28 30 29 31 30 32 31 33 32 34
REMARK SMILES IDX 93 35 33 36 92 37 34 38 35 39 36 40 86 41 37 42 91 43 85 44
REMARK SMILES IDX 87 45 38 46 90 47 84 48 83 49 39 51 71 52 51 53 70 54 52 55
REMARK SMILES IDX 55 56 69 57 88 58 53 59 54 60 68 62 89 63 56 64 40 65 41 66
REMARK SMILES IDX 49 67 42 68 43 69 47 70 50 71 44 72 45 73 48 74 46 75 72 76
REMARK SMILES IDX 73 77 81 78 74 79 75 80 79 81 82 82 76 83 77 84 80 85 78 86
REMARK SMILES IDX 57 87 58 88 66 89 59 90 60 91 64 92 67 93 61 94 62 95 65 96
REMARK SMILES IDX 63 97
REMARK H PARENT 6 17 87 50 55 61
REMARK Flexibility Score: inf
ROOT
ATOM      1  C   UNL A   1      33.523  34.850  28.097  1.00  0.00     0.188 C 
ENDROOT
BRANCH   1   2
ATOM      2  O   UNL A   1      32.450  33.946  28.229  1.00  0.00    -0.376 OA
BRANCH   2   3
ATOM      3  C   UNL A   1      32.103  33.060  27.187  1.00  0.00     0.202 C 
BRANCH   3   4
ATOM      4  C   UNL A   1      32.097  31.436  27.070  1.00  0.00     0.261 C 
BRANCH   4   5
ATOM      5  O   UNL A   1      33.231  30.107  26.601  1.00  0.00    -0.463 OA
BRANCH   5   6
ATOM      6  C   UNL A   1      33.531  28.875  25.566  1.00  0.00     0.310 C 
ATOM      7  O   UNL A   1      34.046  27.752  25.670  1.00  0.00    -0.252 OA
BRANCH   6   8
ATOM      8  C   UNL A   1      32.806  28.987  24.344  1.00  0.00     0.160 C 
BRANCH   8   9
ATOM      9  C   UNL A   1      31.454  28.563  24.789  1.00  0.00    -0.013 A 
ATOM     10  C   UNL A   1      29.230  30.453  22.302  1.00  0.00     0.044 C 
ATOM     11  C   UNL A   1      29.821  29.339  23.101  1.00  0.00    -0.051 A 
ATOM     12  C   UNL A   1      29.685  28.017  22.762  1.00  0.00     0.005 A 
ATOM     13  C   UNL A   1      30.644  29.608  24.168  1.00  0.00     0.009 A 
ATOM     14  C   UNL A   1      30.363  27.015  23.513  1.00  0.00     0.026 A 
ATOM     15  C   UNL A   1      31.254  27.160  24.838  1.00  0.00     0.042 A 
BRANCH  15  16
ATOM     16  N   UNL A   1      31.479  25.707  26.219  1.00  0.00    -0.354 N 
ATOM     17  H   UNL A   1      31.103  25.938  27.099  1.00  0.00     0.167 HD
BRANCH  16  18
ATOM     18  C   UNL A   1      32.246  24.038  26.158  1.00  0.00     0.060 A 
ATOM     19  C   UNL A   1      33.711  23.697  25.666  1.00  0.00    -0.026 A 
ATOM     20  C   UNL A   1      31.386  22.918  26.205  1.00  0.00     0.064 A 
ATOM     21  C   UNL A   1      35.035  24.474  25.358  1.00  0.00     0.046 C 
ATOM     22  C   UNL A   1      34.021  22.376  25.237  1.00  0.00     0.005 A 
ATOM     23  C   UNL A   1      31.798  21.655  25.688  1.00  0.00     0.023 A 
ATOM     24  Cl  UNL A   1      29.900  22.837  27.017  1.00  0.00    -0.082 Cl
ATOM     25  C   UNL A   1      33.068  21.393  25.183  1.00  0.00     0.002 A 
ENDBRANCH  16  18
ENDBRANCH  15  16
ENDBRANCH   8   9
ENDBRANCH   6   8
ENDBRANCH   5   6
ENDBRANCH   4   5
ENDBRANCH   3   4
ENDBRANCH   2   3
ENDBRANCH   1   2
BRANCH   1  26
ATOM     26  C   UNL A   1      33.500  36.243  28.725  1.00  0.00     0.188 C 
BRANCH  26  27
ATOM     27  O   UNL A   1      32.488  36.421  29.690  1.00  0.00    -0.376 OA
BRANCH  27  28
ATOM     28  C   UNL A   1      32.933  36.873  30.967  1.00  0.00     0.202 C 
BRANCH  28  29
ATOM     29  C   UNL A   1      33.331  35.808  32.078  1.00  0.00     0.261 C 
BRANCH  29  30
ATOM     30  O   UNL A   1      34.472  34.908  31.750  1.00  0.00    -0.460 OA
BRANCH  30  31
ATOM     31  C   UNL A   1      34.392  33.497  31.646  1.00  0.00     0.338 C 
ATOM     32  O   UNL A   1      33.764  32.909  32.504  1.00  0.00    -0.246 OA
BRANCH  31  33
ATOM     33  C   UNL A   1      35.277  32.917  30.311  1.00  0.00     0.060 A 
ATOM     34  C   UNL A   1      35.481  31.351  29.137  1.00  0.00     0.016 A 
ATOM     35  C   UNL A   1      36.790  33.352  31.197  1.00  0.00     0.016 A 
ATOM     36  C   UNL A   1      37.085  30.349  29.258  1.00  0.00     0.010 A 
ATOM     37  C   UNL A   1      38.158  32.287  31.263  1.00  0.00     0.010 A 
ATOM     38  C   UNL A   1      38.467  30.774  30.375  1.00  0.00    -0.014 A 
BRANCH  38  39
ATOM     39  C   UNL A   1      40.233  30.157  30.596  1.00  0.00     0.031 A 
ATOM     40  C   UNL A   1      41.117  28.736  29.671  1.00  0.00     0.074 A 
ATOM     41  C   UNL A   1      41.176  30.867  31.253  1.00  0.00     0.049 A 
ATOM     42  N   UNL A   1      41.591  27.611  30.181  1.00  0.00    -0.248 NA
ATOM     43  C   UNL A   1      41.014  28.329  28.070  1.00  0.00     0.031 C 
ATOM     44  C   UNL A   1      42.639  30.705  31.139  1.00  0.00     0.029 A 
ATOM     45  N   UNL A   1      41.054  31.965  32.106  1.00  0.00    -0.354 N 
ATOM     46  C   UNL A   1      41.822  26.698  29.098  1.00  0.00     0.074 A 
ATOM     47  C   UNL A   1      40.955  27.018  28.043  1.00  0.00     0.031 C 
ATOM     48  C   UNL A   1      43.237  31.412  32.117  1.00  0.00     0.029 A 
ATOM     49  C   UNL A   1      42.174  31.916  32.965  1.00  0.00     0.049 A 
ATOM     50  H   UNL A   1      40.333  32.637  32.109  1.00  0.00     0.167 HD
ATOM     51  C   UNL A   1      43.048  26.156  28.812  1.00  0.00     0.037 A 
ATOM     52  C   UNL A   1      41.955  31.565  34.260  1.00  0.00     0.037 A 
ATOM     53  C   UNL A   1      43.949  26.685  29.800  1.00  0.00     0.049 A 
ATOM     54  C   UNL A   1      42.525  30.186  34.517  1.00  0.00     0.074 A 
ATOM     55  C   UNL A   1      44.811  27.767  29.814  1.00  0.00     0.029 A 
ATOM     56  N   UNL A   1      43.593  26.446  31.111  1.00  0.00    -0.354 N 
ATOM     57  N   UNL A   1      42.759  29.300  33.579  1.00  0.00    -0.248 NA
ATOM     58  C   UNL A   1      43.012  29.755  35.821  1.00  0.00     0.031 C 
ATOM     59  C   UNL A   1      44.936  28.189  31.174  1.00  0.00     0.029 A 
ATOM     60  C   UNL A   1      44.152  27.364  31.966  1.00  0.00     0.049 A 
ATOM     61  H   UNL A   1      43.009  25.707  31.399  1.00  0.00     0.167 HD
ATOM     62  C   UNL A   1      43.443  28.243  34.105  1.00  0.00     0.074 A 
ATOM     63  C   UNL A   1      43.567  28.570  35.513  1.00  0.00     0.031 C 
ATOM     64  C   UNL A   1      43.895  27.180  33.381  1.00  0.00     0.037 A 
BRANCH  51  65
ATOM     65  C   UNL A   1      43.444  25.527  27.461  1.00  0.00     0.064 A 
ATOM     66  C   UNL A   1      42.840  24.328  27.034  1.00  0.00     0.173 A 
ATOM     67  C   UNL A   1      44.391  26.050  26.536  1.00  0.00     0.173 A 
ATOM     68  F   UNL A   1      41.887  23.740  27.766  1.00  0.00    -0.203 F 
ATOM     69  C   UNL A   1      43.179  23.688  25.832  1.00  0.00     0.198 A 
ATOM     70  C   UNL A   1      44.787  25.369  25.373  1.00  0.00     0.198 A 
ATOM     71  F   UNL A   1      44.939  27.263  26.698  1.00  0.00    -0.203 F 
ATOM     72  F   UNL A   1      42.532  22.571  25.471  1.00  0.00    -0.200 F 
ATOM     73  C   UNL A   1      44.169  24.192  25.013  1.00  0.00     0.200 A 
ATOM     74  F   UNL A   1      45.760  25.872  24.596  1.00  0.00    -0.200 F 
ATOM     75  F   UNL A   1      44.498  23.569  23.873  1.00  0.00    -0.200 F 
ENDBRANCH  51  65
BRANCH  52  76
ATOM     76  C   UNL A   1      40.690  32.202  34.751  1.00  0.00     0.064 A 
ATOM     77  C   UNL A   1      40.690  33.617  34.857  1.00  0.00     0.173 A 
ATOM     78  C   UNL A   1      39.436  31.580  34.653  1.00  0.00     0.173 A 
ATOM     79  F   UNL A   1      41.855  34.288  34.859  1.00  0.00    -0.203 F 
ATOM     80  C   UNL A   1      39.512  34.364  34.818  1.00  0.00     0.198 A 
ATOM     81  C   UNL A   1      38.255  32.335  34.619  1.00  0.00     0.198 A 
ATOM     82  F   UNL A   1      39.351  30.254  34.474  1.00  0.00    -0.203 F 
ATOM     83  F   UNL A   1      39.568  35.705  34.775  1.00  0.00    -0.200 F 
ATOM     84  C   UNL A   1      38.293  33.719  34.716  1.00  0.00     0.200 A 
ATOM     85  F   UNL A   1      37.076  31.730  34.411  1.00  0.00    -0.200 F 
ATOM     86  F   UNL A   1      37.159  34.433  34.645  1.00  0.00    -0.200 F 
ENDBRANCH  52  76
BRANCH  64  87
ATOM     87  C   UNL A   1      44.118  25.798  33.964  1.00  0.00     0.064 A 
ATOM     88  C   UNL A   1      45.377  25.181  34.001  1.00  0.00     0.173 A 
ATOM     89  C   UNL A   1      43.099  25.130  34.696  1.00  0.00     0.173 A 
ATOM     90  F   UNL A   1      46.471  25.776  33.508  1.00  0.00    -0.203 F 
ATOM     91  C   UNL A   1      45.570  23.941  34.604  1.00  0.00     0.198 A 
ATOM     92  C   UNL A   1      43.333  23.964  35.412  1.00  0.00     0.198 A 
ATOM     93  F   UNL A   1      41.844  25.599  34.775  1.00  0.00    -0.203 F 
ATOM     94  F   UNL A   1      46.762  23.340  34.499  1.00  0.00    -0.200 F 
ATOM     95  C   UNL A   1      44.556  23.341  35.324  1.00  0.00     0.200 A 
ATOM     96  F   UNL A   1      42.367  23.456  36.191  1.00  0.00    -0.200 F 
ATOM     97  F   UNL A   1      44.762  22.172  35.941  1.00  0.00    -0.200 F 
ENDBRANCH  64  87
ENDBRANCH  38  39
ENDBRANCH  31  33
ENDBRANCH  30  31
ENDBRANCH  29  30
ENDBRANCH  28  29
ENDBRANCH  27  28
ENDBRANCH  26  27
ENDBRANCH   1  26
TORSDOF 20
ENDMDL
