MODEL 1
REMARK VINA RESULT:     -10.3      0.000      0.000
REMARK SMILES O=C(OCCOCCOCCOC(=O)c1cc2ncoc2cn1)c1ccc(-c2c3nc(c(-c4c(F)c(F)c(F)c(F)c4F)c4ccc([nH]4)c(-c4c(F)c(F)c(F)c(F)c4F)c4nc(c(-c5c(F)c(F)c(F)c(F)c5F)c5ccc2[nH]5)C=C4)C=C3)cc1
REMARK SMILES IDX 7 1 6 2 5 3 4 4 3 5 2 6 1 7 24 8 25 9 86 10 26 11 85 12
REMARK SMILES IDX 27 13 28 14 29 15 79 16 30 17 84 18 78 19 80 20 31 21 83 22
REMARK SMILES IDX 77 23 76 24 32 26 64 27 44 28 63 29 45 30 48 31 62 32 81 33
REMARK SMILES IDX 46 34 47 35 61 37 82 38 49 39 33 40 34 41 42 42 35 43 36 44
REMARK SMILES IDX 40 45 43 46 37 47 38 48 41 49 39 50 65 51 66 52 74 53 67 54
REMARK SMILES IDX 68 55 72 56 75 57 69 58 70 59 73 60 71 61 50 62 51 63 59 64
REMARK SMILES IDX 52 65 53 66 57 67 60 68 54 69 55 70 58 71 56 72 8 73 9 74
REMARK SMILES IDX 10 75 11 76 12 77 13 78 14 79 15 80 16 81 23 82 17 83 22 84
REMARK SMILES IDX 18 85 21 86 19 87 20 88
REMARK H PARENT 80 25 48 36
REMARK Flexibility Score: inf
ROOT
ATOM      1  C   UNL A   1      32.896  36.223  30.578  1.00  0.00     0.188 C 
ENDROOT
BRANCH   1   2
ATOM      2  O   UNL A   1      32.929  34.986  29.881  1.00  0.00    -0.376 OA
BRANCH   2   3
ATOM      3  C   UNL A   1      33.669  35.006  28.667  1.00  0.00     0.202 C 
BRANCH   3   4
ATOM      4  C   UNL A   1      33.875  33.665  27.932  1.00  0.00     0.261 C 
BRANCH   4   5
ATOM      5  O   UNL A   1      34.311  32.484  28.667  1.00  0.00    -0.460 OA
BRANCH   5   6
ATOM      6  C   UNL A   1      34.629  31.240  28.227  1.00  0.00     0.338 C 
ATOM      7  O   UNL A   1      33.823  30.540  27.626  1.00  0.00    -0.246 OA
BRANCH   6   8
ATOM      8  C   UNL A   1      35.931  30.695  28.634  1.00  0.00     0.060 A 
ATOM      9  C   UNL A   1      36.924  31.587  29.049  1.00  0.00     0.016 A 
ATOM     10  C   UNL A   1      36.219  29.349  28.425  1.00  0.00     0.016 A 
ATOM     11  C   UNL A   1      38.247  31.163  29.053  1.00  0.00     0.010 A 
ATOM     12  C   UNL A   1      37.546  28.964  28.321  1.00  0.00     0.010 A 
ATOM     13  C   UNL A   1      38.570  29.881  28.591  1.00  0.00    -0.014 A 
BRANCH  13  14
ATOM     14  C   UNL A   1      39.915  29.348  28.823  1.00  0.00     0.031 A 
ATOM     15  C   UNL A   1      40.207  29.369  30.263  1.00  0.00     0.074 A 
ATOM     16  C   UNL A   1      40.796  28.821  27.946  1.00  0.00     0.049 A 
ATOM     17  N   UNL A   1      41.031  30.189  30.825  1.00  0.00    -0.248 NA
ATOM     18  C   UNL A   1      39.374  28.599  31.199  1.00  0.00     0.031 C 
ATOM     19  C   UNL A   1      40.659  28.752  26.509  1.00  0.00     0.029 A 
ATOM     20  N   UNL A   1      41.993  28.178  28.130  1.00  0.00    -0.354 N 
ATOM     21  C   UNL A   1      41.021  29.821  32.153  1.00  0.00     0.074 A 
ATOM     22  C   UNL A   1      39.829  29.045  32.372  1.00  0.00     0.031 C 
ATOM     23  C   UNL A   1      41.496  27.850  25.964  1.00  0.00     0.029 A 
ATOM     24  C   UNL A   1      42.413  27.454  27.013  1.00  0.00     0.049 A 
ATOM     25  H   UNL A   1      42.506  28.221  28.970  1.00  0.00     0.167 HD
ATOM     26  C   UNL A   1      42.194  29.810  32.831  1.00  0.00     0.037 A 
ATOM     27  C   UNL A   1      43.537  26.730  26.804  1.00  0.00     0.037 A 
ATOM     28  C   UNL A   1      43.209  30.588  32.171  1.00  0.00     0.049 A 
ATOM     29  C   UNL A   1      44.562  27.280  27.711  1.00  0.00     0.074 A 
ATOM     30  C   UNL A   1      43.437  31.929  31.965  1.00  0.00     0.029 A 
ATOM     31  N   UNL A   1      43.950  29.898  31.247  1.00  0.00    -0.354 N 
ATOM     32  N   UNL A   1      45.114  28.451  27.542  1.00  0.00    -0.248 NA
ATOM     33  C   UNL A   1      44.718  26.697  29.038  1.00  0.00     0.031 C 
ATOM     34  C   UNL A   1      44.270  32.027  30.814  1.00  0.00     0.029 A 
ATOM     35  C   UNL A   1      44.556  30.743  30.355  1.00  0.00     0.049 A 
ATOM     36  H   UNL A   1      44.036  28.918  31.226  1.00  0.00     0.167 HD
ATOM     37  C   UNL A   1      45.270  28.930  28.826  1.00  0.00     0.074 A 
ATOM     38  C   UNL A   1      45.186  27.763  29.692  1.00  0.00     0.031 C 
ATOM     39  C   UNL A   1      45.106  30.252  29.108  1.00  0.00     0.037 A 
BRANCH  26  40
ATOM     40  C   UNL A   1      42.534  28.696  33.769  1.00  0.00     0.064 A 
ATOM     41  C   UNL A   1      42.783  28.980  35.116  1.00  0.00     0.173 A 
ATOM     42  C   UNL A   1      42.878  27.397  33.328  1.00  0.00     0.173 A 
ATOM     43  F   UNL A   1      42.571  30.213  35.598  1.00  0.00    -0.203 F 
ATOM     44  C   UNL A   1      43.322  28.016  35.971  1.00  0.00     0.198 A 
ATOM     45  C   UNL A   1      43.346  26.419  34.195  1.00  0.00     0.198 A 
ATOM     46  F   UNL A   1      42.884  27.068  32.029  1.00  0.00    -0.203 F 
ATOM     47  F   UNL A   1      43.634  28.347  37.230  1.00  0.00    -0.200 F 
ATOM     48  C   UNL A   1      43.585  26.734  35.515  1.00  0.00     0.200 A 
ATOM     49  F   UNL A   1      43.629  25.197  33.721  1.00  0.00    -0.200 F 
ATOM     50  F   UNL A   1      44.120  25.817  36.330  1.00  0.00    -0.200 F 
ENDBRANCH  26  40
BRANCH  27  51
ATOM     51  C   UNL A   1      43.744  25.575  25.896  1.00  0.00     0.064 A 
ATOM     52  C   UNL A   1      44.973  25.380  25.243  1.00  0.00     0.173 A 
ATOM     53  C   UNL A   1      42.845  24.488  25.858  1.00  0.00     0.173 A 
ATOM     54  F   UNL A   1      45.896  26.352  25.233  1.00  0.00    -0.203 F 
ATOM     55  C   UNL A   1      45.309  24.154  24.658  1.00  0.00     0.198 A 
ATOM     56  C   UNL A   1      43.177  23.270  25.263  1.00  0.00     0.198 A 
ATOM     57  F   UNL A   1      41.655  24.549  26.473  1.00  0.00    -0.203 F 
ATOM     58  F   UNL A   1      46.526  23.984  24.123  1.00  0.00    -0.200 F 
ATOM     59  C   UNL A   1      44.419  23.094  24.687  1.00  0.00     0.200 A 
ATOM     60  F   UNL A   1      42.310  22.247  25.313  1.00  0.00    -0.200 F 
ATOM     61  F   UNL A   1      44.773  21.897  24.200  1.00  0.00    -0.200 F 
ENDBRANCH  27  51
BRANCH  39  62
ATOM     62  C   UNL A   1      45.390  31.247  28.026  1.00  0.00     0.064 A 
ATOM     63  C   UNL A   1      44.478  31.655  27.040  1.00  0.00     0.173 A 
ATOM     64  C   UNL A   1      46.638  31.888  28.067  1.00  0.00     0.173 A 
ATOM     65  F   UNL A   1      43.254  31.111  26.966  1.00  0.00    -0.203 F 
ATOM     66  C   UNL A   1      44.819  32.658  26.129  1.00  0.00     0.198 A 
ATOM     67  C   UNL A   1      46.955  32.915  27.187  1.00  0.00     0.198 A 
ATOM     68  F   UNL A   1      47.542  31.542  28.998  1.00  0.00    -0.203 F 
ATOM     69  F   UNL A   1      43.966  33.010  25.157  1.00  0.00    -0.200 F 
ATOM     70  C   UNL A   1      46.047  33.299  26.217  1.00  0.00     0.200 A 
ATOM     71  F   UNL A   1      48.135  33.542  27.294  1.00  0.00    -0.200 F 
ATOM     72  F   UNL A   1      46.357  34.289  25.368  1.00  0.00    -0.200 F 
ENDBRANCH  39  62
ENDBRANCH  13  14
ENDBRANCH   6   8
ENDBRANCH   5   6
ENDBRANCH   4   5
ENDBRANCH   3   4
ENDBRANCH   2   3
ENDBRANCH   1   2
BRANCH   1  73
ATOM     73  C   UNL A   1      32.073  36.226  31.871  1.00  0.00     0.188 C 
BRANCH  73  74
ATOM     74  O   UNL A   1      32.586  36.935  32.985  1.00  0.00    -0.376 OA
BRANCH  74  75
ATOM     75  C   UNL A   1      33.972  36.830  33.234  1.00  0.00     0.202 C 
BRANCH  75  76
ATOM     76  C   UNL A   1      34.579  35.552  33.826  1.00  0.00     0.261 C 
BRANCH  76  77
ATOM     77  O   UNL A   1      34.601  34.309  33.110  1.00  0.00    -0.459 OA
BRANCH  77  78
ATOM     78  C   UNL A   1      35.751  34.050  32.442  1.00  0.00     0.357 C 
ATOM     79  O   UNL A   1      35.907  34.146  31.222  1.00  0.00    -0.244 OA
BRANCH  78  80
ATOM     80  C   UNL A   1      36.808  33.516  33.350  1.00  0.00     0.150 A 
ATOM     81  C   UNL A   1      36.938  32.147  33.567  1.00  0.00     0.068 A 
ATOM     82  N   UNL A   1      37.594  34.469  33.944  1.00  0.00    -0.245 NA
ATOM     83  C   UNL A   1      37.909  31.781  34.505  1.00  0.00     0.113 A 
ATOM     84  C   UNL A   1      38.571  34.100  34.811  1.00  0.00     0.161 A 
ATOM     85  N   UNL A   1      38.258  30.551  35.006  1.00  0.00    -0.216 NA
ATOM     86  C   UNL A   1      38.692  32.758  35.098  1.00  0.00     0.172 A 
ATOM     87  C   UNL A   1      39.204  30.831  35.878  1.00  0.00     0.309 A 
ATOM     88  O   UNL A   1      39.538  32.149  35.978  1.00  0.00    -0.442 OA
ENDBRANCH  78  80
ENDBRANCH  77  78
ENDBRANCH  76  77
ENDBRANCH  75  76
ENDBRANCH  74  75
ENDBRANCH  73  74
ENDBRANCH   1  73
TORSDOF 17
ENDMDL
MODEL 2
REMARK VINA RESULT:     -10.3      4.047      6.725
REMARK SMILES O=C(OCCOCCOCCOC(=O)c1cc2ncoc2cn1)c1ccc(-c2c3nc(c(-c4c(F)c(F)c(F)c(F)c4F)c4ccc([nH]4)c(-c4c(F)c(F)c(F)c(F)c4F)c4nc(c(-c5c(F)c(F)c(F)c(F)c5F)c5ccc2[nH]5)C=C4)C=C3)cc1
REMARK SMILES IDX 7 1 6 2 5 3 4 4 3 5 2 6 1 7 24 8 25 9 86 10 26 11 85 12
REMARK SMILES IDX 27 13 28 14 29 15 79 16 30 17 84 18 78 19 80 20 31 21 83 22
REMARK SMILES IDX 77 23 76 24 32 26 64 27 44 28 63 29 45 30 48 31 62 32 81 33
REMARK SMILES IDX 46 34 47 35 61 37 82 38 49 39 33 40 34 41 42 42 35 43 36 44
REMARK SMILES IDX 40 45 43 46 37 47 38 48 41 49 39 50 65 51 66 52 74 53 67 54
REMARK SMILES IDX 68 55 72 56 75 57 69 58 70 59 73 60 71 61 50 62 51 63 59 64
REMARK SMILES IDX 52 65 53 66 57 67 60 68 54 69 55 70 58 71 56 72 8 73 9 74
REMARK SMILES IDX 10 75 11 76 12 77 13 78 14 79 15 80 16 81 23 82 17 83 22 84
REMARK SMILES IDX 18 85 21 86 19 87 20 88
REMARK H PARENT 80 25 48 36
REMARK Flexibility Score: inf
ROOT
ATOM      1  C   UNL A   1      31.865  27.854  26.276  1.00  0.00     0.188 C 
ENDROOT
BRANCH   1   2
ATOM      2  O   UNL A   1      31.445  29.141  25.846  1.00  0.00    -0.376 OA
BRANCH   2   3
ATOM      3  C   UNL A   1      31.823  30.209  26.704  1.00  0.00     0.202 C 
BRANCH   3   4
ATOM      4  C   UNL A   1      33.317  30.590  26.757  1.00  0.00     0.261 C 
BRANCH   4   5
ATOM      5  O   UNL A   1      33.971  30.824  28.038  1.00  0.00    -0.460 OA
BRANCH   5   6
ATOM      6  C   UNL A   1      35.008  31.638  28.364  1.00  0.00     0.338 C 
ATOM      7  O   UNL A   1      34.854  32.839  28.545  1.00  0.00    -0.246 OA
BRANCH   6   8
ATOM      8  C   UNL A   1      36.356  31.054  28.340  1.00  0.00     0.060 A 
ATOM      9  C   UNL A   1      36.482  29.685  28.089  1.00  0.00     0.016 A 
ATOM     10  C   UNL A   1      37.451  31.812  28.746  1.00  0.00     0.016 A 
ATOM     11  C   UNL A   1      37.662  29.045  28.447  1.00  0.00     0.010 A 
ATOM     12  C   UNL A   1      38.579  31.152  29.206  1.00  0.00     0.010 A 
ATOM     13  C   UNL A   1      38.673  29.759  29.100  1.00  0.00    -0.014 A 
BRANCH  13  14
ATOM     14  C   UNL A   1      40.000  29.155  29.254  1.00  0.00     0.031 A 
ATOM     15  C   UNL A   1      40.362  29.130  30.678  1.00  0.00     0.074 A 
ATOM     16  C   UNL A   1      40.809  28.605  28.324  1.00  0.00     0.049 A 
ATOM     17  N   UNL A   1      41.252  29.896  31.214  1.00  0.00    -0.248 NA
ATOM     18  C   UNL A   1      39.537  28.382  31.639  1.00  0.00     0.031 C 
ATOM     19  C   UNL A   1      40.599  28.574  26.894  1.00  0.00     0.029 A 
ATOM     20  N   UNL A   1      41.980  27.899  28.436  1.00  0.00    -0.354 N 
ATOM     21  C   UNL A   1      41.289  29.500  32.534  1.00  0.00     0.074 A 
ATOM     22  C   UNL A   1      40.071  28.779  32.796  1.00  0.00     0.031 C 
ATOM     23  C   UNL A   1      41.362  27.644  26.292  1.00  0.00     0.029 A 
ATOM     24  C   UNL A   1      42.308  27.180  27.285  1.00  0.00     0.049 A 
ATOM     25  H   UNL A   1      42.535  27.898  29.250  1.00  0.00     0.167 HD
ATOM     26  C   UNL A   1      42.491  29.416  33.152  1.00  0.00     0.037 A 
ATOM     27  C   UNL A   1      43.383  26.407  27.007  1.00  0.00     0.037 A 
ATOM     28  C   UNL A   1      43.511  30.157  32.458  1.00  0.00     0.049 A 
ATOM     29  C   UNL A   1      44.477  26.885  27.873  1.00  0.00     0.074 A 
ATOM     30  C   UNL A   1      43.796  31.490  32.267  1.00  0.00     0.029 A 
ATOM     31  N   UNL A   1      44.170  29.452  31.485  1.00  0.00    -0.354 N 
ATOM     32  N   UNL A   1      45.078  28.031  27.699  1.00  0.00    -0.248 NA
ATOM     33  C   UNL A   1      44.668  26.266  29.178  1.00  0.00     0.031 C 
ATOM     34  C   UNL A   1      44.576  31.572  31.078  1.00  0.00     0.029 A 
ATOM     35  C   UNL A   1      44.774  30.286  30.581  1.00  0.00     0.049 A 
ATOM     36  H   UNL A   1      44.205  28.470  31.441  1.00  0.00     0.167 HD
ATOM     37  C   UNL A   1      45.320  28.474  28.984  1.00  0.00     0.074 A 
ATOM     38  C   UNL A   1      45.220  27.293  29.829  1.00  0.00     0.031 C 
ATOM     39  C   UNL A   1      45.237  29.795  29.299  1.00  0.00     0.037 A 
BRANCH  26  40
ATOM     40  C   UNL A   1      42.820  28.266  34.050  1.00  0.00     0.064 A 
ATOM     41  C   UNL A   1      43.093  28.502  35.402  1.00  0.00     0.173 A 
ATOM     42  C   UNL A   1      43.130  26.975  33.565  1.00  0.00     0.173 A 
ATOM     43  F   UNL A   1      42.914  29.723  35.925  1.00  0.00    -0.203 F 
ATOM     44  C   UNL A   1      43.623  27.501  36.219  1.00  0.00     0.198 A 
ATOM     45  C   UNL A   1      43.588  25.960  34.394  1.00  0.00     0.198 A 
ATOM     46  F   UNL A   1      43.111  26.687  32.256  1.00  0.00    -0.203 F 
ATOM     47  F   UNL A   1      43.959  27.786  37.483  1.00  0.00    -0.200 F 
ATOM     48  C   UNL A   1      43.852  26.229  35.719  1.00  0.00     0.200 A 
ATOM     49  F   UNL A   1      43.839  24.749  33.878  1.00  0.00    -0.200 F 
ATOM     50  F   UNL A   1      44.378  25.276  36.498  1.00  0.00    -0.200 F 
ENDBRANCH  26  40
BRANCH  27  51
ATOM     51  C   UNL A   1      43.487  25.263  26.068  1.00  0.00     0.064 A 
ATOM     52  C   UNL A   1      44.633  25.081  25.275  1.00  0.00     0.173 A 
ATOM     53  C   UNL A   1      42.592  24.173  26.120  1.00  0.00     0.173 A 
ATOM     54  F   UNL A   1      45.546  26.056  25.170  1.00  0.00    -0.203 F 
ATOM     55  C   UNL A   1      44.903  23.863  24.640  1.00  0.00     0.198 A 
ATOM     56  C   UNL A   1      42.857  22.963  25.476  1.00  0.00     0.198 A 
ATOM     57  F   UNL A   1      41.481  24.221  26.869  1.00  0.00    -0.203 F 
ATOM     58  F   UNL A   1      46.051  23.704  23.967  1.00  0.00    -0.200 F 
ATOM     59  C   UNL A   1      44.025  22.799  24.759  1.00  0.00     0.200 A 
ATOM     60  F   UNL A   1      42.005  21.936  25.613  1.00  0.00    -0.200 F 
ATOM     61  F   UNL A   1      44.324  21.609  24.221  1.00  0.00    -0.200 F 
ENDBRANCH  27  51
BRANCH  39  62
ATOM     62  C   UNL A   1      45.518  30.799  28.224  1.00  0.00     0.064 A 
ATOM     63  C   UNL A   1      44.574  31.295  27.311  1.00  0.00     0.173 A 
ATOM     64  C   UNL A   1      46.808  31.353  28.196  1.00  0.00     0.173 A 
ATOM     65  F   UNL A   1      43.313  30.836  27.306  1.00  0.00    -0.203 F 
ATOM     66  C   UNL A   1      44.923  32.297  26.402  1.00  0.00     0.198 A 
ATOM     67  C   UNL A   1      47.137  32.380  27.321  1.00  0.00     0.198 A 
ATOM     68  F   UNL A   1      47.744  30.921  29.056  1.00  0.00    -0.203 F 
ATOM     69  F   UNL A   1      44.035  32.732  25.498  1.00  0.00    -0.200 F 
ATOM     70  C   UNL A   1      46.196  32.851  26.423  1.00  0.00     0.200 A 
ATOM     71  F   UNL A   1      48.362  32.923  27.362  1.00  0.00    -0.200 F 
ATOM     72  F   UNL A   1      46.517  33.842  25.579  1.00  0.00    -0.200 F 
ENDBRANCH  39  62
ENDBRANCH  13  14
ENDBRANCH   6   8
ENDBRANCH   5   6
ENDBRANCH   4   5
ENDBRANCH   3   4
ENDBRANCH   2   3
ENDBRANCH   1   2
BRANCH   1  73
ATOM     73  C   UNL A   1      30.953  26.694  25.864  1.00  0.00     0.188 C 
BRANCH  73  74
ATOM     74  O   UNL A   1      31.487  25.698  25.010  1.00  0.00    -0.376 OA
BRANCH  74  75
ATOM     75  C   UNL A   1      32.035  26.127  23.781  1.00  0.00     0.202 C 
BRANCH  75  76
ATOM     76  C   UNL A   1      31.140  26.670  22.659  1.00  0.00     0.261 C 
BRANCH  76  77
ATOM     77  O   UNL A   1      30.704  28.036  22.619  1.00  0.00    -0.459 OA
BRANCH  77  78
ATOM     78  C   UNL A   1      29.423  28.244  23.009  1.00  0.00     0.357 C 
ATOM     79  O   UNL A   1      28.672  27.388  23.483  1.00  0.00    -0.244 OA
BRANCH  78  80
ATOM     80  C   UNL A   1      28.968  29.630  22.695  1.00  0.00     0.150 A 
ATOM     81  C   UNL A   1      28.398  29.931  21.461  1.00  0.00     0.068 A 
ATOM     82  N   UNL A   1      29.180  30.547  23.691  1.00  0.00    -0.245 NA
ATOM     83  C   UNL A   1      28.095  31.281  21.258  1.00  0.00     0.113 A 
ATOM     84  C   UNL A   1      28.832  31.845  23.505  1.00  0.00     0.161 A 
ATOM     85  N   UNL A   1      27.594  31.937  20.159  1.00  0.00    -0.216 NA
ATOM     86  C   UNL A   1      28.319  32.196  22.275  1.00  0.00     0.172 A 
ATOM     87  C   UNL A   1      27.555  33.196  20.543  1.00  0.00     0.309 A 
ATOM     88  O   UNL A   1      27.961  33.432  21.823  1.00  0.00    -0.442 OA
ENDBRANCH  78  80
ENDBRANCH  77  78
ENDBRANCH  76  77
ENDBRANCH  75  76
ENDBRANCH  74  75
ENDBRANCH  73  74
ENDBRANCH   1  73
TORSDOF 17
ENDMDL
MODEL 3
REMARK VINA RESULT:     -10.2      5.389     11.361
REMARK SMILES O=C(OCCOCCOCCOC(=O)c1cc2ncoc2cn1)c1ccc(-c2c3nc(c(-c4c(F)c(F)c(F)c(F)c4F)c4ccc([nH]4)c(-c4c(F)c(F)c(F)c(F)c4F)c4nc(c(-c5c(F)c(F)c(F)c(F)c5F)c5ccc2[nH]5)C=C4)C=C3)cc1
REMARK SMILES IDX 7 1 6 2 5 3 4 4 3 5 2 6 1 7 24 8 25 9 86 10 26 11 85 12
REMARK SMILES IDX 27 13 28 14 29 15 79 16 30 17 84 18 78 19 80 20 31 21 83 22
REMARK SMILES IDX 77 23 76 24 32 26 64 27 44 28 63 29 45 30 48 31 62 32 81 33
REMARK SMILES IDX 46 34 47 35 61 37 82 38 49 39 33 40 34 41 42 42 35 43 36 44
REMARK SMILES IDX 40 45 43 46 37 47 38 48 41 49 39 50 65 51 66 52 74 53 67 54
REMARK SMILES IDX 68 55 72 56 75 57 69 58 70 59 73 60 71 61 50 62 51 63 59 64
REMARK SMILES IDX 52 65 53 66 57 67 60 68 54 69 55 70 58 71 56 72 8 73 9 74
REMARK SMILES IDX 10 75 11 76 12 77 13 78 14 79 15 80 16 81 23 82 17 83 22 84
REMARK SMILES IDX 18 85 21 86 19 87 20 88
REMARK H PARENT 80 25 48 36
REMARK Flexibility Score: inf
ROOT
ATOM      1  C   UNL A   1      42.155  20.816  26.939  1.00  0.00     0.188 C 
ENDROOT
BRANCH   1   2
ATOM      2  O   UNL A   1      42.004  19.989  25.794  1.00  0.00    -0.376 OA
BRANCH   2   3
ATOM      3  C   UNL A   1      42.927  18.912  25.711  1.00  0.00     0.202 C 
BRANCH   3   4
ATOM      4  C   UNL A   1      44.048  19.009  24.655  1.00  0.00     0.261 C 
BRANCH   4   5
ATOM      5  O   UNL A   1      44.481  20.310  24.161  1.00  0.00    -0.460 OA
BRANCH   5   6
ATOM      6  C   UNL A   1      45.409  21.173  24.648  1.00  0.00     0.338 C 
ATOM      7  O   UNL A   1      46.609  20.940  24.577  1.00  0.00    -0.246 OA
BRANCH   6   8
ATOM      8  C   UNL A   1      44.918  22.332  25.405  1.00  0.00     0.060 A 
ATOM      9  C   UNL A   1      44.051  23.224  24.766  1.00  0.00     0.016 A 
ATOM     10  C   UNL A   1      45.458  22.628  26.654  1.00  0.00     0.016 A 
ATOM     11  C   UNL A   1      43.894  24.499  25.295  1.00  0.00     0.010 A 
ATOM     12  C   UNL A   1      45.388  23.933  27.114  1.00  0.00     0.010 A 
ATOM     13  C   UNL A   1      44.642  24.889  26.412  1.00  0.00    -0.014 A 
BRANCH  13  14
ATOM     14  C   UNL A   1      44.301  26.131  27.112  1.00  0.00     0.031 A 
ATOM     15  C   UNL A   1      45.325  27.146  26.830  1.00  0.00     0.074 A 
ATOM     16  C   UNL A   1      43.213  26.432  27.852  1.00  0.00     0.049 A 
ATOM     17  N   UNL A   1      46.202  27.549  27.687  1.00  0.00    -0.248 NA
ATOM     18  C   UNL A   1      45.566  27.593  25.450  1.00  0.00     0.031 C 
ATOM     19  C   UNL A   1      42.141  25.538  28.229  1.00  0.00     0.029 A 
ATOM     20  N   UNL A   1      42.778  27.613  28.397  1.00  0.00    -0.354 N 
ATOM     21  C   UNL A   1      46.913  28.520  27.014  1.00  0.00     0.074 A 
ATOM     22  C   UNL A   1      46.669  28.327  25.609  1.00  0.00     0.031 C 
ATOM     23  C   UNL A   1      41.042  26.206  28.625  1.00  0.00     0.029 A 
ATOM     24  C   UNL A   1      41.432  27.594  28.764  1.00  0.00     0.049 A 
ATOM     25  H   UNL A   1      43.360  28.399  28.517  1.00  0.00     0.167 HD
ATOM     26  C   UNL A   1      47.269  29.643  27.681  1.00  0.00     0.037 A 
ATOM     27  C   UNL A   1      40.666  28.541  29.353  1.00  0.00     0.037 A 
ATOM     28  C   UNL A   1      47.214  29.466  29.108  1.00  0.00     0.049 A 
ATOM     29  C   UNL A   1      41.587  29.413  30.106  1.00  0.00     0.074 A 
ATOM     30  C   UNL A   1      47.956  28.777  30.041  1.00  0.00     0.029 A 
ATOM     31  N   UNL A   1      45.996  29.739  29.673  1.00  0.00    -0.354 N 
ATOM     32  N   UNL A   1      42.204  29.034  31.192  1.00  0.00    -0.248 NA
ATOM     33  C   UNL A   1      42.131  30.597  29.454  1.00  0.00     0.031 C 
ATOM     34  C   UNL A   1      47.102  28.558  31.158  1.00  0.00     0.029 A 
ATOM     35  C   UNL A   1      45.863  29.140  30.898  1.00  0.00     0.049 A 
ATOM     36  H   UNL A   1      45.303  30.297  29.252  1.00  0.00     0.167 HD
ATOM     37  C   UNL A   1      43.444  29.633  31.092  1.00  0.00     0.074 A 
ATOM     38  C   UNL A   1      43.281  30.707  30.123  1.00  0.00     0.031 C 
ATOM     39  C   UNL A   1      44.567  29.002  31.531  1.00  0.00     0.037 A 
BRANCH  26  40
ATOM     40  C   UNL A   1      47.150  30.991  27.045  1.00  0.00     0.064 A 
ATOM     41  C   UNL A   1      48.261  31.841  27.015  1.00  0.00     0.173 A 
ATOM     42  C   UNL A   1      45.908  31.572  26.698  1.00  0.00     0.173 A 
ATOM     43  F   UNL A   1      49.462  31.399  27.415  1.00  0.00    -0.203 F 
ATOM     44  C   UNL A   1      48.138  33.181  26.642  1.00  0.00     0.198 A 
ATOM     45  C   UNL A   1      45.799  32.883  26.257  1.00  0.00     0.198 A 
ATOM     46  F   UNL A   1      44.748  30.927  26.885  1.00  0.00    -0.203 F 
ATOM     47  F   UNL A   1      49.202  33.989  26.713  1.00  0.00    -0.200 F 
ATOM     48  C   UNL A   1      46.913  33.695  26.246  1.00  0.00     0.200 A 
ATOM     49  F   UNL A   1      44.596  33.368  25.917  1.00  0.00    -0.200 F 
ATOM     50  F   UNL A   1      46.793  34.984  25.907  1.00  0.00    -0.200 F 
ENDBRANCH  26  40
BRANCH  27  51
ATOM     51  C   UNL A   1      39.199  28.743  29.259  1.00  0.00     0.064 A 
ATOM     52  C   UNL A   1      38.396  28.762  30.412  1.00  0.00     0.173 A 
ATOM     53  C   UNL A   1      38.584  29.192  28.070  1.00  0.00     0.173 A 
ATOM     54  F   UNL A   1      38.894  28.362  31.591  1.00  0.00    -0.203 F 
ATOM     55  C   UNL A   1      37.092  29.270  30.393  1.00  0.00     0.198 A 
ATOM     56  C   UNL A   1      37.279  29.687  28.051  1.00  0.00     0.198 A 
ATOM     57  F   UNL A   1      39.262  29.247  26.915  1.00  0.00    -0.203 F 
ATOM     58  F   UNL A   1      36.393  29.351  31.533  1.00  0.00    -0.200 F 
ATOM     59  C   UNL A   1      36.543  29.751  29.217  1.00  0.00     0.200 A 
ATOM     60  F   UNL A   1      36.766  30.163  26.907  1.00  0.00    -0.200 F 
ATOM     61  F   UNL A   1      35.326  30.312  29.215  1.00  0.00    -0.200 F 
ENDBRANCH  27  51
BRANCH  39  62
ATOM     62  C   UNL A   1      44.434  28.014  32.648  1.00  0.00     0.064 A 
ATOM     63  C   UNL A   1      44.326  28.338  34.009  1.00  0.00     0.173 A 
ATOM     64  C   UNL A   1      44.311  26.662  32.286  1.00  0.00     0.173 A 
ATOM     65  F   UNL A   1      44.398  29.613  34.421  1.00  0.00    -0.203 F 
ATOM     66  C   UNL A   1      44.117  27.339  34.963  1.00  0.00     0.198 A 
ATOM     67  C   UNL A   1      44.057  25.679  33.234  1.00  0.00     0.198 A 
ATOM     68  F   UNL A   1      44.395  26.301  30.996  1.00  0.00    -0.203 F 
ATOM     69  F   UNL A   1      44.066  27.645  36.266  1.00  0.00    -0.200 F 
ATOM     70  C   UNL A   1      43.963  26.016  34.572  1.00  0.00     0.200 A 
ATOM     71  F   UNL A   1      43.889  24.407  32.844  1.00  0.00    -0.200 F 
ATOM     72  F   UNL A   1      43.720  25.063  35.484  1.00  0.00    -0.200 F 
ENDBRANCH  39  62
ENDBRANCH  13  14
ENDBRANCH   6   8
ENDBRANCH   5   6
ENDBRANCH   4   5
ENDBRANCH   3   4
ENDBRANCH   2   3
ENDBRANCH   1   2
BRANCH   1  73
ATOM     73  C   UNL A   1      41.240  22.044  26.988  1.00  0.00     0.188 C 
BRANCH  73  74
ATOM     74  O   UNL A   1      39.938  21.926  26.443  1.00  0.00    -0.376 OA
BRANCH  74  75
ATOM     75  C   UNL A   1      39.106  23.066  26.507  1.00  0.00     0.202 C 
BRANCH  75  76
ATOM     76  C   UNL A   1      37.783  23.128  25.733  1.00  0.00     0.261 C 
BRANCH  76  77
ATOM     77  O   UNL A   1      36.645  22.332  26.092  1.00  0.00    -0.459 OA
BRANCH  77  78
ATOM     78  C   UNL A   1      35.467  22.734  25.554  1.00  0.00     0.357 C 
ATOM     79  O   UNL A   1      35.124  23.906  25.379  1.00  0.00    -0.244 OA
BRANCH  78  80
ATOM     80  C   UNL A   1      34.560  21.581  25.289  1.00  0.00     0.150 A 
ATOM     81  C   UNL A   1      35.074  20.319  25.003  1.00  0.00     0.068 A 
ATOM     82  N   UNL A   1      33.222  21.877  25.331  1.00  0.00    -0.245 NA
ATOM     83  C   UNL A   1      34.122  19.344  24.688  1.00  0.00     0.113 A 
ATOM     84  C   UNL A   1      32.304  20.910  25.078  1.00  0.00     0.161 A 
ATOM     85  N   UNL A   1      34.268  18.035  24.297  1.00  0.00    -0.216 NA
ATOM     86  C   UNL A   1      32.774  19.662  24.732  1.00  0.00     0.172 A 
ATOM     87  C   UNL A   1      33.030  17.630  24.107  1.00  0.00     0.309 A 
ATOM     88  O   UNL A   1      32.063  18.556  24.369  1.00  0.00    -0.442 OA
ENDBRANCH  78  80
ENDBRANCH  77  78
ENDBRANCH  76  77
ENDBRANCH  75  76
ENDBRANCH  74  75
ENDBRANCH  73  74
ENDBRANCH   1  73
TORSDOF 17
ENDMDL
