MODEL 1
REMARK VINA RESULT:     -11.5      0.000      0.000
REMARK SMILES COc1ccc2c(c1)C=C(C(=O)OCCOCCOCCOC(=O)c1ccc(-c3c4nc(c(-c5c(F)c(F)c(F)c(F)c5F)c5ccc([nH]5)c(-c5c(F)c(F)c(F)c(F)c5F)c5nc(c(-c6c(F)c(F)c(F)c(F)c6F)c6ccc3[nH]6)C=C5)C=C4)cc1)[C@H](C(F)(F)F)O2
REMARK SMILES IDX 18 1 17 2 16 3 15 4 14 5 13 6 11 7 12 8 10 9 3 10 4 11 8 12
REMARK SMILES IDX 5 13 7 14 6 15 9 16 93 17 88 18 2 19 1 20 89 21 90 22 91 23
REMARK SMILES IDX 92 24 19 25 20 26 21 27 22 28 23 29 24 30 25 31 26 32 87 33
REMARK SMILES IDX 27 34 86 35 28 36 29 37 30 38 80 39 31 40 85 41 79 42 81 43
REMARK SMILES IDX 32 44 84 45 78 46 77 47 33 49 65 50 45 51 64 52 46 53 49 54
REMARK SMILES IDX 63 55 82 56 47 57 48 58 62 60 83 61 50 62 34 63 35 64 43 65
REMARK SMILES IDX 36 66 37 67 41 68 44 69 38 70 39 71 42 72 40 73 66 74 67 75
REMARK SMILES IDX 75 76 68 77 69 78 73 79 76 80 70 81 71 82 74 83 72 84 51 85
REMARK SMILES IDX 52 86 60 87 53 88 54 89 58 90 61 91 55 92 56 93 59 94 57 95
REMARK H PARENT 81 48 49 59
REMARK Flexibility Score: inf
ROOT
ATOM      1  C   UNL A   1      41.158  20.363  27.385  1.00  0.00     0.188 C 
ENDROOT
BRANCH   1   2
ATOM      2  C   UNL A   1      40.203  21.065  26.396  1.00  0.00     0.188 C 
BRANCH   2   3
ATOM      3  O   UNL A   1      39.264  20.239  25.756  1.00  0.00    -0.376 OA
BRANCH   3   4
ATOM      4  C   UNL A   1      38.003  20.747  25.356  1.00  0.00     0.202 C 
BRANCH   4   5
ATOM      5  C   UNL A   1      37.685  22.215  25.003  1.00  0.00     0.261 C 
BRANCH   5   6
ATOM      6  O   UNL A   1      36.532  22.815  25.596  1.00  0.00    -0.460 OA
BRANCH   6   7
ATOM      7  C   UNL A   1      35.355  22.623  24.945  1.00  0.00     0.338 C 
ATOM      8  O   UNL A   1      35.063  21.667  24.252  1.00  0.00    -0.246 OA
BRANCH   7   9
ATOM      9  C   UNL A   1      34.395  23.683  25.310  1.00  0.00     0.087 C 
ATOM     10  C   UNL A   1      32.027  27.804  24.467  1.00  0.00     0.119 A 
ATOM     11  C   UNL A   1      31.058  27.422  25.396  1.00  0.00     0.050 A 
ATOM     12  C   UNL A   1      33.112  26.954  24.207  1.00  0.00     0.058 A 
ATOM     13  C   UNL A   1      31.178  26.206  26.073  1.00  0.00     0.051 A 
ATOM     14  C   UNL A   1      33.230  25.730  24.872  1.00  0.00     0.021 A 
ATOM     15  C   UNL A   1      32.265  25.374  25.820  1.00  0.00     0.128 A 
ATOM     16  C   UNL A   1      34.265  24.760  24.517  1.00  0.00     0.027 C 
ATOM     17  O   UNL A   1      32.289  24.176  26.482  1.00  0.00    -0.475 OA
ATOM     18  C   UNL A   1      33.604  23.570  26.596  1.00  0.00     0.316 C 
BRANCH  10  19
ATOM     19  O   UNL A   1      32.006  28.948  23.717  1.00  0.00    -0.497 OA
ATOM     20  C   UNL A   1      30.964  29.071  22.757  1.00  0.00     0.278 C 
ENDBRANCH  10  19
BRANCH  18  21
ATOM     21  C   UNL A   1      33.438  22.185  27.243  1.00  0.00     0.430 C 
ATOM     22  F   UNL A   1      32.880  21.301  26.380  1.00  0.00    -0.167 F 
ATOM     23  F   UNL A   1      34.657  21.666  27.552  1.00  0.00    -0.167 F 
ATOM     24  F   UNL A   1      32.716  22.203  28.378  1.00  0.00    -0.167 F 
ENDBRANCH  18  21
ENDBRANCH   7   9
ENDBRANCH   6   7
ENDBRANCH   5   6
ENDBRANCH   4   5
ENDBRANCH   3   4
ENDBRANCH   2   3
ENDBRANCH   1   2
BRANCH   1  25
ATOM     25  O   UNL A   1      42.315  19.701  26.912  1.00  0.00    -0.376 OA
BRANCH  25  26
ATOM     26  C   UNL A   1      42.935  20.147  25.715  1.00  0.00     0.202 C 
BRANCH  26  27
ATOM     27  C   UNL A   1      43.672  21.498  25.634  1.00  0.00     0.261 C 
BRANCH  27  28
ATOM     28  O   UNL A   1      42.946  22.595  25.056  1.00  0.00    -0.460 OA
BRANCH  28  29
ATOM     29  C   UNL A   1      43.614  23.774  25.001  1.00  0.00     0.338 C 
ATOM     30  O   UNL A   1      44.528  24.075  24.253  1.00  0.00    -0.246 OA
BRANCH  29  31
ATOM     31  C   UNL A   1      42.957  24.758  25.884  1.00  0.00     0.060 A 
ATOM     32  C   UNL A   1      43.491  26.053  25.962  1.00  0.00     0.016 A 
ATOM     33  C   UNL A   1      41.875  24.391  26.683  1.00  0.00     0.016 A 
ATOM     34  C   UNL A   1      42.951  26.983  26.852  1.00  0.00     0.010 A 
ATOM     35  C   UNL A   1      41.354  25.315  27.595  1.00  0.00     0.010 A 
ATOM     36  C   UNL A   1      41.906  26.606  27.703  1.00  0.00    -0.014 A 
BRANCH  36  37
ATOM     37  C   UNL A   1      41.499  27.502  28.816  1.00  0.00     0.031 A 
ATOM     38  C   UNL A   1      42.247  27.421  30.119  1.00  0.00     0.074 A 
ATOM     39  C   UNL A   1      40.487  28.376  28.672  1.00  0.00     0.049 A 
ATOM     40  N   UNL A   1      42.020  28.043  31.249  1.00  0.00    -0.248 NA
ATOM     41  C   UNL A   1      43.407  26.514  30.155  1.00  0.00     0.031 C 
ATOM     42  C   UNL A   1      39.712  28.582  27.450  1.00  0.00     0.029 A 
ATOM     43  N   UNL A   1      39.925  29.245  29.577  1.00  0.00    -0.354 N 
ATOM     44  C   UNL A   1      42.993  27.589  32.131  1.00  0.00     0.074 A 
ATOM     45  C   UNL A   1      43.804  26.630  31.414  1.00  0.00     0.031 C 
ATOM     46  C   UNL A   1      38.758  29.498  27.688  1.00  0.00     0.029 A 
ATOM     47  C   UNL A   1      38.830  29.915  29.088  1.00  0.00     0.049 A 
ATOM     48  H   UNL A   1      40.273  29.373  30.489  1.00  0.00     0.167 HD
ATOM     49  C   UNL A   1      43.188  27.942  33.422  1.00  0.00     0.037 A 
ATOM     50  C   UNL A   1      37.967  30.743  29.711  1.00  0.00     0.037 A 
ATOM     51  C   UNL A   1      42.391  28.911  34.130  1.00  0.00     0.049 A 
ATOM     52  C   UNL A   1      38.177  31.070  31.171  1.00  0.00     0.074 A 
ATOM     53  C   UNL A   1      42.547  29.369  35.427  1.00  0.00     0.029 A 
ATOM     54  N   UNL A   1      41.285  29.559  33.606  1.00  0.00    -0.354 N 
ATOM     55  N   UNL A   1      39.126  30.675  31.985  1.00  0.00    -0.248 NA
ATOM     56  C   UNL A   1      37.193  31.965  31.799  1.00  0.00     0.031 C 
ATOM     57  C   UNL A   1      41.495  30.244  35.710  1.00  0.00     0.029 A 
ATOM     58  C   UNL A   1      40.727  30.387  34.567  1.00  0.00     0.049 A 
ATOM     59  H   UNL A   1      40.947  29.449  32.688  1.00  0.00     0.167 HD
ATOM     60  C   UNL A   1      38.876  31.301  33.200  1.00  0.00     0.074 A 
ATOM     61  C   UNL A   1      37.695  32.115  33.016  1.00  0.00     0.031 C 
ATOM     62  C   UNL A   1      39.563  31.210  34.366  1.00  0.00     0.037 A 
BRANCH  49  63
ATOM     63  C   UNL A   1      44.290  27.265  34.183  1.00  0.00     0.064 A 
ATOM     64  C   UNL A   1      45.570  27.827  34.291  1.00  0.00     0.173 A 
ATOM     65  C   UNL A   1      44.030  26.081  34.890  1.00  0.00     0.173 A 
ATOM     66  F   UNL A   1      45.873  28.951  33.624  1.00  0.00    -0.203 F 
ATOM     67  C   UNL A   1      46.551  27.224  35.074  1.00  0.00     0.198 A 
ATOM     68  C   UNL A   1      45.003  25.497  35.694  1.00  0.00     0.198 A 
ATOM     69  F   UNL A   1      42.819  25.506  34.823  1.00  0.00    -0.203 F 
ATOM     70  F   UNL A   1      47.776  27.764  35.145  1.00  0.00    -0.200 F 
ATOM     71  C   UNL A   1      46.263  26.068  35.785  1.00  0.00     0.200 A 
ATOM     72  F   UNL A   1      44.717  24.389  36.392  1.00  0.00    -0.200 F 
ATOM     73  F   UNL A   1      47.201  25.504  36.559  1.00  0.00    -0.200 F 
ENDBRANCH  49  63
BRANCH  50  74
ATOM     74  C   UNL A   1      36.792  31.297  28.984  1.00  0.00     0.064 A 
ATOM     75  C   UNL A   1      36.713  32.658  28.658  1.00  0.00     0.173 A 
ATOM     76  C   UNL A   1      35.688  30.490  28.670  1.00  0.00     0.173 A 
ATOM     77  F   UNL A   1      37.727  33.481  28.965  1.00  0.00    -0.203 F 
ATOM     78  C   UNL A   1      35.561  33.198  28.087  1.00  0.00     0.198 A 
ATOM     79  C   UNL A   1      34.552  31.022  28.064  1.00  0.00     0.198 A 
ATOM     80  F   UNL A   1      35.705  29.182  28.965  1.00  0.00    -0.203 F 
ATOM     81  F   UNL A   1      35.482  34.517  27.863  1.00  0.00    -0.200 F 
ATOM     82  C   UNL A   1      34.483  32.380  27.789  1.00  0.00     0.200 A 
ATOM     83  F   UNL A   1      33.516  30.226  27.771  1.00  0.00    -0.200 F 
ATOM     84  F   UNL A   1      33.370  32.902  27.254  1.00  0.00    -0.200 F 
ENDBRANCH  50  74
BRANCH  62  85
ATOM     85  C   UNL A   1      39.096  32.053  35.519  1.00  0.00     0.064 A 
ATOM     86  C   UNL A   1      38.260  31.540  36.522  1.00  0.00     0.173 A 
ATOM     87  C   UNL A   1      39.531  33.381  35.647  1.00  0.00     0.173 A 
ATOM     88  F   UNL A   1      37.805  30.279  36.444  1.00  0.00    -0.203 F 
ATOM     89  C   UNL A   1      37.852  32.334  37.591  1.00  0.00     0.198 A 
ATOM     90  C   UNL A   1      39.151  34.161  36.735  1.00  0.00     0.198 A 
ATOM     91  F   UNL A   1      40.341  33.920  34.722  1.00  0.00    -0.203 F 
ATOM     92  F   UNL A   1      37.010  31.839  38.509  1.00  0.00    -0.200 F 
ATOM     93  C   UNL A   1      38.304  33.640  37.701  1.00  0.00     0.200 A 
ATOM     94  F   UNL A   1      39.606  35.417  36.849  1.00  0.00    -0.200 F 
ATOM     95  F   UNL A   1      37.920  34.399  38.737  1.00  0.00    -0.200 F 
ENDBRANCH  62  85
ENDBRANCH  36  37
ENDBRANCH  29  31
ENDBRANCH  28  29
ENDBRANCH  27  28
ENDBRANCH  26  27
ENDBRANCH  25  26
ENDBRANCH   1  25
TORSDOF 19
ENDMDL
MODEL 2
REMARK VINA RESULT:     -11.3      0.950      1.631
REMARK SMILES COc1ccc2c(c1)C=C(C(=O)OCCOCCOCCOC(=O)c1ccc(-c3c4nc(c(-c5c(F)c(F)c(F)c(F)c5F)c5ccc([nH]5)c(-c5c(F)c(F)c(F)c(F)c5F)c5nc(c(-c6c(F)c(F)c(F)c(F)c6F)c6ccc3[nH]6)C=C5)C=C4)cc1)[C@H](C(F)(F)F)O2
REMARK SMILES IDX 18 1 17 2 16 3 15 4 14 5 13 6 11 7 12 8 10 9 3 10 4 11 8 12
REMARK SMILES IDX 5 13 7 14 6 15 9 16 93 17 88 18 2 19 1 20 89 21 90 22 91 23
REMARK SMILES IDX 92 24 19 25 20 26 21 27 22 28 23 29 24 30 25 31 26 32 87 33
REMARK SMILES IDX 27 34 86 35 28 36 29 37 30 38 80 39 31 40 85 41 79 42 81 43
REMARK SMILES IDX 32 44 84 45 78 46 77 47 33 49 65 50 45 51 64 52 46 53 49 54
REMARK SMILES IDX 63 55 82 56 47 57 48 58 62 60 83 61 50 62 34 63 35 64 43 65
REMARK SMILES IDX 36 66 37 67 41 68 44 69 38 70 39 71 42 72 40 73 66 74 67 75
REMARK SMILES IDX 75 76 68 77 69 78 73 79 76 80 70 81 71 82 74 83 72 84 51 85
REMARK SMILES IDX 52 86 60 87 53 88 54 89 58 90 61 91 55 92 56 93 59 94 57 95
REMARK H PARENT 81 48 49 59
REMARK Flexibility Score: inf
ROOT
ATOM      1  C   UNL A   1      40.780  21.547  27.568  1.00  0.00     0.188 C 
ENDROOT
BRANCH   1   2
ATOM      2  C   UNL A   1      39.829  22.089  26.480  1.00  0.00     0.188 C 
BRANCH   2   3
ATOM      3  O   UNL A   1      38.943  21.156  25.916  1.00  0.00    -0.376 OA
BRANCH   3   4
ATOM      4  C   UNL A   1      37.646  21.546  25.497  1.00  0.00     0.202 C 
BRANCH   4   5
ATOM      5  C   UNL A   1      37.202  22.978  25.132  1.00  0.00     0.261 C 
BRANCH   5   6
ATOM      6  O   UNL A   1      36.350  23.671  26.047  1.00  0.00    -0.460 OA
BRANCH   6   7
ATOM      7  C   UNL A   1      35.116  23.138  26.236  1.00  0.00     0.338 C 
ATOM      8  O   UNL A   1      34.818  22.281  27.046  1.00  0.00    -0.246 OA
BRANCH   7   9
ATOM      9  C   UNL A   1      34.123  23.850  25.408  1.00  0.00     0.087 C 
ATOM     10  C   UNL A   1      32.096  27.855  23.633  1.00  0.00     0.119 A 
ATOM     11  C   UNL A   1      31.560  27.104  22.586  1.00  0.00     0.050 A 
ATOM     12  C   UNL A   1      32.883  27.224  24.607  1.00  0.00     0.058 A 
ATOM     13  C   UNL A   1      31.795  25.729  22.519  1.00  0.00     0.051 A 
ATOM     14  C   UNL A   1      33.132  25.850  24.538  1.00  0.00     0.021 A 
ATOM     15  C   UNL A   1      32.565  25.107  23.497  1.00  0.00     0.128 A 
ATOM     16  C   UNL A   1      34.064  25.192  25.452  1.00  0.00     0.027 C 
ATOM     17  O   UNL A   1      32.795  23.767  23.339  1.00  0.00    -0.475 OA
ATOM     18  C   UNL A   1      33.149  23.062  24.558  1.00  0.00     0.316 C 
BRANCH  10  19
ATOM     19  O   UNL A   1      31.969  29.208  23.791  1.00  0.00    -0.497 OA
ATOM     20  C   UNL A   1      31.873  29.696  25.124  1.00  0.00     0.278 C 
ENDBRANCH  10  19
BRANCH  18  21
ATOM     21  C   UNL A   1      33.499  21.611  24.187  1.00  0.00     0.430 C 
ATOM     22  F   UNL A   1      33.021  20.737  25.106  1.00  0.00    -0.167 F 
ATOM     23  F   UNL A   1      32.893  21.270  23.018  1.00  0.00    -0.167 F 
ATOM     24  F   UNL A   1      34.818  21.398  24.027  1.00  0.00    -0.167 F 
ENDBRANCH  18  21
ENDBRANCH   7   9
ENDBRANCH   6   7
ENDBRANCH   5   6
ENDBRANCH   4   5
ENDBRANCH   3   4
ENDBRANCH   2   3
ENDBRANCH   1   2
BRANCH   1  25
ATOM     25  O   UNL A   1      41.926  20.800  27.207  1.00  0.00    -0.376 OA
BRANCH  25  26
ATOM     26  C   UNL A   1      42.389  20.838  25.865  1.00  0.00     0.202 C 
BRANCH  26  27
ATOM     27  C   UNL A   1      43.493  21.812  25.412  1.00  0.00     0.261 C 
BRANCH  27  28
ATOM     28  O   UNL A   1      43.060  23.026  24.778  1.00  0.00    -0.460 OA
BRANCH  28  29
ATOM     29  C   UNL A   1      43.851  24.109  24.986  1.00  0.00     0.338 C 
ATOM     30  O   UNL A   1      44.902  24.378  24.432  1.00  0.00    -0.246 OA
BRANCH  29  31
ATOM     31  C   UNL A   1      43.166  25.056  25.888  1.00  0.00     0.060 A 
ATOM     32  C   UNL A   1      43.633  26.377  25.956  1.00  0.00     0.016 A 
ATOM     33  C   UNL A   1      42.125  24.633  26.713  1.00  0.00     0.016 A 
ATOM     34  C   UNL A   1      43.069  27.276  26.862  1.00  0.00     0.010 A 
ATOM     35  C   UNL A   1      41.579  25.528  27.641  1.00  0.00     0.010 A 
ATOM     36  C   UNL A   1      42.067  26.845  27.738  1.00  0.00    -0.014 A 
BRANCH  36  37
ATOM     37  C   UNL A   1      41.642  27.717  28.863  1.00  0.00     0.031 A 
ATOM     38  C   UNL A   1      42.394  27.635  30.164  1.00  0.00     0.074 A 
ATOM     39  C   UNL A   1      40.610  28.570  28.733  1.00  0.00     0.049 A 
ATOM     40  N   UNL A   1      42.155  28.237  31.303  1.00  0.00    -0.248 NA
ATOM     41  C   UNL A   1      43.573  26.754  30.187  1.00  0.00     0.031 C 
ATOM     42  C   UNL A   1      39.829  28.775  27.515  1.00  0.00     0.029 A 
ATOM     43  N   UNL A   1      40.032  29.414  29.650  1.00  0.00    -0.354 N 
ATOM     44  C   UNL A   1      43.139  27.793  32.177  1.00  0.00     0.074 A 
ATOM     45  C   UNL A   1      43.971  26.862  31.446  1.00  0.00     0.031 C 
ATOM     46  C   UNL A   1      38.856  29.667  27.766  1.00  0.00     0.029 A 
ATOM     47  C   UNL A   1      38.921  30.067  29.171  1.00  0.00     0.049 A 
ATOM     48  H   UNL A   1      40.378  29.538  30.563  1.00  0.00     0.167 HD
ATOM     49  C   UNL A   1      43.329  28.133  33.473  1.00  0.00     0.037 A 
ATOM     50  C   UNL A   1      38.041  30.867  29.807  1.00  0.00     0.037 A 
ATOM     51  C   UNL A   1      42.513  29.074  34.195  1.00  0.00     0.049 A 
ATOM     52  C   UNL A   1      38.246  31.180  31.271  1.00  0.00     0.074 A 
ATOM     53  C   UNL A   1      42.661  29.519  35.497  1.00  0.00     0.029 A 
ATOM     54  N   UNL A   1      41.391  29.705  33.681  1.00  0.00    -0.354 N 
ATOM     55  N   UNL A   1      39.206  30.794  32.078  1.00  0.00    -0.248 NA
ATOM     56  C   UNL A   1      37.244  32.044  31.912  1.00  0.00     0.031 C 
ATOM     57  C   UNL A   1      41.590  30.367  35.794  1.00  0.00     0.029 A 
ATOM     58  C   UNL A   1      40.816  30.508  34.653  1.00  0.00     0.049 A 
ATOM     59  H   UNL A   1      41.054  29.600  32.762  1.00  0.00     0.167 HD
ATOM     60  C   UNL A   1      38.944  31.398  33.302  1.00  0.00     0.074 A 
ATOM     61  C   UNL A   1      37.745  32.189  33.130  1.00  0.00     0.031 C 
ATOM     62  C   UNL A   1      39.635  31.308  34.465  1.00  0.00     0.037 A 
BRANCH  49  63
ATOM     63  C   UNL A   1      44.448  27.471  34.223  1.00  0.00     0.064 A 
ATOM     64  C   UNL A   1      44.309  26.194  34.784  1.00  0.00     0.173 A 
ATOM     65  C   UNL A   1      45.705  28.090  34.297  1.00  0.00     0.173 A 
ATOM     66  F   UNL A   1      43.124  25.566  34.751  1.00  0.00    -0.203 F 
ATOM     67  C   UNL A   1      45.388  25.563  35.399  1.00  0.00     0.198 A 
ATOM     68  C   UNL A   1      46.788  27.445  34.886  1.00  0.00     0.198 A 
ATOM     69  F   UNL A   1      45.890  29.310  33.770  1.00  0.00    -0.203 F 
ATOM     70  F   UNL A   1      45.228  24.352  35.951  1.00  0.00    -0.200 F 
ATOM     71  C   UNL A   1      46.628  26.183  35.438  1.00  0.00     0.200 A 
ATOM     72  F   UNL A   1      47.989  28.039  34.908  1.00  0.00    -0.200 F 
ATOM     73  F   UNL A   1      47.672  25.563  36.008  1.00  0.00    -0.200 F 
ENDBRANCH  49  63
BRANCH  50  74
ATOM     74  C   UNL A   1      36.853  31.404  29.088  1.00  0.00     0.064 A 
ATOM     75  C   UNL A   1      36.748  32.766  28.772  1.00  0.00     0.173 A 
ATOM     76  C   UNL A   1      35.761  30.580  28.775  1.00  0.00     0.173 A 
ATOM     77  F   UNL A   1      37.749  33.605  29.079  1.00  0.00    -0.203 F 
ATOM     78  C   UNL A   1      35.584  33.289  28.210  1.00  0.00     0.198 A 
ATOM     79  C   UNL A   1      34.614  31.096  28.178  1.00  0.00     0.198 A 
ATOM     80  F   UNL A   1      35.804  29.270  29.062  1.00  0.00    -0.203 F 
ATOM     81  F   UNL A   1      35.481  34.608  27.995  1.00  0.00    -0.200 F 
ATOM     82  C   UNL A   1      34.519  32.453  27.911  1.00  0.00     0.200 A 
ATOM     83  F   UNL A   1      33.590  30.283  27.884  1.00  0.00    -0.200 F 
ATOM     84  F   UNL A   1      33.395  32.959  27.385  1.00  0.00    -0.200 F 
ENDBRANCH  50  74
BRANCH  62  85
ATOM     85  C   UNL A   1      39.151  32.125  35.630  1.00  0.00     0.064 A 
ATOM     86  C   UNL A   1      38.342  31.576  36.636  1.00  0.00     0.173 A 
ATOM     87  C   UNL A   1      39.543  33.465  35.765  1.00  0.00     0.173 A 
ATOM     88  F   UNL A   1      37.929  30.302  36.551  1.00  0.00    -0.203 F 
ATOM     89  C   UNL A   1      37.919  32.347  37.716  1.00  0.00     0.198 A 
ATOM     90  C   UNL A   1      39.148  34.223  36.864  1.00  0.00     0.198 A 
ATOM     91  F   UNL A   1      40.326  34.038  34.838  1.00  0.00    -0.203 F 
ATOM     92  F   UNL A   1      37.103  31.817  38.637  1.00  0.00    -0.200 F 
ATOM     93  C   UNL A   1      38.329  33.667  37.833  1.00  0.00     0.200 A 
ATOM     94  F   UNL A   1      39.563  35.492  36.985  1.00  0.00    -0.200 F 
ATOM     95  F   UNL A   1      37.930  34.403  38.879  1.00  0.00    -0.200 F 
ENDBRANCH  62  85
ENDBRANCH  36  37
ENDBRANCH  29  31
ENDBRANCH  28  29
ENDBRANCH  27  28
ENDBRANCH  26  27
ENDBRANCH  25  26
ENDBRANCH   1  25
TORSDOF 19
ENDMDL
MODEL 3
REMARK VINA RESULT:     -11.2      5.347      7.958
REMARK SMILES COc1ccc2c(c1)C=C(C(=O)OCCOCCOCCOC(=O)c1ccc(-c3c4nc(c(-c5c(F)c(F)c(F)c(F)c5F)c5ccc([nH]5)c(-c5c(F)c(F)c(F)c(F)c5F)c5nc(c(-c6c(F)c(F)c(F)c(F)c6F)c6ccc3[nH]6)C=C5)C=C4)cc1)[C@H](C(F)(F)F)O2
REMARK SMILES IDX 18 1 17 2 16 3 15 4 14 5 13 6 11 7 12 8 10 9 3 10 4 11 8 12
REMARK SMILES IDX 5 13 7 14 6 15 9 16 93 17 88 18 2 19 1 20 89 21 90 22 91 23
REMARK SMILES IDX 92 24 19 25 20 26 21 27 22 28 23 29 24 30 25 31 26 32 87 33
REMARK SMILES IDX 27 34 86 35 28 36 29 37 30 38 80 39 31 40 85 41 79 42 81 43
REMARK SMILES IDX 32 44 84 45 78 46 77 47 33 49 65 50 45 51 64 52 46 53 49 54
REMARK SMILES IDX 63 55 82 56 47 57 48 58 62 60 83 61 50 62 34 63 35 64 43 65
REMARK SMILES IDX 36 66 37 67 41 68 44 69 38 70 39 71 42 72 40 73 66 74 67 75
REMARK SMILES IDX 75 76 68 77 69 78 73 79 76 80 70 81 71 82 74 83 72 84 51 85
REMARK SMILES IDX 52 86 60 87 53 88 54 89 58 90 61 91 55 92 56 93 59 94 57 95
REMARK H PARENT 81 48 49 59
REMARK Flexibility Score: inf
ROOT
ATOM      1  C   UNL A   1      41.355  21.460  26.685  1.00  0.00     0.188 C 
ENDROOT
BRANCH   1   2
ATOM      2  C   UNL A   1      40.169  22.436  26.546  1.00  0.00     0.188 C 
BRANCH   2   3
ATOM      3  O   UNL A   1      38.894  21.849  26.469  1.00  0.00    -0.376 OA
BRANCH   3   4
ATOM      4  C   UNL A   1      37.939  22.306  25.527  1.00  0.00     0.202 C 
BRANCH   4   5
ATOM      5  C   UNL A   1      37.114  23.606  25.627  1.00  0.00     0.261 C 
BRANCH   5   6
ATOM      6  O   UNL A   1      35.811  23.622  25.041  1.00  0.00    -0.460 OA
BRANCH   6   7
ATOM      7  C   UNL A   1      34.833  22.989  25.739  1.00  0.00     0.338 C 
ATOM      8  O   UNL A   1      34.344  23.358  26.789  1.00  0.00    -0.246 OA
BRANCH   7   9
ATOM      9  C   UNL A   1      34.323  21.838  24.968  1.00  0.00     0.087 C 
ATOM     10  C   UNL A   1      33.987  17.116  24.022  1.00  0.00     0.119 A 
ATOM     11  C   UNL A   1      32.792  17.352  23.340  1.00  0.00     0.050 A 
ATOM     12  C   UNL A   1      34.672  18.190  24.610  1.00  0.00     0.058 A 
ATOM     13  C   UNL A   1      32.291  18.651  23.232  1.00  0.00     0.051 A 
ATOM     14  C   UNL A   1      34.169  19.491  24.516  1.00  0.00     0.021 A 
ATOM     15  C   UNL A   1      32.985  19.713  23.806  1.00  0.00     0.128 A 
ATOM     16  C   UNL A   1      34.780  20.604  25.239  1.00  0.00     0.027 C 
ATOM     17  O   UNL A   1      32.408  20.951  23.704  1.00  0.00    -0.475 OA
ATOM     18  C   UNL A   1      33.329  22.064  23.849  1.00  0.00     0.316 C 
BRANCH  10  19
ATOM     19  O   UNL A   1      34.561  15.892  24.227  1.00  0.00    -0.497 OA
ATOM     20  C   UNL A   1      35.505  15.790  25.286  1.00  0.00     0.278 C 
ENDBRANCH  10  19
BRANCH  18  21
ATOM     21  C   UNL A   1      32.509  23.366  23.840  1.00  0.00     0.430 C 
ATOM     22  F   UNL A   1      33.285  24.435  23.541  1.00  0.00    -0.167 F 
ATOM     23  F   UNL A   1      31.569  23.317  22.858  1.00  0.00    -0.167 F 
ATOM     24  F   UNL A   1      31.864  23.604  24.996  1.00  0.00    -0.167 F 
ENDBRANCH  18  21
ENDBRANCH   7   9
ENDBRANCH   6   7
ENDBRANCH   5   6
ENDBRANCH   4   5
ENDBRANCH   3   4
ENDBRANCH   2   3
ENDBRANCH   1   2
BRANCH   1  25
ATOM     25  O   UNL A   1      41.162  20.176  27.244  1.00  0.00    -0.376 OA
BRANCH  25  26
ATOM     26  C   UNL A   1      42.249  19.262  27.288  1.00  0.00     0.202 C 
BRANCH  26  27
ATOM     27  C   UNL A   1      42.726  18.505  26.034  1.00  0.00     0.261 C 
BRANCH  27  28
ATOM     28  O   UNL A   1      42.996  19.298  24.866  1.00  0.00    -0.460 OA
BRANCH  28  29
ATOM     29  C   UNL A   1      44.308  19.467  24.565  1.00  0.00     0.338 C 
ATOM     30  O   UNL A   1      45.053  18.673  24.019  1.00  0.00    -0.246 OA
BRANCH  29  31
ATOM     31  C   UNL A   1      44.703  20.863  24.839  1.00  0.00     0.060 A 
ATOM     32  C   UNL A   1      45.213  21.181  26.107  1.00  0.00     0.016 A 
ATOM     33  C   UNL A   1      44.504  21.863  23.888  1.00  0.00     0.016 A 
ATOM     34  C   UNL A   1      45.513  22.505  26.432  1.00  0.00     0.010 A 
ATOM     35  C   UNL A   1      44.778  23.193  24.225  1.00  0.00     0.010 A 
ATOM     36  C   UNL A   1      45.258  23.524  25.506  1.00  0.00    -0.014 A 
BRANCH  36  37
ATOM     37  C   UNL A   1      45.336  24.945  25.931  1.00  0.00     0.031 A 
ATOM     38  C   UNL A   1      46.669  25.642  25.879  1.00  0.00     0.074 A 
ATOM     39  C   UNL A   1      44.244  25.608  26.352  1.00  0.00     0.049 A 
ATOM     40  N   UNL A   1      46.993  26.848  26.273  1.00  0.00    -0.248 NA
ATOM     41  C   UNL A   1      47.788  24.876  25.307  1.00  0.00     0.031 C 
ATOM     42  C   UNL A   1      42.890  25.060  26.408  1.00  0.00     0.029 A 
ATOM     43  N   UNL A   1      44.109  26.889  26.829  1.00  0.00    -0.354 N 
ATOM     44  C   UNL A   1      48.352  26.976  26.015  1.00  0.00     0.074 A 
ATOM     45  C   UNL A   1      48.798  25.724  25.444  1.00  0.00     0.031 C 
ATOM     46  C   UNL A   1      42.065  25.991  26.919  1.00  0.00     0.029 A 
ATOM     47  C   UNL A   1      42.838  27.184  27.260  1.00  0.00     0.049 A 
ATOM     48  H   UNL A   1      44.853  27.534  26.862  1.00  0.00     0.167 HD
ATOM     49  C   UNL A   1      49.154  28.044  26.237  1.00  0.00     0.037 A 
ATOM     50  C   UNL A   1      42.365  28.280  27.888  1.00  0.00     0.037 A 
ATOM     51  C   UNL A   1      48.706  29.297  26.788  1.00  0.00     0.049 A 
ATOM     52  C   UNL A   1      43.298  29.431  28.176  1.00  0.00     0.074 A 
ATOM     53  C   UNL A   1      49.438  30.452  27.001  1.00  0.00     0.029 A 
ATOM     54  N   UNL A   1      47.416  29.553  27.222  1.00  0.00    -0.354 N 
ATOM     55  N   UNL A   1      44.571  29.563  27.886  1.00  0.00    -0.248 NA
ATOM     56  C   UNL A   1      42.727  30.591  28.878  1.00  0.00     0.031 C 
ATOM     57  C   UNL A   1      48.607  31.386  27.627  1.00  0.00     0.029 A 
ATOM     58  C   UNL A   1      47.340  30.838  27.736  1.00  0.00     0.049 A 
ATOM     59  H   UNL A   1      46.665  28.919  27.171  1.00  0.00     0.167 HD
ATOM     60  C   UNL A   1      44.937  30.828  28.332  1.00  0.00     0.074 A 
ATOM     61  C   UNL A   1      43.751  31.431  28.899  1.00  0.00     0.031 C 
ATOM     62  C   UNL A   1      46.148  31.436  28.278  1.00  0.00     0.037 A 
BRANCH  49  63
ATOM     63  C   UNL A   1      50.613  27.913  25.913  1.00  0.00     0.064 A 
ATOM     64  C   UNL A   1      51.569  27.637  26.900  1.00  0.00     0.173 A 
ATOM     65  C   UNL A   1      51.044  27.974  24.579  1.00  0.00     0.173 A 
ATOM     66  F   UNL A   1      51.211  27.582  28.192  1.00  0.00    -0.203 F 
ATOM     67  C   UNL A   1      52.905  27.433  26.564  1.00  0.00     0.198 A 
ATOM     68  C   UNL A   1      52.373  27.741  24.243  1.00  0.00     0.198 A 
ATOM     69  F   UNL A   1      50.166  28.230  23.596  1.00  0.00    -0.203 F 
ATOM     70  F   UNL A   1      53.808  27.195  27.526  1.00  0.00    -0.200 F 
ATOM     71  C   UNL A   1      53.304  27.472  25.236  1.00  0.00     0.200 A 
ATOM     72  F   UNL A   1      52.752  27.763  22.958  1.00  0.00    -0.200 F 
ATOM     73  F   UNL A   1      54.585  27.250  24.912  1.00  0.00    -0.200 F 
ENDBRANCH  49  63
BRANCH  50  74
ATOM     74  C   UNL A   1      40.945  28.341  28.333  1.00  0.00     0.064 A 
ATOM     75  C   UNL A   1      39.952  28.915  27.527  1.00  0.00     0.173 A 
ATOM     76  C   UNL A   1      40.567  27.898  29.610  1.00  0.00     0.173 A 
ATOM     77  F   UNL A   1      40.266  29.383  26.309  1.00  0.00    -0.203 F 
ATOM     78  C   UNL A   1      38.650  29.082  27.994  1.00  0.00     0.198 A 
ATOM     79  C   UNL A   1      39.256  28.030  30.062  1.00  0.00     0.198 A 
ATOM     80  F   UNL A   1      41.477  27.347  30.428  1.00  0.00    -0.203 F 
ATOM     81  F   UNL A   1      37.742  29.709  27.232  1.00  0.00    -0.200 F 
ATOM     82  C   UNL A   1      38.302  28.638  29.260  1.00  0.00     0.200 A 
ATOM     83  F   UNL A   1      38.923  27.592  31.284  1.00  0.00    -0.200 F 
ATOM     84  F   UNL A   1      37.053  28.812  29.715  1.00  0.00    -0.200 F 
ENDBRANCH  50  74
BRANCH  62  85
ATOM     85  C   UNL A   1      46.245  32.846  28.790  1.00  0.00     0.064 A 
ATOM     86  C   UNL A   1      46.652  33.132  30.102  1.00  0.00     0.173 A 
ATOM     87  C   UNL A   1      45.971  33.928  27.939  1.00  0.00     0.173 A 
ATOM     88  F   UNL A   1      46.916  32.135  30.961  1.00  0.00    -0.203 F 
ATOM     89  C   UNL A   1      46.751  34.447  30.550  1.00  0.00     0.198 A 
ATOM     90  C   UNL A   1      46.106  35.242  28.380  1.00  0.00     0.198 A 
ATOM     91  F   UNL A   1      45.588  33.712  26.671  1.00  0.00    -0.203 F 
ATOM     92  F   UNL A   1      47.090  34.696  31.823  1.00  0.00    -0.200 F 
ATOM     93  C   UNL A   1      46.486  35.500  29.688  1.00  0.00     0.200 A 
ATOM     94  F   UNL A   1      45.869  36.257  27.537  1.00  0.00    -0.200 F 
ATOM     95  F   UNL A   1      46.593  36.765  30.118  1.00  0.00    -0.200 F 
ENDBRANCH  62  85
ENDBRANCH  36  37
ENDBRANCH  29  31
ENDBRANCH  28  29
ENDBRANCH  27  28
ENDBRANCH  26  27
ENDBRANCH  25  26
ENDBRANCH   1  25
TORSDOF 19
ENDMDL
