MODEL 1
REMARK VINA RESULT:     -10.0      0.000      0.000
REMARK SMILES COCC[C@@H](C)NC(=O)N[C@@H]1C=C[C@@H](C(=O)OCCOCCOCCOC(=O)c2ccc(-c3c4nc(c(-c5c(F)c(F)c(F)c(F)c5F)c5ccc([nH]5)c(-c5c(F)c(F)c(F)c(F)c5F)c5nc(c(-c6c(F)c(F)c(F)c(F)c6F)c6ccc3[nH]6)C=C5)C=C4)cc2)C1
REMARK SMILES IDX 20 1 19 2 18 3 17 4 15 5 16 6 14 7 11 8 12 9 92 10 13 11
REMARK SMILES IDX 10 12 7 13 8 14 9 16 5 18 6 19 4 20 3 21 2 22 1 23 21 24
REMARK SMILES IDX 22 25 23 26 24 27 25 28 26 29 27 30 28 31 29 32 30 33 91 34
REMARK SMILES IDX 31 35 90 36 32 37 33 38 34 39 84 40 35 41 89 42 83 43 85 44
REMARK SMILES IDX 36 45 88 46 82 47 81 48 37 50 69 51 49 52 68 53 50 54 53 55
REMARK SMILES IDX 67 56 86 57 51 58 52 59 66 61 87 62 54 63 38 64 39 65 47 66
REMARK SMILES IDX 40 67 41 68 45 69 48 70 42 71 43 72 46 73 44 74 70 75 71 76
REMARK SMILES IDX 79 77 72 78 73 79 77 80 80 81 74 82 75 83 78 84 76 85 55 86
REMARK SMILES IDX 56 87 64 88 57 89 58 90 62 91 65 92 59 93 60 94 63 95 61 96
REMARK H PARENT 7 15 10 17 85 49 53 60
REMARK Flexibility Score: inf
ROOT
ATOM      1  O   UNL A   1      33.275  28.313  26.081  1.00  0.00    -0.376 OA
ENDROOT
BRANCH   1   2
ATOM      2  C   UNL A   1      33.585  28.204  24.696  1.00  0.00     0.202 C 
BRANCH   2   3
ATOM      3  C   UNL A   1      32.575  28.832  23.722  1.00  0.00     0.261 C 
BRANCH   3   4
ATOM      4  O   UNL A   1      32.058  27.905  22.752  1.00  0.00    -0.463 OA
BRANCH   4   5
ATOM      5  C   UNL A   1      30.702  27.801  22.645  1.00  0.00     0.312 C 
ATOM      6  O   UNL A   1      29.996  28.572  22.002  1.00  0.00    -0.252 OA
BRANCH   5   7
ATOM      7  C   UNL A   1      30.149  26.542  23.329  1.00  0.00     0.124 C 
ATOM      8  C   UNL A   1      31.383  24.875  24.705  1.00  0.00     0.107 C 
ATOM      9  C   UNL A   1      30.523  25.766  25.532  1.00  0.00    -0.006 C 
ATOM     10  C   UNL A   1      31.029  25.292  23.270  1.00  0.00     0.048 C 
ATOM     11  C   UNL A   1      29.911  26.706  24.800  1.00  0.00    -0.014 C 
BRANCH   8  12
ATOM     12  N   UNL A   1      31.120  23.479  24.958  1.00  0.00    -0.332 N 
ATOM     13  N   UNL A   1      33.262  22.447  24.877  1.00  0.00    -0.336 N 
ATOM     14  C   UNL A   1      31.929  22.409  25.081  1.00  0.00     0.315 C 
ATOM     15  H   UNL A   1      33.741  21.659  25.220  1.00  0.00     0.165 HD
ATOM     16  O   UNL A   1      31.423  21.328  25.389  1.00  0.00    -0.249 OA
ATOM     17  H   UNL A   1      30.164  23.267  25.062  1.00  0.00     0.165 HD
BRANCH  13  18
ATOM     18  C   UNL A   1      34.122  23.434  24.243  1.00  0.00     0.083 C 
ATOM     19  C   UNL A   1      34.076  23.234  22.736  1.00  0.00     0.031 C 
BRANCH  18  20
ATOM     20  C   UNL A   1      35.561  23.434  24.769  1.00  0.00     0.053 C 
BRANCH  20  21
ATOM     21  C   UNL A   1      36.547  22.827  23.756  1.00  0.00     0.162 C 
BRANCH  21  22
ATOM     22  O   UNL A   1      37.307  21.749  24.304  1.00  0.00    -0.385 OA
ATOM     23  C   UNL A   1      36.558  20.763  25.000  1.00  0.00     0.194 C 
ENDBRANCH  21  22
ENDBRANCH  20  21
ENDBRANCH  18  20
ENDBRANCH  13  18
ENDBRANCH   8  12
ENDBRANCH   5   7
ENDBRANCH   4   5
ENDBRANCH   3   4
ENDBRANCH   2   3
ENDBRANCH   1   2
BRANCH   1  24
ATOM     24  C   UNL A   1      34.150  29.128  26.856  1.00  0.00     0.188 C 
BRANCH  24  25
ATOM     25  C   UNL A   1      33.635  30.520  27.244  1.00  0.00     0.188 C 
BRANCH  25  26
ATOM     26  O   UNL A   1      32.291  30.770  26.854  1.00  0.00    -0.376 OA
BRANCH  26  27
ATOM     27  C   UNL A   1      31.813  32.118  26.898  1.00  0.00     0.202 C 
BRANCH  27  28
ATOM     28  C   UNL A   1      32.738  33.300  27.251  1.00  0.00     0.261 C 
BRANCH  28  29
ATOM     29  O   UNL A   1      32.152  34.321  28.074  1.00  0.00    -0.460 OA
BRANCH  29  30
ATOM     30  C   UNL A   1      32.976  35.201  28.691  1.00  0.00     0.338 C 
ATOM     31  O   UNL A   1      32.780  36.391  28.860  1.00  0.00    -0.246 OA
BRANCH  30  32
ATOM     32  C   UNL A   1      34.047  34.401  29.338  1.00  0.00     0.060 A 
ATOM     33  C   UNL A   1      35.353  34.467  28.831  1.00  0.00     0.016 A 
ATOM     34  C   UNL A   1      33.793  33.684  30.511  1.00  0.00     0.016 A 
ATOM     35  C   UNL A   1      36.405  33.834  29.502  1.00  0.00     0.010 A 
ATOM     36  C   UNL A   1      34.839  33.033  31.168  1.00  0.00     0.010 A 
ATOM     37  C   UNL A   1      36.151  33.096  30.665  1.00  0.00    -0.014 A 
BRANCH  37  38
ATOM     38  C   UNL A   1      37.204  32.251  31.280  1.00  0.00     0.031 A 
ATOM     39  C   UNL A   1      37.720  32.633  32.638  1.00  0.00     0.074 A 
ATOM     40  C   UNL A   1      37.721  31.187  30.639  1.00  0.00     0.049 A 
ATOM     41  N   UNL A   1      38.734  32.154  33.310  1.00  0.00    -0.248 NA
ATOM     42  C   UNL A   1      36.992  33.710  33.325  1.00  0.00     0.031 C 
ATOM     43  C   UNL A   1      37.275  30.675  29.347  1.00  0.00     0.029 A 
ATOM     44  N   UNL A   1      38.760  30.357  30.991  1.00  0.00    -0.354 N 
ATOM     45  C   UNL A   1      38.774  32.879  34.494  1.00  0.00     0.074 A 
ATOM     46  C   UNL A   1      37.696  33.844  34.439  1.00  0.00     0.031 C 
ATOM     47  C   UNL A   1      38.049  29.630  29.002  1.00  0.00     0.029 A 
ATOM     48  C   UNL A   1      39.075  29.432  30.026  1.00  0.00     0.049 A 
ATOM     49  H   UNL A   1      39.232  30.419  31.852  1.00  0.00     0.167 HD
ATOM     50  C   UNL A   1      39.630  32.751  35.533  1.00  0.00     0.037 A 
ATOM     51  C   UNL A   1      40.098  28.555  29.961  1.00  0.00     0.037 A 
ATOM     52  C   UNL A   1      40.703  31.793  35.587  1.00  0.00     0.049 A 
ATOM     53  C   UNL A   1      41.102  28.500  31.087  1.00  0.00     0.074 A 
ATOM     54  C   UNL A   1      41.613  31.574  36.606  1.00  0.00     0.029 A 
ATOM     55  N   UNL A   1      41.015  30.900  34.572  1.00  0.00    -0.354 N 
ATOM     56  N   UNL A   1      41.131  29.179  32.208  1.00  0.00    -0.248 NA
ATOM     57  C   UNL A   1      42.225  27.562  30.931  1.00  0.00     0.031 C 
ATOM     58  C   UNL A   1      42.513  30.590  36.183  1.00  0.00     0.029 A 
ATOM     59  C   UNL A   1      42.128  30.154  34.926  1.00  0.00     0.049 A 
ATOM     60  H   UNL A   1      40.519  30.811  33.726  1.00  0.00     0.167 HD
ATOM     61  C   UNL A   1      42.254  28.737  32.897  1.00  0.00     0.074 A 
ATOM     62  C   UNL A   1      42.872  27.717  32.077  1.00  0.00     0.031 C 
ATOM     63  C   UNL A   1      42.733  29.140  34.100  1.00  0.00     0.037 A 
BRANCH  50  64
ATOM     64  C   UNL A   1      39.466  33.697  36.685  1.00  0.00     0.064 A 
ATOM     65  C   UNL A   1      40.025  34.984  36.670  1.00  0.00     0.173 A 
ATOM     66  C   UNL A   1      38.714  33.320  37.808  1.00  0.00     0.173 A 
ATOM     67  F   UNL A   1      40.768  35.386  35.629  1.00  0.00    -0.203 F 
ATOM     68  C   UNL A   1      39.857  35.849  37.749  1.00  0.00     0.198 A 
ATOM     69  C   UNL A   1      38.523  34.199  38.871  1.00  0.00     0.198 A 
ATOM     70  F   UNL A   1      38.158  32.101  37.872  1.00  0.00    -0.203 F 
ATOM     71  F   UNL A   1      40.440  37.056  37.735  1.00  0.00    -0.200 F 
ATOM     72  C   UNL A   1      39.100  35.459  38.844  1.00  0.00     0.200 A 
ATOM     73  F   UNL A   1      37.781  33.824  39.922  1.00  0.00    -0.200 F 
ATOM     74  F   UNL A   1      38.933  36.295  39.876  1.00  0.00    -0.200 F 
ENDBRANCH  50  64
BRANCH  51  75
ATOM     75  C   UNL A   1      40.259  27.679  28.768  1.00  0.00     0.064 A 
ATOM     76  C   UNL A   1      40.991  28.104  27.651  1.00  0.00     0.173 A 
ATOM     77  C   UNL A   1      39.649  26.416  28.704  1.00  0.00     0.173 A 
ATOM     78  F   UNL A   1      41.563  29.318  27.648  1.00  0.00    -0.203 F 
ATOM     79  C   UNL A   1      41.092  27.310  26.510  1.00  0.00     0.198 A 
ATOM     80  C   UNL A   1      39.777  25.610  27.574  1.00  0.00     0.198 A 
ATOM     81  F   UNL A   1      38.927  25.965  29.740  1.00  0.00    -0.203 F 
ATOM     82  F   UNL A   1      41.751  27.766  25.436  1.00  0.00    -0.200 F 
ATOM     83  C   UNL A   1      40.491  26.061  26.475  1.00  0.00     0.200 A 
ATOM     84  F   UNL A   1      39.199  24.401  27.548  1.00  0.00    -0.200 F 
ATOM     85  F   UNL A   1      40.588  25.298  25.377  1.00  0.00    -0.200 F 
ENDBRANCH  51  75
BRANCH  63  86
ATOM     86  C   UNL A   1      43.972  28.467  34.618  1.00  0.00     0.064 A 
ATOM     87  C   UNL A   1      45.248  29.005  34.400  1.00  0.00     0.173 A 
ATOM     88  C   UNL A   1      43.878  27.298  35.390  1.00  0.00     0.173 A 
ATOM     89  F   UNL A   1      45.395  30.114  33.658  1.00  0.00    -0.203 F 
ATOM     90  C   UNL A   1      46.385  28.387  34.915  1.00  0.00     0.198 A 
ATOM     91  C   UNL A   1      45.014  26.700  35.930  1.00  0.00     0.198 A 
ATOM     92  F   UNL A   1      42.680  26.745  35.637  1.00  0.00    -0.203 F 
ATOM     93  F   UNL A   1      47.598  28.897  34.657  1.00  0.00    -0.200 F 
ATOM     94  C   UNL A   1      46.266  27.240  35.687  1.00  0.00     0.200 A 
ATOM     95  F   UNL A   1      44.895  25.601  36.689  1.00  0.00    -0.200 F 
ATOM     96  F   UNL A   1      47.361  26.655  36.192  1.00  0.00    -0.200 F 
ENDBRANCH  63  86
ENDBRANCH  37  38
ENDBRANCH  30  32
ENDBRANCH  29  30
ENDBRANCH  28  29
ENDBRANCH  27  28
ENDBRANCH  26  27
ENDBRANCH  25  26
ENDBRANCH  24  25
ENDBRANCH   1  24
TORSDOF 22
ENDMDL
MODEL 2
REMARK VINA RESULT:      -9.9      1.155      2.204
REMARK SMILES COCC[C@@H](C)NC(=O)N[C@@H]1C=C[C@@H](C(=O)OCCOCCOCCOC(=O)c2ccc(-c3c4nc(c(-c5c(F)c(F)c(F)c(F)c5F)c5ccc([nH]5)c(-c5c(F)c(F)c(F)c(F)c5F)c5nc(c(-c6c(F)c(F)c(F)c(F)c6F)c6ccc3[nH]6)C=C5)C=C4)cc2)C1
REMARK SMILES IDX 20 1 19 2 18 3 17 4 15 5 16 6 14 7 11 8 12 9 92 10 13 11
REMARK SMILES IDX 10 12 7 13 8 14 9 16 5 18 6 19 4 20 3 21 2 22 1 23 21 24
REMARK SMILES IDX 22 25 23 26 24 27 25 28 26 29 27 30 28 31 29 32 30 33 91 34
REMARK SMILES IDX 31 35 90 36 32 37 33 38 34 39 84 40 35 41 89 42 83 43 85 44
REMARK SMILES IDX 36 45 88 46 82 47 81 48 37 50 69 51 49 52 68 53 50 54 53 55
REMARK SMILES IDX 67 56 86 57 51 58 52 59 66 61 87 62 54 63 38 64 39 65 47 66
REMARK SMILES IDX 40 67 41 68 45 69 48 70 42 71 43 72 46 73 44 74 70 75 71 76
REMARK SMILES IDX 79 77 72 78 73 79 77 80 80 81 74 82 75 83 78 84 76 85 55 86
REMARK SMILES IDX 56 87 64 88 57 89 58 90 62 91 65 92 59 93 60 94 63 95 61 96
REMARK H PARENT 7 15 10 17 85 49 53 60
REMARK Flexibility Score: inf
ROOT
ATOM      1  O   UNL A   1      33.576  28.579  26.610  1.00  0.00    -0.376 OA
ENDROOT
BRANCH   1   2
ATOM      2  C   UNL A   1      33.699  28.440  25.198  1.00  0.00     0.202 C 
BRANCH   2   3
ATOM      3  C   UNL A   1      32.391  28.233  24.419  1.00  0.00     0.261 C 
BRANCH   3   4
ATOM      4  O   UNL A   1      32.568  27.546  23.168  1.00  0.00    -0.463 OA
BRANCH   4   5
ATOM      5  C   UNL A   1      32.241  26.222  23.129  1.00  0.00     0.312 C 
ATOM      6  O   UNL A   1      31.096  25.788  23.206  1.00  0.00    -0.252 OA
BRANCH   5   7
ATOM      7  C   UNL A   1      33.456  25.319  22.865  1.00  0.00     0.124 C 
ATOM      8  C   UNL A   1      34.182  23.311  24.142  1.00  0.00     0.107 C 
ATOM      9  C   UNL A   1      33.568  22.957  22.832  1.00  0.00    -0.006 C 
ATOM     10  C   UNL A   1      34.232  24.844  24.095  1.00  0.00     0.048 C 
ATOM     11  C   UNL A   1      33.117  24.033  22.175  1.00  0.00    -0.014 C 
BRANCH   8  12
ATOM     12  N   UNL A   1      35.487  22.718  24.308  1.00  0.00    -0.332 N 
ATOM     13  N   UNL A   1      35.048  20.549  25.180  1.00  0.00    -0.336 N 
ATOM     14  C   UNL A   1      35.887  21.499  24.719  1.00  0.00     0.315 C 
ATOM     15  H   UNL A   1      35.448  19.650  25.225  1.00  0.00     0.165 HD
ATOM     16  O   UNL A   1      37.090  21.236  24.679  1.00  0.00    -0.249 OA
ATOM     17  H   UNL A   1      36.230  23.322  24.076  1.00  0.00     0.165 HD
BRANCH  13  18
ATOM     18  C   UNL A   1      33.665  20.605  25.627  1.00  0.00     0.083 C 
ATOM     19  C   UNL A   1      33.625  21.169  27.039  1.00  0.00     0.031 C 
BRANCH  18  20
ATOM     20  C   UNL A   1      32.926  19.266  25.532  1.00  0.00     0.053 C 
BRANCH  20  21
ATOM     21  C   UNL A   1      32.764  18.797  24.076  1.00  0.00     0.162 C 
BRANCH  21  22
ATOM     22  O   UNL A   1      32.867  17.380  23.938  1.00  0.00    -0.385 OA
ATOM     23  C   UNL A   1      33.990  16.915  23.204  1.00  0.00     0.194 C 
ENDBRANCH  21  22
ENDBRANCH  20  21
ENDBRANCH  18  20
ENDBRANCH  13  18
ENDBRANCH   8  12
ENDBRANCH   5   7
ENDBRANCH   4   5
ENDBRANCH   3   4
ENDBRANCH   2   3
ENDBRANCH   1   2
BRANCH   1  24
ATOM     24  C   UNL A   1      34.414  29.558  27.218  1.00  0.00     0.188 C 
BRANCH  24  25
ATOM     25  C   UNL A   1      33.766  30.907  27.556  1.00  0.00     0.188 C 
BRANCH  25  26
ATOM     26  O   UNL A   1      32.404  31.010  27.162  1.00  0.00    -0.376 OA
BRANCH  26  27
ATOM     27  C   UNL A   1      31.823  32.315  27.068  1.00  0.00     0.202 C 
BRANCH  27  28
ATOM     28  C   UNL A   1      32.668  33.595  27.216  1.00  0.00     0.261 C 
BRANCH  28  29
ATOM     29  O   UNL A   1      32.212  34.527  28.210  1.00  0.00    -0.460 OA
BRANCH  29  30
ATOM     30  C   UNL A   1      33.109  35.393  28.739  1.00  0.00     0.338 C 
ATOM     31  O   UNL A   1      32.977  36.597  28.866  1.00  0.00    -0.246 OA
BRANCH  30  32
ATOM     32  C   UNL A   1      34.180  34.571  29.361  1.00  0.00     0.060 A 
ATOM     33  C   UNL A   1      35.471  34.601  28.814  1.00  0.00     0.016 A 
ATOM     34  C   UNL A   1      33.944  33.870  30.547  1.00  0.00     0.016 A 
ATOM     35  C   UNL A   1      36.527  33.947  29.457  1.00  0.00     0.010 A 
ATOM     36  C   UNL A   1      34.994  33.198  31.177  1.00  0.00     0.010 A 
ATOM     37  C   UNL A   1      36.290  33.225  30.634  1.00  0.00    -0.014 A 
BRANCH  37  38
ATOM     38  C   UNL A   1      37.341  32.358  31.223  1.00  0.00     0.031 A 
ATOM     39  C   UNL A   1      37.856  32.697  32.593  1.00  0.00     0.074 A 
ATOM     40  C   UNL A   1      37.857  31.314  30.550  1.00  0.00     0.049 A 
ATOM     41  N   UNL A   1      38.868  32.195  33.252  1.00  0.00    -0.248 NA
ATOM     42  C   UNL A   1      37.128  33.753  33.313  1.00  0.00     0.031 C 
ATOM     43  C   UNL A   1      37.411  30.844  29.242  1.00  0.00     0.029 A 
ATOM     44  N   UNL A   1      38.893  30.471  30.877  1.00  0.00    -0.354 N 
ATOM     45  C   UNL A   1      38.907  32.882  34.458  1.00  0.00     0.074 A 
ATOM     46  C   UNL A   1      37.831  33.851  34.432  1.00  0.00     0.031 C 
ATOM     47  C   UNL A   1      38.183  29.809  28.865  1.00  0.00     0.029 A 
ATOM     48  C   UNL A   1      39.207  29.576  29.884  1.00  0.00     0.049 A 
ATOM     49  H   UNL A   1      39.364  30.505  31.741  1.00  0.00     0.167 HD
ATOM     50  C   UNL A   1      39.762  32.719  35.494  1.00  0.00     0.037 A 
ATOM     51  C   UNL A   1      40.229  28.699  29.794  1.00  0.00     0.037 A 
ATOM     52  C   UNL A   1      40.832  31.758  35.520  1.00  0.00     0.049 A 
ATOM     53  C   UNL A   1      41.231  28.607  30.919  1.00  0.00     0.074 A 
ATOM     54  C   UNL A   1      41.740  31.506  36.532  1.00  0.00     0.029 A 
ATOM     55  N   UNL A   1      41.144  30.897  34.477  1.00  0.00    -0.354 N 
ATOM     56  N   UNL A   1      41.260  29.251  32.060  1.00  0.00    -0.248 NA
ATOM     57  C   UNL A   1      42.352  27.672  30.735  1.00  0.00     0.031 C 
ATOM     58  C   UNL A   1      42.638  30.533  36.080  1.00  0.00     0.029 A 
ATOM     59  C   UNL A   1      42.254  30.138  34.809  1.00  0.00     0.049 A 
ATOM     60  H   UNL A   1      40.649  30.835  33.628  1.00  0.00     0.167 HD
ATOM     61  C   UNL A   1      42.381  28.784  32.737  1.00  0.00     0.074 A 
ATOM     62  C   UNL A   1      42.998  27.789  31.887  1.00  0.00     0.031 C 
ATOM     63  C   UNL A   1      42.858  29.149  33.953  1.00  0.00     0.037 A 
BRANCH  50  64
ATOM     64  C   UNL A   1      39.598  33.630  36.675  1.00  0.00     0.064 A 
ATOM     65  C   UNL A   1      40.205  34.893  36.724  1.00  0.00     0.173 A 
ATOM     66  C   UNL A   1      38.798  33.242  37.761  1.00  0.00     0.173 A 
ATOM     67  F   UNL A   1      40.994  35.303  35.720  1.00  0.00    -0.203 F 
ATOM     68  C   UNL A   1      40.036  35.725  37.828  1.00  0.00     0.198 A 
ATOM     69  C   UNL A   1      38.607  34.089  38.849  1.00  0.00     0.198 A 
ATOM     70  F   UNL A   1      38.195  32.043  37.762  1.00  0.00    -0.203 F 
ATOM     71  F   UNL A   1      40.664  36.908  37.876  1.00  0.00    -0.200 F 
ATOM     72  C   UNL A   1      39.231  35.326  38.885  1.00  0.00     0.200 A 
ATOM     73  F   UNL A   1      37.819  33.705  39.864  1.00  0.00    -0.200 F 
ATOM     74  F   UNL A   1      39.064  36.130  39.943  1.00  0.00    -0.200 F 
ENDBRANCH  50  64
BRANCH  51  75
ATOM     75  C   UNL A   1      40.390  27.861  28.574  1.00  0.00     0.064 A 
ATOM     76  C   UNL A   1      39.825  26.580  28.496  1.00  0.00     0.173 A 
ATOM     77  C   UNL A   1      41.147  28.306  27.480  1.00  0.00     0.173 A 
ATOM     78  F   UNL A   1      39.123  26.094  29.531  1.00  0.00    -0.203 F 
ATOM     79  C   UNL A   1      40.027  25.770  27.379  1.00  0.00     0.198 A 
ATOM     80  C   UNL A   1      41.321  27.507  26.351  1.00  0.00     0.198 A 
ATOM     81  F   UNL A   1      41.720  29.517  27.506  1.00  0.00    -0.203 F 
ATOM     82  F   UNL A   1      39.521  24.529  27.356  1.00  0.00    -0.200 F 
ATOM     83  C   UNL A   1      40.768  26.237  26.305  1.00  0.00     0.200 A 
ATOM     84  F   UNL A   1      42.034  27.965  25.312  1.00  0.00    -0.200 F 
ATOM     85  F   UNL A   1      40.962  25.457  25.232  1.00  0.00    -0.200 F 
ENDBRANCH  51  75
BRANCH  63  86
ATOM     86  C   UNL A   1      44.096  28.457  34.452  1.00  0.00     0.064 A 
ATOM     87  C   UNL A   1      45.372  29.004  34.262  1.00  0.00     0.173 A 
ATOM     88  C   UNL A   1      43.998  27.259  35.177  1.00  0.00     0.173 A 
ATOM     89  F   UNL A   1      45.522  30.141  33.564  1.00  0.00    -0.203 F 
ATOM     90  C   UNL A   1      46.507  28.367  34.759  1.00  0.00     0.198 A 
ATOM     91  C   UNL A   1      45.132  26.641  35.699  1.00  0.00     0.198 A 
ATOM     92  F   UNL A   1      42.800  26.696  35.395  1.00  0.00    -0.203 F 
ATOM     93  F   UNL A   1      47.721  28.888  34.527  1.00  0.00    -0.200 F 
ATOM     94  C   UNL A   1      46.385  27.192  35.485  1.00  0.00     0.200 A 
ATOM     95  F   UNL A   1      45.009  25.514  36.415  1.00  0.00    -0.200 F 
ATOM     96  F   UNL A   1      47.477  26.588  35.973  1.00  0.00    -0.200 F 
ENDBRANCH  63  86
ENDBRANCH  37  38
ENDBRANCH  30  32
ENDBRANCH  29  30
ENDBRANCH  28  29
ENDBRANCH  27  28
ENDBRANCH  26  27
ENDBRANCH  25  26
ENDBRANCH  24  25
ENDBRANCH   1  24
TORSDOF 22
ENDMDL
MODEL 3
REMARK VINA RESULT:      -9.8      5.380      9.970
REMARK SMILES COCC[C@@H](C)NC(=O)N[C@@H]1C=C[C@@H](C(=O)OCCOCCOCCOC(=O)c2ccc(-c3c4nc(c(-c5c(F)c(F)c(F)c(F)c5F)c5ccc([nH]5)c(-c5c(F)c(F)c(F)c(F)c5F)c5nc(c(-c6c(F)c(F)c(F)c(F)c6F)c6ccc3[nH]6)C=C5)C=C4)cc2)C1
REMARK SMILES IDX 20 1 19 2 18 3 17 4 15 5 16 6 14 7 11 8 12 9 92 10 13 11
REMARK SMILES IDX 10 12 7 13 8 14 9 16 5 18 6 19 4 20 3 21 2 22 1 23 21 24
REMARK SMILES IDX 22 25 23 26 24 27 25 28 26 29 27 30 28 31 29 32 30 33 91 34
REMARK SMILES IDX 31 35 90 36 32 37 33 38 34 39 84 40 35 41 89 42 83 43 85 44
REMARK SMILES IDX 36 45 88 46 82 47 81 48 37 50 69 51 49 52 68 53 50 54 53 55
REMARK SMILES IDX 67 56 86 57 51 58 52 59 66 61 87 62 54 63 38 64 39 65 47 66
REMARK SMILES IDX 40 67 41 68 45 69 48 70 42 71 43 72 46 73 44 74 70 75 71 76
REMARK SMILES IDX 79 77 72 78 73 79 77 80 80 81 74 82 75 83 78 84 76 85 55 86
REMARK SMILES IDX 56 87 64 88 57 89 58 90 62 91 65 92 59 93 60 94 63 95 61 96
REMARK H PARENT 7 15 10 17 85 49 53 60
REMARK Flexibility Score: inf
ROOT
ATOM      1  O   UNL A   1      36.546  23.160  25.426  1.00  0.00    -0.376 OA
ENDROOT
BRANCH   1   2
ATOM      2  C   UNL A   1      35.325  23.884  25.544  1.00  0.00     0.202 C 
BRANCH   2   3
ATOM      3  C   UNL A   1      34.291  23.318  26.531  1.00  0.00     0.261 C 
BRANCH   3   4
ATOM      4  O   UNL A   1      33.046  22.951  25.913  1.00  0.00    -0.463 OA
BRANCH   4   5
ATOM      5  C   UNL A   1      31.906  23.144  26.637  1.00  0.00     0.312 C 
ATOM      6  O   UNL A   1      31.832  23.033  27.856  1.00  0.00    -0.252 OA
BRANCH   5   7
ATOM      7  C   UNL A   1      30.732  23.629  25.773  1.00  0.00     0.124 C 
ATOM      8  C   UNL A   1      30.613  25.665  24.347  1.00  0.00     0.107 C 
ATOM      9  C   UNL A   1      30.758  24.419  23.544  1.00  0.00    -0.006 C 
ATOM     10  C   UNL A   1      30.457  25.134  25.779  1.00  0.00     0.048 C 
ATOM     11  C   UNL A   1      30.890  23.331  24.312  1.00  0.00    -0.014 C 
BRANCH   8  12
ATOM     12  N   UNL A   1      29.484  26.456  23.922  1.00  0.00    -0.332 N 
ATOM     13  N   UNL A   1      30.394  28.614  23.502  1.00  0.00    -0.336 N 
ATOM     14  C   UNL A   1      29.372  27.733  23.507  1.00  0.00     0.315 C 
ATOM     15  H   UNL A   1      30.221  29.423  22.968  1.00  0.00     0.165 HD
ATOM     16  O   UNL A   1      28.271  28.125  23.117  1.00  0.00    -0.249 OA
ATOM     17  H   UNL A   1      28.628  25.969  23.938  1.00  0.00     0.165 HD
BRANCH  13  18
ATOM     18  C   UNL A   1      31.701  28.592  24.140  1.00  0.00     0.083 C 
ATOM     19  C   UNL A   1      31.738  29.656  25.225  1.00  0.00     0.031 C 
BRANCH  18  20
ATOM     20  C   UNL A   1      32.872  28.741  23.162  1.00  0.00     0.053 C 
BRANCH  20  21
ATOM     21  C   UNL A   1      33.547  27.392  22.858  1.00  0.00     0.162 C 
BRANCH  21  22
ATOM     22  O   UNL A   1      33.414  27.005  21.490  1.00  0.00    -0.385 OA
ATOM     23  C   UNL A   1      32.993  25.667  21.270  1.00  0.00     0.194 C 
ENDBRANCH  21  22
ENDBRANCH  20  21
ENDBRANCH  18  20
ENDBRANCH  13  18
ENDBRANCH   8  12
ENDBRANCH   5   7
ENDBRANCH   4   5
ENDBRANCH   3   4
ENDBRANCH   2   3
ENDBRANCH   1   2
BRANCH   1  24
ATOM     24  C   UNL A   1      36.554  22.097  24.477  1.00  0.00     0.188 C 
BRANCH  24  25
ATOM     25  C   UNL A   1      36.287  20.686  25.017  1.00  0.00     0.188 C 
BRANCH  25  26
ATOM     26  O   UNL A   1      37.406  19.813  24.932  1.00  0.00    -0.376 OA
BRANCH  26  27
ATOM     27  C   UNL A   1      38.698  20.335  25.258  1.00  0.00     0.202 C 
BRANCH  27  28
ATOM     28  C   UNL A   1      39.764  19.484  25.976  1.00  0.00     0.261 C 
BRANCH  28  29
ATOM     29  O   UNL A   1      41.013  19.342  25.281  1.00  0.00    -0.460 OA
BRANCH  29  30
ATOM     30  C   UNL A   1      42.140  19.171  26.013  1.00  0.00     0.338 C 
ATOM     31  O   UNL A   1      42.786  18.145  26.132  1.00  0.00    -0.246 OA
BRANCH  30  32
ATOM     32  C   UNL A   1      42.578  20.524  26.443  1.00  0.00     0.060 A 
ATOM     33  C   UNL A   1      43.051  21.429  25.482  1.00  0.00     0.016 A 
ATOM     34  C   UNL A   1      42.411  20.941  27.767  1.00  0.00     0.016 A 
ATOM     35  C   UNL A   1      43.340  22.751  25.836  1.00  0.00     0.010 A 
ATOM     36  C   UNL A   1      42.723  22.254  28.126  1.00  0.00     0.010 A 
ATOM     37  C   UNL A   1      43.196  23.166  27.166  1.00  0.00    -0.014 A 
BRANCH  37  38
ATOM     38  C   UNL A   1      43.686  24.495  27.609  1.00  0.00     0.031 A 
ATOM     39  C   UNL A   1      42.672  25.546  27.961  1.00  0.00     0.074 A 
ATOM     40  C   UNL A   1      44.999  24.782  27.666  1.00  0.00     0.049 A 
ATOM     41  N   UNL A   1      42.842  26.816  28.222  1.00  0.00    -0.248 NA
ATOM     42  C   UNL A   1      41.272  25.097  28.021  1.00  0.00     0.031 C 
ATOM     43  C   UNL A   1      46.085  23.842  27.405  1.00  0.00     0.029 A 
ATOM     44  N   UNL A   1      45.638  25.968  27.944  1.00  0.00    -0.354 N 
ATOM     45  C   UNL A   1      41.572  27.321  28.463  1.00  0.00     0.074 A 
ATOM     46  C   UNL A   1      40.639  26.227  28.298  1.00  0.00     0.031 C 
ATOM     47  C   UNL A   1      47.258  24.492  27.514  1.00  0.00     0.029 A 
ATOM     48  C   UNL A   1      47.002  25.903  27.804  1.00  0.00     0.049 A 
ATOM     49  H   UNL A   1      45.163  26.785  28.218  1.00  0.00     0.167 HD
ATOM     50  C   UNL A   1      41.215  28.584  28.795  1.00  0.00     0.037 A 
ATOM     51  C   UNL A   1      47.931  26.879  27.864  1.00  0.00     0.037 A 
ATOM     52  C   UNL A   1      42.143  29.672  28.958  1.00  0.00     0.049 A 
ATOM     53  C   UNL A   1      47.499  28.300  28.134  1.00  0.00     0.074 A 
ATOM     54  C   UNL A   1      41.879  30.984  29.309  1.00  0.00     0.029 A 
ATOM     55  N   UNL A   1      43.513  29.576  28.767  1.00  0.00    -0.354 N 
ATOM     56  N   UNL A   1      46.300  28.773  28.371  1.00  0.00    -0.248 NA
ATOM     57  C   UNL A   1      48.553  29.327  28.131  1.00  0.00     0.031 C 
ATOM     58  C   UNL A   1      43.083  31.695  29.275  1.00  0.00     0.029 A 
ATOM     59  C   UNL A   1      44.104  30.814  28.959  1.00  0.00     0.049 A 
ATOM     60  H   UNL A   1      43.994  28.750  28.531  1.00  0.00     0.167 HD
ATOM     61  C   UNL A   1      46.457  30.140  28.569  1.00  0.00     0.074 A 
ATOM     62  C   UNL A   1      47.871  30.421  28.441  1.00  0.00     0.031 C 
ATOM     63  C   UNL A   1      45.515  31.080  28.830  1.00  0.00     0.037 A 
BRANCH  50  64
ATOM     64  C   UNL A   1      39.752  28.867  28.967  1.00  0.00     0.064 A 
ATOM     65  C   UNL A   1      38.946  29.269  27.892  1.00  0.00     0.173 A 
ATOM     66  C   UNL A   1      39.144  28.705  30.221  1.00  0.00     0.173 A 
ATOM     67  F   UNL A   1      39.483  29.456  26.678  1.00  0.00    -0.203 F 
ATOM     68  C   UNL A   1      37.588  29.522  28.073  1.00  0.00     0.198 A 
ATOM     69  C   UNL A   1      37.781  28.929  30.391  1.00  0.00     0.198 A 
ATOM     70  F   UNL A   1      39.872  28.321  31.281  1.00  0.00    -0.203 F 
ATOM     71  F   UNL A   1      36.846  29.953  27.043  1.00  0.00    -0.200 F 
ATOM     72  C   UNL A   1      37.006  29.344  29.319  1.00  0.00     0.200 A 
ATOM     73  F   UNL A   1      37.218  28.745  31.594  1.00  0.00    -0.200 F 
ATOM     74  F   UNL A   1      35.699  29.581  29.489  1.00  0.00    -0.200 F 
ENDBRANCH  50  64
BRANCH  51  75
ATOM     75  C   UNL A   1      49.366  26.564  27.623  1.00  0.00     0.064 A 
ATOM     76  C   UNL A   1      50.250  26.351  28.689  1.00  0.00     0.173 A 
ATOM     77  C   UNL A   1      49.891  26.511  26.322  1.00  0.00     0.173 A 
ATOM     78  F   UNL A   1      49.805  26.427  29.953  1.00  0.00    -0.203 F 
ATOM     79  C   UNL A   1      51.606  26.116  28.466  1.00  0.00     0.198 A 
ATOM     80  C   UNL A   1      51.241  26.245  26.100  1.00  0.00     0.198 A 
ATOM     81  F   UNL A   1      49.092  26.719  25.266  1.00  0.00    -0.203 F 
ATOM     82  F   UNL A   1      52.438  25.971  29.507  1.00  0.00    -0.200 F 
ATOM     83  C   UNL A   1      52.099  26.056  27.172  1.00  0.00     0.200 A 
ATOM     84  F   UNL A   1      51.711  26.182  24.846  1.00  0.00    -0.200 F 
ATOM     85  F   UNL A   1      53.403  25.830  26.958  1.00  0.00    -0.200 F 
ENDBRANCH  51  75
BRANCH  63  86
ATOM     86  C   UNL A   1      45.977  32.497  29.018  1.00  0.00     0.064 A 
ATOM     87  C   UNL A   1      46.474  32.953  30.247  1.00  0.00     0.173 A 
ATOM     88  C   UNL A   1      45.975  33.395  27.939  1.00  0.00     0.173 A 
ATOM     89  F   UNL A   1      46.485  32.139  31.314  1.00  0.00    -0.203 F 
ATOM     90  C   UNL A   1      46.929  34.261  30.396  1.00  0.00     0.198 A 
ATOM     91  C   UNL A   1      46.461  34.692  28.083  1.00  0.00     0.198 A 
ATOM     92  F   UNL A   1      45.519  33.009  26.738  1.00  0.00    -0.203 F 
ATOM     93  F   UNL A   1      47.360  34.686  31.593  1.00  0.00    -0.200 F 
ATOM     94  C   UNL A   1      46.931  35.126  29.312  1.00  0.00     0.200 A 
ATOM     95  F   UNL A   1      46.477  35.522  27.030  1.00  0.00    -0.200 F 
ATOM     96  F   UNL A   1      47.383  36.380  29.455  1.00  0.00    -0.200 F 
ENDBRANCH  63  86
ENDBRANCH  37  38
ENDBRANCH  30  32
ENDBRANCH  29  30
ENDBRANCH  28  29
ENDBRANCH  27  28
ENDBRANCH  26  27
ENDBRANCH  25  26
ENDBRANCH  24  25
ENDBRANCH   1  24
TORSDOF 22
ENDMDL
