MODEL 1
REMARK VINA RESULT:     -10.8      0.000      0.000
REMARK SMILES O=C(OCCOCCOCCOC(=O)[C@@H]1C[NH2+]CCN1C(=O)N[C@@H]1CCOC1)c1ccc(-c2c3nc(c(-c4c(F)c(F)c(F)c(F)c4F)c4ccc([nH]4)c(-c4c(F)c(F)c(F)c(F)c4F)c4nc(c(-c5c(F)c(F)c(F)c(F)c5F)c5ccc2[nH]5)C=C4)C=C3)cc1
REMARK SMILES IDX 7 1 6 2 5 3 4 4 3 5 2 6 1 7 29 8 30 9 91 10 31 11 90 12
REMARK SMILES IDX 32 13 33 14 34 15 84 16 35 17 89 18 83 19 85 20 36 21 88 22
REMARK SMILES IDX 82 23 81 24 37 26 69 27 49 28 68 29 50 30 53 31 67 32 86 33
REMARK SMILES IDX 51 34 52 35 66 37 87 38 54 39 38 40 39 41 47 42 40 43 41 44
REMARK SMILES IDX 45 45 48 46 42 47 43 48 46 49 44 50 70 51 71 52 79 53 72 54
REMARK SMILES IDX 73 55 77 56 80 57 74 58 75 59 78 60 76 61 55 62 56 63 64 64
REMARK SMILES IDX 57 65 58 66 62 67 65 68 59 69 60 70 63 71 61 72 8 73 9 74
REMARK SMILES IDX 10 75 11 76 12 77 13 78 14 79 15 80 16 81 20 82 17 83 19 84
REMARK SMILES IDX 18 85 21 88 22 89 23 90 24 92 25 93 28 94 26 95 27 96
REMARK H PARENT 85 25 53 36 17 86 17 87 23 91
REMARK Flexibility Score: inf
ROOT
ATOM      1  C   UNL A   1      32.195  30.238  26.598  1.00  0.00     0.188 C 
ENDROOT
BRANCH   1   2
ATOM      2  O   UNL A   1      31.227  31.073  25.960  1.00  0.00    -0.376 OA
BRANCH   2   3
ATOM      3  C   UNL A   1      31.189  32.439  26.351  1.00  0.00     0.202 C 
BRANCH   3   4
ATOM      4  C   UNL A   1      32.343  32.879  27.267  1.00  0.00     0.261 C 
BRANCH   4   5
ATOM      5  O   UNL A   1      32.211  34.208  27.805  1.00  0.00    -0.460 OA
BRANCH   5   6
ATOM      6  C   UNL A   1      32.965  34.875  28.708  1.00  0.00     0.338 C 
ATOM      7  O   UNL A   1      32.603  36.019  29.019  1.00  0.00    -0.246 OA
BRANCH   6   8
ATOM      8  C   UNL A   1      34.218  34.360  29.346  1.00  0.00     0.060 A 
ATOM      9  C   UNL A   1      35.507  34.508  28.833  1.00  0.00     0.016 A 
ATOM     10  C   UNL A   1      34.091  33.727  30.599  1.00  0.00     0.016 A 
ATOM     11  C   UNL A   1      36.627  34.049  29.515  1.00  0.00     0.010 A 
ATOM     12  C   UNL A   1      35.210  33.246  31.291  1.00  0.00     0.010 A 
ATOM     13  C   UNL A   1      36.483  33.392  30.732  1.00  0.00    -0.014 A 
BRANCH  13  14
ATOM     14  C   UNL A   1      37.663  32.678  31.252  1.00  0.00     0.031 A 
ATOM     15  C   UNL A   1      38.155  33.079  32.608  1.00  0.00     0.074 A 
ATOM     16  C   UNL A   1      38.142  31.589  30.624  1.00  0.00     0.049 A 
ATOM     17  N   UNL A   1      39.102  32.555  33.335  1.00  0.00    -0.248 NA
ATOM     18  C   UNL A   1      37.437  34.191  33.260  1.00  0.00     0.031 C 
ATOM     19  C   UNL A   1      37.595  31.023  29.394  1.00  0.00     0.029 A 
ATOM     20  N   UNL A   1      39.174  30.750  30.940  1.00  0.00    -0.354 N 
ATOM     21  C   UNL A   1      39.070  33.247  34.536  1.00  0.00     0.074 A 
ATOM     22  C   UNL A   1      38.049  34.261  34.431  1.00  0.00     0.031 C 
ATOM     23  C   UNL A   1      38.328  29.962  29.023  1.00  0.00     0.029 A 
ATOM     24  C   UNL A   1      39.400  29.779  29.993  1.00  0.00     0.049 A 
ATOM     25  H   UNL A   1      39.704  30.831  31.767  1.00  0.00     0.167 HD
ATOM     26  C   UNL A   1      39.818  33.028  35.641  1.00  0.00     0.037 A 
ATOM     27  C   UNL A   1      40.379  28.859  29.922  1.00  0.00     0.037 A 
ATOM     28  C   UNL A   1      40.857  32.040  35.700  1.00  0.00     0.049 A 
ATOM     29  C   UNL A   1      41.326  28.763  31.088  1.00  0.00     0.074 A 
ATOM     30  C   UNL A   1      41.756  31.786  36.717  1.00  0.00     0.029 A 
ATOM     31  N   UNL A   1      41.140  31.144  34.675  1.00  0.00    -0.354 N 
ATOM     32  N   UNL A   1      41.324  29.447  32.210  1.00  0.00    -0.248 NA
ATOM     33  C   UNL A   1      42.390  27.758  31.000  1.00  0.00     0.031 C 
ATOM     34  C   UNL A   1      42.618  30.773  36.285  1.00  0.00     0.029 A 
ATOM     35  C   UNL A   1      42.217  30.350  35.026  1.00  0.00     0.049 A 
ATOM     36  H   UNL A   1      40.647  31.084  33.826  1.00  0.00     0.167 HD
ATOM     37  C   UNL A   1      42.357  28.931  32.977  1.00  0.00     0.074 A 
ATOM     38  C   UNL A   1      42.953  27.865  32.195  1.00  0.00     0.031 C 
ATOM     39  C   UNL A   1      42.777  29.298  34.213  1.00  0.00     0.037 A 
BRANCH  26  40
ATOM     40  C   UNL A   1      39.558  33.915  36.821  1.00  0.00     0.064 A 
ATOM     41  C   UNL A   1      40.127  35.195  36.921  1.00  0.00     0.173 A 
ATOM     42  C   UNL A   1      38.766  33.464  37.886  1.00  0.00     0.173 A 
ATOM     43  F   UNL A   1      40.924  35.658  35.946  1.00  0.00    -0.203 F 
ATOM     44  C   UNL A   1      39.933  35.979  38.056  1.00  0.00     0.198 A 
ATOM     45  C   UNL A   1      38.552  34.261  39.007  1.00  0.00     0.198 A 
ATOM     46  F   UNL A   1      38.213  32.243  37.847  1.00  0.00    -0.203 F 
ATOM     47  F   UNL A   1      40.537  37.171  38.157  1.00  0.00    -0.200 F 
ATOM     48  C   UNL A   1      39.142  35.514  39.095  1.00  0.00     0.200 A 
ATOM     49  F   UNL A   1      37.787  33.811  40.011  1.00  0.00    -0.200 F 
ATOM     50  F   UNL A   1      38.962  36.265  40.191  1.00  0.00    -0.200 F 
ENDBRANCH  26  40
BRANCH  27  51
ATOM     51  C   UNL A   1      40.529  28.002  28.714  1.00  0.00     0.064 A 
ATOM     52  C   UNL A   1      41.265  28.414  27.597  1.00  0.00     0.173 A 
ATOM     53  C   UNL A   1      39.889  26.752  28.641  1.00  0.00     0.173 A 
ATOM     54  F   UNL A   1      41.885  29.604  27.605  1.00  0.00    -0.203 F 
ATOM     55  C   UNL A   1      41.326  27.633  26.443  1.00  0.00     0.198 A 
ATOM     56  C   UNL A   1      39.975  25.958  27.499  1.00  0.00     0.198 A 
ATOM     57  F   UNL A   1      39.175  26.300  29.683  1.00  0.00    -0.203 F 
ATOM     58  F   UNL A   1      41.985  28.084  25.366  1.00  0.00    -0.200 F 
ATOM     59  C   UNL A   1      40.682  26.405  26.395  1.00  0.00     0.200 A 
ATOM     60  F   UNL A   1      39.361  24.767  27.465  1.00  0.00    -0.200 F 
ATOM     61  F   UNL A   1      40.730  25.662  25.280  1.00  0.00    -0.200 F 
ENDBRANCH  27  51
BRANCH  39  62
ATOM     62  C   UNL A   1      43.911  28.511  34.797  1.00  0.00     0.064 A 
ATOM     63  C   UNL A   1      45.245  28.908  34.632  1.00  0.00     0.173 A 
ATOM     64  C   UNL A   1      43.653  27.359  35.556  1.00  0.00     0.173 A 
ATOM     65  F   UNL A   1      45.541  29.995  33.902  1.00  0.00    -0.203 F 
ATOM     66  C   UNL A   1      46.284  28.158  35.174  1.00  0.00     0.198 A 
ATOM     67  C   UNL A   1      44.691  26.636  36.131  1.00  0.00     0.198 A 
ATOM     68  F   UNL A   1      42.391  26.945  35.751  1.00  0.00    -0.203 F 
ATOM     69  F   UNL A   1      47.554  28.520  34.950  1.00  0.00    -0.200 F 
ATOM     70  C   UNL A   1      46.005  27.029  35.929  1.00  0.00     0.200 A 
ATOM     71  F   UNL A   1      44.420  25.555  36.875  1.00  0.00    -0.200 F 
ATOM     72  F   UNL A   1      47.007  26.311  36.456  1.00  0.00    -0.200 F 
ENDBRANCH  39  62
ENDBRANCH  13  14
ENDBRANCH   6   8
ENDBRANCH   5   6
ENDBRANCH   4   5
ENDBRANCH   3   4
ENDBRANCH   2   3
ENDBRANCH   1   2
BRANCH   1  73
ATOM     73  C   UNL A   1      33.250  29.664  25.657  1.00  0.00     0.188 C 
BRANCH  73  74
ATOM     74  O   UNL A   1      34.027  28.594  26.183  1.00  0.00    -0.376 OA
BRANCH  74  75
ATOM     75  C   UNL A   1      33.302  27.412  26.513  1.00  0.00     0.202 C 
BRANCH  75  76
ATOM     76  C   UNL A   1      33.107  26.463  25.303  1.00  0.00     0.261 C 
BRANCH  76  77
ATOM     77  O   UNL A   1      31.721  26.110  25.050  1.00  0.00    -0.462 OA
BRANCH  77  78
ATOM     78  C   UNL A   1      31.267  24.966  25.650  1.00  0.00     0.334 C 
ATOM     79  O   UNL A   1      30.401  24.958  26.523  1.00  0.00    -0.250 OA
BRANCH  78  80
ATOM     80  C   UNL A   1      31.886  23.645  25.061  1.00  0.00     0.252 C 
ATOM     81  C   UNL A   1      32.142  22.570  26.141  1.00  0.00     0.298 C 
ATOM     82  N   UNL A   1      32.704  23.278  23.815  1.00  0.00    -0.300 N 
ATOM     83  N   UNL A   1      31.694  21.223  25.692  1.00  0.00    -0.343 N 
ATOM     84  C   UNL A   1      32.177  21.982  23.308  1.00  0.00     0.183 C 
ATOM     85  C   UNL A   1      32.318  20.879  24.393  1.00  0.00     0.282 C 
ATOM     86  H   UNL A   1      30.679  21.224  25.587  1.00  0.00     0.346 HD
ATOM     87  H   UNL A   1      31.973  20.531  26.388  1.00  0.00     0.346 HD
BRANCH  82  88
ATOM     88  C   UNL A   1      34.014  23.464  23.431  1.00  0.00     0.318 C 
ATOM     89  O   UNL A   1      34.279  23.858  22.282  1.00  0.00    -0.249 OA
ATOM     90  N   UNL A   1      35.133  23.353  24.155  1.00  0.00    -0.333 N 
ATOM     91  H   UNL A   1      35.901  23.521  23.562  1.00  0.00     0.165 HD
BRANCH  90  92
ATOM     92  C   UNL A   1      35.645  23.075  25.505  1.00  0.00     0.112 C 
ATOM     93  C   UNL A   1      37.102  23.247  25.583  1.00  0.00     0.056 C 
ATOM     94  C   UNL A   1      35.591  21.620  25.971  1.00  0.00     0.185 C 
ATOM     95  C   UNL A   1      37.612  21.996  24.917  1.00  0.00     0.162 C 
ATOM     96  O   UNL A   1      36.766  20.962  25.445  1.00  0.00    -0.379 OA
ENDBRANCH  90  92
ENDBRANCH  82  88
ENDBRANCH  78  80
ENDBRANCH  77  78
ENDBRANCH  76  77
ENDBRANCH  75  76
ENDBRANCH  74  75
ENDBRANCH  73  74
ENDBRANCH   1  73
TORSDOF 19
ENDMDL
MODEL 2
REMARK VINA RESULT:     -10.7      1.898      3.139
REMARK SMILES O=C(OCCOCCOCCOC(=O)[C@@H]1C[NH2+]CCN1C(=O)N[C@@H]1CCOC1)c1ccc(-c2c3nc(c(-c4c(F)c(F)c(F)c(F)c4F)c4ccc([nH]4)c(-c4c(F)c(F)c(F)c(F)c4F)c4nc(c(-c5c(F)c(F)c(F)c(F)c5F)c5ccc2[nH]5)C=C4)C=C3)cc1
REMARK SMILES IDX 7 1 6 2 5 3 4 4 3 5 2 6 1 7 29 8 30 9 91 10 31 11 90 12
REMARK SMILES IDX 32 13 33 14 34 15 84 16 35 17 89 18 83 19 85 20 36 21 88 22
REMARK SMILES IDX 82 23 81 24 37 26 69 27 49 28 68 29 50 30 53 31 67 32 86 33
REMARK SMILES IDX 51 34 52 35 66 37 87 38 54 39 38 40 39 41 47 42 40 43 41 44
REMARK SMILES IDX 45 45 48 46 42 47 43 48 46 49 44 50 70 51 71 52 79 53 72 54
REMARK SMILES IDX 73 55 77 56 80 57 74 58 75 59 78 60 76 61 55 62 56 63 64 64
REMARK SMILES IDX 57 65 58 66 62 67 65 68 59 69 60 70 63 71 61 72 8 73 9 74
REMARK SMILES IDX 10 75 11 76 12 77 13 78 14 79 15 80 16 81 20 82 17 83 19 84
REMARK SMILES IDX 18 85 21 88 22 89 23 90 24 92 25 93 28 94 26 95 27 96
REMARK H PARENT 85 25 53 36 17 86 17 87 23 91
REMARK Flexibility Score: inf
ROOT
ATOM      1  C   UNL A   1      33.064  29.060  26.988  1.00  0.00     0.188 C 
ENDROOT
BRANCH   1   2
ATOM      2  O   UNL A   1      32.904  30.426  27.373  1.00  0.00    -0.376 OA
BRANCH   2   3
ATOM      3  C   UNL A   1      32.041  31.228  26.579  1.00  0.00     0.202 C 
BRANCH   3   4
ATOM      4  C   UNL A   1      31.685  32.593  27.192  1.00  0.00     0.261 C 
BRANCH   4   5
ATOM      5  O   UNL A   1      32.780  33.524  27.266  1.00  0.00    -0.460 OA
BRANCH   5   6
ATOM      6  C   UNL A   1      33.585  33.863  28.299  1.00  0.00     0.338 C 
ATOM      7  O   UNL A   1      33.330  34.917  28.899  1.00  0.00    -0.246 OA
BRANCH   6   8
ATOM      8  C   UNL A   1      34.778  33.085  28.764  1.00  0.00     0.060 A 
ATOM      9  C   UNL A   1      34.735  31.889  29.481  1.00  0.00     0.016 A 
ATOM     10  C   UNL A   1      36.049  33.571  28.393  1.00  0.00     0.016 A 
ATOM     11  C   UNL A   1      35.890  31.198  29.828  1.00  0.00     0.010 A 
ATOM     12  C   UNL A   1      37.221  32.892  28.749  1.00  0.00     0.010 A 
ATOM     13  C   UNL A   1      37.137  31.709  29.489  1.00  0.00    -0.014 A 
BRANCH  13  14
ATOM     14  C   UNL A   1      38.311  31.093  30.134  1.00  0.00     0.031 A 
ATOM     15  C   UNL A   1      38.567  31.457  31.564  1.00  0.00     0.074 A 
ATOM     16  C   UNL A   1      38.992  30.105  29.527  1.00  0.00     0.049 A 
ATOM     17  N   UNL A   1      39.462  30.992  32.390  1.00  0.00    -0.248 NA
ATOM     18  C   UNL A   1      37.645  32.440  32.162  1.00  0.00     0.031 C 
ATOM     19  C   UNL A   1      38.685  29.564  28.207  1.00  0.00     0.029 A 
ATOM     20  N   UNL A   1      40.063  29.363  29.944  1.00  0.00    -0.354 N 
ATOM     21  C   UNL A   1      39.190  31.598  33.608  1.00  0.00     0.074 A 
ATOM     22  C   UNL A   1      38.081  32.500  33.409  1.00  0.00     0.031 C 
ATOM     23  C   UNL A   1      39.578  28.614  27.891  1.00  0.00     0.029 A 
ATOM     24  C   UNL A   1      40.524  28.485  28.992  1.00  0.00     0.049 A 
ATOM     25  H   UNL A   1      40.464  29.448  30.840  1.00  0.00     0.167 HD
ATOM     26  C   UNL A   1      39.802  31.390  34.794  1.00  0.00     0.037 A 
ATOM     27  C   UNL A   1      41.604  27.682  29.014  1.00  0.00     0.037 A 
ATOM     28  C   UNL A   1      40.931  30.517  34.951  1.00  0.00     0.049 A 
ATOM     29  C   UNL A   1      42.390  27.614  30.296  1.00  0.00     0.074 A 
ATOM     30  C   UNL A   1      41.709  30.297  36.070  1.00  0.00     0.029 A 
ATOM     31  N   UNL A   1      41.451  29.725  33.933  1.00  0.00    -0.354 N 
ATOM     32  N   UNL A   1      42.158  28.220  31.438  1.00  0.00    -0.248 NA
ATOM     33  C   UNL A   1      43.565  26.737  30.309  1.00  0.00     0.031 C 
ATOM     34  C   UNL A   1      42.732  29.412  35.714  1.00  0.00     0.029 A 
ATOM     35  C   UNL A   1      42.556  29.031  34.392  1.00  0.00     0.049 A 
ATOM     36  H   UNL A   1      41.086  29.667  33.021  1.00  0.00     0.167 HD
ATOM     37  C   UNL A   1      43.132  27.770  32.316  1.00  0.00     0.074 A 
ATOM     38  C   UNL A   1      43.947  26.826  31.575  1.00  0.00     0.031 C 
ATOM     39  C   UNL A   1      43.337  28.099  33.616  1.00  0.00     0.037 A 
BRANCH  26  40
ATOM     40  C   UNL A   1      39.286  32.166  35.968  1.00  0.00     0.064 A 
ATOM     41  C   UNL A   1      39.779  33.443  36.282  1.00  0.00     0.173 A 
ATOM     42  C   UNL A   1      38.318  31.610  36.815  1.00  0.00     0.173 A 
ATOM     43  F   UNL A   1      40.734  34.003  35.525  1.00  0.00    -0.203 F 
ATOM     44  C   UNL A   1      39.340  34.121  37.417  1.00  0.00     0.198 A 
ATOM     45  C   UNL A   1      37.861  32.302  37.933  1.00  0.00     0.198 A 
ATOM     46  F   UNL A   1      37.826  30.386  36.569  1.00  0.00    -0.203 F 
ATOM     47  F   UNL A   1      39.870  35.311  37.732  1.00  0.00    -0.200 F 
ATOM     48  C   UNL A   1      38.378  33.553  38.238  1.00  0.00     0.200 A 
ATOM     49  F   UNL A   1      36.931  31.752  38.726  1.00  0.00    -0.200 F 
ATOM     50  F   UNL A   1      37.960  34.203  39.334  1.00  0.00    -0.200 F 
ENDBRANCH  26  40
BRANCH  27  51
ATOM     51  C   UNL A   1      42.012  26.926  27.799  1.00  0.00     0.064 A 
ATOM     52  C   UNL A   1      41.531  25.639  27.529  1.00  0.00     0.173 A 
ATOM     53  C   UNL A   1      42.941  27.471  26.895  1.00  0.00     0.173 A 
ATOM     54  F   UNL A   1      40.654  25.062  28.364  1.00  0.00    -0.203 F 
ATOM     55  C   UNL A   1      41.988  24.913  26.428  1.00  0.00     0.198 A 
ATOM     56  C   UNL A   1      43.374  26.758  25.779  1.00  0.00     0.198 A 
ATOM     57  F   UNL A   1      43.432  28.703  27.098  1.00  0.00    -0.203 F 
ATOM     58  F   UNL A   1      41.558  23.658  26.231  1.00  0.00    -0.200 F 
ATOM     59  C   UNL A   1      42.908  25.472  25.554  1.00  0.00     0.200 A 
ATOM     60  F   UNL A   1      44.253  27.311  24.933  1.00  0.00    -0.200 F 
ATOM     61  F   UNL A   1      43.356  24.769  24.505  1.00  0.00    -0.200 F 
ENDBRANCH  27  51
BRANCH  39  62
ATOM     62  C   UNL A   1      44.466  27.403  34.314  1.00  0.00     0.064 A 
ATOM     63  C   UNL A   1      44.288  26.165  34.947  1.00  0.00     0.173 A 
ATOM     64  C   UNL A   1      45.747  27.973  34.325  1.00  0.00     0.173 A 
ATOM     65  F   UNL A   1      43.076  25.588  34.975  1.00  0.00    -0.203 F 
ATOM     66  C   UNL A   1      45.345  25.539  35.599  1.00  0.00     0.198 A 
ATOM     67  C   UNL A   1      46.812  27.325  34.943  1.00  0.00     0.198 A 
ATOM     68  F   UNL A   1      45.970  29.152  33.725  1.00  0.00    -0.203 F 
ATOM     69  F   UNL A   1      45.138  24.388  36.252  1.00  0.00    -0.200 F 
ATOM     70  C   UNL A   1      46.607  26.116  35.589  1.00  0.00     0.200 A 
ATOM     71  F   UNL A   1      48.033  27.874  34.917  1.00  0.00    -0.200 F 
ATOM     72  F   UNL A   1      47.626  25.508  36.212  1.00  0.00    -0.200 F 
ENDBRANCH  39  62
ENDBRANCH  13  14
ENDBRANCH   6   8
ENDBRANCH   5   6
ENDBRANCH   4   5
ENDBRANCH   3   4
ENDBRANCH   2   3
ENDBRANCH   1   2
BRANCH   1  73
ATOM     73  C   UNL A   1      31.797  28.405  26.446  1.00  0.00     0.188 C 
BRANCH  73  74
ATOM     74  O   UNL A   1      31.976  27.566  25.310  1.00  0.00    -0.376 OA
BRANCH  74  75
ATOM     75  C   UNL A   1      33.298  27.072  25.114  1.00  0.00     0.202 C 
BRANCH  75  76
ATOM     76  C   UNL A   1      33.331  25.684  24.426  1.00  0.00     0.261 C 
BRANCH  76  77
ATOM     77  O   UNL A   1      34.666  25.125  24.290  1.00  0.00    -0.462 OA
BRANCH  77  78
ATOM     78  C   UNL A   1      34.739  23.819  23.888  1.00  0.00     0.334 C 
ATOM     79  O   UNL A   1      34.963  23.480  22.727  1.00  0.00    -0.250 OA
BRANCH  78  80
ATOM     80  C   UNL A   1      34.602  22.779  25.061  1.00  0.00     0.252 C 
ATOM     81  C   UNL A   1      35.346  23.220  26.342  1.00  0.00     0.298 C 
ATOM     82  N   UNL A   1      34.315  21.275  25.166  1.00  0.00    -0.300 N 
ATOM     83  N   UNL A   1      34.517  23.006  27.559  1.00  0.00    -0.343 N 
ATOM     84  C   UNL A   1      33.398  21.080  26.321  1.00  0.00     0.183 C 
ATOM     85  C   UNL A   1      34.057  21.598  27.629  1.00  0.00     0.282 C 
ATOM     86  H   UNL A   1      33.705  23.623  27.527  1.00  0.00     0.346 HD
ATOM     87  H   UNL A   1      35.080  23.211  28.385  1.00  0.00     0.346 HD
BRANCH  82  88
ATOM     88  C   UNL A   1      35.046  20.134  24.915  1.00  0.00     0.318 C 
ATOM     89  O   UNL A   1      36.285  20.148  25.021  1.00  0.00    -0.249 OA
ATOM     90  N   UNL A   1      34.618  18.901  24.624  1.00  0.00    -0.333 N 
ATOM     91  H   UNL A   1      35.406  18.330  24.470  1.00  0.00     0.165 HD
BRANCH  90  92
ATOM     92  C   UNL A   1      33.411  18.079  24.447  1.00  0.00     0.112 C 
ATOM     93  C   UNL A   1      33.412  16.909  25.336  1.00  0.00     0.056 C 
ATOM     94  C   UNL A   1      33.286  17.324  23.124  1.00  0.00     0.185 C 
ATOM     95  C   UNL A   1      34.384  15.983  24.653  1.00  0.00     0.162 C 
ATOM     96  O   UNL A   1      34.040  16.098  23.262  1.00  0.00    -0.379 OA
ENDBRANCH  90  92
ENDBRANCH  82  88
ENDBRANCH  78  80
ENDBRANCH  77  78
ENDBRANCH  76  77
ENDBRANCH  75  76
ENDBRANCH  74  75
ENDBRANCH  73  74
ENDBRANCH   1  73
TORSDOF 19
ENDMDL
MODEL 3
REMARK VINA RESULT:     -10.6      2.585      4.375
REMARK SMILES O=C(OCCOCCOCCOC(=O)[C@@H]1C[NH2+]CCN1C(=O)N[C@@H]1CCOC1)c1ccc(-c2c3nc(c(-c4c(F)c(F)c(F)c(F)c4F)c4ccc([nH]4)c(-c4c(F)c(F)c(F)c(F)c4F)c4nc(c(-c5c(F)c(F)c(F)c(F)c5F)c5ccc2[nH]5)C=C4)C=C3)cc1
REMARK SMILES IDX 7 1 6 2 5 3 4 4 3 5 2 6 1 7 29 8 30 9 91 10 31 11 90 12
REMARK SMILES IDX 32 13 33 14 34 15 84 16 35 17 89 18 83 19 85 20 36 21 88 22
REMARK SMILES IDX 82 23 81 24 37 26 69 27 49 28 68 29 50 30 53 31 67 32 86 33
REMARK SMILES IDX 51 34 52 35 66 37 87 38 54 39 38 40 39 41 47 42 40 43 41 44
REMARK SMILES IDX 45 45 48 46 42 47 43 48 46 49 44 50 70 51 71 52 79 53 72 54
REMARK SMILES IDX 73 55 77 56 80 57 74 58 75 59 78 60 76 61 55 62 56 63 64 64
REMARK SMILES IDX 57 65 58 66 62 67 65 68 59 69 60 70 63 71 61 72 8 73 9 74
REMARK SMILES IDX 10 75 11 76 12 77 13 78 14 79 15 80 16 81 20 82 17 83 19 84
REMARK SMILES IDX 18 85 21 88 22 89 23 90 24 92 25 93 28 94 26 95 27 96
REMARK H PARENT 85 25 53 36 17 86 17 87 23 91
REMARK Flexibility Score: inf
ROOT
ATOM      1  C   UNL A   1      35.000  34.138  28.051  1.00  0.00     0.188 C 
ENDROOT
BRANCH   1   2
ATOM      2  O   UNL A   1      34.386  35.425  28.125  1.00  0.00    -0.376 OA
BRANCH   2   3
ATOM      3  C   UNL A   1      33.184  35.529  28.875  1.00  0.00     0.202 C 
BRANCH   3   4
ATOM      4  C   UNL A   1      33.149  36.696  29.877  1.00  0.00     0.261 C 
BRANCH   4   5
ATOM      5  O   UNL A   1      32.364  36.452  31.058  1.00  0.00    -0.460 OA
BRANCH   5   6
ATOM      6  C   UNL A   1      32.524  35.554  32.056  1.00  0.00     0.338 C 
ATOM      7  O   UNL A   1      31.511  35.210  32.682  1.00  0.00    -0.246 OA
BRANCH   6   8
ATOM      8  C   UNL A   1      33.827  34.958  32.491  1.00  0.00     0.060 A 
ATOM      9  C   UNL A   1      35.075  35.574  32.382  1.00  0.00     0.016 A 
ATOM     10  C   UNL A   1      33.783  33.697  33.119  1.00  0.00     0.016 A 
ATOM     11  C   UNL A   1      36.234  34.977  32.861  1.00  0.00     0.010 A 
ATOM     12  C   UNL A   1      34.946  33.077  33.593  1.00  0.00     0.010 A 
ATOM     13  C   UNL A   1      36.181  33.716  33.443  1.00  0.00    -0.014 A 
BRANCH  13  14
ATOM     14  C   UNL A   1      37.463  33.021  33.657  1.00  0.00     0.031 A 
ATOM     15  C   UNL A   1      38.194  33.324  34.928  1.00  0.00     0.074 A 
ATOM     16  C   UNL A   1      37.848  32.020  32.845  1.00  0.00     0.049 A 
ATOM     17  N   UNL A   1      39.282  32.787  35.406  1.00  0.00    -0.248 NA
ATOM     18  C   UNL A   1      37.578  34.333  35.811  1.00  0.00     0.031 C 
ATOM     19  C   UNL A   1      37.094  31.539  31.692  1.00  0.00     0.029 A 
ATOM     20  N   UNL A   1      38.950  31.211  32.876  1.00  0.00    -0.354 N 
ATOM     21  C   UNL A   1      39.460  33.366  36.654  1.00  0.00     0.074 A 
ATOM     22  C   UNL A   1      38.402  34.330  36.845  1.00  0.00     0.031 C 
ATOM     23  C   UNL A   1      37.777  30.555  31.087  1.00  0.00     0.029 A 
ATOM     24  C   UNL A   1      39.022  30.343  31.813  1.00  0.00     0.049 A 
ATOM     25  H   UNL A   1      39.627  31.246  33.591  1.00  0.00     0.167 HD
ATOM     26  C   UNL A   1      40.414  33.088  37.570  1.00  0.00     0.037 A 
ATOM     27  C   UNL A   1      40.000  29.486  31.467  1.00  0.00     0.037 A 
ATOM     28  C   UNL A   1      41.478  32.155  37.334  1.00  0.00     0.049 A 
ATOM     29  C   UNL A   1      41.158  29.336  32.417  1.00  0.00     0.074 A 
ATOM     30  C   UNL A   1      42.566  31.859  38.131  1.00  0.00     0.029 A 
ATOM     31  N   UNL A   1      41.588  31.371  36.190  1.00  0.00    -0.354 N 
ATOM     32  N   UNL A   1      41.349  29.916  33.581  1.00  0.00    -0.248 NA
ATOM     33  C   UNL A   1      42.219  28.401  32.030  1.00  0.00     0.031 C 
ATOM     34  C   UNL A   1      43.362  30.936  37.446  1.00  0.00     0.029 A 
ATOM     35  C   UNL A   1      42.740  30.607  36.251  1.00  0.00     0.049 A 
ATOM     36  H   UNL A   1      40.942  31.362  35.449  1.00  0.00     0.167 HD
ATOM     37  C   UNL A   1      42.529  29.388  34.083  1.00  0.00     0.074 A 
ATOM     38  C   UNL A   1      42.999  28.429  33.101  1.00  0.00     0.031 C 
ATOM     39  C   UNL A   1      43.168  29.663  35.247  1.00  0.00     0.037 A 
BRANCH  26  40
ATOM     40  C   UNL A   1      40.357  33.851  38.860  1.00  0.00     0.064 A 
ATOM     41  C   UNL A   1      39.548  33.432  39.929  1.00  0.00     0.173 A 
ATOM     42  C   UNL A   1      41.085  35.038  39.014  1.00  0.00     0.173 A 
ATOM     43  F   UNL A   1      38.801  32.322  39.817  1.00  0.00    -0.203 F 
ATOM     44  C   UNL A   1      39.451  34.189  41.094  1.00  0.00     0.198 A 
ATOM     45  C   UNL A   1      41.008  35.778  40.190  1.00  0.00     0.198 A 
ATOM     46  F   UNL A   1      41.860  35.490  38.017  1.00  0.00    -0.203 F 
ATOM     47  F   UNL A   1      38.625  33.804  42.076  1.00  0.00    -0.200 F 
ATOM     48  C   UNL A   1      40.185  35.358  41.226  1.00  0.00     0.200 A 
ATOM     49  F   UNL A   1      41.717  36.908  40.316  1.00  0.00    -0.200 F 
ATOM     50  F   UNL A   1      40.087  36.091  42.344  1.00  0.00    -0.200 F 
ENDBRANCH  26  40
BRANCH  27  51
ATOM     51  C   UNL A   1      39.942  28.750  30.174  1.00  0.00     0.064 A 
ATOM     52  C   UNL A   1      39.352  27.485  30.065  1.00  0.00     0.173 A 
ATOM     53  C   UNL A   1      40.527  29.292  29.016  1.00  0.00     0.173 A 
ATOM     54  F   UNL A   1      38.792  26.913  31.141  1.00  0.00    -0.203 F 
ATOM     55  C   UNL A   1      39.380  26.775  28.864  1.00  0.00     0.198 A 
ATOM     56  C   UNL A   1      40.527  28.596  27.809  1.00  0.00     0.198 A 
ATOM     57  F   UNL A   1      41.102  30.504  29.057  1.00  0.00    -0.203 F 
ATOM     58  F   UNL A   1      38.864  25.539  28.808  1.00  0.00    -0.200 F 
ATOM     59  C   UNL A   1      39.966  27.331  27.737  1.00  0.00     0.200 A 
ATOM     60  F   UNL A   1      41.085  29.145  26.721  1.00  0.00    -0.200 F 
ATOM     61  F   UNL A   1      40.005  26.642  26.588  1.00  0.00    -0.200 F 
ENDBRANCH  27  51
BRANCH  39  62
ATOM     62  C   UNL A   1      44.420  28.888  35.525  1.00  0.00     0.064 A 
ATOM     63  C   UNL A   1      45.679  29.354  35.122  1.00  0.00     0.173 A 
ATOM     64  C   UNL A   1      44.357  27.677  36.229  1.00  0.00     0.173 A 
ATOM     65  F   UNL A   1      45.787  30.501  34.433  1.00  0.00    -0.203 F 
ATOM     66  C   UNL A   1      46.829  28.615  35.382  1.00  0.00     0.198 A 
ATOM     67  C   UNL A   1      45.513  26.961  36.523  1.00  0.00     0.198 A 
ATOM     68  F   UNL A   1      43.176  27.195  36.645  1.00  0.00    -0.203 F 
ATOM     69  F   UNL A   1      48.014  29.046  34.931  1.00  0.00    -0.200 F 
ATOM     70  C   UNL A   1      46.745  27.424  36.088  1.00  0.00     0.200 A 
ATOM     71  F   UNL A   1      45.432  25.820  37.221  1.00  0.00    -0.200 F 
ATOM     72  F   UNL A   1      47.854  26.717  36.343  1.00  0.00    -0.200 F 
ENDBRANCH  39  62
ENDBRANCH  13  14
ENDBRANCH   6   8
ENDBRANCH   5   6
ENDBRANCH   4   5
ENDBRANCH   3   4
ENDBRANCH   2   3
ENDBRANCH   1   2
BRANCH   1  73
ATOM     73  C   UNL A   1      34.908  33.321  29.337  1.00  0.00     0.188 C 
BRANCH  73  74
ATOM     74  O   UNL A   1      34.469  31.976  29.182  1.00  0.00    -0.376 OA
BRANCH  74  75
ATOM     75  C   UNL A   1      34.559  31.449  27.862  1.00  0.00     0.202 C 
BRANCH  75  76
ATOM     76  C   UNL A   1      33.287  30.679  27.427  1.00  0.00     0.261 C 
BRANCH  76  77
ATOM     77  O   UNL A   1      33.505  29.261  27.200  1.00  0.00    -0.462 OA
BRANCH  77  78
ATOM     78  C   UNL A   1      32.397  28.518  26.891  1.00  0.00     0.334 C 
ATOM     79  O   UNL A   1      31.474  28.320  27.680  1.00  0.00    -0.250 OA
BRANCH  78  80
ATOM     80  C   UNL A   1      32.361  28.012  25.402  1.00  0.00     0.252 C 
ATOM     81  C   UNL A   1      33.074  28.973  24.425  1.00  0.00     0.298 C 
ATOM     82  N   UNL A   1      31.461  27.076  24.583  1.00  0.00    -0.300 N 
ATOM     83  N   UNL A   1      33.946  28.237  23.469  1.00  0.00    -0.343 N 
ATOM     84  C   UNL A   1      32.348  26.266  23.706  1.00  0.00     0.183 C 
ATOM     85  C   UNL A   1      33.169  27.190  22.764  1.00  0.00     0.282 C 
ATOM     86  H   UNL A   1      34.712  27.799  23.980  1.00  0.00     0.346 HD
ATOM     87  H   UNL A   1      34.315  28.895  22.781  1.00  0.00     0.346 HD
BRANCH  82  88
ATOM     88  C   UNL A   1      30.195  27.180  24.047  1.00  0.00     0.318 C 
ATOM     89  O   UNL A   1      29.410  26.218  24.108  1.00  0.00    -0.249 OA
ATOM     90  N   UNL A   1      29.595  28.237  23.490  1.00  0.00    -0.333 N 
ATOM     91  H   UNL A   1      28.704  27.957  23.179  1.00  0.00     0.165 HD
BRANCH  90  92
ATOM     92  C   UNL A   1      29.768  29.662  23.169  1.00  0.00     0.112 C 
ATOM     93  C   UNL A   1      28.536  30.428  23.404  1.00  0.00     0.056 C 
ATOM     94  C   UNL A   1      29.943  30.014  21.692  1.00  0.00     0.185 C 
ATOM     95  C   UNL A   1      27.692  30.058  22.213  1.00  0.00     0.162 C 
ATOM     96  O   UNL A   1      28.619  30.096  21.115  1.00  0.00    -0.379 OA
ENDBRANCH  90  92
ENDBRANCH  82  88
ENDBRANCH  78  80
ENDBRANCH  77  78
ENDBRANCH  76  77
ENDBRANCH  75  76
ENDBRANCH  74  75
ENDBRANCH  73  74
ENDBRANCH   1  73
TORSDOF 19
ENDMDL
