MODEL 1
REMARK VINA RESULT:     -13.3      0.000      0.000
REMARK SMILES Cc1ccc(-c2cnnc(-n3nc(C)c4c3NC(=O)C[C@@H]4c3ccc(C(=O)OCCOCCOCCOC(=O)c4ccc(-c5c6nc(c(-c7c(F)c(F)c(F)c(F)c7F)c7ccc([nH]7)c(-c7c(F)c(F)c(F)c(F)c7F)c7nc(c(-c8c(F)c(F)c(F)c(F)c8F)c8ccc5[nH]8)C=C7)C=C6)cc4)cc3)n2)cc1
REMARK SMILES IDX 32 1 31 2 30 3 29 4 28 5 26 6 27 7 25 8 22 9 23 10 104 11
REMARK SMILES IDX 24 12 103 13 21 14 11 15 12 16 16 17 13 18 15 19 17 20 14 21
REMARK SMILES IDX 18 22 20 24 19 25 10 26 6 27 7 28 105 29 8 30 9 31 5 32 1 33
REMARK SMILES IDX 2 34 3 35 107 36 4 37 106 38 33 39 34 40 35 41 36 42 37 43
REMARK SMILES IDX 38 44 39 45 40 46 41 47 102 48 42 49 101 50 43 51 44 52
REMARK SMILES IDX 45 53 95 54 46 55 100 56 94 57 96 58 47 59 99 60 93 61 92 62
REMARK SMILES IDX 48 64 80 65 60 66 79 67 61 68 64 69 78 70 97 71 62 72 63 73
REMARK SMILES IDX 77 75 98 76 65 77 49 78 50 79 58 80 51 81 52 82 56 83 59 84
REMARK SMILES IDX 53 85 54 86 57 87 55 88 81 89 82 90 90 91 83 92 84 93 88 94
REMARK SMILES IDX 91 95 85 96 86 97 89 98 87 99 66 100 67 101 75 102 68 103
REMARK SMILES IDX 69 104 73 105 76 106 70 107 71 108 74 109 72 110
REMARK H PARENT 17 23 96 63 64 74
REMARK Flexibility Score: inf
ROOT
ATOM      1  C   UNL A   1      37.651  19.914  24.975  1.00  0.00     0.188 C 
ENDROOT
BRANCH   1   2
ATOM      2  O   UNL A   1      37.031  21.168  24.646  1.00  0.00    -0.376 OA
BRANCH   2   3
ATOM      3  C   UNL A   1      36.160  21.863  25.565  1.00  0.00     0.202 C 
BRANCH   3   4
ATOM      4  C   UNL A   1      34.697  21.264  25.897  1.00  0.00     0.261 C 
BRANCH   4   5
ATOM      5  O   UNL A   1      33.550  21.154  24.879  1.00  0.00    -0.460 OA
BRANCH   5   6
ATOM      6  C   UNL A   1      32.581  22.083  25.116  1.00  0.00     0.338 C 
ATOM      7  O   UNL A   1      31.512  21.517  25.268  1.00  0.00    -0.246 OA
BRANCH   6   8
ATOM      8  C   UNL A   1      32.647  23.849  24.918  1.00  0.00     0.060 A 
ATOM      9  C   UNL A   1      32.673  26.635  23.954  1.00  0.00    -0.040 A 
ATOM     10  C   UNL A   1      33.595  25.787  23.465  1.00  0.00     0.005 A 
ATOM     11  C   UNL A   1      31.677  26.083  24.835  1.00  0.00     0.005 A 
ATOM     12  C   UNL A   1      33.554  24.507  23.959  1.00  0.00     0.016 A 
ATOM     13  C   UNL A   1      31.674  24.727  25.336  1.00  0.00     0.016 A 
BRANCH   9  14
ATOM     14  C   UNL A   1      33.041  28.072  23.657  1.00  0.00     0.064 C 
ATOM     15  N   UNL A   1      32.512  29.885  26.675  1.00  0.00    -0.180 N 
ATOM     16  N   UNL A   1      33.245  28.863  27.212  1.00  0.00    -0.168 NA
ATOM     17  C   UNL A   1      32.063  29.518  25.416  1.00  0.00     0.143 A 
ATOM     18  C   UNL A   1      33.784  28.285  26.140  1.00  0.00     0.066 A 
ATOM     19  C   UNL A   1      33.045  28.662  24.986  1.00  0.00     0.026 A 
ATOM     20  N   UNL A   1      30.953  29.776  24.621  1.00  0.00    -0.310 N 
ATOM     21  C   UNL A   1      34.821  27.234  26.310  1.00  0.00     0.069 C 
ATOM     22  C   UNL A   1      30.898  29.226  23.288  1.00  0.00     0.226 C 
ATOM     23  H   UNL A   1      30.214  30.329  24.964  1.00  0.00     0.171 HD
ATOM     24  C   UNL A   1      32.188  28.819  22.649  1.00  0.00     0.113 C 
ATOM     25  O   UNL A   1      29.809  29.231  22.720  1.00  0.00    -0.275 OA
BRANCH  15  26
ATOM     26  C   UNL A   1      32.799  31.206  27.088  1.00  0.00     0.272 A 
ATOM     27  C   UNL A   1      33.872  32.726  28.358  1.00  0.00     0.095 A 
ATOM     28  C   UNL A   1      32.930  33.676  27.995  1.00  0.00     0.164 A 
ATOM     29  N   UNL A   1      33.789  31.434  27.962  1.00  0.00    -0.208 NA
ATOM     30  N   UNL A   1      31.924  33.375  27.167  1.00  0.00    -0.153 NA
ATOM     31  N   UNL A   1      31.891  32.133  26.672  1.00  0.00    -0.109 NA
BRANCH  27  32
ATOM     32  C   UNL A   1      35.087  33.102  29.073  1.00  0.00     0.002 A 
ATOM     33  C   UNL A   1      38.649  34.498  31.061  1.00  0.00     0.044 C 
ATOM     34  C   UNL A   1      37.415  34.015  30.362  1.00  0.00    -0.051 A 
ATOM     35  C   UNL A   1      36.236  33.813  31.087  1.00  0.00     0.004 A 
ATOM     36  C   UNL A   1      37.431  33.752  28.990  1.00  0.00     0.004 A 
ATOM     37  C   UNL A   1      35.082  33.360  30.450  1.00  0.00     0.011 A 
ATOM     38  C   UNL A   1      36.279  33.296  28.355  1.00  0.00     0.011 A 
ENDBRANCH  27  32
ENDBRANCH  15  26
ENDBRANCH   9  14
ENDBRANCH   6   8
ENDBRANCH   5   6
ENDBRANCH   4   5
ENDBRANCH   3   4
ENDBRANCH   2   3
ENDBRANCH   1   2
BRANCH   1  39
ATOM     39  C   UNL A   1      39.147  19.760  25.240  1.00  0.00     0.188 C 
BRANCH  39  40
ATOM     40  O   UNL A   1      39.619  20.793  26.093  1.00  0.00    -0.376 OA
BRANCH  40  41
ATOM     41  C   UNL A   1      40.828  20.492  26.770  1.00  0.00     0.202 C 
BRANCH  41  42
ATOM     42  C   UNL A   1      41.858  19.777  25.877  1.00  0.00     0.261 C 
BRANCH  42  43
ATOM     43  O   UNL A   1      43.122  20.483  25.912  1.00  0.00    -0.460 OA
BRANCH  43  44
ATOM     44  C   UNL A   1      43.973  20.410  24.829  1.00  0.00     0.338 C 
ATOM     45  O   UNL A   1      44.123  19.435  24.117  1.00  0.00    -0.246 OA
BRANCH  44  46
ATOM     46  C   UNL A   1      44.887  21.619  24.831  1.00  0.00     0.060 A 
ATOM     47  C   UNL A   1      45.730  21.974  25.898  1.00  0.00     0.016 A 
ATOM     48  C   UNL A   1      44.443  22.651  24.097  1.00  0.00     0.016 A 
ATOM     49  C   UNL A   1      45.757  23.330  26.450  1.00  0.00     0.010 A 
ATOM     50  C   UNL A   1      44.234  23.785  24.876  1.00  0.00     0.010 A 
ATOM     51  C   UNL A   1      44.834  24.305  26.081  1.00  0.00    -0.014 A 
BRANCH  51  52
ATOM     52  C   UNL A   1      44.368  25.683  27.077  1.00  0.00     0.031 A 
ATOM     53  C   UNL A   1      42.917  26.723  27.280  1.00  0.00     0.074 A 
ATOM     54  C   UNL A   1      45.294  26.103  27.966  1.00  0.00     0.049 A 
ATOM     55  N   UNL A   1      42.969  28.010  27.605  1.00  0.00    -0.248 NA
ATOM     56  C   UNL A   1      41.443  26.554  26.872  1.00  0.00     0.031 C 
ATOM     57  C   UNL A   1      45.056  26.937  29.139  1.00  0.00     0.029 A 
ATOM     58  N   UNL A   1      46.676  25.895  27.973  1.00  0.00    -0.354 N 
ATOM     59  C   UNL A   1      41.636  28.475  27.623  1.00  0.00     0.074 A 
ATOM     60  C   UNL A   1      40.962  27.762  26.640  1.00  0.00     0.031 C 
ATOM     61  C   UNL A   1      46.227  27.412  29.577  1.00  0.00     0.029 A 
ATOM     62  C   UNL A   1      47.229  27.027  28.611  1.00  0.00     0.049 A 
ATOM     63  H   UNL A   1      47.162  25.121  27.610  1.00  0.00     0.167 HD
ATOM     64  C   UNL A   1      41.040  29.119  28.668  1.00  0.00     0.037 A 
ATOM     65  C   UNL A   1      48.056  27.863  27.921  1.00  0.00     0.037 A 
ATOM     66  C   UNL A   1      42.077  29.773  29.404  1.00  0.00     0.049 A 
ATOM     67  C   UNL A   1      47.507  29.275  27.791  1.00  0.00     0.074 A 
ATOM     68  C   UNL A   1      42.764  29.603  30.580  1.00  0.00     0.029 A 
ATOM     69  N   UNL A   1      42.809  30.642  28.645  1.00  0.00    -0.354 N 
ATOM     70  N   UNL A   1      46.440  29.716  28.406  1.00  0.00    -0.248 NA
ATOM     71  C   UNL A   1      48.071  30.288  26.899  1.00  0.00     0.031 C 
ATOM     72  C   UNL A   1      44.020  30.290  30.416  1.00  0.00     0.029 A 
ATOM     73  C   UNL A   1      44.037  30.905  29.170  1.00  0.00     0.049 A 
ATOM     74  H   UNL A   1      42.482  31.037  27.805  1.00  0.00     0.167 HD
ATOM     75  C   UNL A   1      46.105  30.958  27.934  1.00  0.00     0.074 A 
ATOM     76  C   UNL A   1      47.173  31.284  27.007  1.00  0.00     0.031 C 
ATOM     77  C   UNL A   1      44.950  31.606  28.278  1.00  0.00     0.037 A 
BRANCH  64  78
ATOM     78  C   UNL A   1      39.538  29.155  29.019  1.00  0.00     0.064 A 
ATOM     79  C   UNL A   1      38.620  29.539  28.018  1.00  0.00     0.173 A 
ATOM     80  C   UNL A   1      38.927  28.942  30.289  1.00  0.00     0.173 A 
ATOM     81  F   UNL A   1      39.034  29.778  26.767  1.00  0.00    -0.203 F 
ATOM     82  C   UNL A   1      37.246  29.711  28.261  1.00  0.00     0.198 A 
ATOM     83  C   UNL A   1      37.545  29.055  30.514  1.00  0.00     0.198 A 
ATOM     84  F   UNL A   1      39.620  28.672  31.401  1.00  0.00    -0.203 F 
ATOM     85  F   UNL A   1      36.449  30.140  27.274  1.00  0.00    -0.200 F 
ATOM     86  C   UNL A   1      36.707  29.460  29.505  1.00  0.00     0.200 A 
ATOM     87  F   UNL A   1      37.048  28.800  31.735  1.00  0.00    -0.200 F 
ATOM     88  F   UNL A   1      35.397  29.627  29.736  1.00  0.00    -0.200 F 
ENDBRANCH  64  78
BRANCH  65  89
ATOM     89  C   UNL A   1      48.917  27.080  26.976  1.00  0.00     0.064 A 
ATOM     90  C   UNL A   1      48.527  27.110  25.612  1.00  0.00     0.173 A 
ATOM     91  C   UNL A   1      50.256  26.772  27.246  1.00  0.00     0.173 A 
ATOM     92  F   UNL A   1      47.259  27.411  25.288  1.00  0.00    -0.203 F 
ATOM     93  C   UNL A   1      49.462  27.035  24.582  1.00  0.00     0.198 A 
ATOM     94  C   UNL A   1      51.180  26.625  26.201  1.00  0.00     0.198 A 
ATOM     95  F   UNL A   1      50.716  26.779  28.507  1.00  0.00    -0.203 F 
ATOM     96  F   UNL A   1      49.092  27.309  23.322  1.00  0.00    -0.200 F 
ATOM     97  C   UNL A   1      50.792  26.811  24.878  1.00  0.00     0.200 A 
ATOM     98  F   UNL A   1      52.485  26.491  26.485  1.00  0.00    -0.200 F 
ATOM     99  F   UNL A   1      51.716  26.882  23.909  1.00  0.00    -0.200 F 
ENDBRANCH  65  89
BRANCH  77 100
ATOM    100  C   UNL A   1      44.534  32.940  27.680  1.00  0.00     0.064 A 
ATOM    101  C   UNL A   1      44.362  34.066  28.492  1.00  0.00     0.173 A 
ATOM    102  C   UNL A   1      44.187  33.121  26.314  1.00  0.00     0.173 A 
ATOM    103  F   UNL A   1      44.624  34.002  29.805  1.00  0.00    -0.203 F 
ATOM    104  C   UNL A   1      43.916  35.286  27.973  1.00  0.00     0.198 A 
ATOM    105  C   UNL A   1      43.662  34.311  25.818  1.00  0.00     0.198 A 
ATOM    106  F   UNL A   1      44.390  32.172  25.388  1.00  0.00    -0.203 F 
ATOM    107  F   UNL A   1      43.846  36.357  28.774  1.00  0.00    -0.200 F 
ATOM    108  C   UNL A   1      43.545  35.403  26.644  1.00  0.00     0.200 A 
ATOM    109  F   UNL A   1      43.297  34.388  24.529  1.00  0.00    -0.200 F 
ATOM    110  F   UNL A   1      43.100  36.568  26.156  1.00  0.00    -0.200 F 
ENDBRANCH  77 100
ENDBRANCH  51  52
ENDBRANCH  44  46
ENDBRANCH  43  44
ENDBRANCH  42  43
ENDBRANCH  41  42
ENDBRANCH  40  41
ENDBRANCH  39  40
ENDBRANCH   1  39
TORSDOF 20
ENDMDL
MODEL 2
REMARK VINA RESULT:     -12.8      4.702     11.089
REMARK SMILES Cc1ccc(-c2cnnc(-n3nc(C)c4c3NC(=O)C[C@@H]4c3ccc(C(=O)OCCOCCOCCOC(=O)c4ccc(-c5c6nc(c(-c7c(F)c(F)c(F)c(F)c7F)c7ccc([nH]7)c(-c7c(F)c(F)c(F)c(F)c7F)c7nc(c(-c8c(F)c(F)c(F)c(F)c8F)c8ccc5[nH]8)C=C7)C=C6)cc4)cc3)n2)cc1
REMARK SMILES IDX 32 1 31 2 30 3 29 4 28 5 26 6 27 7 25 8 22 9 23 10 104 11
REMARK SMILES IDX 24 12 103 13 21 14 11 15 12 16 16 17 13 18 15 19 17 20 14 21
REMARK SMILES IDX 18 22 20 24 19 25 10 26 6 27 7 28 105 29 8 30 9 31 5 32 1 33
REMARK SMILES IDX 2 34 3 35 107 36 4 37 106 38 33 39 34 40 35 41 36 42 37 43
REMARK SMILES IDX 38 44 39 45 40 46 41 47 102 48 42 49 101 50 43 51 44 52
REMARK SMILES IDX 45 53 95 54 46 55 100 56 94 57 96 58 47 59 99 60 93 61 92 62
REMARK SMILES IDX 48 64 80 65 60 66 79 67 61 68 64 69 78 70 97 71 62 72 63 73
REMARK SMILES IDX 77 75 98 76 65 77 49 78 50 79 58 80 51 81 52 82 56 83 59 84
REMARK SMILES IDX 53 85 54 86 57 87 55 88 81 89 82 90 90 91 83 92 84 93 88 94
REMARK SMILES IDX 91 95 85 96 86 97 89 98 87 99 66 100 67 101 75 102 68 103
REMARK SMILES IDX 69 104 73 105 76 106 70 107 71 108 74 109 72 110
REMARK H PARENT 17 23 96 63 64 74
REMARK Flexibility Score: inf
ROOT
ATOM      1  C   UNL A   1      32.687  29.648  26.818  1.00  0.00     0.188 C 
ENDROOT
BRANCH   1   2
ATOM      2  O   UNL A   1      32.550  30.062  25.448  1.00  0.00    -0.376 OA
BRANCH   2   3
ATOM      3  C   UNL A   1      32.995  29.242  24.346  1.00  0.00     0.202 C 
BRANCH   3   4
ATOM      4  C   UNL A   1      32.004  28.959  23.102  1.00  0.00     0.261 C 
BRANCH   4   5
ATOM      5  O   UNL A   1      31.967  27.648  22.299  1.00  0.00    -0.460 OA
BRANCH   5   6
ATOM      6  C   UNL A   1      31.522  26.609  23.060  1.00  0.00     0.338 C 
ATOM      7  O   UNL A   1      30.347  26.787  23.331  1.00  0.00    -0.246 OA
BRANCH   6   8
ATOM      8  C   UNL A   1      32.455  25.339  23.884  1.00  0.00     0.060 A 
ATOM      9  C   UNL A   1      33.414  23.044  25.468  1.00  0.00    -0.040 A 
ATOM     10  C   UNL A   1      32.738  24.015  26.105  1.00  0.00     0.005 A 
ATOM     11  C   UNL A   1      33.525  23.154  24.035  1.00  0.00     0.005 A 
ATOM     12  C   UNL A   1      32.329  25.071  25.329  1.00  0.00     0.016 A 
ATOM     13  C   UNL A   1      33.084  24.289  23.255  1.00  0.00     0.016 A 
BRANCH   9  14
ATOM     14  C   UNL A   1      34.142  22.152  26.448  1.00  0.00     0.064 C 
ATOM     15  N   UNL A   1      37.365  21.556  25.056  1.00  0.00    -0.180 N 
ATOM     16  N   UNL A   1      37.362  22.916  24.912  1.00  0.00    -0.168 NA
ATOM     17  C   UNL A   1      36.072  21.114  25.289  1.00  0.00     0.143 A 
ATOM     18  C   UNL A   1      36.350  23.297  25.691  1.00  0.00     0.066 A 
ATOM     19  C   UNL A   1      35.502  22.184  25.931  1.00  0.00     0.026 A 
ATOM     20  N   UNL A   1      35.325  19.976  25.011  1.00  0.00    -0.310 N 
ATOM     21  C   UNL A   1      36.133  24.742  25.964  1.00  0.00     0.069 C 
ATOM     22  C   UNL A   1      33.972  19.883  25.506  1.00  0.00     0.226 C 
ATOM     23  H   UNL A   1      35.714  19.243  24.482  1.00  0.00     0.171 HD
ATOM     24  C   UNL A   1      33.594  20.754  26.662  1.00  0.00     0.113 C 
ATOM     25  O   UNL A   1      33.253  19.015  25.021  1.00  0.00    -0.275 OA
BRANCH  15  26
ATOM     26  C   UNL A   1      38.540  20.935  25.537  1.00  0.00     0.272 A 
ATOM     27  C   UNL A   1      40.666  20.961  26.284  1.00  0.00     0.095 A 
ATOM     28  C   UNL A   1      40.753  19.599  26.046  1.00  0.00     0.164 A 
ATOM     29  N   UNL A   1      39.565  21.684  25.967  1.00  0.00    -0.208 NA
ATOM     30  N   UNL A   1      39.716  18.912  25.555  1.00  0.00    -0.153 NA
ATOM     31  N   UNL A   1      38.581  19.586  25.345  1.00  0.00    -0.109 NA
BRANCH  27  32
ATOM     32  C   UNL A   1      41.707  21.667  27.023  1.00  0.00     0.002 A 
ATOM     33  C   UNL A   1      44.716  24.004  29.040  1.00  0.00     0.044 C 
ATOM     34  C   UNL A   1      43.675  23.193  28.331  1.00  0.00    -0.051 A 
ATOM     35  C   UNL A   1      42.481  22.868  28.984  1.00  0.00     0.004 A 
ATOM     36  C   UNL A   1      43.887  22.747  27.025  1.00  0.00     0.004 A 
ATOM     37  C   UNL A   1      41.506  22.110  28.337  1.00  0.00     0.011 A 
ATOM     38  C   UNL A   1      42.914  21.988  26.381  1.00  0.00     0.011 A 
ENDBRANCH  27  32
ENDBRANCH  15  26
ENDBRANCH   9  14
ENDBRANCH   6   8
ENDBRANCH   5   6
ENDBRANCH   4   5
ENDBRANCH   3   4
ENDBRANCH   2   3
ENDBRANCH   1   2
BRANCH   1  39
ATOM     39  C   UNL A   1      33.786  30.162  27.746  1.00  0.00     0.188 C 
BRANCH  39  40
ATOM     40  O   UNL A   1      34.232  31.447  27.338  1.00  0.00    -0.376 OA
BRANCH  40  41
ATOM     41  C   UNL A   1      33.990  32.481  28.279  1.00  0.00     0.202 C 
BRANCH  41  42
ATOM     42  C   UNL A   1      34.915  32.407  29.507  1.00  0.00     0.261 C 
BRANCH  42  43
ATOM     43  O   UNL A   1      34.765  33.600  30.316  1.00  0.00    -0.460 OA
BRANCH  43  44
ATOM     44  C   UNL A   1      34.739  33.492  31.690  1.00  0.00     0.338 C 
ATOM     45  O   UNL A   1      33.742  33.304  32.362  1.00  0.00    -0.246 OA
BRANCH  44  46
ATOM     46  C   UNL A   1      36.081  33.920  32.250  1.00  0.00     0.060 A 
ATOM     47  C   UNL A   1      37.137  34.433  31.476  1.00  0.00     0.016 A 
ATOM     48  C   UNL A   1      36.464  33.249  33.347  1.00  0.00     0.016 A 
ATOM     49  C   UNL A   1      38.501  33.911  31.576  1.00  0.00     0.010 A 
ATOM     50  C   UNL A   1      37.652  32.554  33.139  1.00  0.00     0.010 A 
ATOM     51  C   UNL A   1      38.811  32.765  32.305  1.00  0.00    -0.014 A 
BRANCH  51  52
ATOM     52  C   UNL A   1      40.196  31.718  32.001  1.00  0.00     0.031 A 
ATOM     53  C   UNL A   1      40.518  30.202  31.094  1.00  0.00     0.074 A 
ATOM     54  C   UNL A   1      41.364  32.120  32.545  1.00  0.00     0.049 A 
ATOM     55  N   UNL A   1      41.408  29.289  31.470  1.00  0.00    -0.248 NA
ATOM     56  C   UNL A   1      39.750  29.462  29.983  1.00  0.00     0.031 C 
ATOM     57  C   UNL A   1      42.700  31.681  32.157  1.00  0.00     0.029 A 
ATOM     58  N   UNL A   1      41.593  32.994  33.611  1.00  0.00    -0.354 N 
ATOM     59  C   UNL A   1      41.332  28.241  30.528  1.00  0.00     0.074 A 
ATOM     60  C   UNL A   1      40.004  28.174  30.125  1.00  0.00     0.031 C 
ATOM     61  C   UNL A   1      43.566  32.027  33.116  1.00  0.00     0.029 A 
ATOM     62  C   UNL A   1      42.793  32.557  34.214  1.00  0.00     0.049 A 
ATOM     63  H   UNL A   1      41.034  33.757  33.885  1.00  0.00     0.167 HD
ATOM     64  C   UNL A   1      42.387  27.733  29.827  1.00  0.00     0.037 A 
ATOM     65  C   UNL A   1      42.784  32.098  35.497  1.00  0.00     0.037 A 
ATOM     66  C   UNL A   1      43.559  27.957  30.613  1.00  0.00     0.049 A 
ATOM     67  C   UNL A   1      43.204  30.640  35.615  1.00  0.00     0.074 A 
ATOM     68  C   UNL A   1      44.643  28.799  30.622  1.00  0.00     0.029 A 
ATOM     69  N   UNL A   1      43.485  27.401  31.860  1.00  0.00    -0.354 N 
ATOM     70  N   UNL A   1      43.688  29.927  34.631  1.00  0.00    -0.248 NA
ATOM     71  C   UNL A   1      43.044  29.843  36.830  1.00  0.00     0.031 C 
ATOM     72  C   UNL A   1      45.113  28.836  31.984  1.00  0.00     0.029 A 
ATOM     73  C   UNL A   1      44.340  27.974  32.752  1.00  0.00     0.049 A 
ATOM     74  H   UNL A   1      42.876  26.663  32.089  1.00  0.00     0.167 HD
ATOM     75  C   UNL A   1      43.786  28.613  35.008  1.00  0.00     0.074 A 
ATOM     76  C   UNL A   1      43.393  28.615  36.405  1.00  0.00     0.031 C 
ATOM     77  C   UNL A   1      44.116  27.606  34.142  1.00  0.00     0.037 A 
BRANCH  64  78
ATOM     78  C   UNL A   1      42.356  27.044  28.447  1.00  0.00     0.064 A 
ATOM     79  C   UNL A   1      43.268  27.469  27.459  1.00  0.00     0.173 A 
ATOM     80  C   UNL A   1      41.432  26.066  27.974  1.00  0.00     0.173 A 
ATOM     81  F   UNL A   1      44.203  28.386  27.743  1.00  0.00    -0.203 F 
ATOM     82  C   UNL A   1      43.253  26.987  26.139  1.00  0.00     0.198 A 
ATOM     83  C   UNL A   1      41.458  25.541  26.671  1.00  0.00     0.198 A 
ATOM     84  F   UNL A   1      40.417  25.598  28.709  1.00  0.00    -0.203 F 
ATOM     85  F   UNL A   1      44.111  27.488  25.242  1.00  0.00    -0.200 F 
ATOM     86  C   UNL A   1      42.354  26.017  25.747  1.00  0.00     0.200 A 
ATOM     87  F   UNL A   1      40.574  24.594  26.319  1.00  0.00    -0.200 F 
ATOM     88  F   UNL A   1      42.338  25.561  24.487  1.00  0.00    -0.200 F 
ENDBRANCH  64  78
BRANCH  65  89
ATOM     89  C   UNL A   1      41.811  32.882  36.325  1.00  0.00     0.064 A 
ATOM     90  C   UNL A   1      42.255  34.157  36.763  1.00  0.00     0.173 A 
ATOM     91  C   UNL A   1      40.427  32.680  36.265  1.00  0.00     0.173 A 
ATOM     92  F   UNL A   1      43.572  34.416  36.830  1.00  0.00    -0.203 F 
ATOM     93  C   UNL A   1      41.373  35.220  36.936  1.00  0.00     0.198 A 
ATOM     94  C   UNL A   1      39.539  33.737  36.513  1.00  0.00     0.198 A 
ATOM     95  F   UNL A   1      39.927  31.522  35.808  1.00  0.00    -0.203 F 
ATOM     96  F   UNL A   1      41.848  36.462  37.112  1.00  0.00    -0.200 F 
ATOM     97  C   UNL A   1      40.014  35.014  36.793  1.00  0.00     0.200 A 
ATOM     98  F   UNL A   1      38.226  33.565  36.293  1.00  0.00    -0.200 F 
ATOM     99  F   UNL A   1      39.172  36.057  36.814  1.00  0.00    -0.200 F 
ENDBRANCH  65  89
BRANCH  77 100
ATOM    100  C   UNL A   1      44.130  26.139  34.539  1.00  0.00     0.064 A 
ATOM    101  C   UNL A   1      45.312  25.393  34.480  1.00  0.00     0.173 A 
ATOM    102  C   UNL A   1      42.966  25.400  34.880  1.00  0.00     0.173 A 
ATOM    103  F   UNL A   1      46.467  25.978  34.133  1.00  0.00    -0.203 F 
ATOM    104  C   UNL A   1      45.335  24.026  34.777  1.00  0.00     0.198 A 
ATOM    105  C   UNL A   1      42.977  24.024  35.091  1.00  0.00     0.198 A 
ATOM    106  F   UNL A   1      41.775  25.984  35.078  1.00  0.00    -0.203 F 
ATOM    107  F   UNL A   1      46.505  23.373  34.788  1.00  0.00    -0.200 F 
ATOM    108  C   UNL A   1      44.168  23.337  35.060  1.00  0.00     0.200 A 
ATOM    109  F   UNL A   1      41.826  23.382  35.348  1.00  0.00    -0.200 F 
ATOM    110  F   UNL A   1      44.192  22.026  35.324  1.00  0.00    -0.200 F 
ENDBRANCH  77 100
ENDBRANCH  51  52
ENDBRANCH  44  46
ENDBRANCH  43  44
ENDBRANCH  42  43
ENDBRANCH  41  42
ENDBRANCH  40  41
ENDBRANCH  39  40
ENDBRANCH   1  39
TORSDOF 20
ENDMDL
MODEL 3
REMARK VINA RESULT:     -12.4      3.183      7.557
REMARK SMILES Cc1ccc(-c2cnnc(-n3nc(C)c4c3NC(=O)C[C@@H]4c3ccc(C(=O)OCCOCCOCCOC(=O)c4ccc(-c5c6nc(c(-c7c(F)c(F)c(F)c(F)c7F)c7ccc([nH]7)c(-c7c(F)c(F)c(F)c(F)c7F)c7nc(c(-c8c(F)c(F)c(F)c(F)c8F)c8ccc5[nH]8)C=C7)C=C6)cc4)cc3)n2)cc1
REMARK SMILES IDX 32 1 31 2 30 3 29 4 28 5 26 6 27 7 25 8 22 9 23 10 104 11
REMARK SMILES IDX 24 12 103 13 21 14 11 15 12 16 16 17 13 18 15 19 17 20 14 21
REMARK SMILES IDX 18 22 20 24 19 25 10 26 6 27 7 28 105 29 8 30 9 31 5 32 1 33
REMARK SMILES IDX 2 34 3 35 107 36 4 37 106 38 33 39 34 40 35 41 36 42 37 43
REMARK SMILES IDX 38 44 39 45 40 46 41 47 102 48 42 49 101 50 43 51 44 52
REMARK SMILES IDX 45 53 95 54 46 55 100 56 94 57 96 58 47 59 99 60 93 61 92 62
REMARK SMILES IDX 48 64 80 65 60 66 79 67 61 68 64 69 78 70 97 71 62 72 63 73
REMARK SMILES IDX 77 75 98 76 65 77 49 78 50 79 58 80 51 81 52 82 56 83 59 84
REMARK SMILES IDX 53 85 54 86 57 87 55 88 81 89 82 90 90 91 83 92 84 93 88 94
REMARK SMILES IDX 91 95 85 96 86 97 89 98 87 99 66 100 67 101 75 102 68 103
REMARK SMILES IDX 69 104 73 105 76 106 70 107 71 108 74 109 72 110
REMARK H PARENT 17 23 96 63 64 74
REMARK Flexibility Score: inf
ROOT
ATOM      1  C   UNL A   1      36.254  22.866  24.542  1.00  0.00     0.188 C 
ENDROOT
BRANCH   1   2
ATOM      2  O   UNL A   1      35.367  21.744  24.682  1.00  0.00    -0.376 OA
BRANCH   2   3
ATOM      3  C   UNL A   1      35.836  20.431  25.058  1.00  0.00     0.202 C 
BRANCH   3   4
ATOM      4  C   UNL A   1      34.909  19.136  24.786  1.00  0.00     0.261 C 
BRANCH   4   5
ATOM      5  O   UNL A   1      33.429  19.024  25.191  1.00  0.00    -0.460 OA
BRANCH   5   6
ATOM      6  C   UNL A   1      32.608  19.509  24.217  1.00  0.00     0.338 C 
ATOM      7  O   UNL A   1      32.467  18.660  23.353  1.00  0.00    -0.246 OA
BRANCH   6   8
ATOM      8  C   UNL A   1      32.056  21.177  23.942  1.00  0.00     0.060 A 
ATOM      9  C   UNL A   1      31.630  24.095  23.897  1.00  0.00    -0.040 A 
ATOM     10  C   UNL A   1      31.558  23.463  25.081  1.00  0.00     0.005 A 
ATOM     11  C   UNL A   1      32.016  23.305  22.755  1.00  0.00     0.005 A 
ATOM     12  C   UNL A   1      31.744  22.103  25.048  1.00  0.00     0.016 A 
ATOM     13  C   UNL A   1      32.198  21.871  22.763  1.00  0.00     0.016 A 
BRANCH   9  14
ATOM     14  C   UNL A   1      31.036  25.483  23.981  1.00  0.00     0.064 C 
ATOM     15  N   UNL A   1      33.214  27.377  26.066  1.00  0.00    -0.180 N 
ATOM     16  N   UNL A   1      34.172  26.860  25.239  1.00  0.00    -0.168 NA
ATOM     17  C   UNL A   1      32.040  26.655  25.922  1.00  0.00     0.143 A 
ATOM     18  C   UNL A   1      33.461  26.393  24.213  1.00  0.00     0.066 A 
ATOM     19  C   UNL A   1      32.109  26.231  24.619  1.00  0.00     0.026 A 
ATOM     20  N   UNL A   1      30.969  26.291  26.727  1.00  0.00    -0.310 N 
ATOM     21  C   UNL A   1      34.157  25.915  22.990  1.00  0.00     0.069 C 
ATOM     22  C   UNL A   1      29.870  25.556  26.148  1.00  0.00     0.226 C 
ATOM     23  H   UNL A   1      30.960  26.531  27.682  1.00  0.00     0.171 HD
ATOM     24  C   UNL A   1      29.690  25.627  24.664  1.00  0.00     0.113 C 
ATOM     25  O   UNL A   1      29.085  25.012  26.921  1.00  0.00    -0.275 OA
BRANCH  15  26
ATOM     26  C   UNL A   1      33.294  28.745  26.412  1.00  0.00     0.272 A 
ATOM     27  C   UNL A   1      34.230  30.498  27.476  1.00  0.00     0.095 A 
ATOM     28  C   UNL A   1      33.073  31.230  27.260  1.00  0.00     0.164 A 
ATOM     29  N   UNL A   1      34.344  29.198  27.112  1.00  0.00    -0.208 NA
ATOM     30  N   UNL A   1      32.030  30.705  26.608  1.00  0.00    -0.153 NA
ATOM     31  N   UNL A   1      32.167  29.461  26.139  1.00  0.00    -0.109 NA
BRANCH  27  32
ATOM     32  C   UNL A   1      35.442  31.133  27.980  1.00  0.00     0.002 A 
ATOM     33  C   UNL A   1      38.862  33.100  29.718  1.00  0.00     0.044 C 
ATOM     34  C   UNL A   1      37.669  32.424  29.114  1.00  0.00    -0.051 A 
ATOM     35  C   UNL A   1      37.585  31.028  29.112  1.00  0.00     0.004 A 
ATOM     36  C   UNL A   1      36.641  33.175  28.540  1.00  0.00     0.004 A 
ATOM     37  C   UNL A   1      36.482  30.387  28.549  1.00  0.00     0.011 A 
ATOM     38  C   UNL A   1      35.541  32.534  27.975  1.00  0.00     0.011 A 
ENDBRANCH  27  32
ENDBRANCH  15  26
ENDBRANCH   9  14
ENDBRANCH   6   8
ENDBRANCH   5   6
ENDBRANCH   4   5
ENDBRANCH   3   4
ENDBRANCH   2   3
ENDBRANCH   1   2
BRANCH   1  39
ATOM     39  C   UNL A   1      36.332  24.008  25.554  1.00  0.00     0.188 C 
BRANCH  39  40
ATOM     40  O   UNL A   1      37.289  23.725  26.563  1.00  0.00    -0.376 OA
BRANCH  40  41
ATOM     41  C   UNL A   1      38.566  24.302  26.342  1.00  0.00     0.202 C 
BRANCH  41  42
ATOM     42  C   UNL A   1      39.227  24.818  27.633  1.00  0.00     0.261 C 
BRANCH  42  43
ATOM     43  O   UNL A   1      39.208  26.266  27.657  1.00  0.00    -0.460 OA
BRANCH  43  44
ATOM     44  C   UNL A   1      39.240  26.928  28.866  1.00  0.00     0.338 C 
ATOM     45  O   UNL A   1      38.608  26.612  29.858  1.00  0.00    -0.246 OA
BRANCH  44  46
ATOM     46  C   UNL A   1      39.953  28.254  28.691  1.00  0.00     0.060 A 
ATOM     47  C   UNL A   1      40.560  28.676  27.496  1.00  0.00     0.016 A 
ATOM     48  C   UNL A   1      40.523  28.728  29.810  1.00  0.00     0.016 A 
ATOM     49  C   UNL A   1      41.932  29.189  27.459  1.00  0.00     0.010 A 
ATOM     50  C   UNL A   1      41.902  28.858  29.671  1.00  0.00     0.010 A 
ATOM     51  C   UNL A   1      42.782  29.128  28.559  1.00  0.00    -0.014 A 
BRANCH  51  52
ATOM     52  C   UNL A   1      44.543  29.105  28.475  1.00  0.00     0.031 A 
ATOM     53  C   UNL A   1      45.841  30.195  27.880  1.00  0.00     0.074 A 
ATOM     54  C   UNL A   1      45.140  28.017  29.007  1.00  0.00     0.049 A 
ATOM     55  N   UNL A   1      46.988  29.767  27.365  1.00  0.00    -0.248 NA
ATOM     56  C   UNL A   1      45.871  31.693  27.529  1.00  0.00     0.031 C 
ATOM     57  C   UNL A   1      46.537  27.905  29.412  1.00  0.00     0.029 A 
ATOM     58  N   UNL A   1      44.612  26.749  29.260  1.00  0.00    -0.354 N 
ATOM     59  C   UNL A   1      47.712  30.916  26.982  1.00  0.00     0.074 A 
ATOM     60  C   UNL A   1      46.769  31.852  26.574  1.00  0.00     0.031 C 
ATOM     61  C   UNL A   1      46.838  26.612  29.575  1.00  0.00     0.029 A 
ATOM     62  C   UNL A   1      45.694  25.851  29.131  1.00  0.00     0.049 A 
ATOM     63  H   UNL A   1      43.679  26.527  29.483  1.00  0.00     0.167 HD
ATOM     64  C   UNL A   1      48.987  31.211  27.368  1.00  0.00     0.037 A 
ATOM     65  C   UNL A   1      45.680  24.902  28.152  1.00  0.00     0.037 A 
ATOM     66  C   UNL A   1      49.637  29.970  27.647  1.00  0.00     0.049 A 
ATOM     67  C   UNL A   1      46.811  25.060  27.148  1.00  0.00     0.074 A 
ATOM     68  C   UNL A   1      50.031  29.241  28.743  1.00  0.00     0.029 A 
ATOM     69  N   UNL A   1      49.633  29.109  26.586  1.00  0.00    -0.354 N 
ATOM     70  N   UNL A   1      47.803  25.904  27.275  1.00  0.00    -0.248 NA
ATOM     71  C   UNL A   1      46.881  24.336  25.879  1.00  0.00     0.031 C 
ATOM     72  C   UNL A   1      50.105  27.869  28.308  1.00  0.00     0.029 A 
ATOM     73  C   UNL A   1      49.812  27.810  26.951  1.00  0.00     0.049 A 
ATOM     74  H   UNL A   1      49.513  29.399  25.653  1.00  0.00     0.167 HD
ATOM     75  C   UNL A   1      48.542  25.937  26.122  1.00  0.00     0.074 A 
ATOM     76  C   UNL A   1      47.938  24.917  25.284  1.00  0.00     0.031 C 
ATOM     77  C   UNL A   1      49.551  26.834  25.902  1.00  0.00     0.037 A 
BRANCH  64  78
ATOM     78  C   UNL A   1      49.634  32.606  27.492  1.00  0.00     0.064 A 
ATOM     79  C   UNL A   1      50.651  32.962  26.581  1.00  0.00     0.173 A 
ATOM     80  C   UNL A   1      49.413  33.591  28.499  1.00  0.00     0.173 A 
ATOM     81  F   UNL A   1      50.981  32.144  25.573  1.00  0.00    -0.203 F 
ATOM     82  C   UNL A   1      51.380  34.160  26.672  1.00  0.00     0.198 A 
ATOM     83  C   UNL A   1      50.102  34.814  28.552  1.00  0.00     0.198 A 
ATOM     84  F   UNL A   1      48.570  33.418  29.523  1.00  0.00    -0.203 F 
ATOM     85  F   UNL A   1      52.374  34.397  25.807  1.00  0.00    -0.200 F 
ATOM     86  C   UNL A   1      51.101  35.090  27.652  1.00  0.00     0.200 A 
ATOM     87  F   UNL A   1      49.804  35.702  29.514  1.00  0.00    -0.200 F 
ATOM     88  F   UNL A   1      51.799  36.230  27.740  1.00  0.00    -0.200 F 
ENDBRANCH  64  78
BRANCH  65  89
ATOM     89  C   UNL A   1      44.289  24.381  27.952  1.00  0.00     0.064 A 
ATOM     90  C   UNL A   1      43.587  24.898  26.832  1.00  0.00     0.173 A 
ATOM     91  C   UNL A   1      43.862  23.144  28.451  1.00  0.00     0.173 A 
ATOM     92  F   UNL A   1      43.958  26.075  26.301  1.00  0.00    -0.203 F 
ATOM     93  C   UNL A   1      42.654  24.135  26.136  1.00  0.00     0.198 A 
ATOM     94  C   UNL A   1      42.867  22.411  27.787  1.00  0.00     0.198 A 
ATOM     95  F   UNL A   1      44.508  22.561  29.472  1.00  0.00    -0.203 F 
ATOM     96  F   UNL A   1      42.193  24.559  24.950  1.00  0.00    -0.200 F 
ATOM     97  C   UNL A   1      42.307  22.882  26.604  1.00  0.00     0.200 A 
ATOM     98  F   UNL A   1      42.587  21.161  28.187  1.00  0.00    -0.200 F 
ATOM     99  F   UNL A   1      41.522  22.084  25.866  1.00  0.00    -0.200 F 
ENDBRANCH  65  89
BRANCH  77 100
ATOM    100  C   UNL A   1      50.305  26.933  24.586  1.00  0.00     0.064 A 
ATOM    101  C   UNL A   1      51.663  26.603  24.512  1.00  0.00     0.173 A 
ATOM    102  C   UNL A   1      49.745  27.458  23.390  1.00  0.00     0.173 A 
ATOM    103  F   UNL A   1      52.306  26.132  25.590  1.00  0.00    -0.203 F 
ATOM    104  C   UNL A   1      52.392  26.750  23.328  1.00  0.00     0.198 A 
ATOM    105  C   UNL A   1      50.494  27.683  22.239  1.00  0.00     0.198 A 
ATOM    106  F   UNL A   1      48.438  27.727  23.266  1.00  0.00    -0.203 F 
ATOM    107  F   UNL A   1      53.668  26.342  23.284  1.00  0.00    -0.200 F 
ATOM    108  C   UNL A   1      51.816  27.309  22.199  1.00  0.00     0.200 A 
ATOM    109  F   UNL A   1      49.912  28.242  21.166  1.00  0.00    -0.200 F 
ATOM    110  F   UNL A   1      52.524  27.465  21.074  1.00  0.00    -0.200 F 
ENDBRANCH  77 100
ENDBRANCH  51  52
ENDBRANCH  44  46
ENDBRANCH  43  44
ENDBRANCH  42  43
ENDBRANCH  41  42
ENDBRANCH  40  41
ENDBRANCH  39  40
ENDBRANCH   1  39
TORSDOF 20
ENDMDL
