MODEL 1
REMARK VINA RESULT:      -9.8      0.000      0.000
REMARK SMILES CC(C)C[C@H](NC(=O)CNC(=O)[C@@H]([NH3+])C(C)C)C(=O)OCCOCCOCCOC(=O)c1ccc(-c2c3nc(c(-c4c(F)c(F)c(F)c(F)c4F)c4ccc([nH]4)c(-c4c(F)c(F)c(F)c(F)c4F)c4nc(c(-c5c(F)c(F)c(F)c(F)c5F)c5ccc2[nH]5)C=C4)C=C3)cc1
REMARK SMILES IDX 23 1 22 2 21 3 20 4 18 5 19 6 5 7 4 8 2 9 1 10 3 11 6 12
REMARK SMILES IDX 7 13 8 15 9 16 10 17 11 18 12 20 13 21 14 22 15 26 16 27
REMARK SMILES IDX 17 28 24 29 25 30 26 31 27 32 28 33 29 34 30 35 31 36 32 37
REMARK SMILES IDX 33 38 94 39 34 40 93 41 35 42 36 43 37 44 87 45 38 46 92 47
REMARK SMILES IDX 86 48 88 49 39 50 91 51 85 52 84 53 40 55 72 56 52 57 71 58
REMARK SMILES IDX 53 59 56 60 70 61 89 62 54 63 55 64 69 66 90 67 57 68 41 69
REMARK SMILES IDX 42 70 50 71 43 72 44 73 48 74 51 75 45 76 46 77 49 78 47 79
REMARK SMILES IDX 73 80 74 81 82 82 75 83 76 84 80 85 83 86 77 87 78 88 81 89
REMARK SMILES IDX 79 90 58 91 59 92 67 93 60 94 61 95 65 96 68 97 62 98 63 99
REMARK SMILES IDX 66 100 64 101
REMARK H PARENT 6 14 10 19 14 23 14 24 14 25 88 54 56 65
REMARK Flexibility Score: inf
ROOT
ATOM      1  O   UNL A   1      34.053  24.355  22.972  1.00  0.00    -0.376 OA
ENDROOT
BRANCH   1   2
ATOM      2  C   UNL A   1      33.577  25.604  22.491  1.00  0.00     0.202 C 
BRANCH   2   3
ATOM      3  C   UNL A   1      32.055  25.812  22.514  1.00  0.00     0.261 C 
BRANCH   3   4
ATOM      4  O   UNL A   1      31.327  25.081  23.523  1.00  0.00    -0.462 OA
BRANCH   4   5
ATOM      5  C   UNL A   1      30.319  25.734  24.153  1.00  0.00     0.328 C 
ATOM      6  O   UNL A   1      29.380  26.257  23.560  1.00  0.00    -0.250 OA
BRANCH   5   7
ATOM      7  C   UNL A   1      30.501  25.790  25.695  1.00  0.00     0.192 C 
BRANCH   7   8
ATOM      8  C   UNL A   1      31.971  26.032  26.065  1.00  0.00     0.040 C 
BRANCH   8   9
ATOM      9  C   UNL A   1      32.359  27.514  26.257  1.00  0.00    -0.015 C 
ATOM     10  C   UNL A   1      31.851  28.101  27.574  1.00  0.00     0.007 C 
ATOM     11  C   UNL A   1      33.877  27.656  26.207  1.00  0.00     0.007 C 
ENDBRANCH   8   9
ENDBRANCH   7   8
BRANCH   7  12
ATOM     12  N   UNL A   1      30.005  24.651  26.478  1.00  0.00    -0.341 N 
ATOM     13  C   UNL A   1      30.496  23.374  26.529  1.00  0.00     0.240 C 
ATOM     14  H   UNL A   1      29.217  24.830  27.040  1.00  0.00     0.164 HD
ATOM     15  O   UNL A   1      29.881  22.534  27.188  1.00  0.00    -0.273 OA
BRANCH  13  16
ATOM     16  C   UNL A   1      31.860  23.031  25.906  1.00  0.00     0.216 C 
BRANCH  16  17
ATOM     17  N   UNL A   1      31.823  22.544  24.536  1.00  0.00    -0.342 N 
ATOM     18  C   UNL A   1      32.327  21.394  23.999  1.00  0.00     0.278 C 
ATOM     19  H   UNL A   1      31.364  23.134  23.897  1.00  0.00     0.164 HD
ATOM     20  O   UNL A   1      32.071  21.156  22.814  1.00  0.00    -0.268 OA
BRANCH  18  21
ATOM     21  C   UNL A   1      33.183  20.394  24.822  1.00  0.00     0.273 C 
BRANCH  21  22
ATOM     22  N   UNL A   1      32.563  20.113  26.135  1.00  0.00    -0.347 N 
ATOM     23  H   UNL A   1      32.577  20.959  26.705  1.00  0.00     0.345 HD
ATOM     24  H   UNL A   1      33.088  19.376  26.608  1.00  0.00     0.345 HD
ATOM     25  H   UNL A   1      31.600  19.809  25.999  1.00  0.00     0.345 HD
ENDBRANCH  21  22
BRANCH  21  26
ATOM     26  C   UNL A   1      33.462  19.123  24.010  1.00  0.00     0.051 C 
ATOM     27  C   UNL A   1      34.715  18.428  24.559  1.00  0.00     0.014 C 
ATOM     28  C   UNL A   1      32.267  18.175  24.017  1.00  0.00     0.014 C 
ENDBRANCH  21  26
ENDBRANCH  18  21
ENDBRANCH  16  17
ENDBRANCH  13  16
ENDBRANCH   7  12
ENDBRANCH   5   7
ENDBRANCH   4   5
ENDBRANCH   3   4
ENDBRANCH   2   3
ENDBRANCH   1   2
BRANCH   1  29
ATOM     29  C   UNL A   1      34.791  24.405  24.179  1.00  0.00     0.188 C 
BRANCH  29  30
ATOM     30  C   UNL A   1      36.086  23.576  24.164  1.00  0.00     0.188 C 
BRANCH  30  31
ATOM     31  O   UNL A   1      36.049  22.159  24.190  1.00  0.00    -0.376 OA
BRANCH  31  32
ATOM     32  C   UNL A   1      36.499  21.473  25.345  1.00  0.00     0.202 C 
BRANCH  32  33
ATOM     33  C   UNL A   1      37.735  20.571  25.232  1.00  0.00     0.261 C 
BRANCH  33  34
ATOM     34  O   UNL A   1      39.004  21.254  25.261  1.00  0.00    -0.460 OA
BRANCH  34  35
ATOM     35  C   UNL A   1      39.704  21.101  26.413  1.00  0.00     0.338 C 
ATOM     36  O   UNL A   1      40.098  20.058  26.903  1.00  0.00    -0.246 OA
BRANCH  35  37
ATOM     37  C   UNL A   1      40.083  22.415  26.984  1.00  0.00     0.060 A 
ATOM     38  C   UNL A   1      39.435  23.550  26.480  1.00  0.00     0.016 A 
ATOM     39  C   UNL A   1      41.146  22.557  27.880  1.00  0.00     0.016 A 
ATOM     40  C   UNL A   1      39.891  24.825  26.825  1.00  0.00     0.010 A 
ATOM     41  C   UNL A   1      41.619  23.841  28.209  1.00  0.00     0.010 A 
ATOM     42  C   UNL A   1      41.020  24.982  27.654  1.00  0.00    -0.014 A 
BRANCH  42  43
ATOM     43  C   UNL A   1      41.676  26.323  27.683  1.00  0.00     0.031 A 
ATOM     44  C   UNL A   1      41.073  27.354  28.592  1.00  0.00     0.074 A 
ATOM     45  C   UNL A   1      42.798  26.623  27.001  1.00  0.00     0.049 A 
ATOM     46  N   UNL A   1      41.507  28.549  28.897  1.00  0.00    -0.248 NA
ATOM     47  C   UNL A   1      39.773  27.010  29.192  1.00  0.00     0.031 C 
ATOM     48  C   UNL A   1      43.415  25.795  25.980  1.00  0.00     0.029 A 
ATOM     49  N   UNL A   1      43.667  27.685  27.118  1.00  0.00    -0.354 N 
ATOM     50  C   UNL A   1      40.503  29.124  29.662  1.00  0.00     0.074 A 
ATOM     51  C   UNL A   1      39.460  28.134  29.815  1.00  0.00     0.031 C 
ATOM     52  C   UNL A   1      44.653  26.249  25.724  1.00  0.00     0.029 A 
ATOM     53  C   UNL A   1      44.864  27.489  26.461  1.00  0.00     0.049 A 
ATOM     54  H   UNL A   1      43.455  28.504  27.623  1.00  0.00     0.167 HD
ATOM     55  C   UNL A   1      40.436  30.386  30.144  1.00  0.00     0.037 A 
ATOM     56  C   UNL A   1      45.992  28.230  26.455  1.00  0.00     0.037 A 
ATOM     57  C   UNL A   1      41.469  31.372  29.969  1.00  0.00     0.049 A 
ATOM     58  C   UNL A   1      45.952  29.583  27.118  1.00  0.00     0.074 A 
ATOM     59  C   UNL A   1      41.486  32.688  30.390  1.00  0.00     0.029 A 
ATOM     60  N   UNL A   1      42.671  31.143  29.315  1.00  0.00    -0.354 N 
ATOM     61  N   UNL A   1      44.993  30.130  27.826  1.00  0.00    -0.248 NA
ATOM     62  C   UNL A   1      47.120  30.454  26.917  1.00  0.00     0.031 C 
ATOM     63  C   UNL A   1      42.685  33.269  29.959  1.00  0.00     0.029 A 
ATOM     64  C   UNL A   1      43.439  32.296  29.322  1.00  0.00     0.049 A 
ATOM     65  H   UNL A   1      42.938  30.289  28.905  1.00  0.00     0.167 HD
ATOM     66  C   UNL A   1      45.428  31.411  28.132  1.00  0.00     0.074 A 
ATOM     67  C   UNL A   1      46.764  31.541  27.587  1.00  0.00     0.031 C 
ATOM     68  C   UNL A   1      44.766  32.404  28.775  1.00  0.00     0.037 A 
BRANCH  55  69
ATOM     69  C   UNL A   1      39.158  30.783  30.818  1.00  0.00     0.064 A 
ATOM     70  C   UNL A   1      38.999  30.728  32.209  1.00  0.00     0.173 A 
ATOM     71  C   UNL A   1      38.060  31.194  30.046  1.00  0.00     0.173 A 
ATOM     72  F   UNL A   1      40.009  30.310  32.988  1.00  0.00    -0.203 F 
ATOM     73  C   UNL A   1      37.777  31.040  32.801  1.00  0.00     0.198 A 
ATOM     74  C   UNL A   1      36.851  31.535  30.643  1.00  0.00     0.198 A 
ATOM     75  F   UNL A   1      38.157  31.253  28.709  1.00  0.00    -0.203 F 
ATOM     76  F   UNL A   1      37.628  30.917  34.127  1.00  0.00    -0.200 F 
ATOM     77  C   UNL A   1      36.708  31.448  32.018  1.00  0.00     0.200 A 
ATOM     78  F   UNL A   1      35.821  31.935  29.885  1.00  0.00    -0.200 F 
ATOM     79  F   UNL A   1      35.532  31.745  32.590  1.00  0.00    -0.200 F 
ENDBRANCH  55  69
BRANCH  56  80
ATOM     80  C   UNL A   1      47.244  27.752  25.794  1.00  0.00     0.064 A 
ATOM     81  C   UNL A   1      47.398  27.850  24.400  1.00  0.00     0.173 A 
ATOM     82  C   UNL A   1      48.292  27.158  26.510  1.00  0.00     0.173 A 
ATOM     83  F   UNL A   1      46.414  28.373  23.653  1.00  0.00    -0.203 F 
ATOM     84  C   UNL A   1      48.536  27.364  23.756  1.00  0.00     0.198 A 
ATOM     85  C   UNL A   1      49.450  26.713  25.872  1.00  0.00     0.198 A 
ATOM     86  F   UNL A   1      48.199  27.009  27.840  1.00  0.00    -0.203 F 
ATOM     87  F   UNL A   1      48.623  27.414  22.418  1.00  0.00    -0.200 F 
ATOM     88  C   UNL A   1      49.567  26.805  24.494  1.00  0.00     0.200 A 
ATOM     89  F   UNL A   1      50.448  26.188  26.594  1.00  0.00    -0.200 F 
ATOM     90  F   UNL A   1      50.665  26.345  23.879  1.00  0.00    -0.200 F 
ENDBRANCH  56  80
BRANCH  68  91
ATOM     91  C   UNL A   1      45.488  33.709  28.940  1.00  0.00     0.064 A 
ATOM     92  C   UNL A   1      45.377  34.739  27.994  1.00  0.00     0.173 A 
ATOM     93  C   UNL A   1      46.284  33.938  30.072  1.00  0.00     0.173 A 
ATOM     94  F   UNL A   1      44.637  34.565  26.888  1.00  0.00    -0.203 F 
ATOM     95  C   UNL A   1      46.064  35.939  28.159  1.00  0.00     0.198 A 
ATOM     96  C   UNL A   1      46.947  35.148  30.248  1.00  0.00     0.198 A 
ATOM     97  F   UNL A   1      46.416  32.986  31.009  1.00  0.00    -0.203 F 
ATOM     98  F   UNL A   1      45.988  36.889  27.216  1.00  0.00    -0.200 F 
ATOM     99  C   UNL A   1      46.844  36.144  29.288  1.00  0.00     0.200 A 
ATOM    100  F   UNL A   1      47.689  35.350  31.346  1.00  0.00    -0.200 F 
ATOM    101  F   UNL A   1      47.507  37.299  29.445  1.00  0.00    -0.200 F 
ENDBRANCH  68  91
ENDBRANCH  42  43
ENDBRANCH  35  37
ENDBRANCH  34  35
ENDBRANCH  33  34
ENDBRANCH  32  33
ENDBRANCH  31  32
ENDBRANCH  30  31
ENDBRANCH  29  30
ENDBRANCH   1  29
TORSDOF 25
ENDMDL
MODEL 2
REMARK VINA RESULT:      -9.8      2.690      4.818
REMARK SMILES CC(C)C[C@H](NC(=O)CNC(=O)[C@@H]([NH3+])C(C)C)C(=O)OCCOCCOCCOC(=O)c1ccc(-c2c3nc(c(-c4c(F)c(F)c(F)c(F)c4F)c4ccc([nH]4)c(-c4c(F)c(F)c(F)c(F)c4F)c4nc(c(-c5c(F)c(F)c(F)c(F)c5F)c5ccc2[nH]5)C=C4)C=C3)cc1
REMARK SMILES IDX 23 1 22 2 21 3 20 4 18 5 19 6 5 7 4 8 2 9 1 10 3 11 6 12
REMARK SMILES IDX 7 13 8 15 9 16 10 17 11 18 12 20 13 21 14 22 15 26 16 27
REMARK SMILES IDX 17 28 24 29 25 30 26 31 27 32 28 33 29 34 30 35 31 36 32 37
REMARK SMILES IDX 33 38 94 39 34 40 93 41 35 42 36 43 37 44 87 45 38 46 92 47
REMARK SMILES IDX 86 48 88 49 39 50 91 51 85 52 84 53 40 55 72 56 52 57 71 58
REMARK SMILES IDX 53 59 56 60 70 61 89 62 54 63 55 64 69 66 90 67 57 68 41 69
REMARK SMILES IDX 42 70 50 71 43 72 44 73 48 74 51 75 45 76 46 77 49 78 47 79
REMARK SMILES IDX 73 80 74 81 82 82 75 83 76 84 80 85 83 86 77 87 78 88 81 89
REMARK SMILES IDX 79 90 58 91 59 92 67 93 60 94 61 95 65 96 68 97 62 98 63 99
REMARK SMILES IDX 66 100 64 101
REMARK H PARENT 6 14 10 19 14 23 14 24 14 25 88 54 56 65
REMARK Flexibility Score: inf
ROOT
ATOM      1  O   UNL A   1      42.164  21.934  26.442  1.00  0.00    -0.376 OA
ENDROOT
BRANCH   1   2
ATOM      2  C   UNL A   1      41.053  22.729  26.054  1.00  0.00     0.202 C 
BRANCH   2   3
ATOM      3  C   UNL A   1      39.853  22.746  27.014  1.00  0.00     0.261 C 
BRANCH   3   4
ATOM      4  O   UNL A   1      38.568  22.440  26.433  1.00  0.00    -0.462 OA
BRANCH   4   5
ATOM      5  C   UNL A   1      37.755  23.487  26.146  1.00  0.00     0.328 C 
ATOM      6  O   UNL A   1      38.061  24.657  26.355  1.00  0.00    -0.250 OA
BRANCH   5   7
ATOM      7  C   UNL A   1      36.380  23.048  25.569  1.00  0.00     0.192 C 
BRANCH   7   8
ATOM      8  C   UNL A   1      35.729  24.188  24.775  1.00  0.00     0.040 C 
BRANCH   8   9
ATOM      9  C   UNL A   1      34.246  24.456  25.115  1.00  0.00    -0.015 C 
ATOM     10  C   UNL A   1      34.007  25.847  25.701  1.00  0.00     0.007 C 
ATOM     11  C   UNL A   1      33.398  24.298  23.856  1.00  0.00     0.007 C 
ENDBRANCH   8   9
ENDBRANCH   7   8
BRANCH   7  12
ATOM     12  N   UNL A   1      35.390  22.512  26.512  1.00  0.00    -0.341 N 
ATOM     13  C   UNL A   1      34.582  21.416  26.368  1.00  0.00     0.240 C 
ATOM     14  H   UNL A   1      35.297  23.005  27.360  1.00  0.00     0.164 HD
ATOM     15  O   UNL A   1      33.751  21.179  27.246  1.00  0.00    -0.273 OA
BRANCH  13  16
ATOM     16  C   UNL A   1      34.805  20.421  25.216  1.00  0.00     0.216 C 
BRANCH  16  17
ATOM     17  N   UNL A   1      33.644  20.148  24.384  1.00  0.00    -0.342 N 
ATOM     18  C   UNL A   1      32.896  19.011  24.267  1.00  0.00     0.278 C 
ATOM     19  H   UNL A   1      33.351  20.897  23.819  1.00  0.00     0.164 HD
ATOM     20  O   UNL A   1      31.883  19.064  23.561  1.00  0.00    -0.268 OA
BRANCH  18  21
ATOM     21  C   UNL A   1      33.269  17.689  24.988  1.00  0.00     0.273 C 
BRANCH  21  22
ATOM     22  N   UNL A   1      32.130  16.746  25.001  1.00  0.00    -0.347 N 
ATOM     23  H   UNL A   1      31.309  17.200  24.600  1.00  0.00     0.345 HD
ATOM     24  H   UNL A   1      31.929  16.469  25.962  1.00  0.00     0.345 HD
ATOM     25  H   UNL A   1      32.364  15.921  24.451  1.00  0.00     0.345 HD
ENDBRANCH  21  22
BRANCH  21  26
ATOM     26  C   UNL A   1      34.539  17.079  24.380  1.00  0.00     0.051 C 
ATOM     27  C   UNL A   1      35.000  15.892  25.237  1.00  0.00     0.014 C 
ATOM     28  C   UNL A   1      34.324  16.654  22.932  1.00  0.00     0.014 C 
ENDBRANCH  21  26
ENDBRANCH  18  21
ENDBRANCH  16  17
ENDBRANCH  13  16
ENDBRANCH   7  12
ENDBRANCH   5   7
ENDBRANCH   4   5
ENDBRANCH   3   4
ENDBRANCH   2   3
ENDBRANCH   1   2
BRANCH   1  29
ATOM     29  C   UNL A   1      41.850  20.755  27.160  1.00  0.00     0.188 C 
BRANCH  29  30
ATOM     30  C   UNL A   1      41.154  19.670  26.322  1.00  0.00     0.188 C 
BRANCH  30  31
ATOM     31  O   UNL A   1      41.890  18.607  25.740  1.00  0.00    -0.376 OA
BRANCH  31  32
ATOM     32  C   UNL A   1      43.085  18.168  26.362  1.00  0.00     0.202 C 
BRANCH  32  33
ATOM     33  C   UNL A   1      44.387  18.182  25.549  1.00  0.00     0.261 C 
BRANCH  33  34
ATOM     34  O   UNL A   1      44.362  18.988  24.355  1.00  0.00    -0.460 OA
BRANCH  34  35
ATOM     35  C   UNL A   1      45.449  19.782  24.183  1.00  0.00     0.338 C 
ATOM     36  O   UNL A   1      46.447  19.532  23.533  1.00  0.00    -0.246 OA
BRANCH  35  37
ATOM     37  C   UNL A   1      45.233  21.117  24.789  1.00  0.00     0.060 A 
ATOM     38  C   UNL A   1      44.765  22.138  23.955  1.00  0.00     0.016 A 
ATOM     39  C   UNL A   1      45.620  21.407  26.101  1.00  0.00     0.016 A 
ATOM     40  C   UNL A   1      44.740  23.458  24.412  1.00  0.00     0.010 A 
ATOM     41  C   UNL A   1      45.616  22.740  26.553  1.00  0.00     0.010 A 
ATOM     42  C   UNL A   1      45.214  23.779  25.700  1.00  0.00    -0.014 A 
BRANCH  42  43
ATOM     43  C   UNL A   1      45.511  25.212  25.991  1.00  0.00     0.031 A 
ATOM     44  C   UNL A   1      44.469  25.982  26.751  1.00  0.00     0.074 A 
ATOM     45  C   UNL A   1      46.673  25.817  25.674  1.00  0.00     0.049 A 
ATOM     46  N   UNL A   1      44.520  27.195  27.234  1.00  0.00    -0.248 NA
ATOM     47  C   UNL A   1      43.173  25.308  26.937  1.00  0.00     0.031 C 
ATOM     48  C   UNL A   1      47.711  25.261  24.823  1.00  0.00     0.029 A 
ATOM     49  N   UNL A   1      47.210  27.013  26.094  1.00  0.00    -0.354 N 
ATOM     50  C   UNL A   1      43.245  27.455  27.716  1.00  0.00     0.074 A 
ATOM     51  C   UNL A   1      42.456  26.261  27.509  1.00  0.00     0.031 C 
ATOM     52  C   UNL A   1      48.833  25.988  24.955  1.00  0.00     0.029 A 
ATOM     53  C   UNL A   1      48.550  27.147  25.793  1.00  0.00     0.049 A 
ATOM     54  H   UNL A   1      46.690  27.704  26.564  1.00  0.00     0.167 HD
ATOM     55  C   UNL A   1      42.764  28.609  28.232  1.00  0.00     0.037 A 
ATOM     56  C   UNL A   1      49.437  28.100  26.149  1.00  0.00     0.037 A 
ATOM     57  C   UNL A   1      43.550  29.800  28.413  1.00  0.00     0.049 A 
ATOM     58  C   UNL A   1      48.913  29.326  26.851  1.00  0.00     0.074 A 
ATOM     59  C   UNL A   1      43.152  31.033  28.898  1.00  0.00     0.029 A 
ATOM     60  N   UNL A   1      44.901  29.904  28.115  1.00  0.00    -0.354 N 
ATOM     61  N   UNL A   1      47.702  29.576  27.289  1.00  0.00    -0.248 NA
ATOM     62  C   UNL A   1      49.859  30.436  27.041  1.00  0.00     0.031 C 
ATOM     63  C   UNL A   1      44.254  31.895  28.858  1.00  0.00     0.029 A 
ATOM     64  C   UNL A   1      45.353  31.181  28.406  1.00  0.00     0.049 A 
ATOM     65  H   UNL A   1      45.456  29.179  27.749  1.00  0.00     0.167 HD
ATOM     66  C   UNL A   1      47.734  30.873  27.779  1.00  0.00     0.074 A 
ATOM     67  C   UNL A   1      49.098  31.339  27.644  1.00  0.00     0.031 C 
ATOM     68  C   UNL A   1      46.715  31.625  28.264  1.00  0.00     0.037 A 
BRANCH  55  69
ATOM     69  C   UNL A   1      41.298  28.652  28.537  1.00  0.00     0.064 A 
ATOM     70  C   UNL A   1      40.350  29.070  27.593  1.00  0.00     0.173 A 
ATOM     71  C   UNL A   1      40.840  28.301  29.817  1.00  0.00     0.173 A 
ATOM     72  F   UNL A   1      40.742  29.448  26.366  1.00  0.00    -0.203 F 
ATOM     73  C   UNL A   1      39.002  29.164  27.927  1.00  0.00     0.198 A 
ATOM     74  C   UNL A   1      39.488  28.365  30.138  1.00  0.00     0.198 A 
ATOM     75  F   UNL A   1      41.707  27.905  30.761  1.00  0.00    -0.203 F 
ATOM     76  F   UNL A   1      38.122  29.628  27.029  1.00  0.00    -0.200 F 
ATOM     77  C   UNL A   1      38.572  28.806  29.196  1.00  0.00     0.200 A 
ATOM     78  F   UNL A   1      39.074  28.013  31.363  1.00  0.00    -0.200 F 
ATOM     79  F   UNL A   1      37.274  28.900  29.516  1.00  0.00    -0.200 F 
ENDBRANCH  55  69
BRANCH  56  80
ATOM     80  C   UNL A   1      50.895  27.972  25.844  1.00  0.00     0.064 A 
ATOM     81  C   UNL A   1      51.797  27.549  26.835  1.00  0.00     0.173 A 
ATOM     82  C   UNL A   1      51.430  28.300  24.591  1.00  0.00     0.173 A 
ATOM     83  F   UNL A   1      51.352  27.258  28.066  1.00  0.00    -0.203 F 
ATOM     84  C   UNL A   1      53.168  27.472  26.587  1.00  0.00     0.198 A 
ATOM     85  C   UNL A   1      52.796  28.180  24.330  1.00  0.00     0.198 A 
ATOM     86  F   UNL A   1      50.629  28.736  23.608  1.00  0.00    -0.203 F 
ATOM     87  F   UNL A   1      54.010  27.126  27.573  1.00  0.00    -0.200 F 
ATOM     88  C   UNL A   1      53.666  27.777  25.331  1.00  0.00     0.200 A 
ATOM     89  F   UNL A   1      53.267  28.463  23.108  1.00  0.00    -0.200 F 
ATOM     90  F   UNL A   1      54.981  27.696  25.087  1.00  0.00    -0.200 F 
ENDBRANCH  56  80
BRANCH  68  91
ATOM     91  C   UNL A   1      47.047  33.021  28.703  1.00  0.00     0.064 A 
ATOM     92  C   UNL A   1      46.980  34.107  27.817  1.00  0.00     0.173 A 
ATOM     93  C   UNL A   1      47.414  33.276  30.032  1.00  0.00     0.173 A 
ATOM     94  F   UNL A   1      46.646  33.914  26.533  1.00  0.00    -0.203 F 
ATOM     95  C   UNL A   1      47.304  35.394  28.240  1.00  0.00     0.198 A 
ATOM     96  C   UNL A   1      47.708  34.566  30.458  1.00  0.00     0.198 A 
ATOM     97  F   UNL A   1      47.483  32.271  30.918  1.00  0.00    -0.203 F 
ATOM     98  F   UNL A   1      47.288  36.409  27.365  1.00  0.00    -0.200 F 
ATOM     99  C   UNL A   1      47.662  35.623  29.561  1.00  0.00     0.200 A 
ATOM    100  F   UNL A   1      48.041  34.789  31.738  1.00  0.00    -0.200 F 
ATOM    101  F   UNL A   1      47.975  36.862  29.966  1.00  0.00    -0.200 F 
ENDBRANCH  68  91
ENDBRANCH  42  43
ENDBRANCH  35  37
ENDBRANCH  34  35
ENDBRANCH  33  34
ENDBRANCH  32  33
ENDBRANCH  31  32
ENDBRANCH  30  31
ENDBRANCH  29  30
ENDBRANCH   1  29
TORSDOF 25
ENDMDL
MODEL 3
REMARK VINA RESULT:      -9.8      1.173      2.327
REMARK SMILES CC(C)C[C@H](NC(=O)CNC(=O)[C@@H]([NH3+])C(C)C)C(=O)OCCOCCOCCOC(=O)c1ccc(-c2c3nc(c(-c4c(F)c(F)c(F)c(F)c4F)c4ccc([nH]4)c(-c4c(F)c(F)c(F)c(F)c4F)c4nc(c(-c5c(F)c(F)c(F)c(F)c5F)c5ccc2[nH]5)C=C4)C=C3)cc1
REMARK SMILES IDX 23 1 22 2 21 3 20 4 18 5 19 6 5 7 4 8 2 9 1 10 3 11 6 12
REMARK SMILES IDX 7 13 8 15 9 16 10 17 11 18 12 20 13 21 14 22 15 26 16 27
REMARK SMILES IDX 17 28 24 29 25 30 26 31 27 32 28 33 29 34 30 35 31 36 32 37
REMARK SMILES IDX 33 38 94 39 34 40 93 41 35 42 36 43 37 44 87 45 38 46 92 47
REMARK SMILES IDX 86 48 88 49 39 50 91 51 85 52 84 53 40 55 72 56 52 57 71 58
REMARK SMILES IDX 53 59 56 60 70 61 89 62 54 63 55 64 69 66 90 67 57 68 41 69
REMARK SMILES IDX 42 70 50 71 43 72 44 73 48 74 51 75 45 76 46 77 49 78 47 79
REMARK SMILES IDX 73 80 74 81 82 82 75 83 76 84 80 85 83 86 77 87 78 88 81 89
REMARK SMILES IDX 79 90 58 91 59 92 67 93 60 94 61 95 65 96 68 97 62 98 63 99
REMARK SMILES IDX 66 100 64 101
REMARK H PARENT 6 14 10 19 14 23 14 24 14 25 88 54 56 65
REMARK Flexibility Score: inf
ROOT
ATOM      1  O   UNL A   1      35.808  23.570  26.516  1.00  0.00    -0.376 OA
ENDROOT
BRANCH   1   2
ATOM      2  C   UNL A   1      35.887  24.420  25.381  1.00  0.00     0.202 C 
BRANCH   2   3
ATOM      3  C   UNL A   1      34.553  24.805  24.720  1.00  0.00     0.261 C 
BRANCH   3   4
ATOM      4  O   UNL A   1      34.096  23.941  23.658  1.00  0.00    -0.462 OA
BRANCH   4   5
ATOM      5  C   UNL A   1      33.165  24.445  22.809  1.00  0.00     0.328 C 
ATOM      6  O   UNL A   1      33.427  25.253  21.923  1.00  0.00    -0.250 OA
BRANCH   5   7
ATOM      7  C   UNL A   1      31.730  23.928  23.106  1.00  0.00     0.192 C 
BRANCH   7   8
ATOM      8  C   UNL A   1      30.758  25.098  23.308  1.00  0.00     0.040 C 
BRANCH   8   9
ATOM      9  C   UNL A   1      31.006  25.941  24.578  1.00  0.00    -0.015 C 
ATOM     10  C   UNL A   1      31.265  27.416  24.278  1.00  0.00     0.007 C 
ATOM     11  C   UNL A   1      29.802  25.830  25.509  1.00  0.00     0.007 C 
ENDBRANCH   8   9
ENDBRANCH   7   8
BRANCH   7  12
ATOM     12  N   UNL A   1      31.566  22.987  24.221  1.00  0.00    -0.341 N 
ATOM     13  C   UNL A   1      31.886  21.657  24.267  1.00  0.00     0.240 C 
ATOM     14  H   UNL A   1      31.175  23.363  25.043  1.00  0.00     0.164 HD
ATOM     15  O   UNL A   1      31.589  21.015  25.277  1.00  0.00    -0.273 OA
BRANCH  13  16
ATOM     16  C   UNL A   1      32.729  21.012  23.154  1.00  0.00     0.216 C 
BRANCH  16  17
ATOM     17  N   UNL A   1      32.183  19.797  22.572  1.00  0.00    -0.342 N 
ATOM     18  C   UNL A   1      32.317  18.497  22.967  1.00  0.00     0.278 C 
ATOM     19  H   UNL A   1      31.631  19.932  21.769  1.00  0.00     0.164 HD
ATOM     20  O   UNL A   1      31.660  17.645  22.360  1.00  0.00    -0.268 OA
BRANCH  18  21
ATOM     21  C   UNL A   1      33.241  18.072  24.139  1.00  0.00     0.273 C 
BRANCH  21  22
ATOM     22  N   UNL A   1      32.609  18.349  25.447  1.00  0.00    -0.347 N 
ATOM     23  H   UNL A   1      31.815  17.721  25.581  1.00  0.00     0.345 HD
ATOM     24  H   UNL A   1      32.283  19.316  25.470  1.00  0.00     0.345 HD
ATOM     25  H   UNL A   1      33.288  18.201  26.192  1.00  0.00     0.345 HD
ENDBRANCH  21  22
BRANCH  21  26
ATOM     26  C   UNL A   1      33.675  16.609  23.986  1.00  0.00     0.051 C 
ATOM     27  C   UNL A   1      34.653  16.483  22.810  1.00  0.00     0.014 C 
ATOM     28  C   UNL A   1      34.294  16.066  25.270  1.00  0.00     0.014 C 
ENDBRANCH  21  26
ENDBRANCH  18  21
ENDBRANCH  16  17
ENDBRANCH  13  16
ENDBRANCH   7  12
ENDBRANCH   5   7
ENDBRANCH   4   5
ENDBRANCH   3   4
ENDBRANCH   2   3
ENDBRANCH   1   2
BRANCH   1  29
ATOM     29  C   UNL A   1      34.796  22.582  26.472  1.00  0.00     0.188 C 
BRANCH  29  30
ATOM     30  C   UNL A   1      35.264  21.220  25.934  1.00  0.00     0.188 C 
BRANCH  30  31
ATOM     31  O   UNL A   1      35.767  21.086  24.615  1.00  0.00    -0.376 OA
BRANCH  31  32
ATOM     32  C   UNL A   1      37.159  21.212  24.387  1.00  0.00     0.202 C 
BRANCH  32  33
ATOM     33  C   UNL A   1      38.107  20.189  25.027  1.00  0.00     0.261 C 
BRANCH  33  34
ATOM     34  O   UNL A   1      38.579  20.524  26.346  1.00  0.00    -0.460 OA
BRANCH  34  35
ATOM     35  C   UNL A   1      39.919  20.709  26.441  1.00  0.00     0.338 C 
ATOM     36  O   UNL A   1      40.795  19.961  26.045  1.00  0.00    -0.246 OA
BRANCH  35  37
ATOM     37  C   UNL A   1      40.235  22.051  26.985  1.00  0.00     0.060 A 
ATOM     38  C   UNL A   1      39.577  23.149  26.419  1.00  0.00     0.016 A 
ATOM     39  C   UNL A   1      41.255  22.251  27.919  1.00  0.00     0.016 A 
ATOM     40  C   UNL A   1      39.980  24.447  26.741  1.00  0.00     0.010 A 
ATOM     41  C   UNL A   1      41.676  23.559  28.226  1.00  0.00     0.010 A 
ATOM     42  C   UNL A   1      41.069  24.664  27.610  1.00  0.00    -0.014 A 
BRANCH  42  43
ATOM     43  C   UNL A   1      41.683  26.024  27.624  1.00  0.00     0.031 A 
ATOM     44  C   UNL A   1      41.061  27.042  28.536  1.00  0.00     0.074 A 
ATOM     45  C   UNL A   1      42.787  26.355  26.926  1.00  0.00     0.049 A 
ATOM     46  N   UNL A   1      41.463  28.251  28.829  1.00  0.00    -0.248 NA
ATOM     47  C   UNL A   1      39.781  26.661  29.155  1.00  0.00     0.031 C 
ATOM     48  C   UNL A   1      43.415  25.540  25.900  1.00  0.00     0.029 A 
ATOM     49  N   UNL A   1      43.624  27.444  27.026  1.00  0.00    -0.354 N 
ATOM     50  C   UNL A   1      40.452  28.799  29.604  1.00  0.00     0.074 A 
ATOM     51  C   UNL A   1      39.441  27.779  29.776  1.00  0.00     0.031 C 
ATOM     52  C   UNL A   1      44.635  26.030  25.626  1.00  0.00     0.029 A 
ATOM     53  C   UNL A   1      44.818  27.280  26.354  1.00  0.00     0.049 A 
ATOM     54  H   UNL A   1      43.394  28.258  27.529  1.00  0.00     0.167 HD
ATOM     55  C   UNL A   1      40.353  30.061  30.081  1.00  0.00     0.037 A 
ATOM     56  C   UNL A   1      45.922  28.055  26.329  1.00  0.00     0.037 A 
ATOM     57  C   UNL A   1      41.352  31.077  29.887  1.00  0.00     0.049 A 
ATOM     58  C   UNL A   1      45.850  29.410  26.986  1.00  0.00     0.074 A 
ATOM     59  C   UNL A   1      41.335  32.396  30.301  1.00  0.00     0.029 A 
ATOM     60  N   UNL A   1      42.552  30.882  29.218  1.00  0.00    -0.354 N 
ATOM     61  N   UNL A   1      44.884  29.931  27.704  1.00  0.00    -0.248 NA
ATOM     62  C   UNL A   1      46.988  30.315  26.765  1.00  0.00     0.031 C 
ATOM     63  C   UNL A   1      42.509  33.010  29.851  1.00  0.00     0.029 A 
ATOM     64  C   UNL A   1      43.285  32.058  29.209  1.00  0.00     0.049 A 
ATOM     65  H   UNL A   1      42.840  30.034  28.809  1.00  0.00     0.167 HD
ATOM     66  C   UNL A   1      45.284  31.227  27.997  1.00  0.00     0.074 A 
ATOM     67  C   UNL A   1      46.608  31.394  27.434  1.00  0.00     0.031 C 
ATOM     68  C   UNL A   1      44.601  32.203  28.644  1.00  0.00     0.037 A 
BRANCH  55  69
ATOM     69  C   UNL A   1      39.072  30.423  30.770  1.00  0.00     0.064 A 
ATOM     70  C   UNL A   1      37.954  30.894  30.067  1.00  0.00     0.173 A 
ATOM     71  C   UNL A   1      38.979  30.328  32.167  1.00  0.00     0.173 A 
ATOM     72  F   UNL A   1      38.006  31.034  28.734  1.00  0.00    -0.203 F 
ATOM     73  C   UNL A   1      36.801  31.287  30.741  1.00  0.00     0.198 A 
ATOM     74  C   UNL A   1      37.813  30.691  32.835  1.00  0.00     0.198 A 
ATOM     75  F   UNL A   1      40.024  29.894  32.887  1.00  0.00    -0.203 F 
ATOM     76  F   UNL A   1      35.768  31.797  30.056  1.00  0.00    -0.200 F 
ATOM     77  C   UNL A   1      36.730  31.180  32.122  1.00  0.00     0.200 A 
ATOM     78  F   UNL A   1      37.745  30.582  34.168  1.00  0.00    -0.200 F 
ATOM     79  F   UNL A   1      35.619  31.561  32.769  1.00  0.00    -0.200 F 
ENDBRANCH  55  69
BRANCH  56  80
ATOM     80  C   UNL A   1      47.180  27.612  25.654  1.00  0.00     0.064 A 
ATOM     81  C   UNL A   1      47.338  27.767  24.265  1.00  0.00     0.173 A 
ATOM     82  C   UNL A   1      48.229  26.996  26.350  1.00  0.00     0.173 A 
ATOM     83  F   UNL A   1      46.353  28.315  23.536  1.00  0.00    -0.203 F 
ATOM     84  C   UNL A   1      48.481  27.314  23.607  1.00  0.00     0.198 A 
ATOM     85  C   UNL A   1      49.392  26.584  25.698  1.00  0.00     0.198 A 
ATOM     86  F   UNL A   1      48.133  26.793  27.672  1.00  0.00    -0.203 F 
ATOM     87  F   UNL A   1      48.572  27.420  22.273  1.00  0.00    -0.200 F 
ATOM     88  C   UNL A   1      49.513  26.733  24.325  1.00  0.00     0.200 A 
ATOM     89  F   UNL A   1      50.391  26.036  26.401  1.00  0.00    -0.200 F 
ATOM     90  F   UNL A   1      50.616  26.305  23.696  1.00  0.00    -0.200 F 
ENDBRANCH  56  80
BRANCH  68  91
ATOM     91  C   UNL A   1      45.285  33.530  28.793  1.00  0.00     0.064 A 
ATOM     92  C   UNL A   1      46.162  33.792  29.856  1.00  0.00     0.173 A 
ATOM     93  C   UNL A   1      45.076  34.543  27.846  1.00  0.00     0.173 A 
ATOM     94  F   UNL A   1      46.386  32.860  30.794  1.00  0.00    -0.203 F 
ATOM     95  C   UNL A   1      46.778  35.034  29.983  1.00  0.00     0.198 A 
ATOM     96  C   UNL A   1      45.715  35.773  27.960  1.00  0.00     0.198 A 
ATOM     97  F   UNL A   1      44.252  34.337  26.807  1.00  0.00    -0.203 F 
ATOM     98  F   UNL A   1      47.569  35.283  31.037  1.00  0.00    -0.200 F 
ATOM     99  C   UNL A   1      46.558  36.022  29.034  1.00  0.00     0.200 A 
ATOM    100  F   UNL A   1      45.513  36.721  27.035  1.00  0.00    -0.200 F 
ATOM    101  F   UNL A   1      47.151  37.217  29.159  1.00  0.00    -0.200 F 
ENDBRANCH  68  91
ENDBRANCH  42  43
ENDBRANCH  35  37
ENDBRANCH  34  35
ENDBRANCH  33  34
ENDBRANCH  32  33
ENDBRANCH  31  32
ENDBRANCH  30  31
ENDBRANCH  29  30
ENDBRANCH   1  29
TORSDOF 25
ENDMDL
