MODEL 1
REMARK VINA RESULT:     -11.0      0.000      0.000
REMARK SMILES CC[C@@H]1CCCN(S(=O)(=O)c2cc(C(=O)OCCOCCOCCOC(=O)c3ccc(-c4c5nc(c(-c6c(F)c(F)c(F)c(F)c6F)c6ccc([nH]6)c(-c6c(F)c(F)c(F)c(F)c6F)c6nc(c(-c7c(F)c(F)c(F)c(F)c7F)c7ccc4[nH]7)C=C6)C=C5)cc3)ccc2F)C1
REMARK SMILES IDX 20 1 19 2 18 3 17 4 16 5 14 6 15 7 13 8 11 9 12 10 93 11
REMARK SMILES IDX 92 12 94 13 91 14 8 15 9 16 10 17 7 18 3 19 4 20 95 21 5 22
REMARK SMILES IDX 6 23 2 24 1 25 21 26 22 27 23 28 24 29 25 30 26 31 27 32
REMARK SMILES IDX 28 33 29 34 90 35 30 36 89 37 31 38 32 39 33 40 83 41 34 42
REMARK SMILES IDX 88 43 82 44 84 45 35 46 87 47 81 48 80 49 36 51 68 52 48 53
REMARK SMILES IDX 67 54 49 55 52 56 66 57 85 58 50 59 51 60 65 62 86 63 53 64
REMARK SMILES IDX 37 65 38 66 46 67 39 68 40 69 44 70 47 71 41 72 42 73 45 74
REMARK SMILES IDX 43 75 69 76 70 77 78 78 71 79 72 80 76 81 79 82 73 83 74 84
REMARK SMILES IDX 77 85 75 86 54 87 55 88 63 89 56 90 57 91 61 92 64 93 58 94
REMARK SMILES IDX 59 95 62 96 60 97
REMARK H PARENT 84 50 52 61
REMARK Flexibility Score: inf
ROOT
ATOM      1  C   UNL A   1      36.422  23.614  26.027  1.00  0.00     0.188 C 
ENDROOT
BRANCH   1   2
ATOM      2  O   UNL A   1      35.296  22.778  25.853  1.00  0.00    -0.376 OA
BRANCH   2   3
ATOM      3  C   UNL A   1      34.785  22.023  26.939  1.00  0.00     0.202 C 
BRANCH   3   4
ATOM      4  C   UNL A   1      33.526  22.437  27.717  1.00  0.00     0.261 C 
BRANCH   4   5
ATOM      5  O   UNL A   1      32.282  22.022  27.138  1.00  0.00    -0.460 OA
BRANCH   5   6
ATOM      6  C   UNL A   1      31.573  22.995  26.514  1.00  0.00     0.338 C 
ATOM      7  O   UNL A   1      30.897  23.865  27.037  1.00  0.00    -0.246 OA
BRANCH   6   8
ATOM      8  C   UNL A   1      31.899  22.992  25.068  1.00  0.00     0.061 A 
ATOM      9  C   UNL A   1      32.403  24.277  23.081  1.00  0.00     0.119 A 
ATOM     10  C   UNL A   1      32.007  24.231  24.422  1.00  0.00     0.040 A 
ATOM     11  C   UNL A   1      32.702  23.101  22.402  1.00  0.00     0.143 A 
ATOM     12  C   UNL A   1      32.572  21.867  23.037  1.00  0.00     0.041 A 
ATOM     13  F   UNL A   1      33.077  23.111  21.116  1.00  0.00    -0.206 F 
ATOM     14  C   UNL A   1      32.172  21.807  24.374  1.00  0.00     0.019 A 
BRANCH   9  15
ATOM     15  S   UNL A   1      32.626  25.839  22.290  1.00  0.00     0.246 S 
ATOM     16  O   UNL A   1      31.666  25.969  21.216  1.00  0.00    -0.207 OA
ATOM     17  O   UNL A   1      34.043  25.965  22.007  1.00  0.00    -0.207 OA
BRANCH  15  18
ATOM     18  N   UNL A   1      32.231  26.986  23.515  1.00  0.00    -0.197 NA
ATOM     19  C   UNL A   1      33.102  28.321  25.453  1.00  0.00     0.004 C 
ATOM     20  C   UNL A   1      32.230  29.503  24.998  1.00  0.00     0.006 C 
ATOM     21  C   UNL A   1      33.458  27.438  24.246  1.00  0.00     0.106 C 
ATOM     22  C   UNL A   1      31.024  29.042  24.190  1.00  0.00     0.017 C 
ATOM     23  C   UNL A   1      31.444  28.156  23.024  1.00  0.00     0.102 C 
BRANCH  19  24
ATOM     24  C   UNL A   1      32.456  27.498  26.587  1.00  0.00     0.001 C 
ATOM     25  C   UNL A   1      31.762  28.374  27.622  1.00  0.00     0.004 C 
ENDBRANCH  19  24
ENDBRANCH  15  18
ENDBRANCH   9  15
ENDBRANCH   6   8
ENDBRANCH   5   6
ENDBRANCH   4   5
ENDBRANCH   3   4
ENDBRANCH   2   3
ENDBRANCH   1   2
BRANCH   1  26
ATOM     26  C   UNL A   1      37.837  23.103  25.692  1.00  0.00     0.188 C 
BRANCH  26  27
ATOM     27  O   UNL A   1      38.066  21.717  25.595  1.00  0.00    -0.376 OA
BRANCH  27  28
ATOM     28  C   UNL A   1      39.271  21.147  26.076  1.00  0.00     0.202 C 
BRANCH  28  29
ATOM     29  C   UNL A   1      39.797  19.736  25.750  1.00  0.00     0.261 C 
BRANCH  29  30
ATOM     30  O   UNL A   1      40.781  19.170  26.618  1.00  0.00    -0.460 OA
BRANCH  30  31
ATOM     31  C   UNL A   1      42.057  19.228  26.160  1.00  0.00     0.338 C 
ATOM     32  O   UNL A   1      42.670  18.369  25.553  1.00  0.00    -0.246 OA
BRANCH  31  33
ATOM     33  C   UNL A   1      42.569  20.592  26.372  1.00  0.00     0.060 A 
ATOM     34  C   UNL A   1      42.607  21.114  27.673  1.00  0.00     0.016 A 
ATOM     35  C   UNL A   1      42.973  21.360  25.282  1.00  0.00     0.016 A 
ATOM     36  C   UNL A   1      43.046  22.420  27.886  1.00  0.00     0.010 A 
ATOM     37  C   UNL A   1      43.385  22.675  25.494  1.00  0.00     0.010 A 
ATOM     38  C   UNL A   1      43.401  23.218  26.793  1.00  0.00    -0.014 A 
BRANCH  38  39
ATOM     39  C   UNL A   1      43.634  24.672  26.955  1.00  0.00     0.031 A 
ATOM     40  C   UNL A   1      45.024  25.197  26.743  1.00  0.00     0.074 A 
ATOM     41  C   UNL A   1      42.642  25.500  27.325  1.00  0.00     0.049 A 
ATOM     42  N   UNL A   1      45.515  26.380  27.009  1.00  0.00    -0.248 NA
ATOM     43  C   UNL A   1      45.996  24.258  26.160  1.00  0.00     0.031 C 
ATOM     44  C   UNL A   1      41.243  25.120  27.494  1.00  0.00     0.029 A 
ATOM     45  N   UNL A   1      42.674  26.834  27.652  1.00  0.00    -0.354 N 
ATOM     46  C   UNL A   1      46.851  26.322  26.639  1.00  0.00     0.074 A 
ATOM     47  C   UNL A   1      47.105  24.985  26.149  1.00  0.00     0.031 C 
ATOM     48  C   UNL A   1      40.551  26.190  27.921  1.00  0.00     0.029 A 
ATOM     49  C   UNL A   1      41.469  27.316  28.102  1.00  0.00     0.049 A 
ATOM     50  H   UNL A   1      43.482  27.392  27.571  1.00  0.00     0.167 HD
ATOM     51  C   UNL A   1      47.779  27.304  26.701  1.00  0.00     0.037 A 
ATOM     52  C   UNL A   1      41.156  28.513  28.637  1.00  0.00     0.037 A 
ATOM     53  C   UNL A   1      47.515  28.633  27.180  1.00  0.00     0.049 A 
ATOM     54  C   UNL A   1      42.231  29.562  28.785  1.00  0.00     0.074 A 
ATOM     55  C   UNL A   1      48.389  29.701  27.269  1.00  0.00     0.029 A 
ATOM     56  N   UNL A   1      46.287  29.074  27.649  1.00  0.00    -0.354 N 
ATOM     57  N   UNL A   1      43.494  29.505  28.438  1.00  0.00    -0.248 NA
ATOM     58  C   UNL A   1      41.842  30.839  29.405  1.00  0.00     0.031 C 
ATOM     59  C   UNL A   1      47.706  30.772  27.847  1.00  0.00     0.029 A 
ATOM     60  C   UNL A   1      46.390  30.393  28.056  1.00  0.00     0.049 A 
ATOM     61  H   UNL A   1      45.467  28.532  27.687  1.00  0.00     0.167 HD
ATOM     62  C   UNL A   1      44.039  30.741  28.763  1.00  0.00     0.074 A 
ATOM     63  C   UNL A   1      42.972  31.532  29.336  1.00  0.00     0.031 C 
ATOM     64  C   UNL A   1      45.310  31.178  28.597  1.00  0.00     0.037 A 
BRANCH  51  65
ATOM     65  C   UNL A   1      49.174  26.989  26.255  1.00  0.00     0.064 A 
ATOM     66  C   UNL A   1      49.535  27.136  24.906  1.00  0.00     0.173 A 
ATOM     67  C   UNL A   1      50.119  26.443  27.134  1.00  0.00     0.173 A 
ATOM     68  F   UNL A   1      48.664  27.649  24.024  1.00  0.00    -0.203 F 
ATOM     69  C   UNL A   1      50.782  26.719  24.450  1.00  0.00     0.198 A 
ATOM     70  C   UNL A   1      51.377  26.054  26.679  1.00  0.00     0.198 A 
ATOM     71  F   UNL A   1      49.826  26.294  28.434  1.00  0.00    -0.203 F 
ATOM     72  F   UNL A   1      51.087  26.824  23.149  1.00  0.00    -0.200 F 
ATOM     73  C   UNL A   1      51.701  26.179  25.336  1.00  0.00     0.200 A 
ATOM     74  F   UNL A   1      52.271  25.549  27.539  1.00  0.00    -0.200 F 
ATOM     75  F   UNL A   1      52.900  25.773  24.894  1.00  0.00    -0.200 F 
ENDBRANCH  51  65
BRANCH  52  76
ATOM     76  C   UNL A   1      39.766  28.776  29.095  1.00  0.00     0.064 A 
ATOM     77  C   UNL A   1      38.813  29.357  28.243  1.00  0.00     0.173 A 
ATOM     78  C   UNL A   1      39.361  28.451  30.397  1.00  0.00     0.173 A 
ATOM     79  F   UNL A   1      39.146  29.679  26.984  1.00  0.00    -0.203 F 
ATOM     80  C   UNL A   1      37.518  29.623  28.683  1.00  0.00     0.198 A 
ATOM     81  C   UNL A   1      38.057  28.690  30.826  1.00  0.00     0.198 A 
ATOM     82  F   UNL A   1      40.223  27.865  31.239  1.00  0.00    -0.203 F 
ATOM     83  F   UNL A   1      36.638  30.206  27.858  1.00  0.00    -0.200 F 
ATOM     84  C   UNL A   1      37.139  29.284  29.972  1.00  0.00     0.200 A 
ATOM     85  F   UNL A   1      37.683  28.329  32.062  1.00  0.00    -0.200 F 
ATOM     86  F   UNL A   1      35.887  29.521  30.389  1.00  0.00    -0.200 F 
ENDBRANCH  52  76
BRANCH  64  87
ATOM     87  C   UNL A   1      45.639  32.589  28.991  1.00  0.00     0.064 A 
ATOM     88  C   UNL A   1      46.034  32.878  30.307  1.00  0.00     0.173 A 
ATOM     89  C   UNL A   1      45.416  33.664  28.119  1.00  0.00     0.173 A 
ATOM     90  F   UNL A   1      46.248  31.883  31.182  1.00  0.00    -0.203 F 
ATOM     91  C   UNL A   1      46.157  34.192  30.747  1.00  0.00     0.198 A 
ATOM     92  C   UNL A   1      45.567  34.978  28.555  1.00  0.00     0.198 A 
ATOM     93  F   UNL A   1      45.045  33.439  26.851  1.00  0.00    -0.203 F 
ATOM     94  F   UNL A   1      46.476  34.443  32.024  1.00  0.00    -0.200 F 
ATOM     95  C   UNL A   1      45.921  35.242  29.871  1.00  0.00     0.200 A 
ATOM     96  F   UNL A   1      45.355  35.992  27.706  1.00  0.00    -0.200 F 
ATOM     97  F   UNL A   1      46.026  36.507  30.298  1.00  0.00    -0.200 F 
ENDBRANCH  64  87
ENDBRANCH  38  39
ENDBRANCH  31  33
ENDBRANCH  30  31
ENDBRANCH  29  30
ENDBRANCH  28  29
ENDBRANCH  27  28
ENDBRANCH  26  27
ENDBRANCH   1  26
TORSDOF 20
ENDMDL
MODEL 2
REMARK VINA RESULT:     -11.0      4.734      9.250
REMARK SMILES CC[C@@H]1CCCN(S(=O)(=O)c2cc(C(=O)OCCOCCOCCOC(=O)c3ccc(-c4c5nc(c(-c6c(F)c(F)c(F)c(F)c6F)c6ccc([nH]6)c(-c6c(F)c(F)c(F)c(F)c6F)c6nc(c(-c7c(F)c(F)c(F)c(F)c7F)c7ccc4[nH]7)C=C6)C=C5)cc3)ccc2F)C1
REMARK SMILES IDX 20 1 19 2 18 3 17 4 16 5 14 6 15 7 13 8 11 9 12 10 93 11
REMARK SMILES IDX 92 12 94 13 91 14 8 15 9 16 10 17 7 18 3 19 4 20 95 21 5 22
REMARK SMILES IDX 6 23 2 24 1 25 21 26 22 27 23 28 24 29 25 30 26 31 27 32
REMARK SMILES IDX 28 33 29 34 90 35 30 36 89 37 31 38 32 39 33 40 83 41 34 42
REMARK SMILES IDX 88 43 82 44 84 45 35 46 87 47 81 48 80 49 36 51 68 52 48 53
REMARK SMILES IDX 67 54 49 55 52 56 66 57 85 58 50 59 51 60 65 62 86 63 53 64
REMARK SMILES IDX 37 65 38 66 46 67 39 68 40 69 44 70 47 71 41 72 42 73 45 74
REMARK SMILES IDX 43 75 69 76 70 77 78 78 71 79 72 80 76 81 79 82 73 83 74 84
REMARK SMILES IDX 77 85 75 86 54 87 55 88 63 89 56 90 57 91 61 92 64 93 58 94
REMARK SMILES IDX 59 95 62 96 60 97
REMARK H PARENT 84 50 52 61
REMARK Flexibility Score: inf
ROOT
ATOM      1  C   UNL A   1      40.756  20.442  26.429  1.00  0.00     0.188 C 
ENDROOT
BRANCH   1   2
ATOM      2  O   UNL A   1      40.306  21.484  27.271  1.00  0.00    -0.376 OA
BRANCH   2   3
ATOM      3  C   UNL A   1      39.390  22.454  26.790  1.00  0.00     0.202 C 
BRANCH   3   4
ATOM      4  C   UNL A   1      38.313  22.130  25.744  1.00  0.00     0.261 C 
BRANCH   4   5
ATOM      5  O   UNL A   1      37.417  23.204  25.432  1.00  0.00    -0.460 OA
BRANCH   5   6
ATOM      6  C   UNL A   1      36.623  23.009  24.349  1.00  0.00     0.338 C 
ATOM      7  O   UNL A   1      36.950  23.068  23.176  1.00  0.00    -0.246 OA
BRANCH   6   8
ATOM      8  C   UNL A   1      35.305  22.497  24.791  1.00  0.00     0.061 A 
ATOM      9  C   UNL A   1      33.017  22.992  25.405  1.00  0.00     0.119 A 
ATOM     10  C   UNL A   1      34.302  23.435  25.075  1.00  0.00     0.040 A 
ATOM     11  C   UNL A   1      32.735  21.631  25.435  1.00  0.00     0.143 A 
ATOM     12  C   UNL A   1      33.737  20.697  25.176  1.00  0.00     0.041 A 
ATOM     13  F   UNL A   1      31.517  21.176  25.754  1.00  0.00    -0.206 F 
ATOM     14  C   UNL A   1      35.026  21.127  24.851  1.00  0.00     0.019 A 
BRANCH   9  15
ATOM     15  S   UNL A   1      31.732  24.171  25.676  1.00  0.00     0.246 S 
ATOM     16  O   UNL A   1      31.424  24.222  27.088  1.00  0.00    -0.207 OA
ATOM     17  O   UNL A   1      30.681  23.869  24.722  1.00  0.00    -0.207 OA
BRANCH  15  18
ATOM     18  N   UNL A   1      32.441  25.674  25.217  1.00  0.00    -0.197 NA
ATOM     19  C   UNL A   1      32.259  27.670  23.707  1.00  0.00     0.004 C 
ATOM     20  C   UNL A   1      32.733  28.560  24.867  1.00  0.00     0.006 C 
ATOM     21  C   UNL A   1      31.560  26.416  24.260  1.00  0.00     0.106 C 
ATOM     22  C   UNL A   1      33.565  27.781  25.878  1.00  0.00     0.017 C 
ATOM     23  C   UNL A   1      32.825  26.543  26.369  1.00  0.00     0.102 C 
BRANCH  19  24
ATOM     24  C   UNL A   1      33.393  27.301  22.728  1.00  0.00     0.001 C 
ATOM     25  C   UNL A   1      32.950  26.291  21.676  1.00  0.00     0.004 C 
ENDBRANCH  19  24
ENDBRANCH  15  18
ENDBRANCH   9  15
ENDBRANCH   6   8
ENDBRANCH   5   6
ENDBRANCH   4   5
ENDBRANCH   3   4
ENDBRANCH   2   3
ENDBRANCH   1   2
BRANCH   1  26
ATOM     26  C   UNL A   1      42.257  20.100  26.338  1.00  0.00     0.188 C 
BRANCH  26  27
ATOM     27  O   UNL A   1      43.088  20.857  25.491  1.00  0.00    -0.376 OA
BRANCH  27  28
ATOM     28  C   UNL A   1      42.838  22.236  25.275  1.00  0.00     0.202 C 
BRANCH  28  29
ATOM     29  C   UNL A   1      43.816  23.243  24.640  1.00  0.00     0.261 C 
BRANCH  29  30
ATOM     30  O   UNL A   1      43.442  24.621  24.624  1.00  0.00    -0.460 OA
BRANCH  30  31
ATOM     31  C   UNL A   1      44.284  25.457  25.282  1.00  0.00     0.338 C 
ATOM     32  O   UNL A   1      45.441  25.719  25.004  1.00  0.00    -0.246 OA
BRANCH  31  33
ATOM     33  C   UNL A   1      43.527  26.153  26.334  1.00  0.00     0.060 A 
ATOM     34  C   UNL A   1      43.850  27.482  26.644  1.00  0.00     0.016 A 
ATOM     35  C   UNL A   1      42.528  25.479  27.034  1.00  0.00     0.016 A 
ATOM     36  C   UNL A   1      43.174  28.142  27.670  1.00  0.00     0.010 A 
ATOM     37  C   UNL A   1      41.872  26.131  28.077  1.00  0.00     0.010 A 
ATOM     38  C   UNL A   1      42.207  27.456  28.415  1.00  0.00    -0.014 A 
BRANCH  38  39
ATOM     39  C   UNL A   1      41.649  28.039  29.657  1.00  0.00     0.031 A 
ATOM     40  C   UNL A   1      40.409  28.878  29.553  1.00  0.00     0.074 A 
ATOM     41  C   UNL A   1      42.254  27.861  30.844  1.00  0.00     0.049 A 
ATOM     42  N   UNL A   1      39.846  29.643  30.452  1.00  0.00    -0.248 NA
ATOM     43  C   UNL A   1      39.714  28.860  28.256  1.00  0.00     0.031 C 
ATOM     44  C   UNL A   1      43.421  27.016  31.080  1.00  0.00     0.029 A 
ATOM     45  N   UNL A   1      41.980  28.413  32.072  1.00  0.00    -0.354 N 
ATOM     46  C   UNL A   1      38.742  30.205  29.827  1.00  0.00     0.074 A 
ATOM     47  C   UNL A   1      38.721  29.713  28.467  1.00  0.00     0.031 C 
ATOM     48  C   UNL A   1      43.782  27.125  32.369  1.00  0.00     0.029 A 
ATOM     49  C   UNL A   1      42.902  28.085  33.036  1.00  0.00     0.049 A 
ATOM     50  H   UNL A   1      41.199  28.986  32.245  1.00  0.00     0.167 HD
ATOM     51  C   UNL A   1      37.827  31.052  30.349  1.00  0.00     0.037 A 
ATOM     52  C   UNL A   1      43.041  28.542  34.298  1.00  0.00     0.037 A 
ATOM     53  C   UNL A   1      37.850  31.528  31.705  1.00  0.00     0.049 A 
ATOM     54  C   UNL A   1      42.063  29.561  34.828  1.00  0.00     0.074 A 
ATOM     55  C   UNL A   1      36.958  32.380  32.330  1.00  0.00     0.029 A 
ATOM     56  N   UNL A   1      38.814  31.191  32.644  1.00  0.00    -0.354 N 
ATOM     57  N   UNL A   1      41.022  30.094  34.235  1.00  0.00    -0.248 NA
ATOM     58  C   UNL A   1      42.280  30.050  36.199  1.00  0.00     0.031 C 
ATOM     59  C   UNL A   1      37.414  32.606  33.630  1.00  0.00     0.029 A 
ATOM     60  C   UNL A   1      38.551  31.843  33.836  1.00  0.00     0.049 A 
ATOM     61  H   UNL A   1      39.569  30.580  32.487  1.00  0.00     0.167 HD
ATOM     62  C   UNL A   1      40.444  30.949  35.165  1.00  0.00     0.074 A 
ATOM     63  C   UNL A   1      41.247  30.867  36.366  1.00  0.00     0.031 C 
ATOM     64  C   UNL A   1      39.344  31.728  35.034  1.00  0.00     0.037 A 
BRANCH  51  65
ATOM     65  C   UNL A   1      36.724  31.540  29.460  1.00  0.00     0.064 A 
ATOM     66  C   UNL A   1      36.680  32.887  29.064  1.00  0.00     0.173 A 
ATOM     67  C   UNL A   1      35.658  30.709  29.090  1.00  0.00     0.173 A 
ATOM     68  F   UNL A   1      37.673  33.724  29.398  1.00  0.00    -0.203 F 
ATOM     69  C   UNL A   1      35.592  33.388  28.355  1.00  0.00     0.198 A 
ATOM     70  C   UNL A   1      34.586  31.208  28.355  1.00  0.00     0.198 A 
ATOM     71  F   UNL A   1      35.662  29.413  29.434  1.00  0.00    -0.203 F 
ATOM     72  F   UNL A   1      35.548  34.687  28.029  1.00  0.00    -0.200 F 
ATOM     73  C   UNL A   1      34.547  32.549  28.001  1.00  0.00     0.200 A 
ATOM     74  F   UNL A   1      33.585  30.393  27.997  1.00  0.00    -0.200 F 
ATOM     75  F   UNL A   1      33.498  33.034  27.322  1.00  0.00    -0.200 F 
ENDBRANCH  51  65
BRANCH  52  76
ATOM     76  C   UNL A   1      44.167  28.055  35.138  1.00  0.00     0.064 A 
ATOM     77  C   UNL A   1      45.417  28.694  35.127  1.00  0.00     0.173 A 
ATOM     78  C   UNL A   1      44.015  26.938  35.971  1.00  0.00     0.173 A 
ATOM     79  F   UNL A   1      45.613  29.773  34.354  1.00  0.00    -0.203 F 
ATOM     80  C   UNL A   1      46.476  28.221  35.899  1.00  0.00     0.198 A 
ATOM     81  C   UNL A   1      45.066  26.484  36.766  1.00  0.00     0.198 A 
ATOM     82  F   UNL A   1      42.832  26.312  36.043  1.00  0.00    -0.203 F 
ATOM     83  F   UNL A   1      47.667  28.832  35.846  1.00  0.00    -0.200 F 
ATOM     84  C   UNL A   1      46.299  27.120  36.722  1.00  0.00     0.200 A 
ATOM     85  F   UNL A   1      44.881  25.441  37.587  1.00  0.00    -0.200 F 
ATOM     86  F   UNL A   1      47.311  26.677  37.480  1.00  0.00    -0.200 F 
ENDBRANCH  52  76
BRANCH  64  87
ATOM     87  C   UNL A   1      38.892  32.534  36.217  1.00  0.00     0.064 A 
ATOM     88  C   UNL A   1      39.339  33.855  36.380  1.00  0.00     0.173 A 
ATOM     89  C   UNL A   1      38.151  31.956  37.257  1.00  0.00     0.173 A 
ATOM     90  F   UNL A   1      40.062  34.447  35.417  1.00  0.00    -0.203 F 
ATOM     91  C   UNL A   1      39.093  34.554  37.557  1.00  0.00     0.198 A 
ATOM     92  C   UNL A   1      37.883  32.669  38.423  1.00  0.00     0.198 A 
ATOM     93  F   UNL A   1      37.695  30.700  37.145  1.00  0.00    -0.203 F 
ATOM     94  F   UNL A   1      39.581  35.793  37.714  1.00  0.00    -0.200 F 
ATOM     95  C   UNL A   1      38.367  33.961  38.579  1.00  0.00     0.200 A 
ATOM     96  F   UNL A   1      37.168  32.102  39.404  1.00  0.00    -0.200 F 
ATOM     97  F   UNL A   1      38.142  34.630  39.718  1.00  0.00    -0.200 F 
ENDBRANCH  64  87
ENDBRANCH  38  39
ENDBRANCH  31  33
ENDBRANCH  30  31
ENDBRANCH  29  30
ENDBRANCH  28  29
ENDBRANCH  27  28
ENDBRANCH  26  27
ENDBRANCH   1  26
TORSDOF 20
ENDMDL
MODEL 3
REMARK VINA RESULT:     -10.9      4.646      7.184
REMARK SMILES CC[C@@H]1CCCN(S(=O)(=O)c2cc(C(=O)OCCOCCOCCOC(=O)c3ccc(-c4c5nc(c(-c6c(F)c(F)c(F)c(F)c6F)c6ccc([nH]6)c(-c6c(F)c(F)c(F)c(F)c6F)c6nc(c(-c7c(F)c(F)c(F)c(F)c7F)c7ccc4[nH]7)C=C6)C=C5)cc3)ccc2F)C1
REMARK SMILES IDX 20 1 19 2 18 3 17 4 16 5 14 6 15 7 13 8 11 9 12 10 93 11
REMARK SMILES IDX 92 12 94 13 91 14 8 15 9 16 10 17 7 18 3 19 4 20 95 21 5 22
REMARK SMILES IDX 6 23 2 24 1 25 21 26 22 27 23 28 24 29 25 30 26 31 27 32
REMARK SMILES IDX 28 33 29 34 90 35 30 36 89 37 31 38 32 39 33 40 83 41 34 42
REMARK SMILES IDX 88 43 82 44 84 45 35 46 87 47 81 48 80 49 36 51 68 52 48 53
REMARK SMILES IDX 67 54 49 55 52 56 66 57 85 58 50 59 51 60 65 62 86 63 53 64
REMARK SMILES IDX 37 65 38 66 46 67 39 68 40 69 44 70 47 71 41 72 42 73 45 74
REMARK SMILES IDX 43 75 69 76 70 77 78 78 71 79 72 80 76 81 79 82 73 83 74 84
REMARK SMILES IDX 77 85 75 86 54 87 55 88 63 89 56 90 57 91 61 92 64 93 58 94
REMARK SMILES IDX 59 95 62 96 60 97
REMARK H PARENT 84 50 52 61
REMARK Flexibility Score: inf
ROOT
ATOM      1  C   UNL A   1      40.014  21.906  26.980  1.00  0.00     0.188 C 
ENDROOT
BRANCH   1   2
ATOM      2  O   UNL A   1      39.323  21.704  25.763  1.00  0.00    -0.376 OA
BRANCH   2   3
ATOM      3  C   UNL A   1      37.931  21.955  25.675  1.00  0.00     0.202 C 
BRANCH   3   4
ATOM      4  C   UNL A   1      37.006  21.177  24.727  1.00  0.00     0.261 C 
BRANCH   4   5
ATOM      5  O   UNL A   1      35.616  21.516  24.810  1.00  0.00    -0.460 OA
BRANCH   5   6
ATOM      6  C   UNL A   1      35.314  22.814  24.556  1.00  0.00     0.338 C 
ATOM      7  O   UNL A   1      35.860  23.555  23.756  1.00  0.00    -0.246 OA
BRANCH   6   8
ATOM      8  C   UNL A   1      34.057  23.173  25.254  1.00  0.00     0.061 A 
ATOM      9  C   UNL A   1      32.582  24.921  26.045  1.00  0.00     0.119 A 
ATOM     10  C   UNL A   1      33.798  24.533  25.473  1.00  0.00     0.040 A 
ATOM     11  C   UNL A   1      31.632  23.962  26.378  1.00  0.00     0.143 A 
ATOM     12  C   UNL A   1      31.897  22.608  26.183  1.00  0.00     0.041 A 
ATOM     13  F   UNL A   1      30.462  24.300  26.934  1.00  0.00    -0.206 F 
ATOM     14  C   UNL A   1      33.111  22.207  25.618  1.00  0.00     0.019 A 
BRANCH   9  15
ATOM     15  S   UNL A   1      32.217  26.636  26.240  1.00  0.00     0.246 S 
ATOM     16  O   UNL A   1      33.395  27.320  26.726  1.00  0.00    -0.207 OA
ATOM     17  O   UNL A   1      30.978  26.717  26.990  1.00  0.00    -0.207 OA
BRANCH  15  18
ATOM     18  N   UNL A   1      31.895  27.179  24.635  1.00  0.00    -0.197 NA
ATOM     19  C   UNL A   1      30.715  26.670  22.480  1.00  0.00     0.004 C 
ATOM     20  C   UNL A   1      30.378  28.163  22.340  1.00  0.00     0.006 C 
ATOM     21  C   UNL A   1      30.879  26.306  23.965  1.00  0.00     0.106 C 
ATOM     22  C   UNL A   1      31.372  29.042  23.089  1.00  0.00     0.017 C 
ATOM     23  C   UNL A   1      31.502  28.616  24.545  1.00  0.00     0.102 C 
BRANCH  19  24
ATOM     24  C   UNL A   1      31.950  26.251  21.654  1.00  0.00     0.001 C 
ATOM     25  C   UNL A   1      32.497  24.892  22.072  1.00  0.00     0.004 C 
ENDBRANCH  19  24
ENDBRANCH  15  18
ENDBRANCH   9  15
ENDBRANCH   6   8
ENDBRANCH   5   6
ENDBRANCH   4   5
ENDBRANCH   3   4
ENDBRANCH   2   3
ENDBRANCH   1   2
BRANCH   1  26
ATOM     26  C   UNL A   1      40.903  20.793  27.571  1.00  0.00     0.188 C 
BRANCH  26  27
ATOM     27  O   UNL A   1      42.295  20.840  27.367  1.00  0.00    -0.376 OA
BRANCH  27  28
ATOM     28  C   UNL A   1      42.838  20.774  26.059  1.00  0.00     0.202 C 
BRANCH  28  29
ATOM     29  C   UNL A   1      43.492  21.940  25.292  1.00  0.00     0.261 C 
BRANCH  29  30
ATOM     30  O   UNL A   1      42.770  23.167  25.195  1.00  0.00    -0.460 OA
BRANCH  30  31
ATOM     31  C   UNL A   1      43.531  24.290  25.224  1.00  0.00     0.338 C 
ATOM     32  O   UNL A   1      44.501  24.551  24.534  1.00  0.00    -0.246 OA
BRANCH  31  33
ATOM     33  C   UNL A   1      42.904  25.259  26.138  1.00  0.00     0.060 A 
ATOM     34  C   UNL A   1      43.192  26.623  25.991  1.00  0.00     0.016 A 
ATOM     35  C   UNL A   1      42.064  24.811  27.156  1.00  0.00     0.016 A 
ATOM     36  C   UNL A   1      42.642  27.550  26.876  1.00  0.00     0.010 A 
ATOM     37  C   UNL A   1      41.538  25.737  28.056  1.00  0.00     0.010 A 
ATOM     38  C   UNL A   1      41.843  27.106  27.935  1.00  0.00    -0.014 A 
BRANCH  38  39
ATOM     39  C   UNL A   1      41.447  28.024  29.027  1.00  0.00     0.031 A 
ATOM     40  C   UNL A   1      42.224  27.979  30.311  1.00  0.00     0.074 A 
ATOM     41  C   UNL A   1      40.394  28.849  28.898  1.00  0.00     0.049 A 
ATOM     42  N   UNL A   1      41.958  28.537  31.463  1.00  0.00    -0.248 NA
ATOM     43  C   UNL A   1      43.468  27.190  30.295  1.00  0.00     0.031 C 
ATOM     44  C   UNL A   1      39.606  29.030  27.682  1.00  0.00     0.029 A 
ATOM     45  N   UNL A   1      39.790  29.671  29.819  1.00  0.00    -0.354 N 
ATOM     46  C   UNL A   1      42.990  28.156  32.309  1.00  0.00     0.074 A 
ATOM     47  C   UNL A   1      43.878  27.305  31.550  1.00  0.00     0.031 C 
ATOM     48  C   UNL A   1      38.604  29.887  27.938  1.00  0.00     0.029 A 
ATOM     49  C   UNL A   1      38.651  30.277  29.348  1.00  0.00     0.049 A 
ATOM     50  H   UNL A   1      40.140  29.813  30.728  1.00  0.00     0.167 HD
ATOM     51  C   UNL A   1      43.177  28.496  33.605  1.00  0.00     0.037 A 
ATOM     52  C   UNL A   1      37.732  31.024  29.993  1.00  0.00     0.037 A 
ATOM     53  C   UNL A   1      42.294  29.352  34.349  1.00  0.00     0.049 A 
ATOM     54  C   UNL A   1      37.912  31.311  31.463  1.00  0.00     0.074 A 
ATOM     55  C   UNL A   1      42.406  29.764  35.665  1.00  0.00     0.029 A 
ATOM     56  N   UNL A   1      41.138  29.927  33.842  1.00  0.00    -0.354 N 
ATOM     57  N   UNL A   1      38.885  30.947  32.263  1.00  0.00    -0.248 NA
ATOM     58  C   UNL A   1      36.863  32.103  32.125  1.00  0.00     0.031 C 
ATOM     59  C   UNL A   1      41.288  30.540  35.973  1.00  0.00     0.029 A 
ATOM     60  C   UNL A   1      40.513  30.668  34.831  1.00  0.00     0.049 A 
ATOM     61  H   UNL A   1      40.811  29.824  32.920  1.00  0.00     0.167 HD
ATOM     62  C   UNL A   1      38.587  31.493  33.506  1.00  0.00     0.074 A 
ATOM     63  C   UNL A   1      37.341  32.213  33.359  1.00  0.00     0.031 C 
ATOM     64  C   UNL A   1      39.287  31.405  34.662  1.00  0.00     0.037 A 
BRANCH  51  65
ATOM     65  C   UNL A   1      44.370  27.938  34.319  1.00  0.00     0.064 A 
ATOM     66  C   UNL A   1      44.281  26.707  34.988  1.00  0.00     0.173 A 
ATOM     67  C   UNL A   1      45.562  28.666  34.435  1.00  0.00     0.173 A 
ATOM     68  F   UNL A   1      43.159  25.975  34.913  1.00  0.00    -0.203 F 
ATOM     69  C   UNL A   1      45.333  26.241  35.770  1.00  0.00     0.198 A 
ATOM     70  C   UNL A   1      46.623  28.182  35.195  1.00  0.00     0.198 A 
ATOM     71  F   UNL A   1      45.699  29.841  33.804  1.00  0.00    -0.203 F 
ATOM     72  F   UNL A   1      45.208  25.085  36.439  1.00  0.00    -0.200 F 
ATOM     73  C   UNL A   1      46.503  26.977  35.873  1.00  0.00     0.200 A 
ATOM     74  F   UNL A   1      47.761  28.885  35.278  1.00  0.00    -0.200 F 
ATOM     75  F   UNL A   1      47.514  26.529  36.630  1.00  0.00    -0.200 F 
ENDBRANCH  51  65
BRANCH  52  76
ATOM     76  C   UNL A   1      36.546  31.534  29.255  1.00  0.00     0.064 A 
ATOM     77  C   UNL A   1      35.510  30.676  28.854  1.00  0.00     0.173 A 
ATOM     78  C   UNL A   1      36.425  32.893  28.934  1.00  0.00     0.173 A 
ATOM     79  F   UNL A   1      35.572  29.368  29.144  1.00  0.00    -0.203 F 
ATOM     80  C   UNL A   1      34.411  31.154  28.143  1.00  0.00     0.198 A 
ATOM     81  C   UNL A   1      35.312  33.375  28.249  1.00  0.00     0.198 A 
ATOM     82  F   UNL A   1      37.372  33.759  29.322  1.00  0.00    -0.203 F 
ATOM     83  F   UNL A   1      33.452  30.307  27.748  1.00  0.00    -0.200 F 
ATOM     84  C   UNL A   1      34.310  32.504  27.846  1.00  0.00     0.200 A 
ATOM     85  F   UNL A   1      35.200  34.686  27.994  1.00  0.00    -0.200 F 
ATOM     86  F   UNL A   1      33.243  32.968  27.180  1.00  0.00    -0.200 F 
ENDBRANCH  52  76
BRANCH  64  87
ATOM     87  C   UNL A   1      38.770  32.132  35.869  1.00  0.00     0.064 A 
ATOM     88  C   UNL A   1      39.133  33.470  36.092  1.00  0.00     0.173 A 
ATOM     89  C   UNL A   1      38.054  31.467  36.874  1.00  0.00     0.173 A 
ATOM     90  F   UNL A   1      39.830  34.145  35.165  1.00  0.00    -0.203 F 
ATOM     91  C   UNL A   1      38.828  34.104  37.292  1.00  0.00     0.198 A 
ATOM     92  C   UNL A   1      37.727  32.114  38.063  1.00  0.00     0.198 A 
ATOM     93  F   UNL A   1      37.679  30.191  36.704  1.00  0.00    -0.203 F 
ATOM     94  F   UNL A   1      39.237  35.363  37.506  1.00  0.00    -0.200 F 
ATOM     95  C   UNL A   1      38.128  33.426  38.278  1.00  0.00     0.200 A 
ATOM     96  F   UNL A   1      37.036  31.464  39.009  1.00  0.00    -0.200 F 
ATOM     97  F   UNL A   1      37.847  34.032  39.439  1.00  0.00    -0.200 F 
ENDBRANCH  64  87
ENDBRANCH  38  39
ENDBRANCH  31  33
ENDBRANCH  30  31
ENDBRANCH  29  30
ENDBRANCH  28  29
ENDBRANCH  27  28
ENDBRANCH  26  27
ENDBRANCH   1  26
TORSDOF 20
ENDMDL
