MODEL 1
REMARK VINA RESULT:     -12.4      0.000      0.000
REMARK SMILES Cc1cccc(-c2cc(C[C@]3(C(=O)OCCOCCOCCOC(=O)c4ccc(-c5c6nc(c(-c7c(F)c(F)c(F)c(F)c7F)c7ccc([nH]7)c(-c7c(F)c(F)c(F)c(F)c7F)c7nc(c(-c8c(F)c(F)c(F)c(F)c8F)c8ccc5[nH]8)C=C7)C=C6)cc4)CCCN(C(=O)C(C)C)C3)on2)c1
REMARK SMILES IDX 18 1 17 2 16 3 15 4 14 5 12 6 13 7 11 8 89 9 98 10 90 11
REMARK SMILES IDX 92 12 91 13 10 14 9 15 7 16 8 17 100 18 99 19 6 20 1 21 2 22
REMARK SMILES IDX 3 23 101 24 4 25 5 26 93 27 94 28 95 29 96 30 97 31 19 32
REMARK SMILES IDX 20 33 21 34 22 35 23 36 24 37 25 38 26 39 27 40 88 41 28 42
REMARK SMILES IDX 87 43 29 44 30 45 31 46 81 47 32 48 86 49 80 50 82 51 33 52
REMARK SMILES IDX 85 53 79 54 78 55 34 57 66 58 46 59 65 60 47 61 50 62 64 63
REMARK SMILES IDX 83 64 48 65 49 66 63 68 84 69 51 70 35 71 36 72 44 73 37 74
REMARK SMILES IDX 38 75 42 76 45 77 39 78 40 79 43 80 41 81 67 82 68 83 76 84
REMARK SMILES IDX 69 85 70 86 74 87 77 88 71 89 72 90 75 91 73 92 52 93 53 94
REMARK SMILES IDX 61 95 54 96 55 97 59 98 62 99 56 100 57 101 60 102 58 103
REMARK H PARENT 82 56 50 67
REMARK Flexibility Score: inf
ROOT
ATOM      1  C   UNL A   1      35.599  32.329  28.995  1.00  0.00     0.188 C 
ENDROOT
BRANCH   1   2
ATOM      2  O   UNL A   1      35.004  31.738  27.827  1.00  0.00    -0.376 OA
BRANCH   2   3
ATOM      3  C   UNL A   1      34.114  30.616  27.823  1.00  0.00     0.202 C 
BRANCH   3   4
ATOM      4  C   UNL A   1      33.910  29.300  26.755  1.00  0.00     0.261 C 
BRANCH   4   5
ATOM      5  O   UNL A   1      33.335  27.592  26.870  1.00  0.00    -0.463 OA
BRANCH   5   6
ATOM      6  C   UNL A   1      32.289  26.665  26.457  1.00  0.00     0.314 C 
ATOM      7  O   UNL A   1      31.217  26.447  27.031  1.00  0.00    -0.252 OA
BRANCH   6   8
ATOM      8  C   UNL A   1      32.386  25.745  25.251  1.00  0.00     0.093 C 
ATOM      9  C   UNL A   1      31.806  26.396  24.004  1.00  0.00     0.023 C 
ATOM     10  C   UNL A   1      33.925  25.490  25.236  1.00  0.00     0.138 C 
ATOM     11  C   UNL A   1      32.512  25.979  22.718  1.00  0.00     0.023 C 
ATOM     12  N   UNL A   1      34.393  25.066  23.938  1.00  0.00    -0.341 N 
ATOM     13  C   UNL A   1      34.026  26.002  22.891  1.00  0.00     0.119 C 
BRANCH   8  14
ATOM     14  C   UNL A   1      31.654  24.371  25.654  1.00  0.00     0.099 C 
BRANCH  14  15
ATOM     15  C   UNL A   1      31.902  23.101  24.881  1.00  0.00     0.138 A 
ATOM     16  C   UNL A   1      32.222  21.058  24.023  1.00  0.00     0.114 A 
ATOM     17  C   UNL A   1      32.272  21.814  25.230  1.00  0.00     0.077 A 
ATOM     18  N   UNL A   1      31.785  21.839  23.020  1.00  0.00    -0.080 NA
ATOM     19  O   UNL A   1      31.563  23.095  23.564  1.00  0.00    -0.361 OA
BRANCH  16  20
ATOM     20  C   UNL A   1      32.693  19.686  23.786  1.00  0.00     0.004 A 
ATOM     21  C   UNL A   1      35.154  17.040  25.074  1.00  0.00     0.044 C 
ATOM     22  C   UNL A   1      34.122  17.756  24.250  1.00  0.00    -0.050 A 
ATOM     23  C   UNL A   1      33.601  17.096  23.128  1.00  0.00     0.003 A 
ATOM     24  C   UNL A   1      33.677  19.060  24.566  1.00  0.00     0.014 A 
ATOM     25  C   UNL A   1      32.611  17.698  22.364  1.00  0.00     0.001 A 
ATOM     26  C   UNL A   1      32.151  18.968  22.710  1.00  0.00     0.010 A 
ENDBRANCH  16  20
ENDBRANCH  14  15
ENDBRANCH   8  14
BRANCH  12  27
ATOM     27  C   UNL A   1      35.031  23.844  23.832  1.00  0.00     0.225 C 
ATOM     28  O   UNL A   1      34.990  23.187  22.785  1.00  0.00    -0.275 OA
BRANCH  27  29
ATOM     29  C   UNL A   1      35.767  23.238  25.020  1.00  0.00     0.072 C 
ATOM     30  C   UNL A   1      35.749  21.718  25.103  1.00  0.00     0.018 C 
ATOM     31  C   UNL A   1      37.163  23.827  25.134  1.00  0.00     0.018 C 
ENDBRANCH  27  29
ENDBRANCH  12  27
ENDBRANCH   6   8
ENDBRANCH   5   6
ENDBRANCH   4   5
ENDBRANCH   3   4
ENDBRANCH   2   3
ENDBRANCH   1   2
BRANCH   1  32
ATOM     32  C   UNL A   1      34.898  32.307  30.348  1.00  0.00     0.188 C 
BRANCH  32  33
ATOM     33  O   UNL A   1      35.719  32.944  31.305  1.00  0.00    -0.376 OA
BRANCH  33  34
ATOM     34  C   UNL A   1      35.223  34.165  31.820  1.00  0.00     0.202 C 
BRANCH  34  35
ATOM     35  C   UNL A   1      36.237  34.837  32.753  1.00  0.00     0.261 C 
BRANCH  35  36
ATOM     36  O   UNL A   1      37.199  33.868  33.236  1.00  0.00    -0.460 OA
BRANCH  36  37
ATOM     37  C   UNL A   1      37.493  33.915  34.589  1.00  0.00     0.338 C 
ATOM     38  O   UNL A   1      36.685  33.951  35.464  1.00  0.00    -0.246 OA
BRANCH  37  39
ATOM     39  C   UNL A   1      38.974  34.136  34.759  1.00  0.00     0.060 A 
ATOM     40  C   UNL A   1      39.566  35.178  35.485  1.00  0.00     0.016 A 
ATOM     41  C   UNL A   1      39.777  33.501  33.884  1.00  0.00     0.016 A 
ATOM     42  C   UNL A   1      40.869  35.739  35.125  1.00  0.00     0.010 A 
ATOM     43  C   UNL A   1      40.879  34.226  33.437  1.00  0.00     0.010 A 
ATOM     44  C   UNL A   1      41.556  35.401  33.949  1.00  0.00    -0.014 A 
BRANCH  44  45
ATOM     45  C   UNL A   1      42.891  36.362  33.255  1.00  0.00     0.031 A 
ATOM     46  C   UNL A   1      43.354  38.106  33.318  1.00  0.00     0.074 A 
ATOM     47  C   UNL A   1      43.664  35.737  32.330  1.00  0.00     0.049 A 
ATOM     48  N   UNL A   1      43.933  38.757  32.319  1.00  0.00    -0.248 NA
ATOM     49  C   UNL A   1      43.034  39.210  34.324  1.00  0.00     0.031 C 
ATOM     50  C   UNL A   1      44.863  36.243  31.662  1.00  0.00     0.029 A 
ATOM     51  N   UNL A   1      43.432  34.511  31.690  1.00  0.00    -0.354 N 
ATOM     52  C   UNL A   1      44.098  40.117  32.634  1.00  0.00     0.074 A 
ATOM     53  C   UNL A   1      43.524  40.346  33.889  1.00  0.00     0.031 C 
ATOM     54  C   UNL A   1      45.030  35.569  30.513  1.00  0.00     0.029 A 
ATOM     55  C   UNL A   1      43.903  34.671  30.380  1.00  0.00     0.049 A 
ATOM     56  H   UNL A   1      43.023  33.705  32.080  1.00  0.00     0.167 HD
ATOM     57  C   UNL A   1      44.741  41.040  31.879  1.00  0.00     0.037 A 
ATOM     58  C   UNL A   1      43.099  34.522  29.296  1.00  0.00     0.037 A 
ATOM     59  C   UNL A   1      45.166  40.442  30.657  1.00  0.00     0.049 A 
ATOM     60  C   UNL A   1      43.173  35.677  28.331  1.00  0.00     0.074 A 
ATOM     61  C   UNL A   1      46.308  39.748  30.315  1.00  0.00     0.029 A 
ATOM     62  N   UNL A   1      44.194  40.121  29.729  1.00  0.00    -0.354 N 
ATOM     63  N   UNL A   1      43.653  36.856  28.616  1.00  0.00    -0.248 NA
ATOM     64  C   UNL A   1      42.701  35.586  26.960  1.00  0.00     0.031 C 
ATOM     65  C   UNL A   1      46.023  39.017  29.137  1.00  0.00     0.029 A 
ATOM     66  C   UNL A   1      44.729  39.317  28.749  1.00  0.00     0.049 A 
ATOM     67  H   UNL A   1      43.257  40.422  29.764  1.00  0.00     0.167 HD
ATOM     68  C   UNL A   1      43.547  37.681  27.518  1.00  0.00     0.074 A 
ATOM     69  C   UNL A   1      42.973  36.819  26.504  1.00  0.00     0.031 C 
ATOM     70  C   UNL A   1      43.935  38.995  27.575  1.00  0.00     0.037 A 
BRANCH  57  71
ATOM     71  C   UNL A   1      45.215  42.352  32.483  1.00  0.00     0.064 A 
ATOM     72  C   UNL A   1      46.341  42.362  33.324  1.00  0.00     0.173 A 
ATOM     73  C   UNL A   1      44.502  43.572  32.423  1.00  0.00     0.173 A 
ATOM     74  F   UNL A   1      47.151  41.300  33.399  1.00  0.00    -0.203 F 
ATOM     75  C   UNL A   1      46.639  43.446  34.158  1.00  0.00     0.198 A 
ATOM     76  C   UNL A   1      44.755  44.628  33.312  1.00  0.00     0.198 A 
ATOM     77  F   UNL A   1      43.506  43.746  31.539  1.00  0.00    -0.203 F 
ATOM     78  F   UNL A   1      47.706  43.387  34.967  1.00  0.00    -0.200 F 
ATOM     79  C   UNL A   1      45.815  44.554  34.193  1.00  0.00     0.200 A 
ATOM     80  F   UNL A   1      43.935  45.689  33.345  1.00  0.00    -0.200 F 
ATOM     81  F   UNL A   1      46.041  45.543  35.070  1.00  0.00    -0.200 F 
ENDBRANCH  57  71
BRANCH  58  82
ATOM     82  C   UNL A   1      41.943  33.601  29.503  1.00  0.00     0.064 A 
ATOM     83  C   UNL A   1      42.211  32.260  29.866  1.00  0.00     0.173 A 
ATOM     84  C   UNL A   1      40.627  34.052  29.667  1.00  0.00     0.173 A 
ATOM     85  F   UNL A   1      43.457  31.768  29.749  1.00  0.00    -0.203 F 
ATOM     86  C   UNL A   1      41.247  31.454  30.466  1.00  0.00     0.198 A 
ATOM     87  C   UNL A   1      39.651  33.228  30.245  1.00  0.00     0.198 A 
ATOM     88  F   UNL A   1      40.303  35.319  29.376  1.00  0.00    -0.203 F 
ATOM     89  F   UNL A   1      41.584  30.243  30.937  1.00  0.00    -0.200 F 
ATOM     90  C   UNL A   1      39.968  31.942  30.666  1.00  0.00     0.200 A 
ATOM     91  F   UNL A   1      38.430  33.718  30.503  1.00  0.00    -0.200 F 
ATOM     92  F   UNL A   1      39.071  31.208  31.338  1.00  0.00    -0.200 F 
ENDBRANCH  58  82
BRANCH  70  93
ATOM     93  C   UNL A   1      43.684  40.139  26.587  1.00  0.00     0.064 A 
ATOM     94  C   UNL A   1      44.673  40.864  25.909  1.00  0.00     0.173 A 
ATOM     95  C   UNL A   1      42.351  40.489  26.207  1.00  0.00     0.173 A 
ATOM     96  F   UNL A   1      45.973  40.638  26.094  1.00  0.00    -0.203 F 
ATOM     97  C   UNL A   1      44.369  41.853  24.962  1.00  0.00     0.198 A 
ATOM     98  C   UNL A   1      42.053  41.424  25.215  1.00  0.00     0.198 A 
ATOM     99  F   UNL A   1      41.270  39.935  26.771  1.00  0.00    -0.203 F 
ATOM    100  F   UNL A   1      45.366  42.536  24.385  1.00  0.00    -0.200 F 
ATOM    101  C   UNL A   1      43.065  42.117  24.599  1.00  0.00     0.200 A 
ATOM    102  F   UNL A   1      40.777  41.634  24.862  1.00  0.00    -0.200 F 
ATOM    103  F   UNL A   1      42.786  43.030  23.659  1.00  0.00    -0.200 F 
ENDBRANCH  70  93
ENDBRANCH  44  45
ENDBRANCH  37  39
ENDBRANCH  36  37
ENDBRANCH  35  36
ENDBRANCH  34  35
ENDBRANCH  33  34
ENDBRANCH  32  33
ENDBRANCH   1  32
TORSDOF 22
ENDMDL
MODEL 2
REMARK VINA RESULT:     -12.4      4.786     10.244
REMARK SMILES Cc1cccc(-c2cc(C[C@]3(C(=O)OCCOCCOCCOC(=O)c4ccc(-c5c6nc(c(-c7c(F)c(F)c(F)c(F)c7F)c7ccc([nH]7)c(-c7c(F)c(F)c(F)c(F)c7F)c7nc(c(-c8c(F)c(F)c(F)c(F)c8F)c8ccc5[nH]8)C=C7)C=C6)cc4)CCCN(C(=O)C(C)C)C3)on2)c1
REMARK SMILES IDX 18 1 17 2 16 3 15 4 14 5 12 6 13 7 11 8 89 9 98 10 90 11
REMARK SMILES IDX 92 12 91 13 10 14 9 15 7 16 8 17 100 18 99 19 6 20 1 21 2 22
REMARK SMILES IDX 3 23 101 24 4 25 5 26 93 27 94 28 95 29 96 30 97 31 19 32
REMARK SMILES IDX 20 33 21 34 22 35 23 36 24 37 25 38 26 39 27 40 88 41 28 42
REMARK SMILES IDX 87 43 29 44 30 45 31 46 81 47 32 48 86 49 80 50 82 51 33 52
REMARK SMILES IDX 85 53 79 54 78 55 34 57 66 58 46 59 65 60 47 61 50 62 64 63
REMARK SMILES IDX 83 64 48 65 49 66 63 68 84 69 51 70 35 71 36 72 44 73 37 74
REMARK SMILES IDX 38 75 42 76 45 77 39 78 40 79 43 80 41 81 67 82 68 83 76 84
REMARK SMILES IDX 69 85 70 86 74 87 77 88 71 89 72 90 75 91 73 92 52 93 53 94
REMARK SMILES IDX 61 95 54 96 55 97 59 98 62 99 56 100 57 101 60 102 58 103
REMARK H PARENT 82 56 50 67
REMARK Flexibility Score: inf
ROOT
ATOM      1  C   UNL A   1      36.416  20.770  24.972  1.00  0.00     0.188 C 
ENDROOT
BRANCH   1   2
ATOM      2  O   UNL A   1      35.103  20.857  25.551  1.00  0.00    -0.376 OA
BRANCH   2   3
ATOM      3  C   UNL A   1      34.746  21.641  26.695  1.00  0.00     0.202 C 
BRANCH   3   4
ATOM      4  C   UNL A   1      33.778  23.033  26.893  1.00  0.00     0.261 C 
BRANCH   4   5
ATOM      5  O   UNL A   1      32.998  24.255  25.816  1.00  0.00    -0.463 OA
BRANCH   5   6
ATOM      6  C   UNL A   1      31.733  24.890  25.469  1.00  0.00     0.314 C 
ATOM      7  O   UNL A   1      30.609  24.377  25.493  1.00  0.00    -0.252 OA
BRANCH   6   8
ATOM      8  C   UNL A   1      31.603  26.310  24.941  1.00  0.00     0.093 C 
ATOM      9  C   UNL A   1      32.850  26.739  24.183  1.00  0.00     0.023 C 
ATOM     10  C   UNL A   1      30.304  26.159  24.092  1.00  0.00     0.138 C 
ATOM     11  C   UNL A   1      32.560  27.696  23.031  1.00  0.00     0.023 C 
ATOM     12  N   UNL A   1      30.194  27.183  23.080  1.00  0.00    -0.341 N 
ATOM     13  C   UNL A   1      31.360  27.226  22.216  1.00  0.00     0.119 C 
BRANCH   8  14
ATOM     14  C   UNL A   1      31.270  27.247  26.205  1.00  0.00     0.099 C 
BRANCH  14  15
ATOM     15  C   UNL A   1      32.237  28.309  26.664  1.00  0.00     0.138 A 
ATOM     16  C   UNL A   1      33.912  29.679  27.239  1.00  0.00     0.114 A 
ATOM     17  C   UNL A   1      33.581  28.314  26.994  1.00  0.00     0.077 A 
ATOM     18  N   UNL A   1      32.838  30.451  27.005  1.00  0.00    -0.080 NA
ATOM     19  O   UNL A   1      31.812  29.600  26.622  1.00  0.00    -0.361 OA
BRANCH  16  20
ATOM     20  C   UNL A   1      35.154  30.229  27.800  1.00  0.00     0.004 A 
ATOM     21  C   UNL A   1      36.918  33.529  28.646  1.00  0.00     0.044 C 
ATOM     22  C   UNL A   1      36.632  32.068  28.446  1.00  0.00    -0.050 A 
ATOM     23  C   UNL A   1      37.642  31.149  28.762  1.00  0.00     0.003 A 
ATOM     24  C   UNL A   1      35.392  31.605  27.949  1.00  0.00     0.014 A 
ATOM     25  C   UNL A   1      37.407  29.787  28.639  1.00  0.00     0.001 A 
ATOM     26  C   UNL A   1      36.167  29.340  28.186  1.00  0.00     0.010 A 
ENDBRANCH  16  20
ENDBRANCH  14  15
ENDBRANCH   8  14
BRANCH  12  27
ATOM     27  C   UNL A   1      29.090  28.013  23.097  1.00  0.00     0.225 C 
ATOM     28  O   UNL A   1      27.976  27.593  23.431  1.00  0.00    -0.275 OA
BRANCH  27  29
ATOM     29  C   UNL A   1      29.196  29.468  22.658  1.00  0.00     0.072 C 
ATOM     30  C   UNL A   1      27.959  30.046  21.984  1.00  0.00     0.018 C 
ATOM     31  C   UNL A   1      29.715  30.329  23.797  1.00  0.00     0.018 C 
ENDBRANCH  27  29
ENDBRANCH  12  27
ENDBRANCH   6   8
ENDBRANCH   5   6
ENDBRANCH   4   5
ENDBRANCH   3   4
ENDBRANCH   2   3
ENDBRANCH   1   2
BRANCH   1  32
ATOM     32  C   UNL A   1      37.457  21.861  25.184  1.00  0.00     0.188 C 
BRANCH  32  33
ATOM     33  O   UNL A   1      38.636  21.283  25.705  1.00  0.00    -0.376 OA
BRANCH  33  34
ATOM     34  C   UNL A   1      39.614  22.196  26.163  1.00  0.00     0.202 C 
BRANCH  34  35
ATOM     35  C   UNL A   1      40.434  21.612  27.320  1.00  0.00     0.261 C 
BRANCH  35  36
ATOM     36  O   UNL A   1      41.772  21.283  26.876  1.00  0.00    -0.460 OA
BRANCH  36  37
ATOM     37  C   UNL A   1      42.473  22.291  26.235  1.00  0.00     0.338 C 
ATOM     38  O   UNL A   1      42.536  22.438  25.054  1.00  0.00    -0.246 OA
BRANCH  37  39
ATOM     39  C   UNL A   1      43.312  23.023  27.252  1.00  0.00     0.060 A 
ATOM     40  C   UNL A   1      43.128  22.986  28.640  1.00  0.00     0.016 A 
ATOM     41  C   UNL A   1      44.063  24.039  26.787  1.00  0.00     0.016 A 
ATOM     42  C   UNL A   1      43.472  24.117  29.504  1.00  0.00     0.010 A 
ATOM     43  C   UNL A   1      44.136  25.163  27.606  1.00  0.00     0.010 A 
ATOM     44  C   UNL A   1      43.857  25.373  29.012  1.00  0.00    -0.014 A 
BRANCH  44  45
ATOM     45  C   UNL A   1      43.847  26.875  29.978  1.00  0.00     0.031 A 
ATOM     46  C   UNL A   1      42.578  28.078  30.425  1.00  0.00     0.074 A 
ATOM     47  C   UNL A   1      45.061  27.364  30.342  1.00  0.00     0.049 A 
ATOM     48  N   UNL A   1      42.804  29.375  30.577  1.00  0.00    -0.248 NA
ATOM     49  C   UNL A   1      41.055  27.971  30.510  1.00  0.00     0.031 C 
ATOM     50  C   UNL A   1      45.354  28.517  31.193  1.00  0.00     0.029 A 
ATOM     51  N   UNL A   1      46.327  26.970  29.887  1.00  0.00    -0.354 N 
ATOM     52  C   UNL A   1      41.609  30.066  30.846  1.00  0.00     0.074 A 
ATOM     53  C   UNL A   1      40.555  29.149  30.794  1.00  0.00     0.031 C 
ATOM     54  C   UNL A   1      46.590  28.955  30.911  1.00  0.00     0.029 A 
ATOM     55  C   UNL A   1      47.090  28.144  29.821  1.00  0.00     0.049 A 
ATOM     56  H   UNL A   1      46.620  26.058  29.660  1.00  0.00     0.167 HD
ATOM     57  C   UNL A   1      41.498  31.382  31.148  1.00  0.00     0.037 A 
ATOM     58  C   UNL A   1      47.650  28.583  28.665  1.00  0.00     0.037 A 
ATOM     59  C   UNL A   1      42.782  31.997  31.076  1.00  0.00     0.049 A 
ATOM     60  C   UNL A   1      47.346  30.026  28.361  1.00  0.00     0.074 A 
ATOM     61  C   UNL A   1      43.794  32.137  32.004  1.00  0.00     0.029 A 
ATOM     62  N   UNL A   1      43.343  32.165  29.825  1.00  0.00    -0.354 N 
ATOM     63  N   UNL A   1      46.385  30.717  28.910  1.00  0.00    -0.248 NA
ATOM     64  C   UNL A   1      48.112  30.805  27.401  1.00  0.00     0.031 C 
ATOM     65  C   UNL A   1      44.983  32.424  31.293  1.00  0.00     0.029 A 
ATOM     66  C   UNL A   1      44.669  32.509  29.947  1.00  0.00     0.049 A 
ATOM     67  H   UNL A   1      42.864  32.055  28.971  1.00  0.00     0.167 HD
ATOM     68  C   UNL A   1      46.371  31.993  28.391  1.00  0.00     0.074 A 
ATOM     69  C   UNL A   1      47.495  31.995  27.475  1.00  0.00     0.031 C 
ATOM     70  C   UNL A   1      45.418  32.904  28.766  1.00  0.00     0.037 A 
BRANCH  57  71
ATOM     71  C   UNL A   1      40.244  31.928  31.813  1.00  0.00     0.064 A 
ATOM     72  C   UNL A   1      39.594  33.044  31.257  1.00  0.00     0.173 A 
ATOM     73  C   UNL A   1      39.758  31.520  33.076  1.00  0.00     0.173 A 
ATOM     74  F   UNL A   1      39.899  33.475  30.028  1.00  0.00    -0.203 F 
ATOM     75  C   UNL A   1      38.648  33.787  31.972  1.00  0.00     0.198 A 
ATOM     76  C   UNL A   1      38.867  32.306  33.821  1.00  0.00     0.198 A 
ATOM     77  F   UNL A   1      40.181  30.377  33.641  1.00  0.00    -0.203 F 
ATOM     78  F   UNL A   1      38.085  34.864  31.407  1.00  0.00    -0.200 F 
ATOM     79  C   UNL A   1      38.326  33.451  33.273  1.00  0.00     0.200 A 
ATOM     80  F   UNL A   1      38.578  31.975  35.090  1.00  0.00    -0.200 F 
ATOM     81  F   UNL A   1      37.502  34.227  33.992  1.00  0.00    -0.200 F 
ENDBRANCH  57  71
BRANCH  58  82
ATOM     82  C   UNL A   1      47.960  27.506  27.679  1.00  0.00     0.064 A 
ATOM     83  C   UNL A   1      47.029  27.260  26.641  1.00  0.00     0.173 A 
ATOM     84  C   UNL A   1      49.236  26.949  27.532  1.00  0.00     0.173 A 
ATOM     85  F   UNL A   1      45.791  27.778  26.712  1.00  0.00    -0.203 F 
ATOM     86  C   UNL A   1      47.391  26.593  25.473  1.00  0.00     0.198 A 
ATOM     87  C   UNL A   1      49.588  26.254  26.366  1.00  0.00     0.198 A 
ATOM     88  F   UNL A   1      50.182  27.166  28.456  1.00  0.00    -0.203 F 
ATOM     89  F   UNL A   1      46.525  26.516  24.450  1.00  0.00    -0.200 F 
ATOM     90  C   UNL A   1      48.675  26.099  25.331  1.00  0.00     0.200 A 
ATOM     91  F   UNL A   1      50.849  25.833  26.194  1.00  0.00    -0.200 F 
ATOM     92  F   UNL A   1      49.055  25.553  24.167  1.00  0.00    -0.200 F 
ENDBRANCH  58  82
BRANCH  70  93
ATOM     93  C   UNL A   1      45.058  34.262  28.154  1.00  0.00     0.064 A 
ATOM     94  C   UNL A   1      44.092  34.481  27.163  1.00  0.00     0.173 A 
ATOM     95  C   UNL A   1      45.654  35.462  28.652  1.00  0.00     0.173 A 
ATOM     96  F   UNL A   1      43.394  33.485  26.618  1.00  0.00    -0.203 F 
ATOM     97  C   UNL A   1      43.763  35.762  26.699  1.00  0.00     0.198 A 
ATOM     98  C   UNL A   1      45.275  36.740  28.238  1.00  0.00     0.198 A 
ATOM     99  F   UNL A   1      46.625  35.458  29.574  1.00  0.00    -0.203 F 
ATOM    100  F   UNL A   1      42.860  35.893  25.718  1.00  0.00    -0.200 F 
ATOM    101  C   UNL A   1      44.335  36.890  27.249  1.00  0.00     0.200 A 
ATOM    102  F   UNL A   1      45.828  37.816  28.816  1.00  0.00    -0.200 F 
ATOM    103  F   UNL A   1      43.980  38.112  26.833  1.00  0.00    -0.200 F 
ENDBRANCH  70  93
ENDBRANCH  44  45
ENDBRANCH  37  39
ENDBRANCH  36  37
ENDBRANCH  35  36
ENDBRANCH  34  35
ENDBRANCH  33  34
ENDBRANCH  32  33
ENDBRANCH   1  32
TORSDOF 22
ENDMDL
MODEL 3
REMARK VINA RESULT:     -12.0      9.071     14.023
REMARK SMILES Cc1cccc(-c2cc(C[C@]3(C(=O)OCCOCCOCCOC(=O)c4ccc(-c5c6nc(c(-c7c(F)c(F)c(F)c(F)c7F)c7ccc([nH]7)c(-c7c(F)c(F)c(F)c(F)c7F)c7nc(c(-c8c(F)c(F)c(F)c(F)c8F)c8ccc5[nH]8)C=C7)C=C6)cc4)CCCN(C(=O)C(C)C)C3)on2)c1
REMARK SMILES IDX 18 1 17 2 16 3 15 4 14 5 12 6 13 7 11 8 89 9 98 10 90 11
REMARK SMILES IDX 92 12 91 13 10 14 9 15 7 16 8 17 100 18 99 19 6 20 1 21 2 22
REMARK SMILES IDX 3 23 101 24 4 25 5 26 93 27 94 28 95 29 96 30 97 31 19 32
REMARK SMILES IDX 20 33 21 34 22 35 23 36 24 37 25 38 26 39 27 40 88 41 28 42
REMARK SMILES IDX 87 43 29 44 30 45 31 46 81 47 32 48 86 49 80 50 82 51 33 52
REMARK SMILES IDX 85 53 79 54 78 55 34 57 66 58 46 59 65 60 47 61 50 62 64 63
REMARK SMILES IDX 83 64 48 65 49 66 63 68 84 69 51 70 35 71 36 72 44 73 37 74
REMARK SMILES IDX 38 75 42 76 45 77 39 78 40 79 43 80 41 81 67 82 68 83 76 84
REMARK SMILES IDX 69 85 70 86 74 87 77 88 71 89 72 90 75 91 73 92 52 93 53 94
REMARK SMILES IDX 61 95 54 96 55 97 59 98 62 99 56 100 57 101 60 102 58 103
REMARK H PARENT 82 56 50 67
REMARK Flexibility Score: inf
ROOT
ATOM      1  C   UNL A   1      35.926  22.065  25.750  1.00  0.00     0.188 C 
ENDROOT
BRANCH   1   2
ATOM      2  O   UNL A   1      34.760  21.643  26.477  1.00  0.00    -0.376 OA
BRANCH   2   3
ATOM      3  C   UNL A   1      33.914  22.493  27.260  1.00  0.00     0.202 C 
BRANCH   3   4
ATOM      4  C   UNL A   1      32.618  23.528  26.860  1.00  0.00     0.261 C 
BRANCH   4   5
ATOM      5  O   UNL A   1      32.262  24.756  25.584  1.00  0.00    -0.463 OA
BRANCH   5   6
ATOM      6  C   UNL A   1      31.289  25.740  25.127  1.00  0.00     0.314 C 
ATOM      7  O   UNL A   1      30.121  25.529  24.783  1.00  0.00    -0.252 OA
BRANCH   6   8
ATOM      8  C   UNL A   1      31.589  27.217  24.935  1.00  0.00     0.093 C 
ATOM      9  C   UNL A   1      32.936  27.429  24.259  1.00  0.00     0.023 C 
ATOM     10  C   UNL A   1      30.335  27.636  24.108  1.00  0.00     0.138 C 
ATOM     11  C   UNL A   1      32.975  28.659  23.359  1.00  0.00     0.023 C 
ATOM     12  N   UNL A   1      30.562  28.847  23.354  1.00  0.00    -0.341 N 
ATOM     13  C   UNL A   1      31.725  28.745  22.491  1.00  0.00     0.119 C 
BRANCH   8  14
ATOM     14  C   UNL A   1      31.487  27.905  26.385  1.00  0.00     0.099 C 
BRANCH  14  15
ATOM     15  C   UNL A   1      32.532  28.884  26.857  1.00  0.00     0.138 A 
ATOM     16  C   UNL A   1      34.306  30.110  27.460  1.00  0.00     0.114 A 
ATOM     17  C   UNL A   1      33.864  28.776  27.218  1.00  0.00     0.077 A 
ATOM     18  N   UNL A   1      33.308  30.970  27.196  1.00  0.00    -0.080 NA
ATOM     19  O   UNL A   1      32.221  30.207  26.797  1.00  0.00    -0.361 OA
BRANCH  16  20
ATOM     20  C   UNL A   1      35.578  30.556  28.045  1.00  0.00     0.004 A 
ATOM     21  C   UNL A   1      37.512  33.695  29.107  1.00  0.00     0.044 C 
ATOM     22  C   UNL A   1      37.151  32.268  28.806  1.00  0.00    -0.050 A 
ATOM     23  C   UNL A   1      38.116  31.280  29.043  1.00  0.00     0.003 A 
ATOM     24  C   UNL A   1      35.886  31.904  28.290  1.00  0.00     0.014 A 
ATOM     25  C   UNL A   1      37.813  29.944  28.825  1.00  0.00     0.001 A 
ATOM     26  C   UNL A   1      36.548  29.593  28.355  1.00  0.00     0.010 A 
ENDBRANCH  16  20
ENDBRANCH  14  15
ENDBRANCH   8  14
BRANCH  12  27
ATOM     27  C   UNL A   1      29.740  29.933  23.586  1.00  0.00     0.225 C 
ATOM     28  O   UNL A   1      30.021  30.779  24.443  1.00  0.00    -0.275 OA
BRANCH  27  29
ATOM     29  C   UNL A   1      28.430  30.103  22.827  1.00  0.00     0.072 C 
ATOM     30  C   UNL A   1      28.562  30.441  21.349  1.00  0.00     0.018 C 
ATOM     31  C   UNL A   1      27.508  28.925  23.092  1.00  0.00     0.018 C 
ENDBRANCH  27  29
ENDBRANCH  12  27
ENDBRANCH   6   8
ENDBRANCH   5   6
ENDBRANCH   4   5
ENDBRANCH   3   4
ENDBRANCH   2   3
ENDBRANCH   1   2
BRANCH   1  32
ATOM     32  C   UNL A   1      36.174  23.529  25.414  1.00  0.00     0.188 C 
BRANCH  32  33
ATOM     33  O   UNL A   1      37.486  23.879  25.805  1.00  0.00    -0.376 OA
BRANCH  33  34
ATOM     34  C   UNL A   1      38.370  22.794  26.014  1.00  0.00     0.202 C 
BRANCH  34  35
ATOM     35  C   UNL A   1      39.506  23.171  26.972  1.00  0.00     0.261 C 
BRANCH  35  36
ATOM     36  O   UNL A   1      40.732  23.404  26.237  1.00  0.00    -0.460 OA
BRANCH  36  37
ATOM     37  C   UNL A   1      41.724  24.108  26.901  1.00  0.00     0.338 C 
ATOM     38  O   UNL A   1      41.697  24.405  28.054  1.00  0.00    -0.246 OA
BRANCH  37  39
ATOM     39  C   UNL A   1      42.717  24.621  25.890  1.00  0.00     0.060 A 
ATOM     40  C   UNL A   1      43.964  24.050  25.609  1.00  0.00     0.016 A 
ATOM     41  C   UNL A   1      42.548  25.892  25.479  1.00  0.00     0.016 A 
ATOM     42  C   UNL A   1      45.108  24.849  25.166  1.00  0.00     0.010 A 
ATOM     43  C   UNL A   1      43.715  26.632  25.303  1.00  0.00     0.010 A 
ATOM     44  C   UNL A   1      45.104  26.252  25.139  1.00  0.00    -0.014 A 
BRANCH  44  45
ATOM     45  C   UNL A   1      46.576  27.258  25.046  1.00  0.00     0.031 A 
ATOM     46  C   UNL A   1      47.869  27.488  23.808  1.00  0.00     0.074 A 
ATOM     47  C   UNL A   1      46.952  27.881  26.193  1.00  0.00     0.049 A 
ATOM     48  N   UNL A   1      49.138  27.738  24.096  1.00  0.00    -0.248 NA
ATOM     49  C   UNL A   1      47.887  27.258  22.297  1.00  0.00     0.031 C 
ATOM     50  C   UNL A   1      48.054  28.822  26.392  1.00  0.00     0.029 A 
ATOM     51  N   UNL A   1      46.466  27.676  27.491  1.00  0.00    -0.354 N 
ATOM     52  C   UNL A   1      49.920  27.788  22.929  1.00  0.00     0.074 A 
ATOM     53  C   UNL A   1      49.095  27.484  21.840  1.00  0.00     0.031 C 
ATOM     54  C   UNL A   1      48.394  28.815  27.690  1.00  0.00     0.029 A 
ATOM     55  C   UNL A   1      47.573  27.817  28.339  1.00  0.00     0.049 A 
ATOM     56  H   UNL A   1      45.538  27.476  27.754  1.00  0.00     0.167 HD
ATOM     57  C   UNL A   1      51.232  28.117  22.858  1.00  0.00     0.037 A 
ATOM     58  C   UNL A   1      47.993  26.818  29.157  1.00  0.00     0.037 A 
ATOM     59  C   UNL A   1      51.739  28.333  24.173  1.00  0.00     0.049 A 
ATOM     60  C   UNL A   1      49.464  26.520  29.034  1.00  0.00     0.074 A 
ATOM     61  C   UNL A   1      51.769  29.452  24.980  1.00  0.00     0.029 A 
ATOM     62  N   UNL A   1      51.892  27.230  24.990  1.00  0.00    -0.354 N 
ATOM     63  N   UNL A   1      50.218  26.891  28.036  1.00  0.00    -0.248 NA
ATOM     64  C   UNL A   1      50.201  25.770  30.038  1.00  0.00     0.031 C 
ATOM     65  C   UNL A   1      51.975  29.010  26.309  1.00  0.00     0.029 A 
ATOM     66  C   UNL A   1      52.120  27.634  26.286  1.00  0.00     0.049 A 
ATOM     67  H   UNL A   1      51.844  26.293  24.690  1.00  0.00     0.167 HD
ATOM     68  C   UNL A   1      51.504  26.435  28.226  1.00  0.00     0.074 A 
ATOM     69  C   UNL A   1      51.436  25.767  29.512  1.00  0.00     0.031 C 
ATOM     70  C   UNL A   1      52.482  26.647  27.289  1.00  0.00     0.037 A 
BRANCH  57  71
ATOM     71  C   UNL A   1      51.864  28.536  21.541  1.00  0.00     0.064 A 
ATOM     72  C   UNL A   1      51.786  29.877  21.129  1.00  0.00     0.173 A 
ATOM     73  C   UNL A   1      52.380  27.643  20.574  1.00  0.00     0.173 A 
ATOM     74  F   UNL A   1      51.399  30.835  21.980  1.00  0.00    -0.203 F 
ATOM     75  C   UNL A   1      52.050  30.270  19.812  1.00  0.00     0.198 A 
ATOM     76  C   UNL A   1      52.572  28.021  19.237  1.00  0.00     0.198 A 
ATOM     77  F   UNL A   1      52.657  26.367  20.891  1.00  0.00    -0.203 F 
ATOM     78  F   UNL A   1      51.924  31.558  19.465  1.00  0.00    -0.200 F 
ATOM     79  C   UNL A   1      52.388  29.333  18.854  1.00  0.00     0.200 A 
ATOM     80  F   UNL A   1      52.884  27.096  18.315  1.00  0.00    -0.200 F 
ATOM     81  F   UNL A   1      52.534  29.696  17.570  1.00  0.00    -0.200 F 
ENDBRANCH  57  71
BRANCH  58  82
ATOM     82  C   UNL A   1      46.920  25.870  29.580  1.00  0.00     0.064 A 
ATOM     83  C   UNL A   1      46.073  26.250  30.647  1.00  0.00     0.173 A 
ATOM     84  C   UNL A   1      46.505  24.787  28.794  1.00  0.00     0.173 A 
ATOM     85  F   UNL A   1      46.404  27.291  31.431  1.00  0.00    -0.203 F 
ATOM     86  C   UNL A   1      44.829  25.655  30.846  1.00  0.00     0.198 A 
ATOM     87  C   UNL A   1      45.264  24.173  29.014  1.00  0.00     0.198 A 
ATOM     88  F   UNL A   1      47.237  24.390  27.744  1.00  0.00    -0.203 F 
ATOM     89  F   UNL A   1      43.991  26.148  31.771  1.00  0.00    -0.200 F 
ATOM     90  C   UNL A   1      44.420  24.623  30.022  1.00  0.00     0.200 A 
ATOM     91  F   UNL A   1      44.833  23.218  28.178  1.00  0.00    -0.200 F 
ATOM     92  F   UNL A   1      43.183  24.122  30.143  1.00  0.00    -0.200 F 
ENDBRANCH  58  82
BRANCH  70  93
ATOM     93  C   UNL A   1      53.880  26.033  27.168  1.00  0.00     0.064 A 
ATOM     94  C   UNL A   1      54.216  24.912  26.398  1.00  0.00     0.173 A 
ATOM     95  C   UNL A   1      55.003  26.658  27.795  1.00  0.00     0.173 A 
ATOM     96  F   UNL A   1      53.308  24.232  25.698  1.00  0.00    -0.203 F 
ATOM     97  C   UNL A   1      55.533  24.447  26.276  1.00  0.00     0.198 A 
ATOM     98  C   UNL A   1      56.320  26.234  27.616  1.00  0.00     0.198 A 
ATOM     99  F   UNL A   1      54.881  27.719  28.603  1.00  0.00    -0.203 F 
ATOM    100  F   UNL A   1      55.774  23.342  25.557  1.00  0.00    -0.200 F 
ATOM    101  C   UNL A   1      56.585  25.117  26.864  1.00  0.00     0.200 A 
ATOM    102  F   UNL A   1      57.323  26.926  28.175  1.00  0.00    -0.200 F 
ATOM    103  F   UNL A   1      57.845  24.692  26.703  1.00  0.00    -0.200 F 
ENDBRANCH  70  93
ENDBRANCH  44  45
ENDBRANCH  37  39
ENDBRANCH  36  37
ENDBRANCH  35  36
ENDBRANCH  34  35
ENDBRANCH  33  34
ENDBRANCH  32  33
ENDBRANCH   1  32
TORSDOF 22
ENDMDL
