MODEL 1
REMARK VINA RESULT:     -11.2      0.000      0.000
REMARK SMILES O=C(OCCOCCOCCOC(=O)c1ccc(-c2c3nc(c(-c4c(F)c(F)c(F)c(F)c4F)c4ccc([nH]4)c(-c4c(F)c(F)c(F)c(F)c4F)c4nc(c(-c5c(F)c(F)c(F)c(F)c5F)c5ccc2[nH]5)C=C4)C=C3)cc1)c1ccc(NC(=O)[C@@H]2CC=CC[C@H]2C(=O)Nc2cccc([N+](=O)[O-])c2)cc1
REMARK SMILES IDX 6 1 5 2 4 3 3 4 2 5 1 6 78 7 79 8 104 9 80 10 103 11 81 12
REMARK SMILES IDX 82 13 83 14 84 16 85 17 86 18 90 19 87 20 89 21 88 22 91 23
REMARK SMILES IDX 92 24 93 25 94 27 95 28 102 29 96 30 98 31 97 32 99 33
REMARK SMILES IDX 100 34 101 35 7 36 8 37 9 38 10 39 11 40 12 41 13 42 14 43
REMARK SMILES IDX 15 44 16 45 77 46 17 47 76 48 18 49 19 50 20 51 70 52 21 53
REMARK SMILES IDX 75 54 69 55 71 56 22 57 74 58 68 59 67 60 23 62 55 63 35 64
REMARK SMILES IDX 54 65 36 66 39 67 53 68 72 69 37 70 38 71 52 73 73 74 40 75
REMARK SMILES IDX 24 76 25 77 33 78 26 79 27 80 31 81 34 82 28 83 29 84 32 85
REMARK SMILES IDX 30 86 56 87 57 88 65 89 58 90 59 91 63 92 66 93 60 94 61 95
REMARK SMILES IDX 64 96 62 97 41 98 42 99 50 100 43 101 44 102 48 103 51 104
REMARK SMILES IDX 45 105 46 106 49 107 47 108
REMARK H PARENT 82 15 93 26 71 61 39 72
REMARK Flexibility Score: inf
ROOT
ATOM      1  O   UNL A   1      42.221  20.054  27.323  1.00  0.00    -0.376 OA
ENDROOT
BRANCH   1   2
ATOM      2  C   UNL A   1      40.812  20.257  27.252  1.00  0.00     0.202 C 
BRANCH   2   3
ATOM      3  C   UNL A   1      40.411  21.645  26.753  1.00  0.00     0.261 C 
BRANCH   3   4
ATOM      4  O   UNL A   1      39.172  21.642  26.023  1.00  0.00    -0.460 OA
BRANCH   4   5
ATOM      5  C   UNL A   1      38.207  22.583  25.904  1.00  0.00     0.338 C 
ATOM      6  O   UNL A   1      38.548  23.759  26.047  1.00  0.00    -0.246 OA
BRANCH   5   7
ATOM      7  C   UNL A   1      36.736  22.317  25.738  1.00  0.00     0.060 A 
ATOM      8  C   UNL A   1      36.136  21.152  25.275  1.00  0.00     0.018 A 
ATOM      9  C   UNL A   1      35.865  23.356  26.114  1.00  0.00     0.018 A 
ATOM     10  C   UNL A   1      34.736  20.993  25.280  1.00  0.00     0.027 A 
ATOM     11  C   UNL A   1      34.473  23.171  26.166  1.00  0.00     0.027 A 
ATOM     12  C   UNL A   1      33.903  21.939  25.844  1.00  0.00     0.041 A 
BRANCH  12  13
ATOM     13  N   UNL A   1      32.553  21.756  26.178  1.00  0.00    -0.326 N 
ATOM     14  C   UNL A   1      31.381  22.433  26.012  1.00  0.00     0.228 C 
ATOM     15  H   UNL A   1      32.413  20.911  26.663  1.00  0.00     0.169 HD
ATOM     16  O   UNL A   1      30.380  21.824  26.414  1.00  0.00    -0.274 OA
BRANCH  14  17
ATOM     17  C   UNL A   1      31.235  23.840  25.402  1.00  0.00     0.095 C 
ATOM     18  C   UNL A   1      30.061  24.544  26.140  1.00  0.00     0.041 C 
ATOM     19  C   UNL A   1      31.024  23.859  23.865  1.00  0.00     0.095 C 
ATOM     20  C   UNL A   1      29.524  25.779  25.492  1.00  0.00    -0.030 C 
ATOM     21  C   UNL A   1      30.186  25.000  23.236  1.00  0.00     0.041 C 
ATOM     22  C   UNL A   1      29.570  25.975  24.173  1.00  0.00    -0.030 C 
BRANCH  19  23
ATOM     23  C   UNL A   1      32.259  23.683  22.983  1.00  0.00     0.228 C 
ATOM     24  O   UNL A   1      32.529  22.536  22.602  1.00  0.00    -0.274 OA
ATOM     25  N   UNL A   1      33.030  24.700  22.482  1.00  0.00    -0.326 N 
ATOM     26  H   UNL A   1      33.571  24.408  21.713  1.00  0.00     0.169 HD
BRANCH  25  27
ATOM     27  C   UNL A   1      33.247  26.063  22.791  1.00  0.00     0.048 A 
ATOM     28  C   UNL A   1      33.674  26.907  21.757  1.00  0.00     0.026 A 
ATOM     29  C   UNL A   1      33.186  26.605  24.070  1.00  0.00     0.111 A 
ATOM     30  C   UNL A   1      34.005  28.251  21.999  1.00  0.00     0.009 A 
ATOM     31  C   UNL A   1      33.579  27.928  24.332  1.00  0.00     0.271 A 
ATOM     32  C   UNL A   1      33.973  28.767  23.293  1.00  0.00     0.086 A 
BRANCH  31  33
ATOM     33  N   UNL A   1      33.636  28.395  25.726  1.00  0.00     0.062 N 
ATOM     34  O   UNL A   1      33.753  27.543  26.616  1.00  0.00    -0.258 OA
ATOM     35  O   UNL A   1      33.535  29.615  25.928  1.00  0.00    -0.258 OA
ENDBRANCH  31  33
ENDBRANCH  25  27
ENDBRANCH  19  23
ENDBRANCH  14  17
ENDBRANCH  12  13
ENDBRANCH   5   7
ENDBRANCH   4   5
ENDBRANCH   3   4
ENDBRANCH   2   3
ENDBRANCH   1   2
BRANCH   1  36
ATOM     36  C   UNL A   1      42.787  19.460  26.144  1.00  0.00     0.188 C 
BRANCH  36  37
ATOM     37  C   UNL A   1      43.639  20.399  25.273  1.00  0.00     0.188 C 
BRANCH  37  38
ATOM     38  O   UNL A   1      45.011  20.011  25.205  1.00  0.00    -0.376 OA
BRANCH  38  39
ATOM     39  C   UNL A   1      45.944  21.080  25.343  1.00  0.00     0.202 C 
BRANCH  39  40
ATOM     40  C   UNL A   1      45.461  22.382  24.699  1.00  0.00     0.261 C 
BRANCH  40  41
ATOM     41  O   UNL A   1      45.220  23.452  25.627  1.00  0.00    -0.460 OA
BRANCH  41  42
ATOM     42  C   UNL A   1      44.011  24.047  25.564  1.00  0.00     0.338 C 
ATOM     43  O   UNL A   1      43.202  23.981  24.659  1.00  0.00    -0.246 OA
BRANCH  42  44
ATOM     44  C   UNL A   1      43.776  24.799  26.808  1.00  0.00     0.060 A 
ATOM     45  C   UNL A   1      42.921  24.274  27.781  1.00  0.00     0.016 A 
ATOM     46  C   UNL A   1      44.315  26.080  26.950  1.00  0.00     0.016 A 
ATOM     47  C   UNL A   1      42.562  25.059  28.881  1.00  0.00     0.010 A 
ATOM     48  C   UNL A   1      43.961  26.858  28.055  1.00  0.00     0.010 A 
ATOM     49  C   UNL A   1      43.051  26.370  29.007  1.00  0.00    -0.014 A 
BRANCH  49  50
ATOM     50  C   UNL A   1      42.515  27.263  30.068  1.00  0.00     0.031 A 
ATOM     51  C   UNL A   1      43.177  27.290  31.422  1.00  0.00     0.074 A 
ATOM     52  C   UNL A   1      41.463  28.065  29.826  1.00  0.00     0.049 A 
ATOM     53  N   UNL A   1      42.884  28.007  32.479  1.00  0.00    -0.248 NA
ATOM     54  C   UNL A   1      44.322  26.385  31.610  1.00  0.00     0.031 C 
ATOM     55  C   UNL A   1      40.729  28.137  28.565  1.00  0.00     0.029 A 
ATOM     56  N   UNL A   1      40.827  28.972  30.639  1.00  0.00    -0.354 N 
ATOM     57  C   UNL A   1      43.811  27.648  33.450  1.00  0.00     0.074 A 
ATOM     58  C   UNL A   1      44.645  26.615  32.875  1.00  0.00     0.031 C 
ATOM     59  C   UNL A   1      39.740  29.039  28.687  1.00  0.00     0.029 A 
ATOM     60  C   UNL A   1      39.757  29.590  30.042  1.00  0.00     0.049 A 
ATOM     61  H   UNL A   1      41.112  29.160  31.562  1.00  0.00     0.167 HD
ATOM     62  C   UNL A   1      43.969  28.147  34.701  1.00  0.00     0.037 A 
ATOM     63  C   UNL A   1      38.885  30.492  30.536  1.00  0.00     0.037 A 
ATOM     64  C   UNL A   1      43.135  29.168  35.284  1.00  0.00     0.049 A 
ATOM     65  C   UNL A   1      39.054  30.999  31.946  1.00  0.00     0.074 A 
ATOM     66  C   UNL A   1      43.224  29.742  36.542  1.00  0.00     0.029 A 
ATOM     67  N   UNL A   1      42.054  29.762  34.652  1.00  0.00    -0.354 N 
ATOM     68  N   UNL A   1      39.962  30.687  32.839  1.00  0.00    -0.248 NA
ATOM     69  C   UNL A   1      38.081  31.999  32.410  1.00  0.00     0.031 C 
ATOM     70  C   UNL A   1      42.170  30.652  36.686  1.00  0.00     0.029 A 
ATOM     71  C   UNL A   1      41.457  30.684  35.499  1.00  0.00     0.049 A 
ATOM     72  H   UNL A   1      41.754  29.560  33.736  1.00  0.00     0.167 HD
ATOM     73  C   UNL A   1      39.685  31.465  33.956  1.00  0.00     0.074 A 
ATOM     74  C   UNL A   1      38.542  32.285  33.620  1.00  0.00     0.031 C 
ATOM     75  C   UNL A   1      40.318  31.494  35.156  1.00  0.00     0.037 A 
BRANCH  62  76
ATOM     76  C   UNL A   1      45.091  27.594  35.531  1.00  0.00     0.064 A 
ATOM     77  C   UNL A   1      46.352  28.211  35.561  1.00  0.00     0.173 A 
ATOM     78  C   UNL A   1      44.893  26.466  36.344  1.00  0.00     0.173 A 
ATOM     79  F   UNL A   1      46.595  29.285  34.796  1.00  0.00    -0.203 F 
ATOM     80  C   UNL A   1      47.378  27.706  36.356  1.00  0.00     0.198 A 
ATOM     81  C   UNL A   1      45.914  25.983  37.159  1.00  0.00     0.198 A 
ATOM     82  F   UNL A   1      43.705  25.843  36.358  1.00  0.00    -0.203 F 
ATOM     83  F   UNL A   1      48.585  28.288  36.337  1.00  0.00    -0.200 F 
ATOM     84  C   UNL A   1      47.156  26.599  37.160  1.00  0.00     0.200 A 
ATOM     85  F   UNL A   1      45.694  24.921  37.946  1.00  0.00    -0.200 F 
ATOM     86  F   UNL A   1      48.142  26.121  37.933  1.00  0.00    -0.200 F 
ENDBRANCH  62  76
BRANCH  63  87
ATOM     87  C   UNL A   1      37.761  30.977  29.691  1.00  0.00     0.064 A 
ATOM     88  C   UNL A   1      37.786  32.254  29.110  1.00  0.00     0.173 A 
ATOM     89  C   UNL A   1      36.624  30.186  29.476  1.00  0.00     0.173 A 
ATOM     90  F   UNL A   1      38.842  33.058  29.309  1.00  0.00    -0.203 F 
ATOM     91  C   UNL A   1      36.706  32.731  28.372  1.00  0.00     0.198 A 
ATOM     92  C   UNL A   1      35.557  30.652  28.709  1.00  0.00     0.198 A 
ATOM     93  F   UNL A   1      36.550  28.957  30.006  1.00  0.00    -0.203 F 
ATOM     94  F   UNL A   1      36.732  33.976  27.877  1.00  0.00    -0.200 F 
ATOM     95  C   UNL A   1      35.594  31.927  28.168  1.00  0.00     0.200 A 
ATOM     96  F   UNL A   1      34.492  29.866  28.502  1.00  0.00    -0.200 F 
ATOM     97  F   UNL A   1      34.555  32.385  27.456  1.00  0.00    -0.200 F 
ENDBRANCH  63  87
BRANCH  75  98
ATOM     98  C   UNL A   1      39.801  32.466  36.181  1.00  0.00     0.064 A 
ATOM     99  C   UNL A   1      40.386  33.729  36.362  1.00  0.00     0.173 A 
ATOM    100  C   UNL A   1      38.703  32.134  36.988  1.00  0.00     0.173 A 
ATOM    101  F   UNL A   1      41.447  34.093  35.625  1.00  0.00    -0.203 F 
ATOM    102  C   UNL A   1      39.918  34.605  37.339  1.00  0.00     0.198 A 
ATOM    103  C   UNL A   1      38.216  33.024  37.942  1.00  0.00     0.198 A 
ATOM    104  F   UNL A   1      38.098  30.943  36.853  1.00  0.00    -0.203 F 
ATOM    105  F   UNL A   1      40.535  35.778  37.536  1.00  0.00    -0.200 F 
ATOM    106  C   UNL A   1      38.831  34.253  38.126  1.00  0.00     0.200 A 
ATOM    107  F   UNL A   1      37.156  32.689  38.691  1.00  0.00    -0.200 F 
ATOM    108  F   UNL A   1      38.385  35.095  39.068  1.00  0.00    -0.200 F 
ENDBRANCH  75  98
ENDBRANCH  49  50
ENDBRANCH  42  44
ENDBRANCH  41  42
ENDBRANCH  40  41
ENDBRANCH  39  40
ENDBRANCH  38  39
ENDBRANCH  37  38
ENDBRANCH  36  37
ENDBRANCH   1  36
TORSDOF 22
ENDMDL
MODEL 2
REMARK VINA RESULT:     -11.2      5.122     12.437
REMARK SMILES O=C(OCCOCCOCCOC(=O)c1ccc(-c2c3nc(c(-c4c(F)c(F)c(F)c(F)c4F)c4ccc([nH]4)c(-c4c(F)c(F)c(F)c(F)c4F)c4nc(c(-c5c(F)c(F)c(F)c(F)c5F)c5ccc2[nH]5)C=C4)C=C3)cc1)c1ccc(NC(=O)[C@@H]2CC=CC[C@H]2C(=O)Nc2cccc([N+](=O)[O-])c2)cc1
REMARK SMILES IDX 6 1 5 2 4 3 3 4 2 5 1 6 78 7 79 8 104 9 80 10 103 11 81 12
REMARK SMILES IDX 82 13 83 14 84 16 85 17 86 18 90 19 87 20 89 21 88 22 91 23
REMARK SMILES IDX 92 24 93 25 94 27 95 28 102 29 96 30 98 31 97 32 99 33
REMARK SMILES IDX 100 34 101 35 7 36 8 37 9 38 10 39 11 40 12 41 13 42 14 43
REMARK SMILES IDX 15 44 16 45 77 46 17 47 76 48 18 49 19 50 20 51 70 52 21 53
REMARK SMILES IDX 75 54 69 55 71 56 22 57 74 58 68 59 67 60 23 62 55 63 35 64
REMARK SMILES IDX 54 65 36 66 39 67 53 68 72 69 37 70 38 71 52 73 73 74 40 75
REMARK SMILES IDX 24 76 25 77 33 78 26 79 27 80 31 81 34 82 28 83 29 84 32 85
REMARK SMILES IDX 30 86 56 87 57 88 65 89 58 90 59 91 63 92 66 93 60 94 61 95
REMARK SMILES IDX 64 96 62 97 41 98 42 99 50 100 43 101 44 102 48 103 51 104
REMARK SMILES IDX 45 105 46 106 49 107 47 108
REMARK H PARENT 82 15 93 26 71 61 39 72
REMARK Flexibility Score: inf
ROOT
ATOM      1  O   UNL A   1      36.182  34.546  31.743  1.00  0.00    -0.376 OA
ENDROOT
BRANCH   1   2
ATOM      2  C   UNL A   1      37.198  33.867  32.476  1.00  0.00     0.202 C 
BRANCH   2   3
ATOM      3  C   UNL A   1      36.761  33.419  33.871  1.00  0.00     0.261 C 
BRANCH   3   4
ATOM      4  O   UNL A   1      37.067  32.040  34.138  1.00  0.00    -0.460 OA
BRANCH   4   5
ATOM      5  C   UNL A   1      37.190  30.979  33.306  1.00  0.00     0.338 C 
ATOM      6  O   UNL A   1      36.249  30.752  32.543  1.00  0.00    -0.246 OA
BRANCH   5   7
ATOM      7  C   UNL A   1      38.315  29.981  33.315  1.00  0.00     0.060 A 
ATOM      8  C   UNL A   1      38.321  28.710  32.754  1.00  0.00     0.018 A 
ATOM      9  C   UNL A   1      39.507  30.388  33.943  1.00  0.00     0.018 A 
ATOM     10  C   UNL A   1      39.487  27.920  32.732  1.00  0.00     0.027 A 
ATOM     11  C   UNL A   1      40.680  29.617  33.870  1.00  0.00     0.027 A 
ATOM     12  C   UNL A   1      40.702  28.412  33.166  1.00  0.00     0.041 A 
BRANCH  12  13
ATOM     13  N   UNL A   1      41.961  27.846  32.913  1.00  0.00    -0.326 N 
ATOM     14  C   UNL A   1      42.985  27.320  33.644  1.00  0.00     0.228 C 
ATOM     15  H   UNL A   1      42.158  27.822  31.950  1.00  0.00     0.169 HD
ATOM     16  O   UNL A   1      43.902  26.842  32.962  1.00  0.00    -0.274 OA
BRANCH  14  17
ATOM     17  C   UNL A   1      43.075  27.300  35.181  1.00  0.00     0.095 C 
ATOM     18  C   UNL A   1      43.836  28.584  35.617  1.00  0.00     0.041 C 
ATOM     19  C   UNL A   1      43.735  26.026  35.773  1.00  0.00     0.095 C 
ATOM     20  C   UNL A   1      44.332  28.606  37.027  1.00  0.00    -0.030 C 
ATOM     21  C   UNL A   1      44.524  26.138  37.102  1.00  0.00     0.041 C 
ATOM     22  C   UNL A   1      44.657  27.496  37.691  1.00  0.00    -0.030 C 
BRANCH  19  23
ATOM     23  C   UNL A   1      42.872  24.770  35.878  1.00  0.00     0.228 C 
ATOM     24  O   UNL A   1      41.662  24.926  36.091  1.00  0.00    -0.274 OA
ATOM     25  N   UNL A   1      43.301  23.489  35.643  1.00  0.00    -0.326 N 
ATOM     26  H   UNL A   1      42.551  22.877  35.464  1.00  0.00     0.169 HD
BRANCH  25  27
ATOM     27  C   UNL A   1      44.547  22.824  35.595  1.00  0.00     0.048 A 
ATOM     28  C   UNL A   1      44.859  22.104  34.434  1.00  0.00     0.026 A 
ATOM     29  C   UNL A   1      45.437  22.728  36.660  1.00  0.00     0.111 A 
ATOM     30  C   UNL A   1      46.031  21.336  34.341  1.00  0.00     0.009 A 
ATOM     31  C   UNL A   1      46.576  21.909  36.600  1.00  0.00     0.271 A 
ATOM     32  C   UNL A   1      46.892  21.223  35.431  1.00  0.00     0.086 A 
BRANCH  31  33
ATOM     33  N   UNL A   1      47.394  21.732  37.810  1.00  0.00     0.062 N 
ATOM     34  O   UNL A   1      48.287  20.875  37.782  1.00  0.00    -0.258 OA
ATOM     35  O   UNL A   1      47.123  22.435  38.796  1.00  0.00    -0.258 OA
ENDBRANCH  31  33
ENDBRANCH  25  27
ENDBRANCH  19  23
ENDBRANCH  14  17
ENDBRANCH  12  13
ENDBRANCH   5   7
ENDBRANCH   4   5
ENDBRANCH   3   4
ENDBRANCH   2   3
ENDBRANCH   1   2
BRANCH   1  36
ATOM     36  C   UNL A   1      34.944  33.824  31.653  1.00  0.00     0.188 C 
BRANCH  36  37
ATOM     37  C   UNL A   1      34.789  32.928  30.412  1.00  0.00     0.188 C 
BRANCH  37  38
ATOM     38  O   UNL A   1      35.536  33.392  29.288  1.00  0.00    -0.376 OA
BRANCH  38  39
ATOM     39  C   UNL A   1      34.893  33.217  28.027  1.00  0.00     0.202 C 
BRANCH  39  40
ATOM     40  C   UNL A   1      33.907  32.046  28.015  1.00  0.00     0.261 C 
BRANCH  40  41
ATOM     41  O   UNL A   1      34.246  30.991  27.100  1.00  0.00    -0.460 OA
BRANCH  41  42
ATOM     42  C   UNL A   1      34.524  29.787  27.640  1.00  0.00     0.338 C 
ATOM     43  O   UNL A   1      33.772  28.838  27.755  1.00  0.00    -0.246 OA
BRANCH  42  44
ATOM     44  C   UNL A   1      35.933  29.761  28.065  1.00  0.00     0.060 A 
ATOM     45  C   UNL A   1      36.939  30.052  27.139  1.00  0.00     0.016 A 
ATOM     46  C   UNL A   1      36.255  29.329  29.353  1.00  0.00     0.016 A 
ATOM     47  C   UNL A   1      38.278  29.862  27.491  1.00  0.00     0.010 A 
ATOM     48  C   UNL A   1      37.596  29.148  29.705  1.00  0.00     0.010 A 
ATOM     49  C   UNL A   1      38.614  29.373  28.764  1.00  0.00    -0.014 A 
BRANCH  49  50
ATOM     50  C   UNL A   1      40.019  28.988  29.065  1.00  0.00     0.031 A 
ATOM     51  C   UNL A   1      40.891  29.922  29.865  1.00  0.00     0.074 A 
ATOM     52  C   UNL A   1      40.512  27.807  28.653  1.00  0.00     0.049 A 
ATOM     53  N   UNL A   1      42.133  29.774  30.254  1.00  0.00    -0.248 NA
ATOM     54  C   UNL A   1      40.281  31.195  30.279  1.00  0.00     0.031 C 
ATOM     55  C   UNL A   1      39.779  26.813  27.871  1.00  0.00     0.029 A 
ATOM     56  N   UNL A   1      41.753  27.246  28.835  1.00  0.00    -0.354 N 
ATOM     57  C   UNL A   1      42.449  30.925  30.965  1.00  0.00     0.074 A 
ATOM     58  C   UNL A   1      41.286  31.785  30.912  1.00  0.00     0.031 C 
ATOM     59  C   UNL A   1      40.585  25.763  27.639  1.00  0.00     0.029 A 
ATOM     60  C   UNL A   1      41.896  26.020  28.234  1.00  0.00     0.049 A 
ATOM     61  H   UNL A   1      42.471  27.682  29.348  1.00  0.00     0.167 HD
ATOM     62  C   UNL A   1      43.595  31.232  31.621  1.00  0.00     0.037 A 
ATOM     63  C   UNL A   1      42.966  25.204  28.164  1.00  0.00     0.037 A 
ATOM     64  C   UNL A   1      44.761  30.388  31.668  1.00  0.00     0.049 A 
ATOM     65  C   UNL A   1      44.246  25.589  28.865  1.00  0.00     0.074 A 
ATOM     66  C   UNL A   1      45.965  30.611  32.314  1.00  0.00     0.029 A 
ATOM     67  N   UNL A   1      44.872  29.157  31.037  1.00  0.00    -0.354 N 
ATOM     68  N   UNL A   1      44.517  26.659  29.573  1.00  0.00    -0.248 NA
ATOM     69  C   UNL A   1      45.364  24.640  28.767  1.00  0.00     0.031 C 
ATOM     70  C   UNL A   1      46.820  29.538  32.038  1.00  0.00     0.029 A 
ATOM     71  C   UNL A   1      46.130  28.620  31.265  1.00  0.00     0.049 A 
ATOM     72  H   UNL A   1      44.162  28.730  30.506  1.00  0.00     0.167 HD
ATOM     73  C   UNL A   1      45.822  26.501  30.022  1.00  0.00     0.074 A 
ATOM     74  C   UNL A   1      46.279  25.219  29.530  1.00  0.00     0.031 C 
ATOM     75  C   UNL A   1      46.577  27.344  30.770  1.00  0.00     0.037 A 
BRANCH  62  76
ATOM     76  C   UNL A   1      43.647  32.547  32.346  1.00  0.00     0.064 A 
ATOM     77  C   UNL A   1      43.928  33.745  31.671  1.00  0.00     0.173 A 
ATOM     78  C   UNL A   1      43.364  32.619  33.719  1.00  0.00     0.173 A 
ATOM     79  F   UNL A   1      44.215  33.729  30.360  1.00  0.00    -0.203 F 
ATOM     80  C   UNL A   1      43.947  34.962  32.347  1.00  0.00     0.198 A 
ATOM     81  C   UNL A   1      43.356  33.842  34.385  1.00  0.00     0.198 A 
ATOM     82  F   UNL A   1      43.082  31.505  34.411  1.00  0.00    -0.203 F 
ATOM     83  F   UNL A   1      44.259  36.087  31.689  1.00  0.00    -0.200 F 
ATOM     84  C   UNL A   1      43.653  35.011  33.701  1.00  0.00     0.200 A 
ATOM     85  F   UNL A   1      43.057  33.890  35.691  1.00  0.00    -0.200 F 
ATOM     86  F   UNL A   1      43.661  36.184  34.348  1.00  0.00    -0.200 F 
ENDBRANCH  62  76
BRANCH  63  87
ATOM     87  C   UNL A   1      42.882  23.933  27.396  1.00  0.00     0.064 A 
ATOM     88  C   UNL A   1      42.481  22.737  28.009  1.00  0.00     0.173 A 
ATOM     89  C   UNL A   1      43.234  23.884  26.039  1.00  0.00     0.173 A 
ATOM     90  F   UNL A   1      42.159  22.729  29.311  1.00  0.00    -0.203 F 
ATOM     91  C   UNL A   1      42.463  21.537  27.303  1.00  0.00     0.198 A 
ATOM     92  C   UNL A   1      43.184  22.688  25.325  1.00  0.00     0.198 A 
ATOM     93  F   UNL A   1      43.621  24.999  25.404  1.00  0.00    -0.203 F 
ATOM     94  F   UNL A   1      42.132  20.399  27.928  1.00  0.00    -0.200 F 
ATOM     95  C   UNL A   1      42.810  21.514  25.960  1.00  0.00     0.200 A 
ATOM     96  F   UNL A   1      43.504  22.674  24.025  1.00  0.00    -0.200 F 
ATOM     97  F   UNL A   1      42.791  20.359  25.280  1.00  0.00    -0.200 F 
ENDBRANCH  63  87
BRANCH  75  98
ATOM     98  C   UNL A   1      47.967  26.891  31.124  1.00  0.00     0.064 A 
ATOM     99  C   UNL A   1      49.082  27.262  30.357  1.00  0.00     0.173 A 
ATOM    100  C   UNL A   1      48.188  26.082  32.249  1.00  0.00     0.173 A 
ATOM    101  F   UNL A   1      48.926  28.024  29.264  1.00  0.00    -0.203 F 
ATOM    102  C   UNL A   1      50.359  26.806  30.678  1.00  0.00     0.198 A 
ATOM    103  C   UNL A   1      49.470  25.655  32.586  1.00  0.00     0.198 A 
ATOM    104  F   UNL A   1      47.160  25.704  33.025  1.00  0.00    -0.203 F 
ATOM    105  F   UNL A   1      51.398  27.121  29.893  1.00  0.00    -0.200 F 
ATOM    106  C   UNL A   1      50.552  26.006  31.794  1.00  0.00     0.200 A 
ATOM    107  F   UNL A   1      49.657  24.895  33.675  1.00  0.00    -0.200 F 
ATOM    108  F   UNL A   1      51.780  25.566  32.100  1.00  0.00    -0.200 F 
ENDBRANCH  75  98
ENDBRANCH  49  50
ENDBRANCH  42  44
ENDBRANCH  41  42
ENDBRANCH  40  41
ENDBRANCH  39  40
ENDBRANCH  38  39
ENDBRANCH  37  38
ENDBRANCH  36  37
ENDBRANCH   1  36
TORSDOF 22
ENDMDL
MODEL 3
REMARK VINA RESULT:     -11.1      1.346      2.395
REMARK SMILES O=C(OCCOCCOCCOC(=O)c1ccc(-c2c3nc(c(-c4c(F)c(F)c(F)c(F)c4F)c4ccc([nH]4)c(-c4c(F)c(F)c(F)c(F)c4F)c4nc(c(-c5c(F)c(F)c(F)c(F)c5F)c5ccc2[nH]5)C=C4)C=C3)cc1)c1ccc(NC(=O)[C@@H]2CC=CC[C@H]2C(=O)Nc2cccc([N+](=O)[O-])c2)cc1
REMARK SMILES IDX 6 1 5 2 4 3 3 4 2 5 1 6 78 7 79 8 104 9 80 10 103 11 81 12
REMARK SMILES IDX 82 13 83 14 84 16 85 17 86 18 90 19 87 20 89 21 88 22 91 23
REMARK SMILES IDX 92 24 93 25 94 27 95 28 102 29 96 30 98 31 97 32 99 33
REMARK SMILES IDX 100 34 101 35 7 36 8 37 9 38 10 39 11 40 12 41 13 42 14 43
REMARK SMILES IDX 15 44 16 45 77 46 17 47 76 48 18 49 19 50 20 51 70 52 21 53
REMARK SMILES IDX 75 54 69 55 71 56 22 57 74 58 68 59 67 60 23 62 55 63 35 64
REMARK SMILES IDX 54 65 36 66 39 67 53 68 72 69 37 70 38 71 52 73 73 74 40 75
REMARK SMILES IDX 24 76 25 77 33 78 26 79 27 80 31 81 34 82 28 83 29 84 32 85
REMARK SMILES IDX 30 86 56 87 57 88 65 89 58 90 59 91 63 92 66 93 60 94 61 95
REMARK SMILES IDX 64 96 62 97 41 98 42 99 50 100 43 101 44 102 48 103 51 104
REMARK SMILES IDX 45 105 46 106 49 107 47 108
REMARK H PARENT 82 15 93 26 71 61 39 72
REMARK Flexibility Score: inf
ROOT
ATOM      1  O   UNL A   1      42.975  19.246  27.482  1.00  0.00    -0.376 OA
ENDROOT
BRANCH   1   2
ATOM      2  C   UNL A   1      41.575  19.504  27.553  1.00  0.00     0.202 C 
BRANCH   2   3
ATOM      3  C   UNL A   1      41.197  20.956  27.266  1.00  0.00     0.261 C 
BRANCH   3   4
ATOM      4  O   UNL A   1      40.132  21.078  26.307  1.00  0.00    -0.460 OA
BRANCH   4   5
ATOM      5  C   UNL A   1      39.193  22.039  26.139  1.00  0.00     0.338 C 
ATOM      6  O   UNL A   1      39.507  23.191  26.445  1.00  0.00    -0.246 OA
BRANCH   5   7
ATOM      7  C   UNL A   1      37.764  21.808  25.729  1.00  0.00     0.060 A 
ATOM      8  C   UNL A   1      37.261  20.753  24.978  1.00  0.00     0.018 A 
ATOM      9  C   UNL A   1      36.824  22.756  26.175  1.00  0.00     0.018 A 
ATOM     10  C   UNL A   1      35.878  20.595  24.765  1.00  0.00     0.027 A 
ATOM     11  C   UNL A   1      35.443  22.563  26.004  1.00  0.00     0.027 A 
ATOM     12  C   UNL A   1      34.953  21.415  25.380  1.00  0.00     0.041 A 
BRANCH  12  13
ATOM     13  N   UNL A   1      33.576  21.170  25.490  1.00  0.00    -0.326 N 
ATOM     14  C   UNL A   1      32.418  21.801  25.142  1.00  0.00     0.228 C 
ATOM     15  H   UNL A   1      33.397  20.313  25.939  1.00  0.00     0.169 HD
ATOM     16  O   UNL A   1      31.393  21.144  25.371  1.00  0.00    -0.274 OA
BRANCH  14  17
ATOM     17  C   UNL A   1      32.311  23.210  24.530  1.00  0.00     0.095 C 
ATOM     18  C   UNL A   1      33.214  23.232  23.264  1.00  0.00     0.041 C 
ATOM     19  C   UNL A   1      32.672  24.365  25.499  1.00  0.00     0.095 C 
ATOM     20  C   UNL A   1      33.527  24.583  22.705  1.00  0.00    -0.030 C 
ATOM     21  C   UNL A   1      33.298  25.661  24.924  1.00  0.00     0.041 C 
ATOM     22  C   UNL A   1      33.579  25.679  23.464  1.00  0.00    -0.030 C 
BRANCH  19  23
ATOM     23  C   UNL A   1      31.608  24.800  26.505  1.00  0.00     0.228 C 
ATOM     24  O   UNL A   1      31.136  23.929  27.248  1.00  0.00    -0.274 OA
ATOM     25  N   UNL A   1      31.211  26.092  26.734  1.00  0.00    -0.326 N 
ATOM     26  H   UNL A   1      30.759  26.190  27.604  1.00  0.00     0.169 HD
BRANCH  25  27
ATOM     27  C   UNL A   1      31.284  27.320  26.037  1.00  0.00     0.048 A 
ATOM     28  C   UNL A   1      31.868  28.411  26.695  1.00  0.00     0.026 A 
ATOM     29  C   UNL A   1      30.711  27.561  24.793  1.00  0.00     0.111 A 
ATOM     30  C   UNL A   1      31.893  29.689  26.113  1.00  0.00     0.009 A 
ATOM     31  C   UNL A   1      30.672  28.849  24.234  1.00  0.00     0.271 A 
ATOM     32  C   UNL A   1      31.281  29.920  24.882  1.00  0.00     0.086 A 
BRANCH  31  33
ATOM     33  N   UNL A   1      29.920  29.066  22.989  1.00  0.00     0.062 N 
ATOM     34  O   UNL A   1      28.986  29.879  23.012  1.00  0.00    -0.258 OA
ATOM     35  O   UNL A   1      30.249  28.401  21.994  1.00  0.00    -0.258 OA
ENDBRANCH  31  33
ENDBRANCH  25  27
ENDBRANCH  19  23
ENDBRANCH  14  17
ENDBRANCH  12  13
ENDBRANCH   5   7
ENDBRANCH   4   5
ENDBRANCH   3   4
ENDBRANCH   2   3
ENDBRANCH   1   2
BRANCH   1  36
ATOM     36  C   UNL A   1      43.409  18.713  26.220  1.00  0.00     0.188 C 
BRANCH  36  37
ATOM     37  C   UNL A   1      43.963  19.744  25.222  1.00  0.00     0.188 C 
BRANCH  37  38
ATOM     38  O   UNL A   1      45.369  19.623  25.012  1.00  0.00    -0.376 OA
BRANCH  38  39
ATOM     39  C   UNL A   1      46.101  20.840  25.139  1.00  0.00     0.202 C 
BRANCH  39  40
ATOM     40  C   UNL A   1      45.402  22.031  24.478  1.00  0.00     0.261 C 
BRANCH  40  41
ATOM     41  O   UNL A   1      45.138  23.133  25.362  1.00  0.00    -0.460 OA
BRANCH  41  42
ATOM     42  C   UNL A   1      43.873  23.600  25.386  1.00  0.00     0.338 C 
ATOM     43  O   UNL A   1      42.995  23.396  24.570  1.00  0.00    -0.246 OA
BRANCH  42  44
ATOM     44  C   UNL A   1      43.677  24.403  26.605  1.00  0.00     0.060 A 
ATOM     45  C   UNL A   1      42.922  23.884  27.659  1.00  0.00     0.016 A 
ATOM     46  C   UNL A   1      44.146  25.718  26.644  1.00  0.00     0.016 A 
ATOM     47  C   UNL A   1      42.591  24.704  28.742  1.00  0.00     0.010 A 
ATOM     48  C   UNL A   1      43.820  26.534  27.732  1.00  0.00     0.010 A 
ATOM     49  C   UNL A   1      43.007  26.046  28.768  1.00  0.00    -0.014 A 
BRANCH  49  50
ATOM     50  C   UNL A   1      42.490  26.963  29.818  1.00  0.00     0.031 A 
ATOM     51  C   UNL A   1      43.180  27.024  31.157  1.00  0.00     0.074 A 
ATOM     52  C   UNL A   1      41.431  27.756  29.579  1.00  0.00     0.049 A 
ATOM     53  N   UNL A   1      42.907  27.765  32.202  1.00  0.00    -0.248 NA
ATOM     54  C   UNL A   1      44.331  26.127  31.343  1.00  0.00     0.031 C 
ATOM     55  C   UNL A   1      40.670  27.796  28.332  1.00  0.00     0.029 A 
ATOM     56  N   UNL A   1      40.809  28.681  30.383  1.00  0.00    -0.354 N 
ATOM     57  C   UNL A   1      43.854  27.432  33.163  1.00  0.00     0.074 A 
ATOM     58  C   UNL A   1      44.680  26.388  32.595  1.00  0.00     0.031 C 
ATOM     59  C   UNL A   1      39.682  28.698  28.453  1.00  0.00     0.029 A 
ATOM     60  C   UNL A   1      39.725  29.282  29.794  1.00  0.00     0.049 A 
ATOM     61  H   UNL A   1      41.113  28.891  31.295  1.00  0.00     0.167 HD
ATOM     62  C   UNL A   1      44.036  27.962  34.397  1.00  0.00     0.037 A 
ATOM     63  C   UNL A   1      38.861  30.192  30.284  1.00  0.00     0.037 A 
ATOM     64  C   UNL A   1      43.212  28.993  34.974  1.00  0.00     0.049 A 
ATOM     65  C   UNL A   1      39.057  30.734  31.678  1.00  0.00     0.074 A 
ATOM     66  C   UNL A   1      43.325  29.598  36.215  1.00  0.00     0.029 A 
ATOM     67  N   UNL A   1      42.116  29.570  34.350  1.00  0.00    -0.354 N 
ATOM     68  N   UNL A   1      39.984  30.445  32.559  1.00  0.00    -0.248 NA
ATOM     69  C   UNL A   1      38.091  31.742  32.138  1.00  0.00     0.031 C 
ATOM     70  C   UNL A   1      42.271  30.508  36.359  1.00  0.00     0.029 A 
ATOM     71  C   UNL A   1      41.534  30.510  35.187  1.00  0.00     0.049 A 
ATOM     72  H   UNL A   1      41.798  29.345  33.446  1.00  0.00     0.167 HD
ATOM     73  C   UNL A   1      39.728  31.249  33.663  1.00  0.00     0.074 A 
ATOM     74  C   UNL A   1      38.576  32.058  33.330  1.00  0.00     0.031 C 
ATOM     75  C   UNL A   1      40.385  31.309  34.848  1.00  0.00     0.037 A 
BRANCH  62  76
ATOM     76  C   UNL A   1      45.177  27.431  35.217  1.00  0.00     0.064 A 
ATOM     77  C   UNL A   1      45.016  26.325  36.067  1.00  0.00     0.173 A 
ATOM     78  C   UNL A   1      46.457  28.000  35.117  1.00  0.00     0.173 A 
ATOM     79  F   UNL A   1      43.812  25.752  36.205  1.00  0.00    -0.203 F 
ATOM     80  C   UNL A   1      46.087  25.824  36.802  1.00  0.00     0.198 A 
ATOM     81  C   UNL A   1      47.531  27.477  35.833  1.00  0.00     0.198 A 
ATOM     82  F   UNL A   1      46.668  29.054  34.315  1.00  0.00    -0.203 F 
ATOM     83  F   UNL A   1      45.899  24.792  37.637  1.00  0.00    -0.200 F 
ATOM     84  C   UNL A   1      47.345  26.394  36.678  1.00  0.00     0.200 A 
ATOM     85  F   UNL A   1      48.749  28.020  35.701  1.00  0.00    -0.200 F 
ATOM     86  F   UNL A   1      48.377  25.903  37.378  1.00  0.00    -0.200 F 
ENDBRANCH  62  76
BRANCH  63  87
ATOM     87  C   UNL A   1      37.718  30.655  29.451  1.00  0.00     0.064 A 
ATOM     88  C   UNL A   1      37.690  31.948  28.908  1.00  0.00     0.173 A 
ATOM     89  C   UNL A   1      36.615  29.823  29.210  1.00  0.00     0.173 A 
ATOM     90  F   UNL A   1      38.710  32.790  29.132  1.00  0.00    -0.203 F 
ATOM     91  C   UNL A   1      36.591  32.400  28.182  1.00  0.00     0.198 A 
ATOM     92  C   UNL A   1      35.530  30.265  28.455  1.00  0.00     0.198 A 
ATOM     93  F   UNL A   1      36.593  28.576  29.704  1.00  0.00    -0.203 F 
ATOM     94  F   UNL A   1      36.565  33.659  27.724  1.00  0.00    -0.200 F 
ATOM     95  C   UNL A   1      35.514  31.556  27.952  1.00  0.00     0.200 A 
ATOM     96  F   UNL A   1      34.500  29.441  28.223  1.00  0.00    -0.200 F 
ATOM     97  F   UNL A   1      34.457  31.991  27.251  1.00  0.00    -0.200 F 
ENDBRANCH  63  87
BRANCH  75  98
ATOM     98  C   UNL A   1      39.887  32.303  35.861  1.00  0.00     0.064 A 
ATOM     99  C   UNL A   1      38.813  32.011  36.716  1.00  0.00     0.173 A 
ATOM    100  C   UNL A   1      40.495  33.562  35.984  1.00  0.00     0.173 A 
ATOM    101  F   UNL A   1      38.187  30.827  36.632  1.00  0.00    -0.203 F 
ATOM    102  C   UNL A   1      38.340  32.955  37.625  1.00  0.00     0.198 A 
ATOM    103  C   UNL A   1      40.042  34.491  36.916  1.00  0.00     0.198 A 
ATOM    104  F   UNL A   1      41.533  33.892  35.199  1.00  0.00    -0.203 F 
ATOM    105  F   UNL A   1      37.273  32.675  38.384  1.00  0.00    -0.200 F 
ATOM    106  C   UNL A   1      38.958  34.192  37.727  1.00  0.00     0.200 A 
ATOM    107  F   UNL A   1      40.649  35.681  37.025  1.00  0.00    -0.200 F 
ATOM    108  F   UNL A   1      38.500  35.100  38.600  1.00  0.00    -0.200 F 
ENDBRANCH  75  98
ENDBRANCH  49  50
ENDBRANCH  42  44
ENDBRANCH  41  42
ENDBRANCH  40  41
ENDBRANCH  39  40
ENDBRANCH  38  39
ENDBRANCH  37  38
ENDBRANCH  36  37
ENDBRANCH   1  36
TORSDOF 22
ENDMDL
