MODEL 1
REMARK VINA RESULT:     -10.4      0.000      0.000
REMARK SMILES CC1=C(CCC(=O)OCCOCCOCCOC(=O)c2ccc(-c3c4nc(c(-c5c(F)c(F)c(F)c(F)c5F)c5ccc([nH]5)c(-c5c(F)c(F)c(F)c(F)c5F)c5nc(c(-c6c(F)c(F)c(F)c(F)c6F)c6ccc3[nH]6)C=C5)C=C4)cc2)N=N[C@H]1C
REMARK SMILES IDX 12 1 11 2 10 3 9 4 8 5 6 6 7 7 5 8 4 9 3 10 1 11 2 12 85 13
REMARK SMILES IDX 83 14 84 15 86 16 13 17 14 18 15 19 16 20 17 21 18 22 19 23
REMARK SMILES IDX 20 24 21 25 82 26 22 27 81 28 23 29 24 30 25 31 75 32 26 33
REMARK SMILES IDX 80 34 74 35 76 36 27 37 79 38 73 39 72 40 28 42 60 43 40 44
REMARK SMILES IDX 59 45 41 46 44 47 58 48 77 49 42 50 43 51 57 53 78 54 45 55
REMARK SMILES IDX 29 56 30 57 38 58 31 59 32 60 36 61 39 62 33 63 34 64 37 65
REMARK SMILES IDX 35 66 61 67 62 68 70 69 63 70 64 71 68 72 71 73 65 74 66 75
REMARK SMILES IDX 69 76 67 77 46 78 47 79 55 80 48 81 49 82 53 83 56 84 50 85
REMARK SMILES IDX 51 86 54 87 52 88
REMARK H PARENT 76 41 44 52
REMARK Flexibility Score: inf
ROOT
ATOM      1  C   UNL A   1      37.651  22.774  25.763  1.00  0.00     0.188 C 
ENDROOT
BRANCH   1   2
ATOM      2  O   UNL A   1      37.197  21.605  25.071  1.00  0.00    -0.376 OA
BRANCH   2   3
ATOM      3  C   UNL A   1      35.881  21.156  25.405  1.00  0.00     0.202 C 
BRANCH   3   4
ATOM      4  C   UNL A   1      34.759  22.153  25.092  1.00  0.00     0.261 C 
BRANCH   4   5
ATOM      5  O   UNL A   1      33.541  21.833  25.785  1.00  0.00    -0.463 OA
BRANCH   5   6
ATOM      6  C   UNL A   1      32.591  21.151  25.114  1.00  0.00     0.306 C 
ATOM      7  O   UNL A   1      31.407  21.111  25.436  1.00  0.00    -0.252 OA
BRANCH   6   8
ATOM      8  C   UNL A   1      33.085  20.479  23.845  1.00  0.00     0.129 C 
BRANCH   8   9
ATOM      9  C   UNL A   1      32.370  19.237  23.312  1.00  0.00     0.070 C 
BRANCH   9  10
ATOM     10  C   UNL A   1      33.053  17.939  23.615  1.00  0.00     0.064 C 
ATOM     11  C   UNL A   1      32.498  17.558  26.093  1.00  0.00     0.044 C 
ATOM     12  C   UNL A   1      33.092  17.264  24.768  1.00  0.00    -0.024 C 
ATOM     13  C   UNL A   1      33.869  16.026  24.471  1.00  0.00     0.153 C 
ATOM     14  N   UNL A   1      33.663  17.245  22.599  1.00  0.00    -0.160 NA
ATOM     15  N   UNL A   1      34.088  16.133  23.008  1.00  0.00    -0.181 NA
ATOM     16  C   UNL A   1      35.239  15.999  25.134  1.00  0.00     0.040 C 
ENDBRANCH   9  10
ENDBRANCH   8   9
ENDBRANCH   6   8
ENDBRANCH   5   6
ENDBRANCH   4   5
ENDBRANCH   3   4
ENDBRANCH   2   3
ENDBRANCH   1   2
BRANCH   1  17
ATOM     17  C   UNL A   1      39.101  22.682  26.247  1.00  0.00     0.188 C 
BRANCH  17  18
ATOM     18  O   UNL A   1      39.713  21.472  25.844  1.00  0.00    -0.376 OA
BRANCH  18  19
ATOM     19  C   UNL A   1      40.394  20.591  26.732  1.00  0.00     0.202 C 
BRANCH  19  20
ATOM     20  C   UNL A   1      41.606  19.740  26.345  1.00  0.00     0.261 C 
BRANCH  20  21
ATOM     21  O   UNL A   1      42.860  20.380  26.446  1.00  0.00    -0.460 OA
BRANCH  21  22
ATOM     22  C   UNL A   1      43.631  20.433  25.342  1.00  0.00     0.338 C 
ATOM     23  O   UNL A   1      43.866  19.551  24.546  1.00  0.00    -0.246 OA
BRANCH  22  24
ATOM     24  C   UNL A   1      44.113  21.827  25.280  1.00  0.00     0.060 A 
ATOM     25  C   UNL A   1      45.249  22.143  26.016  1.00  0.00     0.016 A 
ATOM     26  C   UNL A   1      43.350  22.817  24.620  1.00  0.00     0.016 A 
ATOM     27  C   UNL A   1      45.435  23.463  26.351  1.00  0.00     0.010 A 
ATOM     28  C   UNL A   1      43.546  24.133  24.932  1.00  0.00     0.010 A 
ATOM     29  C   UNL A   1      44.487  24.396  25.914  1.00  0.00    -0.014 A 
BRANCH  29  30
ATOM     30  C   UNL A   1      44.302  25.565  26.738  1.00  0.00     0.031 A 
ATOM     31  C   UNL A   1      45.315  26.616  26.596  1.00  0.00     0.074 A 
ATOM     32  C   UNL A   1      43.224  25.638  27.542  1.00  0.00     0.049 A 
ATOM     33  N   UNL A   1      46.118  27.055  27.504  1.00  0.00    -0.248 NA
ATOM     34  C   UNL A   1      45.528  27.176  25.257  1.00  0.00     0.031 C 
ATOM     35  C   UNL A   1      42.026  24.788  27.551  1.00  0.00     0.029 A 
ATOM     36  N   UNL A   1      42.939  26.578  28.475  1.00  0.00    -0.354 N 
ATOM     37  C   UNL A   1      46.854  28.058  26.891  1.00  0.00     0.074 A 
ATOM     38  C   UNL A   1      46.548  28.002  25.485  1.00  0.00     0.031 C 
ATOM     39  C   UNL A   1      41.064  25.390  28.284  1.00  0.00     0.029 A 
ATOM     40  C   UNL A   1      41.616  26.596  28.877  1.00  0.00     0.049 A 
ATOM     41  H   UNL A   1      43.616  27.196  28.835  1.00  0.00     0.167 HD
ATOM     42  C   UNL A   1      47.523  28.989  27.619  1.00  0.00     0.037 A 
ATOM     43  C   UNL A   1      41.015  27.608  29.546  1.00  0.00     0.037 A 
ATOM     44  C   UNL A   1      47.731  28.562  28.976  1.00  0.00     0.049 A 
ATOM     45  C   UNL A   1      42.092  28.408  30.194  1.00  0.00     0.074 A 
ATOM     46  C   UNL A   1      48.414  27.506  29.550  1.00  0.00     0.029 A 
ATOM     47  N   UNL A   1      46.901  29.044  29.958  1.00  0.00    -0.354 N 
ATOM     48  N   UNL A   1      42.834  27.975  31.177  1.00  0.00    -0.248 NA
ATOM     49  C   UNL A   1      42.651  29.528  29.445  1.00  0.00     0.031 C 
ATOM     50  C   UNL A   1      47.631  27.118  30.675  1.00  0.00     0.029 A 
ATOM     51  C   UNL A   1      46.532  27.975  30.739  1.00  0.00     0.049 A 
ATOM     52  H   UNL A   1      46.623  29.981  30.081  1.00  0.00     0.167 HD
ATOM     53  C   UNL A   1      44.104  28.480  30.920  1.00  0.00     0.074 A 
ATOM     54  C   UNL A   1      43.907  29.502  29.897  1.00  0.00     0.031 C 
ATOM     55  C   UNL A   1      45.227  27.828  31.343  1.00  0.00     0.037 A 
BRANCH  42  56
ATOM     56  C   UNL A   1      47.737  30.397  27.153  1.00  0.00     0.064 A 
ATOM     57  C   UNL A   1      49.036  30.930  27.110  1.00  0.00     0.173 A 
ATOM     58  C   UNL A   1      46.683  31.325  26.985  1.00  0.00     0.173 A 
ATOM     59  F   UNL A   1      50.103  30.139  27.300  1.00  0.00    -0.203 F 
ATOM     60  C   UNL A   1      49.262  32.298  26.948  1.00  0.00     0.198 A 
ATOM     61  C   UNL A   1      46.914  32.678  26.761  1.00  0.00     0.198 A 
ATOM     62  F   UNL A   1      45.399  30.974  27.137  1.00  0.00    -0.203 F 
ATOM     63  F   UNL A   1      50.510  32.777  27.019  1.00  0.00    -0.200 F 
ATOM     64  C   UNL A   1      48.202  33.170  26.769  1.00  0.00     0.200 A 
ATOM     65  F   UNL A   1      45.872  33.508  26.612  1.00  0.00    -0.200 F 
ATOM     66  F   UNL A   1      48.416  34.487  26.655  1.00  0.00    -0.200 F 
ENDBRANCH  42  56
BRANCH  43  67
ATOM     67  C   UNL A   1      39.630  28.101  29.345  1.00  0.00     0.064 A 
ATOM     68  C   UNL A   1      38.725  28.160  30.416  1.00  0.00     0.173 A 
ATOM     69  C   UNL A   1      39.229  28.752  28.158  1.00  0.00     0.173 A 
ATOM     70  F   UNL A   1      39.045  27.615  31.598  1.00  0.00    -0.203 F 
ATOM     71  C   UNL A   1      37.504  28.837  30.309  1.00  0.00     0.198 A 
ATOM     72  C   UNL A   1      38.005  29.409  28.046  1.00  0.00     0.198 A 
ATOM     73  F   UNL A   1      40.052  28.848  27.105  1.00  0.00    -0.203 F 
ATOM     74  F   UNL A   1      36.694  28.923  31.373  1.00  0.00    -0.200 F 
ATOM     75  C   UNL A   1      37.147  29.462  29.125  1.00  0.00     0.200 A 
ATOM     76  F   UNL A   1      37.691  30.038  26.904  1.00  0.00    -0.200 F 
ATOM     77  F   UNL A   1      36.000  30.150  29.038  1.00  0.00    -0.200 F 
ENDBRANCH  43  67
BRANCH  55  78
ATOM     78  C   UNL A   1      45.053  26.680  32.300  1.00  0.00     0.064 A 
ATOM     79  C   UNL A   1      44.791  25.362  31.885  1.00  0.00     0.173 A 
ATOM     80  C   UNL A   1      45.317  26.883  33.661  1.00  0.00     0.173 A 
ATOM     81  F   UNL A   1      44.646  25.066  30.588  1.00  0.00    -0.203 F 
ATOM     82  C   UNL A   1      44.742  24.309  32.797  1.00  0.00     0.198 A 
ATOM     83  C   UNL A   1      45.305  25.823  34.565  1.00  0.00     0.198 A 
ATOM     84  F   UNL A   1      45.642  28.106  34.108  1.00  0.00    -0.203 F 
ATOM     85  F   UNL A   1      44.478  23.065  32.372  1.00  0.00    -0.200 F 
ATOM     86  C   UNL A   1      45.006  24.540  34.135  1.00  0.00     0.200 A 
ATOM     87  F   UNL A   1      45.617  26.039  35.851  1.00  0.00    -0.200 F 
ATOM     88  F   UNL A   1      45.003  23.521  35.006  1.00  0.00    -0.200 F 
ENDBRANCH  55  78
ENDBRANCH  29  30
ENDBRANCH  22  24
ENDBRANCH  21  22
ENDBRANCH  20  21
ENDBRANCH  19  20
ENDBRANCH  18  19
ENDBRANCH  17  18
ENDBRANCH   1  17
TORSDOF 19
ENDMDL
MODEL 2
REMARK VINA RESULT:     -10.3      2.915      4.399
REMARK SMILES CC1=C(CCC(=O)OCCOCCOCCOC(=O)c2ccc(-c3c4nc(c(-c5c(F)c(F)c(F)c(F)c5F)c5ccc([nH]5)c(-c5c(F)c(F)c(F)c(F)c5F)c5nc(c(-c6c(F)c(F)c(F)c(F)c6F)c6ccc3[nH]6)C=C5)C=C4)cc2)N=N[C@H]1C
REMARK SMILES IDX 12 1 11 2 10 3 9 4 8 5 6 6 7 7 5 8 4 9 3 10 1 11 2 12 85 13
REMARK SMILES IDX 83 14 84 15 86 16 13 17 14 18 15 19 16 20 17 21 18 22 19 23
REMARK SMILES IDX 20 24 21 25 82 26 22 27 81 28 23 29 24 30 25 31 75 32 26 33
REMARK SMILES IDX 80 34 74 35 76 36 27 37 79 38 73 39 72 40 28 42 60 43 40 44
REMARK SMILES IDX 59 45 41 46 44 47 58 48 77 49 42 50 43 51 57 53 78 54 45 55
REMARK SMILES IDX 29 56 30 57 38 58 31 59 32 60 36 61 39 62 33 63 34 64 37 65
REMARK SMILES IDX 35 66 61 67 62 68 70 69 63 70 64 71 68 72 71 73 65 74 66 75
REMARK SMILES IDX 69 76 67 77 46 78 47 79 55 80 48 81 49 82 53 83 56 84 50 85
REMARK SMILES IDX 51 86 54 87 52 88
REMARK H PARENT 76 41 44 52
REMARK Flexibility Score: inf
ROOT
ATOM      1  C   UNL A   1      39.824  20.382  26.132  1.00  0.00     0.188 C 
ENDROOT
BRANCH   1   2
ATOM      2  O   UNL A   1      39.416  21.590  26.783  1.00  0.00    -0.376 OA
BRANCH   2   3
ATOM      3  C   UNL A   1      39.219  22.721  25.930  1.00  0.00     0.202 C 
BRANCH   3   4
ATOM      4  C   UNL A   1      38.193  23.741  26.436  1.00  0.00     0.261 C 
BRANCH   4   5
ATOM      5  O   UNL A   1      37.019  23.786  25.608  1.00  0.00    -0.463 OA
BRANCH   5   6
ATOM      6  C   UNL A   1      36.069  22.850  25.805  1.00  0.00     0.306 C 
ATOM      7  O   UNL A   1      35.221  22.895  26.691  1.00  0.00    -0.252 OA
BRANCH   6   8
ATOM      8  C   UNL A   1      36.069  21.737  24.772  1.00  0.00     0.129 C 
BRANCH   8   9
ATOM      9  C   UNL A   1      35.774  20.299  25.201  1.00  0.00     0.070 C 
BRANCH   9  10
ATOM     10  C   UNL A   1      34.431  19.782  24.787  1.00  0.00     0.064 C 
ATOM     11  C   UNL A   1      34.885  17.298  24.322  1.00  0.00     0.044 C 
ATOM     12  C   UNL A   1      34.087  18.541  24.430  1.00  0.00    -0.024 C 
ATOM     13  C   UNL A   1      32.618  18.599  24.172  1.00  0.00     0.153 C 
ATOM     14  N   UNL A   1      33.339  20.613  24.847  1.00  0.00    -0.160 NA
ATOM     15  N   UNL A   1      32.282  19.988  24.570  1.00  0.00    -0.181 NA
ATOM     16  C   UNL A   1      32.257  18.449  22.701  1.00  0.00     0.040 C 
ENDBRANCH   9  10
ENDBRANCH   8   9
ENDBRANCH   6   8
ENDBRANCH   5   6
ENDBRANCH   4   5
ENDBRANCH   3   4
ENDBRANCH   2   3
ENDBRANCH   1   2
BRANCH   1  17
ATOM     17  C   UNL A   1      41.164  19.832  26.631  1.00  0.00     0.188 C 
BRANCH  17  18
ATOM     18  O   UNL A   1      42.136  19.807  25.604  1.00  0.00    -0.376 OA
BRANCH  18  19
ATOM     19  C   UNL A   1      43.411  20.435  25.701  1.00  0.00     0.202 C 
BRANCH  19  20
ATOM     20  C   UNL A   1      43.697  21.880  25.288  1.00  0.00     0.261 C 
BRANCH  20  21
ATOM     21  O   UNL A   1      42.800  22.849  25.787  1.00  0.00    -0.460 OA
BRANCH  21  22
ATOM     22  C   UNL A   1      43.066  24.145  25.532  1.00  0.00     0.338 C 
ATOM     23  O   UNL A   1      43.862  24.609  24.745  1.00  0.00    -0.246 OA
BRANCH  22  24
ATOM     24  C   UNL A   1      42.144  24.902  26.403  1.00  0.00     0.060 A 
ATOM     25  C   UNL A   1      41.222  25.737  25.784  1.00  0.00     0.016 A 
ATOM     26  C   UNL A   1      42.311  24.881  27.806  1.00  0.00     0.016 A 
ATOM     27  C   UNL A   1      40.703  26.765  26.533  1.00  0.00     0.010 A 
ATOM     28  C   UNL A   1      41.777  25.888  28.560  1.00  0.00     0.010 A 
ATOM     29  C   UNL A   1      41.118  26.889  27.865  1.00  0.00    -0.014 A 
BRANCH  29  30
ATOM     30  C   UNL A   1      41.120  28.219  28.422  1.00  0.00     0.031 A 
ATOM     31  C   UNL A   1      42.219  29.090  27.997  1.00  0.00     0.074 A 
ATOM     32  C   UNL A   1      40.124  28.585  29.251  1.00  0.00     0.049 A 
ATOM     33  N   UNL A   1      43.134  29.615  28.739  1.00  0.00    -0.248 NA
ATOM     34  C   UNL A   1      42.380  29.326  26.558  1.00  0.00     0.031 C 
ATOM     35  C   UNL A   1      38.850  27.902  29.514  1.00  0.00     0.029 A 
ATOM     36  N   UNL A   1      40.011  29.728  29.970  1.00  0.00    -0.354 N 
ATOM     37  C   UNL A   1      43.916  30.373  27.882  1.00  0.00     0.074 A 
ATOM     38  C   UNL A   1      43.494  30.058  26.541  1.00  0.00     0.031 C 
ATOM     39  C   UNL A   1      38.016  28.753  30.150  1.00  0.00     0.029 A 
ATOM     40  C   UNL A   1      38.733  29.984  30.433  1.00  0.00     0.049 A 
ATOM     41  H   UNL A   1      40.774  30.325  30.148  1.00  0.00     0.167 HD
ATOM     42  C   UNL A   1      44.732  31.352  28.349  1.00  0.00     0.037 A 
ATOM     43  C   UNL A   1      38.294  31.177  30.897  1.00  0.00     0.037 A 
ATOM     44  C   UNL A   1      45.005  31.200  29.753  1.00  0.00     0.049 A 
ATOM     45  C   UNL A   1      39.496  31.965  31.292  1.00  0.00     0.074 A 
ATOM     46  C   UNL A   1      45.621  30.216  30.504  1.00  0.00     0.029 A 
ATOM     47  N   UNL A   1      44.310  31.972  30.651  1.00  0.00    -0.354 N 
ATOM     48  N   UNL A   1      40.267  31.666  32.303  1.00  0.00    -0.248 NA
ATOM     49  C   UNL A   1      40.103  32.828  30.286  1.00  0.00     0.031 C 
ATOM     50  C   UNL A   1      44.896  30.169  31.730  1.00  0.00     0.029 A 
ATOM     51  C   UNL A   1      43.898  31.143  31.666  1.00  0.00     0.049 A 
ATOM     52  H   UNL A   1      44.139  32.940  30.582  1.00  0.00     0.167 HD
ATOM     53  C   UNL A   1      41.556  31.953  31.870  1.00  0.00     0.074 A 
ATOM     54  C   UNL A   1      41.383  32.752  30.661  1.00  0.00     0.031 C 
ATOM     55  C   UNL A   1      42.638  31.279  32.361  1.00  0.00     0.037 A 
BRANCH  42  56
ATOM     56  C   UNL A   1      45.050  32.596  27.575  1.00  0.00     0.064 A 
ATOM     57  C   UNL A   1      46.299  32.727  26.946  1.00  0.00     0.173 A 
ATOM     58  C   UNL A   1      44.264  33.769  27.639  1.00  0.00     0.173 A 
ATOM     59  F   UNL A   1      47.137  31.683  26.870  1.00  0.00    -0.203 F 
ATOM     60  C   UNL A   1      46.743  33.955  26.450  1.00  0.00     0.198 A 
ATOM     61  C   UNL A   1      44.684  34.975  27.088  1.00  0.00     0.198 A 
ATOM     62  F   UNL A   1      43.115  33.815  28.326  1.00  0.00    -0.203 F 
ATOM     63  F   UNL A   1      47.983  34.060  25.954  1.00  0.00    -0.200 F 
ATOM     64  C   UNL A   1      45.935  35.076  26.518  1.00  0.00     0.200 A 
ATOM     65  F   UNL A   1      43.894  36.054  27.184  1.00  0.00    -0.200 F 
ATOM     66  F   UNL A   1      46.377  36.262  26.081  1.00  0.00    -0.200 F 
ENDBRANCH  42  56
BRANCH  43  67
ATOM     67  C   UNL A   1      36.955  31.775  30.673  1.00  0.00     0.064 A 
ATOM     68  C   UNL A   1      36.069  31.978  31.742  1.00  0.00     0.173 A 
ATOM     69  C   UNL A   1      36.600  32.384  29.449  1.00  0.00     0.173 A 
ATOM     70  F   UNL A   1      36.352  31.481  32.954  1.00  0.00    -0.203 F 
ATOM     71  C   UNL A   1      34.910  32.749  31.598  1.00  0.00     0.198 A 
ATOM     72  C   UNL A   1      35.436  33.136  29.302  1.00  0.00     0.198 A 
ATOM     73  F   UNL A   1      37.418  32.344  28.388  1.00  0.00    -0.203 F 
ATOM     74  F   UNL A   1      34.120  32.971  32.658  1.00  0.00    -0.200 F 
ATOM     75  C   UNL A   1      34.596  33.330  30.380  1.00  0.00     0.200 A 
ATOM     76  F   UNL A   1      35.166  33.719  28.125  1.00  0.00    -0.200 F 
ATOM     77  F   UNL A   1      33.512  34.108  30.255  1.00  0.00    -0.200 F 
ENDBRANCH  43  67
BRANCH  55  78
ATOM     78  C   UNL A   1      42.426  30.388  33.554  1.00  0.00     0.064 A 
ATOM     79  C   UNL A   1      42.494  30.846  34.882  1.00  0.00     0.173 A 
ATOM     80  C   UNL A   1      41.984  29.074  33.351  1.00  0.00     0.173 A 
ATOM     81  F   UNL A   1      42.793  32.121  35.154  1.00  0.00    -0.203 F 
ATOM     82  C   UNL A   1      42.188  30.011  35.955  1.00  0.00     0.198 A 
ATOM     83  C   UNL A   1      41.641  28.253  34.423  1.00  0.00     0.198 A 
ATOM     84  F   UNL A   1      41.832  28.600  32.104  1.00  0.00    -0.203 F 
ATOM     85  F   UNL A   1      42.273  30.473  37.211  1.00  0.00    -0.200 F 
ATOM     86  C   UNL A   1      41.755  28.717  35.724  1.00  0.00     0.200 A 
ATOM     87  F   UNL A   1      41.169  27.019  34.195  1.00  0.00    -0.200 F 
ATOM     88  F   UNL A   1      41.416  27.928  36.754  1.00  0.00    -0.200 F 
ENDBRANCH  55  78
ENDBRANCH  29  30
ENDBRANCH  22  24
ENDBRANCH  21  22
ENDBRANCH  20  21
ENDBRANCH  19  20
ENDBRANCH  18  19
ENDBRANCH  17  18
ENDBRANCH   1  17
TORSDOF 19
ENDMDL
MODEL 3
REMARK VINA RESULT:     -10.3      4.182      8.940
REMARK SMILES CC1=C(CCC(=O)OCCOCCOCCOC(=O)c2ccc(-c3c4nc(c(-c5c(F)c(F)c(F)c(F)c5F)c5ccc([nH]5)c(-c5c(F)c(F)c(F)c(F)c5F)c5nc(c(-c6c(F)c(F)c(F)c(F)c6F)c6ccc3[nH]6)C=C5)C=C4)cc2)N=N[C@H]1C
REMARK SMILES IDX 12 1 11 2 10 3 9 4 8 5 6 6 7 7 5 8 4 9 3 10 1 11 2 12 85 13
REMARK SMILES IDX 83 14 84 15 86 16 13 17 14 18 15 19 16 20 17 21 18 22 19 23
REMARK SMILES IDX 20 24 21 25 82 26 22 27 81 28 23 29 24 30 25 31 75 32 26 33
REMARK SMILES IDX 80 34 74 35 76 36 27 37 79 38 73 39 72 40 28 42 60 43 40 44
REMARK SMILES IDX 59 45 41 46 44 47 58 48 77 49 42 50 43 51 57 53 78 54 45 55
REMARK SMILES IDX 29 56 30 57 38 58 31 59 32 60 36 61 39 62 33 63 34 64 37 65
REMARK SMILES IDX 35 66 61 67 62 68 70 69 63 70 64 71 68 72 71 73 65 74 66 75
REMARK SMILES IDX 69 76 67 77 46 78 47 79 55 80 48 81 49 82 53 83 56 84 50 85
REMARK SMILES IDX 51 86 54 87 52 88
REMARK H PARENT 76 41 44 52
REMARK Flexibility Score: inf
ROOT
ATOM      1  C   UNL A   1      40.396  22.040  26.965  1.00  0.00     0.188 C 
ENDROOT
BRANCH   1   2
ATOM      2  O   UNL A   1      39.202  22.161  26.184  1.00  0.00    -0.376 OA
BRANCH   2   3
ATOM      3  C   UNL A   1      38.603  23.460  26.161  1.00  0.00     0.202 C 
BRANCH   3   4
ATOM      4  C   UNL A   1      37.125  23.482  25.754  1.00  0.00     0.261 C 
BRANCH   4   5
ATOM      5  O   UNL A   1      36.801  22.431  24.829  1.00  0.00    -0.463 OA
BRANCH   5   6
ATOM      6  C   UNL A   1      36.142  22.760  23.700  1.00  0.00     0.306 C 
ATOM      7  O   UNL A   1      36.679  22.952  22.614  1.00  0.00    -0.252 OA
BRANCH   6   8
ATOM      8  C   UNL A   1      34.632  22.800  23.850  1.00  0.00     0.129 C 
BRANCH   8   9
ATOM      9  C   UNL A   1      33.962  24.007  24.506  1.00  0.00     0.070 C 
BRANCH   9  10
ATOM     10  C   UNL A   1      33.577  25.104  23.563  1.00  0.00     0.064 C 
ATOM     11  C   UNL A   1      33.120  27.084  25.133  1.00  0.00     0.044 C 
ATOM     12  C   UNL A   1      33.235  26.366  23.843  1.00  0.00    -0.024 C 
ATOM     13  C   UNL A   1      33.004  27.013  22.519  1.00  0.00     0.153 C 
ATOM     14  N   UNL A   1      33.652  24.888  22.209  1.00  0.00    -0.160 NA
ATOM     15  N   UNL A   1      33.399  25.942  21.570  1.00  0.00    -0.181 NA
ATOM     16  C   UNL A   1      31.541  27.337  22.252  1.00  0.00     0.040 C 
ENDBRANCH   9  10
ENDBRANCH   8   9
ENDBRANCH   6   8
ENDBRANCH   5   6
ENDBRANCH   4   5
ENDBRANCH   3   4
ENDBRANCH   2   3
ENDBRANCH   1   2
BRANCH   1  17
ATOM     17  C   UNL A   1      41.499  21.223  26.286  1.00  0.00     0.188 C 
BRANCH  17  18
ATOM     18  O   UNL A   1      42.238  22.003  25.366  1.00  0.00    -0.376 OA
BRANCH  18  19
ATOM     19  C   UNL A   1      43.357  22.808  25.725  1.00  0.00     0.202 C 
BRANCH  19  20
ATOM     20  C   UNL A   1      43.263  24.115  26.516  1.00  0.00     0.261 C 
BRANCH  20  21
ATOM     21  O   UNL A   1      42.070  24.851  26.343  1.00  0.00    -0.460 OA
BRANCH  21  22
ATOM     22  C   UNL A   1      42.134  25.997  25.637  1.00  0.00     0.338 C 
ATOM     23  O   UNL A   1      42.827  26.251  24.677  1.00  0.00    -0.246 OA
BRANCH  22  24
ATOM     24  C   UNL A   1      41.139  26.888  26.266  1.00  0.00     0.060 A 
ATOM     25  C   UNL A   1      41.272  28.253  26.042  1.00  0.00     0.016 A 
ATOM     26  C   UNL A   1      40.192  26.368  27.178  1.00  0.00     0.016 A 
ATOM     27  C   UNL A   1      40.688  29.099  26.954  1.00  0.00     0.010 A 
ATOM     28  C   UNL A   1      39.590  27.208  28.071  1.00  0.00     0.010 A 
ATOM     29  C   UNL A   1      39.986  28.535  28.025  1.00  0.00    -0.014 A 
BRANCH  29  30
ATOM     30  C   UNL A   1      39.946  29.299  29.248  1.00  0.00     0.031 A 
ATOM     31  C   UNL A   1      38.820  30.228  29.386  1.00  0.00     0.074 A 
ATOM     32  C   UNL A   1      40.897  29.100  30.179  1.00  0.00     0.049 A 
ATOM     33  N   UNL A   1      38.873  31.512  29.496  1.00  0.00    -0.248 NA
ATOM     34  C   UNL A   1      37.465  29.671  29.290  1.00  0.00     0.031 C 
ATOM     35  C   UNL A   1      41.886  28.016  30.264  1.00  0.00     0.029 A 
ATOM     36  N   UNL A   1      41.108  29.796  31.322  1.00  0.00    -0.354 N 
ATOM     37  C   UNL A   1      37.557  31.927  29.628  1.00  0.00     0.074 A 
ATOM     38  C   UNL A   1      36.728  30.779  29.364  1.00  0.00     0.031 C 
ATOM     39  C   UNL A   1      42.428  28.009  31.501  1.00  0.00     0.029 A 
ATOM     40  C   UNL A   1      41.910  29.146  32.243  1.00  0.00     0.049 A 
ATOM     41  H   UNL A   1      40.725  30.688  31.483  1.00  0.00     0.167 HD
ATOM     42  C   UNL A   1      37.248  33.149  30.134  1.00  0.00     0.037 A 
ATOM     43  C   UNL A   1      42.021  29.472  33.552  1.00  0.00     0.037 A 
ATOM     44  C   UNL A   1      38.367  34.050  30.082  1.00  0.00     0.049 A 
ATOM     45  C   UNL A   1      41.569  30.886  33.693  1.00  0.00     0.074 A 
ATOM     46  C   UNL A   1      39.120  34.578  29.049  1.00  0.00     0.029 A 
ATOM     47  N   UNL A   1      39.102  34.261  31.222  1.00  0.00    -0.354 N 
ATOM     48  N   UNL A   1      42.217  31.911  33.208  1.00  0.00    -0.248 NA
ATOM     49  C   UNL A   1      40.160  31.123  33.979  1.00  0.00     0.031 C 
ATOM     50  C   UNL A   1      40.450  34.652  29.552  1.00  0.00     0.029 A 
ATOM     51  C   UNL A   1      40.428  34.190  30.870  1.00  0.00     0.049 A 
ATOM     52  H   UNL A   1      38.746  34.433  32.124  1.00  0.00     0.167 HD
ATOM     53  C   UNL A   1      41.230  32.777  32.752  1.00  0.00     0.074 A 
ATOM     54  C   UNL A   1      39.988  32.283  33.338  1.00  0.00     0.031 C 
ATOM     55  C   UNL A   1      41.461  33.636  31.715  1.00  0.00     0.037 A 
BRANCH  42  56
ATOM     56  C   UNL A   1      36.004  33.419  30.924  1.00  0.00     0.064 A 
ATOM     57  C   UNL A   1      34.976  34.196  30.364  1.00  0.00     0.173 A 
ATOM     58  C   UNL A   1      35.892  33.152  32.308  1.00  0.00     0.173 A 
ATOM     59  F   UNL A   1      35.010  34.539  29.068  1.00  0.00    -0.203 F 
ATOM     60  C   UNL A   1      33.931  34.699  31.142  1.00  0.00     0.198 A 
ATOM     61  C   UNL A   1      34.817  33.602  33.067  1.00  0.00     0.198 A 
ATOM     62  F   UNL A   1      36.868  32.539  32.992  1.00  0.00    -0.203 F 
ATOM     63  F   UNL A   1      33.030  35.522  30.591  1.00  0.00    -0.200 F 
ATOM     64  C   UNL A   1      33.851  34.399  32.491  1.00  0.00     0.200 A 
ATOM     65  F   UNL A   1      34.770  33.318  34.376  1.00  0.00    -0.200 F 
ATOM     66  F   UNL A   1      32.872  34.915  33.246  1.00  0.00    -0.200 F 
ENDBRANCH  42  56
BRANCH  43  67
ATOM     67  C   UNL A   1      42.143  28.530  34.691  1.00  0.00     0.064 A 
ATOM     68  C   UNL A   1      41.376  27.356  34.740  1.00  0.00     0.173 A 
ATOM     69  C   UNL A   1      43.184  28.630  35.640  1.00  0.00     0.173 A 
ATOM     70  F   UNL A   1      40.401  27.152  33.844  1.00  0.00    -0.203 F 
ATOM     71  C   UNL A   1      41.642  26.344  35.670  1.00  0.00     0.198 A 
ATOM     72  C   UNL A   1      43.436  27.630  36.578  1.00  0.00     0.198 A 
ATOM     73  F   UNL A   1      44.044  29.658  35.624  1.00  0.00    -0.203 F 
ATOM     74  F   UNL A   1      40.927  25.211  35.645  1.00  0.00    -0.200 F 
ATOM     75  C   UNL A   1      42.673  26.481  36.586  1.00  0.00     0.200 A 
ATOM     76  F   UNL A   1      44.459  27.765  37.434  1.00  0.00    -0.200 F 
ATOM     77  F   UNL A   1      42.957  25.492  37.444  1.00  0.00    -0.200 F 
ENDBRANCH  43  67
BRANCH  55  78
ATOM     78  C   UNL A   1      42.879  33.792  31.237  1.00  0.00     0.064 A 
ATOM     79  C   UNL A   1      43.795  34.687  31.818  1.00  0.00     0.173 A 
ATOM     80  C   UNL A   1      43.374  32.902  30.274  1.00  0.00     0.173 A 
ATOM     81  F   UNL A   1      43.429  35.486  32.826  1.00  0.00    -0.203 F 
ATOM     82  C   UNL A   1      45.129  34.725  31.415  1.00  0.00     0.198 A 
ATOM     83  C   UNL A   1      44.716  32.916  29.900  1.00  0.00     0.198 A 
ATOM     84  F   UNL A   1      42.565  31.978  29.732  1.00  0.00    -0.203 F 
ATOM     85  F   UNL A   1      45.976  35.597  31.980  1.00  0.00    -0.200 F 
ATOM     86  C   UNL A   1      45.589  33.835  30.461  1.00  0.00     0.200 A 
ATOM     87  F   UNL A   1      45.173  32.016  29.017  1.00  0.00    -0.200 F 
ATOM     88  F   UNL A   1      46.882  33.840  30.105  1.00  0.00    -0.200 F 
ENDBRANCH  55  78
ENDBRANCH  29  30
ENDBRANCH  22  24
ENDBRANCH  21  22
ENDBRANCH  20  21
ENDBRANCH  19  20
ENDBRANCH  18  19
ENDBRANCH  17  18
ENDBRANCH   1  17
TORSDOF 19
ENDMDL
