MODEL 1
REMARK VINA RESULT:     -10.9      0.000      0.000
REMARK SMILES C[NH2+][C@]1(C(=O)OCCOCCOCCOC(=O)c2ccc(-c3c4nc(c(-c5c(F)c(F)c(F)c(F)c5F)c5ccc([nH]5)c(-c5c(F)c(F)c(F)c(F)c5F)c5nc(c(-c6c(F)c(F)c(F)c(F)c6F)c6ccc3[nH]6)C=C5)C=C4)cc2)CC[C@@H](Sc2cc(F)ccc2F)C1
REMARK SMILES IDX 10 1 9 2 8 3 7 4 6 5 4 6 5 7 3 8 81 9 93 10 82 11 83 12 2 13
REMARK SMILES IDX 1 14 84 17 85 18 86 19 91 20 87 21 90 22 92 23 88 24 89 25
REMARK SMILES IDX 11 26 12 27 13 28 14 29 15 30 16 31 17 32 18 33 19 34 80 35
REMARK SMILES IDX 20 36 79 37 21 38 22 39 23 40 73 41 24 42 78 43 72 44 74 45
REMARK SMILES IDX 25 46 77 47 71 48 70 49 26 51 58 52 38 53 57 54 39 55 42 56
REMARK SMILES IDX 56 57 75 58 40 59 41 60 55 62 76 63 43 64 27 65 28 66 36 67
REMARK SMILES IDX 29 68 30 69 34 70 37 71 31 72 32 73 35 74 33 75 59 76 60 77
REMARK SMILES IDX 68 78 61 79 62 80 66 81 69 82 63 83 64 84 67 85 65 86 44 87
REMARK SMILES IDX 45 88 53 89 46 90 47 91 51 92 54 93 48 94 49 95 52 96 50 97
REMARK H PARENT 2 15 2 16 74 50 42 61
REMARK Flexibility Score: inf
ROOT
ATOM      1  C   UNL A   1      34.345  31.240  27.839  1.00  0.00     0.188 C 
ENDROOT
BRANCH   1   2
ATOM      2  O   UNL A   1      33.854  30.417  26.787  1.00  0.00    -0.376 OA
BRANCH   2   3
ATOM      3  C   UNL A   1      32.656  29.676  26.994  1.00  0.00     0.202 C 
BRANCH   3   4
ATOM      4  C   UNL A   1      31.726  29.379  25.804  1.00  0.00     0.261 C 
BRANCH   4   5
ATOM      5  O   UNL A   1      31.686  28.000  25.379  1.00  0.00    -0.459 OA
BRANCH   5   6
ATOM      6  C   UNL A   1      31.296  27.770  24.093  1.00  0.00     0.368 C 
ATOM      7  O   UNL A   1      30.274  28.239  23.597  1.00  0.00    -0.245 OA
BRANCH   6   8
ATOM      8  C   UNL A   1      32.301  26.892  23.277  1.00  0.00     0.195 C 
ATOM      9  C   UNL A   1      33.467  26.265  24.079  1.00  0.00     0.082 C 
ATOM     10  C   UNL A   1      31.523  25.630  22.823  1.00  0.00     0.096 C 
ATOM     11  C   UNL A   1      33.842  25.009  23.300  1.00  0.00     0.022 C 
ATOM     12  C   UNL A   1      32.512  24.464  22.799  1.00  0.00     0.059 C 
BRANCH   8  13
ATOM     13  N   UNL A   1      32.911  27.719  22.190  1.00  0.00    -0.335 N 
ATOM     14  C   UNL A   1      33.725  28.842  22.633  1.00  0.00     0.331 C 
ATOM     15  H   UNL A   1      33.500  27.108  21.625  1.00  0.00     0.347 HD
ATOM     16  H   UNL A   1      32.128  28.128  21.679  1.00  0.00     0.347 HD
ENDBRANCH   8  13
BRANCH  12  17
ATOM     17  S   UNL A   1      31.890  22.974  23.688  1.00  0.00    -0.119 SA
BRANCH  17  18
ATOM     18  C   UNL A   1      33.238  22.523  24.772  1.00  0.00     0.046 A 
ATOM     19  C   UNL A   1      34.303  21.790  24.237  1.00  0.00     0.057 A 
ATOM     20  C   UNL A   1      33.243  22.792  26.149  1.00  0.00     0.136 A 
ATOM     21  C   UNL A   1      35.343  21.367  25.061  1.00  0.00     0.124 A 
ATOM     22  C   UNL A   1      34.295  22.380  26.967  1.00  0.00     0.043 A 
ATOM     23  F   UNL A   1      32.233  23.456  26.725  1.00  0.00    -0.206 F 
ATOM     24  F   UNL A   1      36.351  20.657  24.536  1.00  0.00    -0.207 F 
ATOM     25  C   UNL A   1      35.353  21.659  26.420  1.00  0.00     0.042 A 
ENDBRANCH  17  18
ENDBRANCH  12  17
ENDBRANCH   6   8
ENDBRANCH   5   6
ENDBRANCH   4   5
ENDBRANCH   3   4
ENDBRANCH   2   3
ENDBRANCH   1   2
BRANCH   1  26
ATOM     26  C   UNL A   1      33.776  32.659  27.995  1.00  0.00     0.188 C 
BRANCH  26  27
ATOM     27  O   UNL A   1      34.629  33.583  28.623  1.00  0.00    -0.376 OA
BRANCH  27  28
ATOM     28  C   UNL A   1      34.129  34.381  29.679  1.00  0.00     0.202 C 
BRANCH  28  29
ATOM     29  C   UNL A   1      34.265  33.996  31.166  1.00  0.00     0.261 C 
BRANCH  29  30
ATOM     30  O   UNL A   1      34.506  32.619  31.489  1.00  0.00    -0.460 OA
BRANCH  30  31
ATOM     31  C   UNL A   1      35.417  32.359  32.456  1.00  0.00     0.338 C 
ATOM     32  O   UNL A   1      35.294  32.537  33.651  1.00  0.00    -0.246 OA
BRANCH  31  33
ATOM     33  C   UNL A   1      36.531  31.606  31.833  1.00  0.00     0.060 A 
ATOM     34  C   UNL A   1      37.552  31.100  32.651  1.00  0.00     0.016 A 
ATOM     35  C   UNL A   1      36.564  31.395  30.453  1.00  0.00     0.016 A 
ATOM     36  C   UNL A   1      38.623  30.403  32.088  1.00  0.00     0.010 A 
ATOM     37  C   UNL A   1      37.650  30.718  29.888  1.00  0.00     0.010 A 
ATOM     38  C   UNL A   1      38.698  30.244  30.698  1.00  0.00    -0.014 A 
BRANCH  38  39
ATOM     39  C   UNL A   1      39.952  29.756  30.072  1.00  0.00     0.031 A 
ATOM     40  C   UNL A   1      41.096  30.721  29.919  1.00  0.00     0.074 A 
ATOM     41  C   UNL A   1      40.083  28.487  29.649  1.00  0.00     0.049 A 
ATOM     42  N   UNL A   1      42.251  30.562  29.324  1.00  0.00    -0.248 NA
ATOM     43  C   UNL A   1      40.906  32.052  30.518  1.00  0.00     0.031 C 
ATOM     44  C   UNL A   1      39.072  27.441  29.784  1.00  0.00     0.029 A 
ATOM     45  N   UNL A   1      41.124  27.869  29.000  1.00  0.00    -0.354 N 
ATOM     46  C   UNL A   1      42.917  31.772  29.466  1.00  0.00     0.074 A 
ATOM     47  C   UNL A   1      42.029  32.664  30.178  1.00  0.00     0.031 C 
ATOM     48  C   UNL A   1      39.535  26.314  29.214  1.00  0.00     0.029 A 
ATOM     49  C   UNL A   1      40.856  26.571  28.642  1.00  0.00     0.049 A 
ATOM     50  H   UNL A   1      41.982  28.315  28.809  1.00  0.00     0.167 HD
ATOM     51  C   UNL A   1      44.159  32.106  29.045  1.00  0.00     0.037 A 
ATOM     52  C   UNL A   1      41.583  25.704  27.909  1.00  0.00     0.037 A 
ATOM     53  C   UNL A   1      45.040  31.218  28.334  1.00  0.00     0.049 A 
ATOM     54  C   UNL A   1      42.930  26.128  27.375  1.00  0.00     0.074 A 
ATOM     55  C   UNL A   1      46.325  31.459  27.877  1.00  0.00     0.029 A 
ATOM     56  N   UNL A   1      44.722  29.920  27.964  1.00  0.00    -0.354 N 
ATOM     57  N   UNL A   1      43.565  27.265  27.529  1.00  0.00    -0.248 NA
ATOM     58  C   UNL A   1      43.663  25.143  26.565  1.00  0.00     0.031 C 
ATOM     59  C   UNL A   1      46.760  30.329  27.178  1.00  0.00     0.029 A 
ATOM     60  C   UNL A   1      45.774  29.357  27.259  1.00  0.00     0.049 A 
ATOM     61  H   UNL A   1      43.874  29.464  28.172  1.00  0.00     0.167 HD
ATOM     62  C   UNL A   1      44.780  27.121  26.869  1.00  0.00     0.074 A 
ATOM     63  C   UNL A   1      44.799  25.781  26.322  1.00  0.00     0.031 C 
ATOM     64  C   UNL A   1      45.788  28.017  26.729  1.00  0.00     0.037 A 
BRANCH  51  65
ATOM     65  C   UNL A   1      44.629  33.508  29.314  1.00  0.00     0.064 A 
ATOM     66  C   UNL A   1      45.345  33.839  30.473  1.00  0.00     0.173 A 
ATOM     67  C   UNL A   1      44.381  34.528  28.382  1.00  0.00     0.173 A 
ATOM     68  F   UNL A   1      45.595  32.906  31.404  1.00  0.00    -0.203 F 
ATOM     69  C   UNL A   1      45.771  35.145  30.703  1.00  0.00     0.198 A 
ATOM     70  C   UNL A   1      44.838  35.824  28.598  1.00  0.00     0.198 A 
ATOM     71  F   UNL A   1      43.703  34.265  27.254  1.00  0.00    -0.203 F 
ATOM     72  F   UNL A   1      46.408  35.449  31.842  1.00  0.00    -0.200 F 
ATOM     73  C   UNL A   1      45.525  36.134  29.763  1.00  0.00     0.200 A 
ATOM     74  F   UNL A   1      44.611  36.775  27.682  1.00  0.00    -0.200 F 
ATOM     75  F   UNL A   1      45.943  37.388  29.982  1.00  0.00    -0.200 F 
ENDBRANCH  51  65
BRANCH  52  76
ATOM     76  C   UNL A   1      41.050  24.346  27.613  1.00  0.00     0.064 A 
ATOM     77  C   UNL A   1      41.611  23.203  28.199  1.00  0.00     0.173 A 
ATOM     78  C   UNL A   1      39.991  24.161  26.712  1.00  0.00     0.173 A 
ATOM     79  F   UNL A   1      42.646  23.325  29.044  1.00  0.00    -0.203 F 
ATOM     80  C   UNL A   1      41.150  21.928  27.880  1.00  0.00     0.198 A 
ATOM     81  C   UNL A   1      39.509  22.887  26.417  1.00  0.00     0.198 A 
ATOM     82  F   UNL A   1      39.423  25.219  26.116  1.00  0.00    -0.203 F 
ATOM     83  F   UNL A   1      41.744  20.851  28.411  1.00  0.00    -0.200 F 
ATOM     84  C   UNL A   1      40.096  21.771  26.994  1.00  0.00     0.200 A 
ATOM     85  F   UNL A   1      38.483  22.741  25.567  1.00  0.00    -0.200 F 
ATOM     86  F   UNL A   1      39.652  20.544  26.686  1.00  0.00    -0.200 F 
ENDBRANCH  52  76
BRANCH  64  87
ATOM     87  C   UNL A   1      47.025  27.567  26.000  1.00  0.00     0.064 A 
ATOM     88  C   UNL A   1      48.089  26.937  26.660  1.00  0.00     0.173 A 
ATOM     89  C   UNL A   1      47.123  27.731  24.608  1.00  0.00     0.173 A 
ATOM     90  F   UNL A   1      48.052  26.768  27.991  1.00  0.00    -0.203 F 
ATOM     91  C   UNL A   1      49.216  26.513  25.961  1.00  0.00     0.198 A 
ATOM     92  C   UNL A   1      48.236  27.273  23.908  1.00  0.00     0.198 A 
ATOM     93  F   UNL A   1      46.130  28.318  23.924  1.00  0.00    -0.203 F 
ATOM     94  F   UNL A   1      50.243  25.959  26.621  1.00  0.00    -0.200 F 
ATOM     95  C   UNL A   1      49.285  26.672  24.585  1.00  0.00     0.200 A 
ATOM     96  F   UNL A   1      48.291  27.412  22.576  1.00  0.00    -0.200 F 
ATOM     97  F   UNL A   1      50.366  26.254  23.913  1.00  0.00    -0.200 F 
ENDBRANCH  64  87
ENDBRANCH  38  39
ENDBRANCH  31  33
ENDBRANCH  30  31
ENDBRANCH  29  30
ENDBRANCH  28  29
ENDBRANCH  27  28
ENDBRANCH  26  27
ENDBRANCH   1  26
TORSDOF 20
ENDMDL
MODEL 2
REMARK VINA RESULT:     -10.5      4.673      9.181
REMARK SMILES C[NH2+][C@]1(C(=O)OCCOCCOCCOC(=O)c2ccc(-c3c4nc(c(-c5c(F)c(F)c(F)c(F)c5F)c5ccc([nH]5)c(-c5c(F)c(F)c(F)c(F)c5F)c5nc(c(-c6c(F)c(F)c(F)c(F)c6F)c6ccc3[nH]6)C=C5)C=C4)cc2)CC[C@@H](Sc2cc(F)ccc2F)C1
REMARK SMILES IDX 10 1 9 2 8 3 7 4 6 5 4 6 5 7 3 8 81 9 93 10 82 11 83 12 2 13
REMARK SMILES IDX 1 14 84 17 85 18 86 19 91 20 87 21 90 22 92 23 88 24 89 25
REMARK SMILES IDX 11 26 12 27 13 28 14 29 15 30 16 31 17 32 18 33 19 34 80 35
REMARK SMILES IDX 20 36 79 37 21 38 22 39 23 40 73 41 24 42 78 43 72 44 74 45
REMARK SMILES IDX 25 46 77 47 71 48 70 49 26 51 58 52 38 53 57 54 39 55 42 56
REMARK SMILES IDX 56 57 75 58 40 59 41 60 55 62 76 63 43 64 27 65 28 66 36 67
REMARK SMILES IDX 29 68 30 69 34 70 37 71 31 72 32 73 35 74 33 75 59 76 60 77
REMARK SMILES IDX 68 78 61 79 62 80 66 81 69 82 63 83 64 84 67 85 65 86 44 87
REMARK SMILES IDX 45 88 53 89 46 90 47 91 51 92 54 93 48 94 49 95 52 96 50 97
REMARK H PARENT 2 15 2 16 74 50 42 61
REMARK Flexibility Score: inf
ROOT
ATOM      1  C   UNL A   1      32.636  29.218  25.152  1.00  0.00     0.188 C 
ENDROOT
BRANCH   1   2
ATOM      2  O   UNL A   1      33.882  28.532  25.174  1.00  0.00    -0.376 OA
BRANCH   2   3
ATOM      3  C   UNL A   1      34.030  27.398  26.022  1.00  0.00     0.202 C 
BRANCH   3   4
ATOM      4  C   UNL A   1      34.078  25.986  25.409  1.00  0.00     0.261 C 
BRANCH   4   5
ATOM      5  O   UNL A   1      33.113  25.731  24.366  1.00  0.00    -0.459 OA
BRANCH   5   6
ATOM      6  C   UNL A   1      33.442  24.773  23.454  1.00  0.00     0.368 C 
ATOM      7  O   UNL A   1      34.393  24.865  22.681  1.00  0.00    -0.245 OA
BRANCH   6   8
ATOM      8  C   UNL A   1      32.525  23.506  23.512  1.00  0.00     0.195 C 
ATOM      9  C   UNL A   1      33.130  22.200  22.942  1.00  0.00     0.082 C 
ATOM     10  C   UNL A   1      32.359  23.144  25.010  1.00  0.00     0.096 C 
ATOM     11  C   UNL A   1      32.414  21.083  23.691  1.00  0.00     0.022 C 
ATOM     12  C   UNL A   1      32.246  21.622  25.105  1.00  0.00     0.059 C 
BRANCH   8  13
ATOM     13  N   UNL A   1      31.265  23.773  22.752  1.00  0.00    -0.335 N 
ATOM     14  C   UNL A   1      30.248  24.535  23.462  1.00  0.00     0.331 C 
ATOM     15  H   UNL A   1      31.511  24.289  21.908  1.00  0.00     0.347 HD
ATOM     16  H   UNL A   1      30.851  22.858  22.570  1.00  0.00     0.347 HD
ENDBRANCH   8  13
BRANCH  12  17
ATOM     17  S   UNL A   1      33.379  20.892  26.362  1.00  0.00    -0.119 SA
BRANCH  17  18
ATOM     18  C   UNL A   1      35.003  21.431  25.845  1.00  0.00     0.046 A 
ATOM     19  C   UNL A   1      35.416  22.722  26.193  1.00  0.00     0.057 A 
ATOM     20  C   UNL A   1      35.851  20.659  25.038  1.00  0.00     0.136 A 
ATOM     21  C   UNL A   1      36.649  23.202  25.758  1.00  0.00     0.124 A 
ATOM     22  C   UNL A   1      37.092  21.137  24.618  1.00  0.00     0.043 A 
ATOM     23  F   UNL A   1      35.494  19.430  24.642  1.00  0.00    -0.206 F 
ATOM     24  F   UNL A   1      37.025  24.444  26.089  1.00  0.00    -0.207 F 
ATOM     25  C   UNL A   1      37.495  22.420  24.978  1.00  0.00     0.042 A 
ENDBRANCH  17  18
ENDBRANCH  12  17
ENDBRANCH   6   8
ENDBRANCH   5   6
ENDBRANCH   4   5
ENDBRANCH   3   4
ENDBRANCH   2   3
ENDBRANCH   1   2
BRANCH   1  26
ATOM     26  C   UNL A   1      31.778  29.230  26.427  1.00  0.00     0.188 C 
BRANCH  26  27
ATOM     27  O   UNL A   1      31.782  30.441  27.142  1.00  0.00    -0.376 OA
BRANCH  27  28
ATOM     28  C   UNL A   1      31.494  31.648  26.462  1.00  0.00     0.202 C 
BRANCH  28  29
ATOM     29  C   UNL A   1      31.776  33.042  27.060  1.00  0.00     0.261 C 
BRANCH  29  30
ATOM     30  O   UNL A   1      33.116  33.340  27.476  1.00  0.00    -0.460 OA
BRANCH  30  31
ATOM     31  C   UNL A   1      33.277  34.335  28.380  1.00  0.00     0.338 C 
ATOM     32  O   UNL A   1      32.541  35.281  28.574  1.00  0.00    -0.246 OA
BRANCH  31  33
ATOM     33  C   UNL A   1      34.409  33.961  29.262  1.00  0.00     0.060 A 
ATOM     34  C   UNL A   1      35.706  34.363  28.910  1.00  0.00     0.016 A 
ATOM     35  C   UNL A   1      34.191  33.226  30.428  1.00  0.00     0.016 A 
ATOM     36  C   UNL A   1      36.793  34.009  29.712  1.00  0.00     0.010 A 
ATOM     37  C   UNL A   1      35.283  32.851  31.217  1.00  0.00     0.010 A 
ATOM     38  C   UNL A   1      36.592  33.216  30.849  1.00  0.00    -0.014 A 
BRANCH  38  39
ATOM     39  C   UNL A   1      37.752  32.607  31.546  1.00  0.00     0.031 A 
ATOM     40  C   UNL A   1      38.420  31.417  30.914  1.00  0.00     0.074 A 
ATOM     41  C   UNL A   1      38.210  33.094  32.712  1.00  0.00     0.049 A 
ATOM     42  N   UNL A   1      39.384  30.658  31.371  1.00  0.00    -0.248 NA
ATOM     43  C   UNL A   1      37.928  31.028  29.582  1.00  0.00     0.031 C 
ATOM     44  C   UNL A   1      37.687  34.269  33.403  1.00  0.00     0.029 A 
ATOM     45  N   UNL A   1      39.217  32.641  33.530  1.00  0.00    -0.354 N 
ATOM     46  C   UNL A   1      39.603  29.698  30.391  1.00  0.00     0.074 A 
ATOM     47  C   UNL A   1      38.656  29.952  29.328  1.00  0.00     0.031 C 
ATOM     48  C   UNL A   1      38.363  34.433  34.554  1.00  0.00     0.029 A 
ATOM     49  C   UNL A   1      39.339  33.354  34.697  1.00  0.00     0.049 A 
ATOM     50  H   UNL A   1      39.796  31.878  33.301  1.00  0.00     0.167 HD
ATOM     51  C   UNL A   1      40.516  28.699  30.378  1.00  0.00     0.037 A 
ATOM     52  C   UNL A   1      40.127  33.136  35.770  1.00  0.00     0.037 A 
ATOM     53  C   UNL A   1      41.456  28.446  31.438  1.00  0.00     0.049 A 
ATOM     54  C   UNL A   1      41.077  31.963  35.769  1.00  0.00     0.074 A 
ATOM     55  C   UNL A   1      42.431  27.466  31.511  1.00  0.00     0.029 A 
ATOM     56  N   UNL A   1      41.530  29.170  32.617  1.00  0.00    -0.354 N 
ATOM     57  N   UNL A   1      41.296  31.071  34.833  1.00  0.00    -0.248 NA
ATOM     58  C   UNL A   1      41.892  31.769  36.978  1.00  0.00     0.031 C 
ATOM     59  C   UNL A   1      43.053  27.560  32.759  1.00  0.00     0.029 A 
ATOM     60  C   UNL A   1      42.513  28.642  33.437  1.00  0.00     0.049 A 
ATOM     61  H   UNL A   1      40.966  29.948  32.840  1.00  0.00     0.167 HD
ATOM     62  C   UNL A   1      42.293  30.235  35.323  1.00  0.00     0.074 A 
ATOM     63  C   UNL A   1      42.646  30.734  36.635  1.00  0.00     0.031 C 
ATOM     64  C   UNL A   1      42.866  29.154  34.738  1.00  0.00     0.037 A 
BRANCH  51  65
ATOM     65  C   UNL A   1      40.520  27.779  29.189  1.00  0.00     0.064 A 
ATOM     66  C   UNL A   1      39.694  26.647  29.126  1.00  0.00     0.173 A 
ATOM     67  C   UNL A   1      41.344  28.053  28.086  1.00  0.00     0.173 A 
ATOM     68  F   UNL A   1      38.900  26.331  30.160  1.00  0.00    -0.203 F 
ATOM     69  C   UNL A   1      39.714  25.808  28.014  1.00  0.00     0.198 A 
ATOM     70  C   UNL A   1      41.335  27.232  26.963  1.00  0.00     0.198 A 
ATOM     71  F   UNL A   1      42.151  29.125  28.093  1.00  0.00    -0.203 F 
ATOM     72  F   UNL A   1      38.955  24.704  27.998  1.00  0.00    -0.200 F 
ATOM     73  C   UNL A   1      40.527  26.105  26.931  1.00  0.00     0.200 A 
ATOM     74  F   UNL A   1      42.112  27.528  25.912  1.00  0.00    -0.200 F 
ATOM     75  F   UNL A   1      40.538  25.301  25.860  1.00  0.00    -0.200 F 
ENDBRANCH  51  65
BRANCH  52  76
ATOM     76  C   UNL A   1      40.042  34.036  36.952  1.00  0.00     0.064 A 
ATOM     77  C   UNL A   1      39.166  33.760  38.011  1.00  0.00     0.173 A 
ATOM     78  C   UNL A   1      40.811  35.207  37.032  1.00  0.00     0.173 A 
ATOM     79  F   UNL A   1      38.386  32.669  37.968  1.00  0.00    -0.203 F 
ATOM     80  C   UNL A   1      39.044  34.631  39.092  1.00  0.00     0.198 A 
ATOM     81  C   UNL A   1      40.712  36.061  38.129  1.00  0.00     0.198 A 
ATOM     82  F   UNL A   1      41.659  35.523  36.044  1.00  0.00    -0.203 F 
ATOM     83  F   UNL A   1      38.156  34.372  40.062  1.00  0.00    -0.200 F 
ATOM     84  C   UNL A   1      39.822  35.777  39.153  1.00  0.00     0.200 A 
ATOM     85  F   UNL A   1      41.473  37.162  38.188  1.00  0.00    -0.200 F 
ATOM     86  F   UNL A   1      39.705  36.615  40.193  1.00  0.00    -0.200 F 
ENDBRANCH  52  76
BRANCH  64  87
ATOM     87  C   UNL A   1      43.972  28.461  35.485  1.00  0.00     0.064 A 
ATOM     88  C   UNL A   1      45.319  28.813  35.313  1.00  0.00     0.173 A 
ATOM     89  C   UNL A   1      43.672  27.459  36.422  1.00  0.00     0.173 A 
ATOM     90  F   UNL A   1      45.662  29.755  34.420  1.00  0.00    -0.203 F 
ATOM     91  C   UNL A   1      46.325  28.170  36.029  1.00  0.00     0.198 A 
ATOM     92  C   UNL A   1      44.678  26.843  37.162  1.00  0.00     0.198 A 
ATOM     93  F   UNL A   1      42.400  27.090  36.635  1.00  0.00    -0.203 F 
ATOM     94  F   UNL A   1      47.608  28.487  35.810  1.00  0.00    -0.200 F 
ATOM     95  C   UNL A   1      46.004  27.193  36.959  1.00  0.00     0.200 A 
ATOM     96  F   UNL A   1      44.363  25.913  38.074  1.00  0.00    -0.200 F 
ATOM     97  F   UNL A   1      46.973  26.582  37.655  1.00  0.00    -0.200 F 
ENDBRANCH  64  87
ENDBRANCH  38  39
ENDBRANCH  31  33
ENDBRANCH  30  31
ENDBRANCH  29  30
ENDBRANCH  28  29
ENDBRANCH  27  28
ENDBRANCH  26  27
ENDBRANCH   1  26
TORSDOF 20
ENDMDL
MODEL 3
REMARK VINA RESULT:     -10.5      5.381      8.033
REMARK SMILES C[NH2+][C@]1(C(=O)OCCOCCOCCOC(=O)c2ccc(-c3c4nc(c(-c5c(F)c(F)c(F)c(F)c5F)c5ccc([nH]5)c(-c5c(F)c(F)c(F)c(F)c5F)c5nc(c(-c6c(F)c(F)c(F)c(F)c6F)c6ccc3[nH]6)C=C5)C=C4)cc2)CC[C@@H](Sc2cc(F)ccc2F)C1
REMARK SMILES IDX 10 1 9 2 8 3 7 4 6 5 4 6 5 7 3 8 81 9 93 10 82 11 83 12 2 13
REMARK SMILES IDX 1 14 84 17 85 18 86 19 91 20 87 21 90 22 92 23 88 24 89 25
REMARK SMILES IDX 11 26 12 27 13 28 14 29 15 30 16 31 17 32 18 33 19 34 80 35
REMARK SMILES IDX 20 36 79 37 21 38 22 39 23 40 73 41 24 42 78 43 72 44 74 45
REMARK SMILES IDX 25 46 77 47 71 48 70 49 26 51 58 52 38 53 57 54 39 55 42 56
REMARK SMILES IDX 56 57 75 58 40 59 41 60 55 62 76 63 43 64 27 65 28 66 36 67
REMARK SMILES IDX 29 68 30 69 34 70 37 71 31 72 32 73 35 74 33 75 59 76 60 77
REMARK SMILES IDX 68 78 61 79 62 80 66 81 69 82 63 83 64 84 67 85 65 86 44 87
REMARK SMILES IDX 45 88 53 89 46 90 47 91 51 92 54 93 48 94 49 95 52 96 50 97
REMARK H PARENT 2 15 2 16 74 50 42 61
REMARK Flexibility Score: inf
ROOT
ATOM      1  C   UNL A   1      34.538  32.243  27.981  1.00  0.00     0.188 C 
ENDROOT
BRANCH   1   2
ATOM      2  O   UNL A   1      34.018  30.935  28.186  1.00  0.00    -0.376 OA
BRANCH   2   3
ATOM      3  C   UNL A   1      34.797  29.813  27.784  1.00  0.00     0.202 C 
BRANCH   3   4
ATOM      4  C   UNL A   1      34.586  29.195  26.389  1.00  0.00     0.261 C 
BRANCH   4   5
ATOM      5  O   UNL A   1      33.330  28.510  26.200  1.00  0.00    -0.459 OA
BRANCH   5   6
ATOM      6  C   UNL A   1      32.424  29.114  25.379  1.00  0.00     0.368 C 
ATOM      7  O   UNL A   1      32.067  30.283  25.502  1.00  0.00    -0.245 OA
BRANCH   6   8
ATOM      8  C   UNL A   1      31.913  28.195  24.221  1.00  0.00     0.195 C 
ATOM      9  C   UNL A   1      31.030  26.995  24.640  1.00  0.00     0.082 C 
ATOM     10  C   UNL A   1      30.914  29.040  23.390  1.00  0.00     0.096 C 
ATOM     11  C   UNL A   1      30.156  26.713  23.424  1.00  0.00     0.022 C 
ATOM     12  C   UNL A   1      29.839  28.090  22.859  1.00  0.00     0.059 C 
BRANCH   8  13
ATOM     13  N   UNL A   1      33.086  27.638  23.478  1.00  0.00    -0.335 N 
ATOM     14  C   UNL A   1      33.923  28.614  22.795  1.00  0.00     0.331 C 
ATOM     15  H   UNL A   1      33.669  27.136  24.146  1.00  0.00     0.347 HD
ATOM     16  H   UNL A   1      32.694  27.046  22.744  1.00  0.00     0.347 HD
ENDBRANCH   8  13
BRANCH  12  17
ATOM     17  S   UNL A   1      28.126  28.693  23.173  1.00  0.00    -0.119 SA
BRANCH  17  18
ATOM     18  C   UNL A   1      28.119  30.348  22.499  1.00  0.00     0.046 A 
ATOM     19  C   UNL A   1      27.912  30.504  21.124  1.00  0.00     0.057 A 
ATOM     20  C   UNL A   1      28.395  31.493  23.262  1.00  0.00     0.136 A 
ATOM     21  C   UNL A   1      27.960  31.772  20.550  1.00  0.00     0.124 A 
ATOM     22  C   UNL A   1      28.426  32.762  22.685  1.00  0.00     0.043 A 
ATOM     23  F   UNL A   1      28.639  31.402  24.576  1.00  0.00    -0.206 F 
ATOM     24  F   UNL A   1      27.771  31.904  19.230  1.00  0.00    -0.207 F 
ATOM     25  C   UNL A   1      28.209  32.904  21.317  1.00  0.00     0.042 A 
ENDBRANCH  17  18
ENDBRANCH  12  17
ENDBRANCH   6   8
ENDBRANCH   5   6
ENDBRANCH   4   5
ENDBRANCH   3   4
ENDBRANCH   2   3
ENDBRANCH   1   2
BRANCH   1  26
ATOM     26  C   UNL A   1      34.303  33.309  29.064  1.00  0.00     0.188 C 
BRANCH  26  27
ATOM     27  O   UNL A   1      34.258  34.635  28.600  1.00  0.00    -0.376 OA
BRANCH  27  28
ATOM     28  C   UNL A   1      33.096  35.411  28.828  1.00  0.00     0.202 C 
BRANCH  28  29
ATOM     29  C   UNL A   1      32.946  36.377  30.021  1.00  0.00     0.261 C 
BRANCH  29  30
ATOM     30  O   UNL A   1      32.210  35.926  31.167  1.00  0.00    -0.460 OA
BRANCH  30  31
ATOM     31  C   UNL A   1      32.777  36.118  32.382  1.00  0.00     0.338 C 
ATOM     32  O   UNL A   1      32.335  36.767  33.307  1.00  0.00    -0.246 OA
BRANCH  31  33
ATOM     33  C   UNL A   1      33.948  35.213  32.478  1.00  0.00     0.060 A 
ATOM     34  C   UNL A   1      33.757  33.901  32.937  1.00  0.00     0.016 A 
ATOM     35  C   UNL A   1      35.221  35.655  32.114  1.00  0.00     0.016 A 
ATOM     36  C   UNL A   1      34.844  33.034  33.055  1.00  0.00     0.010 A 
ATOM     37  C   UNL A   1      36.312  34.792  32.257  1.00  0.00     0.010 A 
ATOM     38  C   UNL A   1      36.135  33.487  32.754  1.00  0.00    -0.014 A 
BRANCH  38  39
ATOM     39  C   UNL A   1      37.317  32.675  33.136  1.00  0.00     0.031 A 
ATOM     40  C   UNL A   1      38.001  32.980  34.440  1.00  0.00     0.074 A 
ATOM     41  C   UNL A   1      37.777  31.686  32.351  1.00  0.00     0.049 A 
ATOM     42  N   UNL A   1      39.099  32.479  34.946  1.00  0.00    -0.248 NA
ATOM     43  C   UNL A   1      37.357  33.997  35.289  1.00  0.00     0.031 C 
ATOM     44  C   UNL A   1      37.177  31.256  31.091  1.00  0.00     0.029 A 
ATOM     45  N   UNL A   1      38.876  30.874  32.497  1.00  0.00    -0.354 N 
ATOM     46  C   UNL A   1      39.283  33.126  36.161  1.00  0.00     0.074 A 
ATOM     47  C   UNL A   1      38.202  34.074  36.305  1.00  0.00     0.031 C 
ATOM     48  C   UNL A   1      37.928  30.272  30.566  1.00  0.00     0.029 A 
ATOM     49  C   UNL A   1      39.080  30.029  31.434  1.00  0.00     0.049 A 
ATOM     50  H   UNL A   1      39.461  30.894  33.289  1.00  0.00     0.167 HD
ATOM     51  C   UNL A   1      40.263  32.940  37.077  1.00  0.00     0.037 A 
ATOM     52  C   UNL A   1      40.099  29.184  31.179  1.00  0.00     0.037 A 
ATOM     53  C   UNL A   1      41.341  31.997  36.930  1.00  0.00     0.049 A 
ATOM     54  C   UNL A   1      41.227  29.057  32.175  1.00  0.00     0.074 A 
ATOM     55  C   UNL A   1      42.375  31.725  37.809  1.00  0.00     0.029 A 
ATOM     56  N   UNL A   1      41.531  31.181  35.826  1.00  0.00    -0.354 N 
ATOM     57  N   UNL A   1      41.386  29.654  33.330  1.00  0.00    -0.248 NA
ATOM     58  C   UNL A   1      42.317  28.133  31.827  1.00  0.00     0.031 C 
ATOM     59  C   UNL A   1      43.223  30.790  37.210  1.00  0.00     0.029 A 
ATOM     60  C   UNL A   1      42.681  30.426  35.988  1.00  0.00     0.049 A 
ATOM     61  H   UNL A   1      40.935  31.142  35.042  1.00  0.00     0.167 HD
ATOM     62  C   UNL A   1      42.570  29.156  33.862  1.00  0.00     0.074 A 
ATOM     63  C   UNL A   1      43.084  28.198  32.907  1.00  0.00     0.031 C 
ATOM     64  C   UNL A   1      43.177  29.464  35.036  1.00  0.00     0.037 A 
BRANCH  51  65
ATOM     65  C   UNL A   1      40.234  33.801  38.307  1.00  0.00     0.064 A 
ATOM     66  C   UNL A   1      39.491  33.445  39.442  1.00  0.00     0.173 A 
ATOM     67  C   UNL A   1      40.985  34.986  38.360  1.00  0.00     0.173 A 
ATOM     68  F   UNL A   1      38.743  32.332  39.439  1.00  0.00    -0.203 F 
ATOM     69  C   UNL A   1      39.478  34.259  40.573  1.00  0.00     0.198 A 
ATOM     70  C   UNL A   1      40.998  35.777  39.504  1.00  0.00     0.198 A 
ATOM     71  F   UNL A   1      41.717  35.371  37.303  1.00  0.00    -0.203 F 
ATOM     72  F   UNL A   1      38.719  33.926  41.627  1.00  0.00    -0.200 F 
ATOM     73  C   UNL A   1      40.237  35.418  40.606  1.00  0.00     0.200 A 
ATOM     74  F   UNL A   1      41.743  36.891  39.539  1.00  0.00    -0.200 F 
ATOM     75  F   UNL A   1      40.230  36.195  41.698  1.00  0.00    -0.200 F 
ENDBRANCH  51  65
BRANCH  52  76
ATOM     76  C   UNL A   1      40.118  28.398  29.916  1.00  0.00     0.064 A 
ATOM     77  C   UNL A   1      40.741  28.896  28.762  1.00  0.00     0.173 A 
ATOM     78  C   UNL A   1      39.485  27.149  29.825  1.00  0.00     0.173 A 
ATOM     79  F   UNL A   1      41.333  30.099  28.788  1.00  0.00    -0.203 F 
ATOM     80  C   UNL A   1      40.711  28.186  27.563  1.00  0.00     0.198 A 
ATOM     81  C   UNL A   1      39.483  26.426  28.634  1.00  0.00     0.198 A 
ATOM     82  F   UNL A   1      38.867  26.630  30.895  1.00  0.00    -0.203 F 
ATOM     83  F   UNL A   1      41.264  28.713  26.462  1.00  0.00    -0.200 F 
ATOM     84  C   UNL A   1      40.088  26.950  27.501  1.00  0.00     0.200 A 
ATOM     85  F   UNL A   1      38.888  25.226  28.581  1.00  0.00    -0.200 F 
ATOM     86  F   UNL A   1      40.058  26.268  26.348  1.00  0.00    -0.200 F 
ENDBRANCH  52  76
BRANCH  64  87
ATOM     87  C   UNL A   1      44.438  28.722  35.384  1.00  0.00     0.064 A 
ATOM     88  C   UNL A   1      45.707  29.210  35.038  1.00  0.00     0.173 A 
ATOM     89  C   UNL A   1      44.375  27.526  36.118  1.00  0.00     0.173 A 
ATOM     90  F   UNL A   1      45.823  30.342  34.326  1.00  0.00    -0.203 F 
ATOM     91  C   UNL A   1      46.862  28.515  35.387  1.00  0.00     0.198 A 
ATOM     92  C   UNL A   1      45.534  26.853  36.496  1.00  0.00     0.198 A 
ATOM     93  F   UNL A   1      43.188  27.019  36.485  1.00  0.00    -0.203 F 
ATOM     94  F   UNL A   1      48.060  28.974  35.000  1.00  0.00    -0.200 F 
ATOM     95  C   UNL A   1      46.775  27.343  36.123  1.00  0.00     0.200 A 
ATOM     96  F   UNL A   1      45.448  25.731  37.223  1.00  0.00    -0.200 F 
ATOM     97  F   UNL A   1      47.889  26.682  36.467  1.00  0.00    -0.200 F 
ENDBRANCH  64  87
ENDBRANCH  38  39
ENDBRANCH  31  33
ENDBRANCH  30  31
ENDBRANCH  29  30
ENDBRANCH  28  29
ENDBRANCH  27  28
ENDBRANCH  26  27
ENDBRANCH   1  26
TORSDOF 20
ENDMDL
