MODEL 1
REMARK VINA RESULT:     -11.8      0.000      0.000
REMARK SMILES COc1ccc2c(CC(=O)OCCOCCOCCOC(=O)c3ccc(-c4c5nc(c(-c6c(F)c(F)c(F)c(F)c6F)c6ccc([nH]6)c(-c6c(F)c(F)c(F)c(F)c6F)c6nc(c(-c7c(F)c(F)c(F)c(F)c7F)c7ccc4[nH]7)C=C6)C=C5)cc3)c(C(=O)c3cc(C)ccn3)[nH]c2c1
REMARK SMILES IDX 15 1 14 2 13 3 12 4 11 5 9 6 10 7 8 8 7 9 3 10 4 11 98 12
REMARK SMILES IDX 5 13 97 14 6 15 96 16 86 17 2 19 1 20 87 21 88 22 89 23
REMARK SMILES IDX 90 24 95 25 91 26 94 27 92 28 93 29 16 30 17 31 18 32 19 33
REMARK SMILES IDX 20 34 21 35 22 36 23 37 24 38 85 39 25 40 84 41 26 42 27 43
REMARK SMILES IDX 28 44 78 45 29 46 83 47 77 48 79 49 30 50 82 51 76 52 75 53
REMARK SMILES IDX 31 55 63 56 43 57 62 58 44 59 47 60 61 61 80 62 45 63 46 64
REMARK SMILES IDX 60 66 81 67 48 68 32 69 33 70 41 71 34 72 35 73 39 74 42 75
REMARK SMILES IDX 36 76 37 77 40 78 38 79 64 80 65 81 73 82 66 83 67 84 71 85
REMARK SMILES IDX 74 86 68 87 69 88 72 89 70 90 49 91 50 92 58 93 51 94 52 95
REMARK SMILES IDX 56 96 59 97 53 98 54 99 57 100 55 101
REMARK H PARENT 96 18 79 54 47 65
REMARK Flexibility Score: inf
ROOT
ATOM      1  C   UNL A   1      33.528  27.500  24.467  1.00  0.00     0.188 C 
ENDROOT
BRANCH   1   2
ATOM      2  O   UNL A   1      33.384  27.281  23.065  1.00  0.00    -0.376 OA
BRANCH   2   3
ATOM      3  C   UNL A   1      32.116  26.863  22.576  1.00  0.00     0.202 C 
BRANCH   3   4
ATOM      4  C   UNL A   1      32.053  25.428  22.037  1.00  0.00     0.261 C 
BRANCH   4   5
ATOM      5  O   UNL A   1      32.634  24.483  22.962  1.00  0.00    -0.463 OA
BRANCH   5   6
ATOM      6  C   UNL A   1      31.929  23.350  23.209  1.00  0.00     0.310 C 
ATOM      7  O   UNL A   1      30.733  23.342  23.484  1.00  0.00    -0.252 OA
BRANCH   6   8
ATOM      8  C   UNL A   1      32.709  22.072  22.922  1.00  0.00     0.161 C 
BRANCH   8   9
ATOM      9  C   UNL A   1      32.905  21.077  24.043  1.00  0.00     0.000 A 
ATOM     10  C   UNL A   1      32.938  16.879  24.262  1.00  0.00     0.120 A 
ATOM     11  C   UNL A   1      32.496  17.405  23.049  1.00  0.00     0.047 A 
ATOM     12  C   UNL A   1      33.188  17.707  25.356  1.00  0.00     0.073 A 
ATOM     13  C   UNL A   1      32.376  18.791  22.874  1.00  0.00     0.014 A 
ATOM     14  C   UNL A   1      33.109  19.087  25.144  1.00  0.00     0.050 A 
ATOM     15  C   UNL A   1      32.735  19.655  23.928  1.00  0.00     0.004 A 
ATOM     16  N   UNL A   1      33.390  20.121  25.999  1.00  0.00    -0.351 N 
ATOM     17  C   UNL A   1      33.519  21.295  25.288  1.00  0.00     0.093 A 
ATOM     18  H   UNL A   1      33.484  20.038  26.975  1.00  0.00     0.167 HD
BRANCH  10  19
ATOM     19  O   UNL A   1      33.118  15.535  24.461  1.00  0.00    -0.497 OA
ATOM     20  C   UNL A   1      32.524  15.093  25.683  1.00  0.00     0.278 C 
ENDBRANCH  10  19
BRANCH  17  21
ATOM     21  C   UNL A   1      34.239  22.460  25.789  1.00  0.00     0.227 C 
ATOM     22  O   UNL A   1      33.681  23.459  26.239  1.00  0.00    -0.285 OA
BRANCH  21  23
ATOM     23  C   UNL A   1      35.731  22.473  25.728  1.00  0.00     0.113 A 
ATOM     24  C   UNL A   1      36.455  23.586  26.151  1.00  0.00     0.036 A 
ATOM     25  N   UNL A   1      36.303  21.322  25.294  1.00  0.00    -0.253 NA
ATOM     26  C   UNL A   1      37.854  23.504  26.156  1.00  0.00    -0.047 A 
ATOM     27  C   UNL A   1      37.650  21.256  25.361  1.00  0.00     0.112 A 
ATOM     28  C   UNL A   1      38.723  24.661  26.555  1.00  0.00     0.044 C 
ATOM     29  C   UNL A   1      38.454  22.299  25.786  1.00  0.00     0.023 A 
ENDBRANCH  21  23
ENDBRANCH  17  21
ENDBRANCH   8   9
ENDBRANCH   6   8
ENDBRANCH   5   6
ENDBRANCH   4   5
ENDBRANCH   3   4
ENDBRANCH   2   3
ENDBRANCH   1   2
BRANCH   1  30
ATOM     30  C   UNL A   1      32.517  26.860  25.444  1.00  0.00     0.188 C 
BRANCH  30  31
ATOM     31  O   UNL A   1      31.468  27.735  25.840  1.00  0.00    -0.376 OA
BRANCH  31  32
ATOM     32  C   UNL A   1      31.782  28.555  26.957  1.00  0.00     0.202 C 
BRANCH  32  33
ATOM     33  C   UNL A   1      31.888  30.022  26.551  1.00  0.00     0.261 C 
BRANCH  33  34
ATOM     34  O   UNL A   1      33.266  30.441  26.448  1.00  0.00    -0.460 OA
BRANCH  34  35
ATOM     35  C   UNL A   1      33.670  31.426  27.266  1.00  0.00     0.338 C 
ATOM     36  O   UNL A   1      33.093  32.495  27.463  1.00  0.00    -0.246 OA
BRANCH  35  37
ATOM     37  C   UNL A   1      34.979  31.092  27.866  1.00  0.00     0.060 A 
ATOM     38  C   UNL A   1      35.284  29.817  28.357  1.00  0.00     0.016 A 
ATOM     39  C   UNL A   1      35.902  32.123  28.027  1.00  0.00     0.016 A 
ATOM     40  C   UNL A   1      36.481  29.577  29.040  1.00  0.00     0.010 A 
ATOM     41  C   UNL A   1      37.120  31.872  28.660  1.00  0.00     0.010 A 
ATOM     42  C   UNL A   1      37.418  30.602  29.189  1.00  0.00    -0.014 A 
BRANCH  42  43
ATOM     43  C   UNL A   1      38.707  30.419  29.903  1.00  0.00     0.031 A 
ATOM     44  C   UNL A   1      39.735  29.486  29.333  1.00  0.00     0.074 A 
ATOM     45  C   UNL A   1      38.921  30.986  31.104  1.00  0.00     0.049 A 
ATOM     46  N   UNL A   1      40.713  28.856  29.931  1.00  0.00    -0.248 NA
ATOM     47  C   UNL A   1      39.635  29.220  27.889  1.00  0.00     0.031 C 
ATOM     48  C   UNL A   1      38.071  31.991  31.737  1.00  0.00     0.029 A 
ATOM     49  N   UNL A   1      39.909  30.747  32.032  1.00  0.00    -0.354 N 
ATOM     50  C   UNL A   1      41.311  28.075  28.952  1.00  0.00     0.074 A 
ATOM     51  C   UNL A   1      40.596  28.322  27.717  1.00  0.00     0.031 C 
ATOM     52  C   UNL A   1      38.549  32.258  32.962  1.00  0.00     0.029 A 
ATOM     53  C   UNL A   1      39.682  31.377  33.232  1.00  0.00     0.049 A 
ATOM     54  H   UNL A   1      40.696  30.184  31.855  1.00  0.00     0.167 HD
ATOM     55  C   UNL A   1      42.352  27.219  29.087  1.00  0.00     0.037 A 
ATOM     56  C   UNL A   1      40.266  31.205  34.434  1.00  0.00     0.037 A 
ATOM     57  C   UNL A   1      43.068  27.003  30.319  1.00  0.00     0.049 A 
ATOM     58  C   UNL A   1      41.353  30.176  34.592  1.00  0.00     0.074 A 
ATOM     59  C   UNL A   1      44.130  26.149  30.563  1.00  0.00     0.029 A 
ATOM     60  N   UNL A   1      42.800  27.656  31.513  1.00  0.00    -0.354 N 
ATOM     61  N   UNL A   1      41.872  29.375  33.693  1.00  0.00    -0.248 NA
ATOM     62  C   UNL A   1      41.921  30.011  35.938  1.00  0.00     0.031 C 
ATOM     63  C   UNL A   1      44.474  26.253  31.915  1.00  0.00     0.029 A 
ATOM     64  C   UNL A   1      43.664  27.213  32.500  1.00  0.00     0.049 A 
ATOM     65  H   UNL A   1      42.097  28.334  31.639  1.00  0.00     0.167 HD
ATOM     66  C   UNL A   1      42.849  28.641  34.354  1.00  0.00     0.074 A 
ATOM     67  C   UNL A   1      42.850  29.088  35.730  1.00  0.00     0.031 C 
ATOM     68  C   UNL A   1      43.673  27.686  33.860  1.00  0.00     0.037 A 
BRANCH  55  69
ATOM     69  C   UNL A   1      42.748  26.406  27.890  1.00  0.00     0.064 A 
ATOM     70  C   UNL A   1      42.208  25.138  27.639  1.00  0.00     0.173 A 
ATOM     71  C   UNL A   1      43.651  26.934  26.952  1.00  0.00     0.173 A 
ATOM     72  F   UNL A   1      41.354  24.582  28.512  1.00  0.00    -0.203 F 
ATOM     73  C   UNL A   1      42.571  24.419  26.503  1.00  0.00     0.198 A 
ATOM     74  C   UNL A   1      43.989  26.223  25.804  1.00  0.00     0.198 A 
ATOM     75  F   UNL A   1      44.194  28.145  27.142  1.00  0.00    -0.203 F 
ATOM     76  F   UNL A   1      42.075  23.189  26.305  1.00  0.00    -0.200 F 
ATOM     77  C   UNL A   1      43.454  24.965  25.583  1.00  0.00     0.200 A 
ATOM     78  F   UNL A   1      44.833  26.759  24.910  1.00  0.00    -0.200 F 
ATOM     79  F   UNL A   1      43.795  24.273  24.487  1.00  0.00    -0.200 F 
ENDBRANCH  55  69
BRANCH  56  80
ATOM     80  C   UNL A   1      39.787  31.988  35.604  1.00  0.00     0.064 A 
ATOM     81  C   UNL A   1      38.722  31.528  36.389  1.00  0.00     0.173 A 
ATOM     82  C   UNL A   1      40.380  33.210  35.958  1.00  0.00     0.173 A 
ATOM     83  F   UNL A   1      38.102  30.382  36.070  1.00  0.00    -0.203 F 
ATOM     84  C   UNL A   1      38.260  32.265  37.477  1.00  0.00     0.198 A 
ATOM     85  C   UNL A   1      39.938  33.930  37.066  1.00  0.00     0.198 A 
ATOM     86  F   UNL A   1      41.397  33.699  35.234  1.00  0.00    -0.203 F 
ATOM     87  F   UNL A   1      37.210  31.826  38.184  1.00  0.00    -0.200 F 
ATOM     88  C   UNL A   1      38.875  33.461  37.820  1.00  0.00     0.200 A 
ATOM     89  F   UNL A   1      40.541  35.079  37.399  1.00  0.00    -0.200 F 
ATOM     90  F   UNL A   1      38.434  34.164  38.872  1.00  0.00    -0.200 F 
ENDBRANCH  56  80
BRANCH  68  91
ATOM     91  C   UNL A   1      44.699  27.105  34.790  1.00  0.00     0.064 A 
ATOM     92  C   UNL A   1      45.950  27.708  34.983  1.00  0.00     0.173 A 
ATOM     93  C   UNL A   1      44.397  25.958  35.540  1.00  0.00     0.173 A 
ATOM     94  F   UNL A   1      46.291  28.797  34.279  1.00  0.00    -0.203 F 
ATOM     95  C   UNL A   1      46.868  27.172  35.884  1.00  0.00     0.198 A 
ATOM     96  C   UNL A   1      45.307  25.442  36.458  1.00  0.00     0.198 A 
ATOM     97  F   UNL A   1      43.211  25.348  35.396  1.00  0.00    -0.203 F 
ATOM     98  F   UNL A   1      48.073  27.743  36.028  1.00  0.00    -0.200 F 
ATOM     99  C   UNL A   1      46.543  26.046  36.626  1.00  0.00     0.200 A 
ATOM    100  F   UNL A   1      44.986  24.361  37.183  1.00  0.00    -0.200 F 
ATOM    101  F   UNL A   1      47.423  25.541  37.501  1.00  0.00    -0.200 F 
ENDBRANCH  68  91
ENDBRANCH  42  43
ENDBRANCH  35  37
ENDBRANCH  34  35
ENDBRANCH  33  34
ENDBRANCH  32  33
ENDBRANCH  31  32
ENDBRANCH  30  31
ENDBRANCH   1  30
TORSDOF 21
ENDMDL
MODEL 2
REMARK VINA RESULT:     -11.4      3.263      9.426
REMARK SMILES COc1ccc2c(CC(=O)OCCOCCOCCOC(=O)c3ccc(-c4c5nc(c(-c6c(F)c(F)c(F)c(F)c6F)c6ccc([nH]6)c(-c6c(F)c(F)c(F)c(F)c6F)c6nc(c(-c7c(F)c(F)c(F)c(F)c7F)c7ccc4[nH]7)C=C6)C=C5)cc3)c(C(=O)c3cc(C)ccn3)[nH]c2c1
REMARK SMILES IDX 15 1 14 2 13 3 12 4 11 5 9 6 10 7 8 8 7 9 3 10 4 11 98 12
REMARK SMILES IDX 5 13 97 14 6 15 96 16 86 17 2 19 1 20 87 21 88 22 89 23
REMARK SMILES IDX 90 24 95 25 91 26 94 27 92 28 93 29 16 30 17 31 18 32 19 33
REMARK SMILES IDX 20 34 21 35 22 36 23 37 24 38 85 39 25 40 84 41 26 42 27 43
REMARK SMILES IDX 28 44 78 45 29 46 83 47 77 48 79 49 30 50 82 51 76 52 75 53
REMARK SMILES IDX 31 55 63 56 43 57 62 58 44 59 47 60 61 61 80 62 45 63 46 64
REMARK SMILES IDX 60 66 81 67 48 68 32 69 33 70 41 71 34 72 35 73 39 74 42 75
REMARK SMILES IDX 36 76 37 77 40 78 38 79 64 80 65 81 73 82 66 83 67 84 71 85
REMARK SMILES IDX 74 86 68 87 69 88 72 89 70 90 49 91 50 92 58 93 51 94 52 95
REMARK SMILES IDX 56 96 59 97 53 98 54 99 57 100 55 101
REMARK H PARENT 96 18 79 54 47 65
REMARK Flexibility Score: inf
ROOT
ATOM      1  C   UNL A   1      35.220  32.766  28.488  1.00  0.00     0.188 C 
ENDROOT
BRANCH   1   2
ATOM      2  O   UNL A   1      34.304  31.687  28.663  1.00  0.00    -0.376 OA
BRANCH   2   3
ATOM      3  C   UNL A   1      34.225  30.700  27.643  1.00  0.00     0.202 C 
BRANCH   3   4
ATOM      4  C   UNL A   1      32.845  30.523  26.996  1.00  0.00     0.261 C 
BRANCH   4   5
ATOM      5  O   UNL A   1      32.163  29.355  27.502  1.00  0.00    -0.463 OA
BRANCH   5   6
ATOM      6  C   UNL A   1      31.885  28.369  26.612  1.00  0.00     0.310 C 
ATOM      7  O   UNL A   1      31.112  27.445  26.844  1.00  0.00    -0.252 OA
BRANCH   6   8
ATOM      8  C   UNL A   1      32.469  28.617  25.225  1.00  0.00     0.161 C 
BRANCH   8   9
ATOM      9  C   UNL A   1      31.536  28.615  24.037  1.00  0.00     0.000 A 
ATOM     10  C   UNL A   1      28.637  31.289  22.582  1.00  0.00     0.120 A 
ATOM     11  C   UNL A   1      29.125  31.580  23.855  1.00  0.00     0.047 A 
ATOM     12  C   UNL A   1      28.984  30.105  21.933  1.00  0.00     0.073 A 
ATOM     13  C   UNL A   1      30.046  30.727  24.478  1.00  0.00     0.014 A 
ATOM     14  C   UNL A   1      29.940  29.294  22.551  1.00  0.00     0.050 A 
ATOM     15  C   UNL A   1      30.501  29.582  23.793  1.00  0.00     0.004 A 
ATOM     16  N   UNL A   1      30.529  28.139  22.104  1.00  0.00    -0.351 N 
ATOM     17  C   UNL A   1      31.653  27.866  22.853  1.00  0.00     0.093 A 
ATOM     18  H   UNL A   1      30.197  27.587  21.360  1.00  0.00     0.167 HD
BRANCH  10  19
ATOM     19  O   UNL A   1      27.775  32.120  21.915  1.00  0.00    -0.497 OA
ATOM     20  C   UNL A   1      28.035  32.142  20.510  1.00  0.00     0.278 C 
ENDBRANCH  10  19
BRANCH  17  21
ATOM     21  C   UNL A   1      32.737  27.009  22.388  1.00  0.00     0.227 C 
ATOM     22  O   UNL A   1      33.666  27.411  21.690  1.00  0.00    -0.285 OA
BRANCH  21  23
ATOM     23  C   UNL A   1      32.715  25.557  22.737  1.00  0.00     0.113 A 
ATOM     24  C   UNL A   1      33.896  24.869  23.009  1.00  0.00     0.036 A 
ATOM     25  N   UNL A   1      31.481  25.000  22.819  1.00  0.00    -0.253 NA
ATOM     26  C   UNL A   1      33.804  23.532  23.421  1.00  0.00    -0.047 A 
ATOM     27  C   UNL A   1      31.424  23.727  23.269  1.00  0.00     0.112 A 
ATOM     28  C   UNL A   1      35.018  22.695  23.699  1.00  0.00     0.044 C 
ATOM     29  C   UNL A   1      32.538  22.969  23.586  1.00  0.00     0.023 A 
ENDBRANCH  21  23
ENDBRANCH  17  21
ENDBRANCH   8   9
ENDBRANCH   6   8
ENDBRANCH   5   6
ENDBRANCH   4   5
ENDBRANCH   3   4
ENDBRANCH   2   3
ENDBRANCH   1   2
BRANCH   1  30
ATOM     30  C   UNL A   1      34.984  34.093  29.242  1.00  0.00     0.188 C 
BRANCH  30  31
ATOM     31  O   UNL A   1      33.631  34.528  29.230  1.00  0.00    -0.376 OA
BRANCH  31  32
ATOM     32  C   UNL A   1      33.448  35.857  28.761  1.00  0.00     0.202 C 
BRANCH  32  33
ATOM     33  C   UNL A   1      33.244  36.828  29.920  1.00  0.00     0.261 C 
BRANCH  33  34
ATOM     34  O   UNL A   1      32.305  36.306  30.884  1.00  0.00    -0.460 OA
BRANCH  34  35
ATOM     35  C   UNL A   1      32.641  36.402  32.181  1.00  0.00     0.338 C 
ATOM     36  O   UNL A   1      32.240  37.249  32.979  1.00  0.00    -0.246 OA
BRANCH  35  37
ATOM     37  C   UNL A   1      33.649  35.378  32.528  1.00  0.00     0.060 A 
ATOM     38  C   UNL A   1      33.304  34.067  32.882  1.00  0.00     0.016 A 
ATOM     39  C   UNL A   1      34.982  35.773  32.594  1.00  0.00     0.016 A 
ATOM     40  C   UNL A   1      34.274  33.167  33.336  1.00  0.00     0.010 A 
ATOM     41  C   UNL A   1      35.958  34.860  32.996  1.00  0.00     0.010 A 
ATOM     42  C   UNL A   1      35.615  33.552  33.387  1.00  0.00    -0.014 A 
BRANCH  42  43
ATOM     43  C   UNL A   1      36.696  32.650  33.860  1.00  0.00     0.031 A 
ATOM     44  C   UNL A   1      37.350  32.920  35.183  1.00  0.00     0.074 A 
ATOM     45  C   UNL A   1      37.172  31.666  33.075  1.00  0.00     0.049 A 
ATOM     46  N   UNL A   1      38.531  32.564  35.618  1.00  0.00    -0.248 NA
ATOM     47  C   UNL A   1      36.564  33.714  36.141  1.00  0.00     0.031 C 
ATOM     48  C   UNL A   1      36.579  31.215  31.819  1.00  0.00     0.029 A 
ATOM     49  N   UNL A   1      38.308  30.902  33.205  1.00  0.00    -0.354 N 
ATOM     50  C   UNL A   1      38.655  33.136  36.877  1.00  0.00     0.074 A 
ATOM     51  C   UNL A   1      37.423  33.849  37.143  1.00  0.00     0.031 C 
ATOM     52  C   UNL A   1      37.372  30.280  31.273  1.00  0.00     0.029 A 
ATOM     53  C   UNL A   1      38.570  30.134  32.095  1.00  0.00     0.049 A 
ATOM     54  H   UNL A   1      38.875  30.903  34.010  1.00  0.00     0.167 HD
ATOM     55  C   UNL A   1      39.715  33.079  37.719  1.00  0.00     0.037 A 
ATOM     56  C   UNL A   1      39.680  29.458  31.742  1.00  0.00     0.037 A 
ATOM     57  C   UNL A   1      40.925  32.344  37.449  1.00  0.00     0.049 A 
ATOM     58  C   UNL A   1      40.887  29.489  32.641  1.00  0.00     0.074 A 
ATOM     59  C   UNL A   1      42.061  32.232  38.232  1.00  0.00     0.029 A 
ATOM     60  N   UNL A   1      41.151  31.587  36.308  1.00  0.00    -0.354 N 
ATOM     61  N   UNL A   1      41.045  30.090  33.795  1.00  0.00    -0.248 NA
ATOM     62  C   UNL A   1      42.078  28.762  32.179  1.00  0.00     0.031 C 
ATOM     63  C   UNL A   1      42.990  31.444  37.545  1.00  0.00     0.029 A 
ATOM     64  C   UNL A   1      42.413  31.019  36.360  1.00  0.00     0.049 A 
ATOM     65  H   UNL A   1      40.509  31.472  35.571  1.00  0.00     0.167 HD
ATOM     66  C   UNL A   1      42.335  29.785  34.212  1.00  0.00     0.074 A 
ATOM     67  C   UNL A   1      42.919  28.947  33.187  1.00  0.00     0.031 C 
ATOM     68  C   UNL A   1      42.973  30.164  35.345  1.00  0.00     0.037 A 
BRANCH  55  69
ATOM     69  C   UNL A   1      39.642  33.874  38.989  1.00  0.00     0.064 A 
ATOM     70  C   UNL A   1      40.125  35.187  39.073  1.00  0.00     0.173 A 
ATOM     71  C   UNL A   1      39.031  33.323  40.127  1.00  0.00     0.173 A 
ATOM     72  F   UNL A   1      40.730  35.754  38.019  1.00  0.00    -0.203 F 
ATOM     73  C   UNL A   1      40.016  35.913  40.257  1.00  0.00     0.198 A 
ATOM     74  C   UNL A   1      38.900  34.062  41.299  1.00  0.00     0.198 A 
ATOM     75  F   UNL A   1      38.549  32.072  40.099  1.00  0.00    -0.203 F 
ATOM     76  F   UNL A   1      40.523  37.152  40.329  1.00  0.00    -0.200 F 
ATOM     77  C   UNL A   1      39.397  35.354  41.365  1.00  0.00     0.200 A 
ATOM     78  F   UNL A   1      38.290  33.524  42.365  1.00  0.00    -0.200 F 
ATOM     79  F   UNL A   1      39.286  36.058  42.500  1.00  0.00    -0.200 F 
ENDBRANCH  55  69
BRANCH  56  80
ATOM     80  C   UNL A   1      39.723  28.743  30.439  1.00  0.00     0.064 A 
ATOM     81  C   UNL A   1      39.240  27.433  30.322  1.00  0.00     0.173 A 
ATOM     82  C   UNL A   1      40.251  29.349  29.289  1.00  0.00     0.173 A 
ATOM     83  F   UNL A   1      38.757  26.800  31.401  1.00  0.00    -0.203 F 
ATOM     84  C   UNL A   1      39.292  26.753  29.107  1.00  0.00     0.198 A 
ATOM     85  C   UNL A   1      40.274  28.680  28.067  1.00  0.00     0.198 A 
ATOM     86  F   UNL A   1      40.736  30.599  29.349  1.00  0.00    -0.203 F 
ATOM     87  F   UNL A   1      38.866  25.485  29.033  1.00  0.00    -0.200 F 
ATOM     88  C   UNL A   1      39.801  27.381  27.979  1.00  0.00     0.200 A 
ATOM     89  F   UNL A   1      40.756  29.293  26.978  1.00  0.00    -0.200 F 
ATOM     90  F   UNL A   1      39.843  26.728  26.810  1.00  0.00    -0.200 F 
ENDBRANCH  56  80
BRANCH  68  91
ATOM     91  C   UNL A   1      44.352  29.620  35.581  1.00  0.00     0.064 A 
ATOM     92  C   UNL A   1      44.566  28.407  36.250  1.00  0.00     0.173 A 
ATOM     93  C   UNL A   1      45.471  30.299  35.074  1.00  0.00     0.173 A 
ATOM     94  F   UNL A   1      43.531  27.728  36.766  1.00  0.00    -0.203 F 
ATOM     95  C   UNL A   1      45.854  27.902  36.419  1.00  0.00     0.198 A 
ATOM     96  C   UNL A   1      46.753  29.778  35.222  1.00  0.00     0.198 A 
ATOM     97  F   UNL A   1      45.319  31.460  34.420  1.00  0.00    -0.203 F 
ATOM     98  F   UNL A   1      46.041  26.759  37.094  1.00  0.00    -0.200 F 
ATOM     99  C   UNL A   1      46.945  28.584  35.898  1.00  0.00     0.200 A 
ATOM    100  F   UNL A   1      47.804  30.431  34.706  1.00  0.00    -0.200 F 
ATOM    101  F   UNL A   1      48.181  28.089  36.049  1.00  0.00    -0.200 F 
ENDBRANCH  68  91
ENDBRANCH  42  43
ENDBRANCH  35  37
ENDBRANCH  34  35
ENDBRANCH  33  34
ENDBRANCH  32  33
ENDBRANCH  31  32
ENDBRANCH  30  31
ENDBRANCH   1  30
TORSDOF 21
ENDMDL
MODEL 3
REMARK VINA RESULT:     -11.4      2.960      8.975
REMARK SMILES COc1ccc2c(CC(=O)OCCOCCOCCOC(=O)c3ccc(-c4c5nc(c(-c6c(F)c(F)c(F)c(F)c6F)c6ccc([nH]6)c(-c6c(F)c(F)c(F)c(F)c6F)c6nc(c(-c7c(F)c(F)c(F)c(F)c7F)c7ccc4[nH]7)C=C6)C=C5)cc3)c(C(=O)c3cc(C)ccn3)[nH]c2c1
REMARK SMILES IDX 15 1 14 2 13 3 12 4 11 5 9 6 10 7 8 8 7 9 3 10 4 11 98 12
REMARK SMILES IDX 5 13 97 14 6 15 96 16 86 17 2 19 1 20 87 21 88 22 89 23
REMARK SMILES IDX 90 24 95 25 91 26 94 27 92 28 93 29 16 30 17 31 18 32 19 33
REMARK SMILES IDX 20 34 21 35 22 36 23 37 24 38 85 39 25 40 84 41 26 42 27 43
REMARK SMILES IDX 28 44 78 45 29 46 83 47 77 48 79 49 30 50 82 51 76 52 75 53
REMARK SMILES IDX 31 55 63 56 43 57 62 58 44 59 47 60 61 61 80 62 45 63 46 64
REMARK SMILES IDX 60 66 81 67 48 68 32 69 33 70 41 71 34 72 35 73 39 74 42 75
REMARK SMILES IDX 36 76 37 77 40 78 38 79 64 80 65 81 73 82 66 83 67 84 71 85
REMARK SMILES IDX 74 86 68 87 69 88 72 89 70 90 49 91 50 92 58 93 51 94 52 95
REMARK SMILES IDX 56 96 59 97 53 98 54 99 57 100 55 101
REMARK H PARENT 96 18 79 54 47 65
REMARK Flexibility Score: inf
ROOT
ATOM      1  C   UNL A   1      34.165  32.231  28.063  1.00  0.00     0.188 C 
ENDROOT
BRANCH   1   2
ATOM      2  O   UNL A   1      35.388  31.616  27.661  1.00  0.00    -0.376 OA
BRANCH   2   3
ATOM      3  C   UNL A   1      35.494  30.202  27.761  1.00  0.00     0.202 C 
BRANCH   3   4
ATOM      4  C   UNL A   1      34.275  29.408  27.273  1.00  0.00     0.261 C 
BRANCH   4   5
ATOM      5  O   UNL A   1      34.622  28.046  26.944  1.00  0.00    -0.463 OA
BRANCH   5   6
ATOM      6  C   UNL A   1      33.745  27.356  26.171  1.00  0.00     0.310 C 
ATOM      7  O   UNL A   1      34.061  26.787  25.131  1.00  0.00    -0.252 OA
BRANCH   6   8
ATOM      8  C   UNL A   1      32.371  27.185  26.811  1.00  0.00     0.161 C 
BRANCH   8   9
ATOM      9  C   UNL A   1      31.178  26.959  25.912  1.00  0.00     0.000 A 
ATOM     10  C   UNL A   1      29.580  28.988  22.595  1.00  0.00     0.120 A 
ATOM     11  C   UNL A   1      30.586  29.670  23.278  1.00  0.00     0.047 A 
ATOM     12  C   UNL A   1      29.053  27.797  23.094  1.00  0.00     0.073 A 
ATOM     13  C   UNL A   1      31.153  29.128  24.440  1.00  0.00     0.014 A 
ATOM     14  C   UNL A   1      29.665  27.252  24.226  1.00  0.00     0.050 A 
ATOM     15  C   UNL A   1      30.717  27.869  24.899  1.00  0.00     0.004 A 
ATOM     16  N   UNL A   1      29.421  26.065  24.867  1.00  0.00    -0.351 N 
ATOM     17  C   UNL A   1      30.471  25.761  25.707  1.00  0.00     0.093 A 
ATOM     18  H   UNL A   1      28.616  25.512  24.747  1.00  0.00     0.167 HD
BRANCH  10  19
ATOM     19  O   UNL A   1      29.033  29.455  21.429  1.00  0.00    -0.497 OA
ATOM     20  C   UNL A   1      27.960  30.367  21.670  1.00  0.00     0.278 C 
ENDBRANCH  10  19
BRANCH  17  21
ATOM     21  C   UNL A   1      30.755  24.411  26.178  1.00  0.00     0.227 C 
ATOM     22  O   UNL A   1      30.156  23.878  27.109  1.00  0.00    -0.285 OA
BRANCH  21  23
ATOM     23  C   UNL A   1      31.853  23.632  25.530  1.00  0.00     0.113 A 
ATOM     24  C   UNL A   1      33.075  23.446  26.175  1.00  0.00     0.036 A 
ATOM     25  N   UNL A   1      31.546  23.091  24.325  1.00  0.00    -0.253 NA
ATOM     26  C   UNL A   1      34.031  22.629  25.557  1.00  0.00    -0.047 A 
ATOM     27  C   UNL A   1      32.469  22.267  23.782  1.00  0.00     0.112 A 
ATOM     28  C   UNL A   1      35.391  22.398  26.150  1.00  0.00     0.044 C 
ATOM     29  C   UNL A   1      33.700  22.003  24.354  1.00  0.00     0.023 A 
ENDBRANCH  21  23
ENDBRANCH  17  21
ENDBRANCH   8   9
ENDBRANCH   6   8
ENDBRANCH   5   6
ENDBRANCH   4   5
ENDBRANCH   3   4
ENDBRANCH   2   3
ENDBRANCH   1   2
BRANCH   1  30
ATOM     30  C   UNL A   1      34.188  33.325  29.153  1.00  0.00     0.188 C 
BRANCH  30  31
ATOM     31  O   UNL A   1      33.205  34.337  28.972  1.00  0.00    -0.376 OA
BRANCH  31  32
ATOM     32  C   UNL A   1      33.733  35.611  28.632  1.00  0.00     0.202 C 
BRANCH  32  33
ATOM     33  C   UNL A   1      33.182  36.700  29.548  1.00  0.00     0.261 C 
BRANCH  33  34
ATOM     34  O   UNL A   1      32.405  36.136  30.626  1.00  0.00    -0.460 OA
BRANCH  34  35
ATOM     35  C   UNL A   1      32.841  36.358  31.876  1.00  0.00     0.338 C 
ATOM     36  O   UNL A   1      32.546  37.313  32.595  1.00  0.00    -0.246 OA
BRANCH  35  37
ATOM     37  C   UNL A   1      33.816  35.320  32.274  1.00  0.00     0.060 A 
ATOM     38  C   UNL A   1      33.430  34.084  32.807  1.00  0.00     0.016 A 
ATOM     39  C   UNL A   1      35.170  35.636  32.197  1.00  0.00     0.016 A 
ATOM     40  C   UNL A   1      34.382  33.184  33.297  1.00  0.00     0.010 A 
ATOM     41  C   UNL A   1      36.123  34.717  32.636  1.00  0.00     0.010 A 
ATOM     42  C   UNL A   1      35.742  33.488  33.206  1.00  0.00    -0.014 A 
BRANCH  42  43
ATOM     43  C   UNL A   1      36.806  32.581  33.708  1.00  0.00     0.031 A 
ATOM     44  C   UNL A   1      37.434  32.855  35.043  1.00  0.00     0.074 A 
ATOM     45  C   UNL A   1      37.292  31.590  32.939  1.00  0.00     0.049 A 
ATOM     46  N   UNL A   1      38.602  32.494  35.505  1.00  0.00    -0.248 NA
ATOM     47  C   UNL A   1      36.633  33.660  35.979  1.00  0.00     0.031 C 
ATOM     48  C   UNL A   1      36.722  31.134  31.673  1.00  0.00     0.029 A 
ATOM     49  N   UNL A   1      38.419  30.818  33.098  1.00  0.00    -0.354 N 
ATOM     50  C   UNL A   1      38.705  33.072  36.762  1.00  0.00     0.074 A 
ATOM     51  C   UNL A   1      37.472  33.796  36.998  1.00  0.00     0.031 C 
ATOM     52  C   UNL A   1      37.521  30.191  31.150  1.00  0.00     0.029 A 
ATOM     53  C   UNL A   1      38.700  30.042  31.998  1.00  0.00     0.049 A 
ATOM     54  H   UNL A   1      38.969  30.820  33.914  1.00  0.00     0.167 HD
ATOM     55  C   UNL A   1      39.745  33.013  37.627  1.00  0.00     0.037 A 
ATOM     56  C   UNL A   1      39.812  29.356  31.672  1.00  0.00     0.037 A 
ATOM     57  C   UNL A   1      40.955  32.268  37.387  1.00  0.00     0.049 A 
ATOM     58  C   UNL A   1      41.000  29.384  32.597  1.00  0.00     0.074 A 
ATOM     59  C   UNL A   1      42.074  32.153  38.195  1.00  0.00     0.029 A 
ATOM     60  N   UNL A   1      41.200  31.503  36.256  1.00  0.00    -0.354 N 
ATOM     61  N   UNL A   1      41.138  29.991  33.751  1.00  0.00    -0.248 NA
ATOM     62  C   UNL A   1      42.196  28.646  32.164  1.00  0.00     0.031 C 
ATOM     63  C   UNL A   1      43.012  31.355  37.533  1.00  0.00     0.029 A 
ATOM     64  C   UNL A   1      42.457  30.927  36.338  1.00  0.00     0.049 A 
ATOM     65  H   UNL A   1      40.574  31.388  35.506  1.00  0.00     0.167 HD
ATOM     66  C   UNL A   1      42.416  29.680  34.196  1.00  0.00     0.074 A 
ATOM     67  C   UNL A   1      43.016  28.832  33.189  1.00  0.00     0.031 C 
ATOM     68  C   UNL A   1      43.033  30.061  35.341  1.00  0.00     0.037 A 
BRANCH  55  69
ATOM     69  C   UNL A   1      39.651  33.817  38.890  1.00  0.00     0.064 A 
ATOM     70  C   UNL A   1      40.175  35.113  38.989  1.00  0.00     0.173 A 
ATOM     71  C   UNL A   1      38.979  33.292  40.006  1.00  0.00     0.173 A 
ATOM     72  F   UNL A   1      40.840  35.653  37.957  1.00  0.00    -0.203 F 
ATOM     73  C   UNL A   1      40.046  35.848  40.164  1.00  0.00     0.198 A 
ATOM     74  C   UNL A   1      38.827  34.042  41.170  1.00  0.00     0.198 A 
ATOM     75  F   UNL A   1      38.455  32.058  39.964  1.00  0.00    -0.203 F 
ATOM     76  F   UNL A   1      40.592  37.070  40.252  1.00  0.00    -0.200 F 
ATOM     77  C   UNL A   1      39.365  35.315  41.250  1.00  0.00     0.200 A 
ATOM     78  F   UNL A   1      38.159  33.529  42.213  1.00  0.00    -0.200 F 
ATOM     79  F   UNL A   1      39.236  36.029  42.377  1.00  0.00    -0.200 F 
ENDBRANCH  55  69
BRANCH  56  80
ATOM     80  C   UNL A   1      39.878  28.632  30.375  1.00  0.00     0.064 A 
ATOM     81  C   UNL A   1      40.468  29.225  29.251  1.00  0.00     0.173 A 
ATOM     82  C   UNL A   1      39.351  27.340  30.232  1.00  0.00     0.173 A 
ATOM     83  F   UNL A   1      40.955  30.472  29.331  1.00  0.00    -0.203 F 
ATOM     84  C   UNL A   1      40.519  28.557  28.030  1.00  0.00     0.198 A 
ATOM     85  C   UNL A   1      39.431  26.660  29.018  1.00  0.00     0.198 A 
ATOM     86  F   UNL A   1      38.768  26.731  31.275  1.00  0.00    -0.203 F 
ATOM     87  F   UNL A   1      41.046  29.164  26.958  1.00  0.00    -0.200 F 
ATOM     88  C   UNL A   1      40.009  27.272  27.917  1.00  0.00     0.200 A 
ATOM     89  F   UNL A   1      38.946  25.416  28.916  1.00  0.00    -0.200 F 
ATOM     90  F   UNL A   1      40.065  26.628  26.743  1.00  0.00    -0.200 F 
ENDBRANCH  56  80
BRANCH  68  91
ATOM     91  C   UNL A   1      44.403  29.509  35.609  1.00  0.00     0.064 A 
ATOM     92  C   UNL A   1      45.565  30.183  35.208  1.00  0.00     0.173 A 
ATOM     93  C   UNL A   1      44.550  28.314  36.330  1.00  0.00     0.173 A 
ATOM     94  F   UNL A   1      45.477  31.321  34.503  1.00  0.00    -0.203 F 
ATOM     95  C   UNL A   1      46.826  29.670  35.507  1.00  0.00     0.198 A 
ATOM     96  C   UNL A   1      45.811  27.819  36.648  1.00  0.00     0.198 A 
ATOM     97  F   UNL A   1      43.469  27.635  36.741  1.00  0.00    -0.203 F 
ATOM     98  F   UNL A   1      47.925  30.311  35.083  1.00  0.00    -0.200 F 
ATOM     99  C   UNL A   1      46.948  28.494  36.233  1.00  0.00     0.200 A 
ATOM    100  F   UNL A   1      45.926  26.690  37.361  1.00  0.00    -0.200 F 
ATOM    101  F   UNL A   1      48.161  28.011  36.529  1.00  0.00    -0.200 F 
ENDBRANCH  68  91
ENDBRANCH  42  43
ENDBRANCH  35  37
ENDBRANCH  34  35
ENDBRANCH  33  34
ENDBRANCH  32  33
ENDBRANCH  31  32
ENDBRANCH  30  31
ENDBRANCH   1  30
TORSDOF 21
ENDMDL
