MODEL 1
REMARK VINA RESULT:     -10.4      0.000      0.000
REMARK SMILES COCCn1cc(NC(=O)N[C@H]2C=C[C@H](C(=O)OCCOCCOCCOC(=O)c3ccc(-c4c5nc(c(-c6c(F)c(F)c(F)c(F)c6F)c6ccc([nH]6)c(-c6c(F)c(F)c(F)c(F)c6F)c6nc(c(-c7c(F)c(F)c(F)c(F)c7F)c7ccc4[nH]7)C=C6)C=C5)cc3)C2)cn1
REMARK SMILES IDX 21 1 20 2 19 3 18 4 16 5 17 6 15 7 12 8 13 9 93 10 14 11
REMARK SMILES IDX 11 12 8 13 9 14 10 16 7 18 5 19 6 20 95 21 94 22 4 23 3 24
REMARK SMILES IDX 2 25 1 26 22 27 23 28 24 29 25 30 26 31 27 32 28 33 29 34
REMARK SMILES IDX 30 35 31 36 92 37 32 38 91 39 33 40 34 41 35 42 85 43 36 44
REMARK SMILES IDX 90 45 84 46 86 47 37 48 89 49 83 50 82 51 38 53 70 54 50 55
REMARK SMILES IDX 69 56 51 57 54 58 68 59 87 60 52 61 53 62 67 64 88 65 55 66
REMARK SMILES IDX 39 67 40 68 48 69 41 70 42 71 46 72 49 73 43 74 44 75 47 76
REMARK SMILES IDX 45 77 71 78 72 79 80 80 73 81 74 82 78 83 81 84 75 85 76 86
REMARK SMILES IDX 79 87 77 88 56 89 57 90 65 91 58 92 59 93 63 94 66 95 60 96
REMARK SMILES IDX 61 97 64 98 62 99
REMARK H PARENT 8 15 11 17 86 52 54 63
REMARK Flexibility Score: inf
ROOT
ATOM      1  O   UNL A   1      40.154  20.351  26.382  1.00  0.00    -0.376 OA
ENDROOT
BRANCH   1   2
ATOM      2  C   UNL A   1      39.276  19.427  25.748  1.00  0.00     0.202 C 
BRANCH   2   3
ATOM      3  C   UNL A   1      38.037  19.957  24.993  1.00  0.00     0.261 C 
BRANCH   3   4
ATOM      4  O   UNL A   1      37.490  21.242  25.396  1.00  0.00    -0.463 OA
BRANCH   4   5
ATOM      5  C   UNL A   1      36.390  21.672  24.722  1.00  0.00     0.312 C 
ATOM      6  O   UNL A   1      36.446  22.301  23.667  1.00  0.00    -0.252 OA
BRANCH   5   7
ATOM      7  C   UNL A   1      35.034  21.301  25.355  1.00  0.00     0.124 C 
ATOM      8  C   UNL A   1      33.210  22.787  26.193  1.00  0.00     0.107 C 
ATOM      9  C   UNL A   1      34.077  22.251  27.296  1.00  0.00    -0.006 C 
ATOM     10  C   UNL A   1      33.734  22.032  24.952  1.00  0.00     0.048 C 
ATOM     11  C   UNL A   1      35.064  21.466  26.849  1.00  0.00    -0.014 C 
BRANCH   8  12
ATOM     12  N   UNL A   1      31.828  22.528  26.554  1.00  0.00    -0.332 N 
ATOM     13  N   UNL A   1      30.420  23.684  25.008  1.00  0.00    -0.305 N 
ATOM     14  C   UNL A   1      30.627  22.853  26.048  1.00  0.00     0.319 C 
ATOM     15  H   UNL A   1      29.693  23.395  24.410  1.00  0.00     0.171 HD
ATOM     16  O   UNL A   1      29.653  22.244  26.503  1.00  0.00    -0.248 OA
ATOM     17  H   UNL A   1      31.752  21.981  27.367  1.00  0.00     0.165 HD
BRANCH  13  18
ATOM     18  C   UNL A   1      31.024  24.856  24.616  1.00  0.00     0.081 A 
ATOM     19  N   UNL A   1      31.712  26.950  24.630  1.00  0.00    -0.268 N 
ATOM     20  C   UNL A   1      31.164  25.971  25.420  1.00  0.00     0.135 A 
ATOM     21  N   UNL A   1      32.218  26.438  23.495  1.00  0.00    -0.179 NA
ATOM     22  C   UNL A   1      31.761  25.180  23.471  1.00  0.00     0.161 A 
BRANCH  19  23
ATOM     23  C   UNL A   1      31.948  28.346  24.971  1.00  0.00     0.172 C 
BRANCH  23  24
ATOM     24  C   UNL A   1      31.058  29.380  24.262  1.00  0.00     0.183 C 
BRANCH  24  25
ATOM     25  O   UNL A   1      29.812  28.819  23.836  1.00  0.00    -0.383 OA
ATOM     26  C   UNL A   1      29.543  28.942  22.442  1.00  0.00     0.194 C 
ENDBRANCH  24  25
ENDBRANCH  23  24
ENDBRANCH  19  23
ENDBRANCH  13  18
ENDBRANCH   8  12
ENDBRANCH   5   7
ENDBRANCH   4   5
ENDBRANCH   3   4
ENDBRANCH   2   3
ENDBRANCH   1   2
BRANCH   1  27
ATOM     27  C   UNL A   1      41.545  20.274  26.126  1.00  0.00     0.188 C 
BRANCH  27  28
ATOM     28  C   UNL A   1      42.316  19.016  26.527  1.00  0.00     0.188 C 
BRANCH  28  29
ATOM     29  O   UNL A   1      43.672  19.024  26.116  1.00  0.00    -0.376 OA
BRANCH  29  30
ATOM     30  C   UNL A   1      43.870  18.711  24.749  1.00  0.00     0.202 C 
BRANCH  30  31
ATOM     31  C   UNL A   1      45.041  19.517  24.244  1.00  0.00     0.261 C 
BRANCH  31  32
ATOM     32  O   UNL A   1      44.596  20.793  23.872  1.00  0.00    -0.460 OA
BRANCH  32  33
ATOM     33  C   UNL A   1      45.254  21.856  24.375  1.00  0.00     0.338 C 
ATOM     34  O   UNL A   1      46.400  22.214  24.229  1.00  0.00    -0.246 OA
BRANCH  33  35
ATOM     35  C   UNL A   1      44.309  22.470  25.291  1.00  0.00     0.060 A 
ATOM     36  C   UNL A   1      43.423  23.352  24.679  1.00  0.00     0.016 A 
ATOM     37  C   UNL A   1      44.714  22.553  26.631  1.00  0.00     0.016 A 
ATOM     38  C   UNL A   1      43.194  24.524  25.334  1.00  0.00     0.010 A 
ATOM     39  C   UNL A   1      44.590  23.760  27.224  1.00  0.00     0.010 A 
ATOM     40  C   UNL A   1      43.874  24.735  26.539  1.00  0.00    -0.014 A 
BRANCH  40  41
ATOM     41  C   UNL A   1      43.572  25.909  27.291  1.00  0.00     0.031 A 
ATOM     42  C   UNL A   1      44.582  26.928  26.960  1.00  0.00     0.074 A 
ATOM     43  C   UNL A   1      42.445  26.024  27.999  1.00  0.00     0.049 A 
ATOM     44  N   UNL A   1      45.713  27.090  27.567  1.00  0.00    -0.248 NA
ATOM     45  C   UNL A   1      44.547  27.519  25.606  1.00  0.00     0.031 C 
ATOM     46  C   UNL A   1      41.293  25.125  28.059  1.00  0.00     0.029 A 
ATOM     47  N   UNL A   1      42.082  27.067  28.778  1.00  0.00    -0.354 N 
ATOM     48  C   UNL A   1      46.368  28.045  26.806  1.00  0.00     0.074 A 
ATOM     49  C   UNL A   1      45.808  27.944  25.492  1.00  0.00     0.031 C 
ATOM     50  C   UNL A   1      40.267  25.767  28.669  1.00  0.00     0.029 A 
ATOM     51  C   UNL A   1      40.746  27.051  29.150  1.00  0.00     0.049 A 
ATOM     52  H   UNL A   1      42.709  27.774  29.055  1.00  0.00     0.167 HD
ATOM     53  C   UNL A   1      46.904  29.131  27.426  1.00  0.00     0.037 A 
ATOM     54  C   UNL A   1      40.125  28.105  29.730  1.00  0.00     0.037 A 
ATOM     55  C   UNL A   1      46.978  28.884  28.853  1.00  0.00     0.049 A 
ATOM     56  C   UNL A   1      41.199  28.973  30.295  1.00  0.00     0.074 A 
ATOM     57  C   UNL A   1      47.680  28.021  29.670  1.00  0.00     0.029 A 
ATOM     58  N   UNL A   1      45.858  29.277  29.547  1.00  0.00    -0.354 N 
ATOM     59  N   UNL A   1      41.977  28.599  31.277  1.00  0.00    -0.248 NA
ATOM     60  C   UNL A   1      41.722  30.064  29.480  1.00  0.00     0.031 C 
ATOM     61  C   UNL A   1      46.819  27.739  30.775  1.00  0.00     0.029 A 
ATOM     62  C   UNL A   1      45.646  28.485  30.642  1.00  0.00     0.049 A 
ATOM     63  H   UNL A   1      45.283  30.033  29.289  1.00  0.00     0.167 HD
ATOM     64  C   UNL A   1      43.232  29.096  30.949  1.00  0.00     0.074 A 
ATOM     65  C   UNL A   1      42.981  30.108  29.929  1.00  0.00     0.031 C 
ATOM     66  C   UNL A   1      44.359  28.409  31.307  1.00  0.00     0.037 A 
BRANCH  53  67
ATOM     67  C   UNL A   1      46.826  30.546  26.879  1.00  0.00     0.064 A 
ATOM     68  C   UNL A   1      48.010  31.309  26.877  1.00  0.00     0.173 A 
ATOM     69  C   UNL A   1      45.641  31.284  26.638  1.00  0.00     0.173 A 
ATOM     70  F   UNL A   1      49.198  30.723  27.090  1.00  0.00    -0.203 F 
ATOM     71  C   UNL A   1      47.995  32.700  26.743  1.00  0.00     0.198 A 
ATOM     72  C   UNL A   1      45.635  32.665  26.465  1.00  0.00     0.198 A 
ATOM     73  F   UNL A   1      44.419  30.748  26.652  1.00  0.00    -0.203 F 
ATOM     74  F   UNL A   1      49.135  33.390  26.866  1.00  0.00    -0.200 F 
ATOM     75  C   UNL A   1      46.806  33.379  26.549  1.00  0.00     0.200 A 
ATOM     76  F   UNL A   1      44.464  33.298  26.298  1.00  0.00    -0.200 F 
ATOM     77  F   UNL A   1      46.780  34.715  26.484  1.00  0.00    -0.200 F 
ENDBRANCH  53  67
BRANCH  54  78
ATOM     78  C   UNL A   1      38.736  28.564  29.530  1.00  0.00     0.064 A 
ATOM     79  C   UNL A   1      37.909  28.866  30.622  1.00  0.00     0.173 A 
ATOM     80  C   UNL A   1      38.280  28.973  28.262  1.00  0.00     0.173 A 
ATOM     81  F   UNL A   1      38.298  28.552  31.867  1.00  0.00    -0.203 F 
ATOM     82  C   UNL A   1      36.704  29.557  30.458  1.00  0.00     0.198 A 
ATOM     83  C   UNL A   1      37.076  29.658  28.098  1.00  0.00     0.198 A 
ATOM     84  F   UNL A   1      39.039  28.800  27.170  1.00  0.00    -0.203 F 
ATOM     85  F   UNL A   1      35.968  29.880  31.530  1.00  0.00    -0.200 F 
ATOM     86  C   UNL A   1      36.294  29.960  29.197  1.00  0.00     0.200 A 
ATOM     87  F   UNL A   1      36.712  30.080  26.879  1.00  0.00    -0.200 F 
ATOM     88  F   UNL A   1      35.170  30.675  29.047  1.00  0.00    -0.200 F 
ENDBRANCH  54  78
BRANCH  66  89
ATOM     89  C   UNL A   1      44.210  27.378  32.393  1.00  0.00     0.064 A 
ATOM     90  C   UNL A   1      44.125  25.993  32.177  1.00  0.00     0.173 A 
ATOM     91  C   UNL A   1      44.247  27.822  33.721  1.00  0.00     0.173 A 
ATOM     92  F   UNL A   1      44.173  25.485  30.940  1.00  0.00    -0.203 F 
ATOM     93  C   UNL A   1      44.034  25.099  33.245  1.00  0.00     0.198 A 
ATOM     94  C   UNL A   1      44.196  26.928  34.785  1.00  0.00     0.198 A 
ATOM     95  F   UNL A   1      44.376  29.132  33.987  1.00  0.00    -0.203 F 
ATOM     96  F   UNL A   1      43.934  23.782  33.014  1.00  0.00    -0.200 F 
ATOM     97  C   UNL A   1      44.077  25.568  34.548  1.00  0.00     0.200 A 
ATOM     98  F   UNL A   1      44.285  27.384  36.042  1.00  0.00    -0.200 F 
ATOM     99  F   UNL A   1      44.025  24.709  35.576  1.00  0.00    -0.200 F 
ENDBRANCH  66  89
ENDBRANCH  40  41
ENDBRANCH  33  35
ENDBRANCH  32  33
ENDBRANCH  31  32
ENDBRANCH  30  31
ENDBRANCH  29  30
ENDBRANCH  28  29
ENDBRANCH  27  28
ENDBRANCH   1  27
TORSDOF 22
ENDMDL
MODEL 2
REMARK VINA RESULT:     -10.4      3.092      9.221
REMARK SMILES COCCn1cc(NC(=O)N[C@H]2C=C[C@H](C(=O)OCCOCCOCCOC(=O)c3ccc(-c4c5nc(c(-c6c(F)c(F)c(F)c(F)c6F)c6ccc([nH]6)c(-c6c(F)c(F)c(F)c(F)c6F)c6nc(c(-c7c(F)c(F)c(F)c(F)c7F)c7ccc4[nH]7)C=C6)C=C5)cc3)C2)cn1
REMARK SMILES IDX 21 1 20 2 19 3 18 4 16 5 17 6 15 7 12 8 13 9 93 10 14 11
REMARK SMILES IDX 11 12 8 13 9 14 10 16 7 18 5 19 6 20 95 21 94 22 4 23 3 24
REMARK SMILES IDX 2 25 1 26 22 27 23 28 24 29 25 30 26 31 27 32 28 33 29 34
REMARK SMILES IDX 30 35 31 36 92 37 32 38 91 39 33 40 34 41 35 42 85 43 36 44
REMARK SMILES IDX 90 45 84 46 86 47 37 48 89 49 83 50 82 51 38 53 70 54 50 55
REMARK SMILES IDX 69 56 51 57 54 58 68 59 87 60 52 61 53 62 67 64 88 65 55 66
REMARK SMILES IDX 39 67 40 68 48 69 41 70 42 71 46 72 49 73 43 74 44 75 47 76
REMARK SMILES IDX 45 77 71 78 72 79 80 80 73 81 74 82 78 83 81 84 75 85 76 86
REMARK SMILES IDX 79 87 77 88 56 89 57 90 65 91 58 92 59 93 63 94 66 95 60 96
REMARK SMILES IDX 61 97 64 98 62 99
REMARK H PARENT 8 15 11 17 86 52 54 63
REMARK Flexibility Score: inf
ROOT
ATOM      1  O   UNL A   1      34.108  31.072  27.993  1.00  0.00    -0.376 OA
ENDROOT
BRANCH   1   2
ATOM      2  C   UNL A   1      33.697  30.221  26.929  1.00  0.00     0.202 C 
BRANCH   2   3
ATOM      3  C   UNL A   1      32.225  30.252  26.462  1.00  0.00     0.261 C 
BRANCH   3   4
ATOM      4  O   UNL A   1      31.946  29.969  25.064  1.00  0.00    -0.463 OA
BRANCH   4   5
ATOM      5  C   UNL A   1      32.000  28.664  24.684  1.00  0.00     0.312 C 
ATOM      6  O   UNL A   1      32.847  28.218  23.913  1.00  0.00    -0.252 OA
BRANCH   5   7
ATOM      7  C   UNL A   1      30.929  27.745  25.307  1.00  0.00     0.124 C 
ATOM      8  C   UNL A   1      30.919  25.262  25.563  1.00  0.00     0.107 C 
ATOM      9  C   UNL A   1      30.099  25.729  24.396  1.00  0.00    -0.006 C 
ATOM     10  C   UNL A   1      31.318  26.585  26.250  1.00  0.00     0.048 C 
ATOM     11  C   UNL A   1      30.114  27.059  24.247  1.00  0.00    -0.014 C 
BRANCH   8  12
ATOM     12  N   UNL A   1      30.093  24.364  26.351  1.00  0.00    -0.332 N 
ATOM     13  N   UNL A   1      31.407  22.460  26.943  1.00  0.00    -0.305 N 
ATOM     14  C   UNL A   1      30.281  23.197  26.987  1.00  0.00     0.319 C 
ATOM     15  H   UNL A   1      31.639  22.039  27.803  1.00  0.00     0.171 HD
ATOM     16  O   UNL A   1      29.389  22.841  27.765  1.00  0.00    -0.248 OA
ATOM     17  H   UNL A   1      29.170  24.692  26.441  1.00  0.00     0.165 HD
BRANCH  13  18
ATOM     18  C   UNL A   1      32.300  22.179  25.934  1.00  0.00     0.081 A 
ATOM     19  N   UNL A   1      34.140  22.178  24.723  1.00  0.00    -0.268 N 
ATOM     20  C   UNL A   1      33.632  22.542  25.943  1.00  0.00     0.135 A 
ATOM     21  N   UNL A   1      33.317  21.331  24.081  1.00  0.00    -0.179 NA
ATOM     22  C   UNL A   1      32.186  21.370  24.797  1.00  0.00     0.161 A 
BRANCH  19  23
ATOM     23  C   UNL A   1      35.469  22.448  24.190  1.00  0.00     0.172 C 
BRANCH  23  24
ATOM     24  C   UNL A   1      36.229  23.625  24.823  1.00  0.00     0.183 C 
BRANCH  24  25
ATOM     25  O   UNL A   1      37.583  23.285  25.141  1.00  0.00    -0.383 OA
ATOM     26  C   UNL A   1      38.091  23.892  26.327  1.00  0.00     0.194 C 
ENDBRANCH  24  25
ENDBRANCH  23  24
ENDBRANCH  19  23
ENDBRANCH  13  18
ENDBRANCH   8  12
ENDBRANCH   5   7
ENDBRANCH   4   5
ENDBRANCH   3   4
ENDBRANCH   2   3
ENDBRANCH   1   2
BRANCH   1  27
ATOM     27  C   UNL A   1      34.102  32.476  27.800  1.00  0.00     0.188 C 
BRANCH  27  28
ATOM     28  C   UNL A   1      35.405  33.262  27.947  1.00  0.00     0.188 C 
BRANCH  28  29
ATOM     29  O   UNL A   1      35.532  33.927  29.192  1.00  0.00    -0.376 OA
BRANCH  29  30
ATOM     30  C   UNL A   1      34.317  34.065  29.906  1.00  0.00     0.202 C 
BRANCH  30  31
ATOM     31  C   UNL A   1      34.472  33.379  31.241  1.00  0.00     0.261 C 
BRANCH  31  32
ATOM     32  O   UNL A   1      35.067  32.123  31.046  1.00  0.00    -0.460 OA
BRANCH  32  33
ATOM     33  C   UNL A   1      36.210  31.863  31.710  1.00  0.00     0.338 C 
ATOM     34  O   UNL A   1      36.589  32.227  32.799  1.00  0.00    -0.246 OA
BRANCH  33  35
ATOM     35  C   UNL A   1      37.020  31.119  30.762  1.00  0.00     0.060 A 
ATOM     36  C   UNL A   1      36.883  29.738  30.867  1.00  0.00     0.016 A 
ATOM     37  C   UNL A   1      38.169  31.769  30.288  1.00  0.00     0.016 A 
ATOM     38  C   UNL A   1      38.034  29.013  30.800  1.00  0.00     0.010 A 
ATOM     39  C   UNL A   1      39.323  31.070  30.345  1.00  0.00     0.010 A 
ATOM     40  C   UNL A   1      39.234  29.717  30.649  1.00  0.00    -0.014 A 
BRANCH  40  41
ATOM     41  C   UNL A   1      40.438  28.973  30.475  1.00  0.00     0.031 A 
ATOM     42  C   UNL A   1      41.074  28.830  31.796  1.00  0.00     0.074 A 
ATOM     43  C   UNL A   1      40.751  28.397  29.311  1.00  0.00     0.049 A 
ATOM     44  N   UNL A   1      41.916  29.661  32.319  1.00  0.00    -0.248 NA
ATOM     45  C   UNL A   1      40.415  27.952  32.786  1.00  0.00     0.031 C 
ATOM     46  C   UNL A   1      39.951  28.275  28.093  1.00  0.00     0.029 A 
ATOM     47  N   UNL A   1      41.880  27.710  29.026  1.00  0.00    -0.354 N 
ATOM     48  C   UNL A   1      42.099  29.185  33.608  1.00  0.00     0.074 A 
ATOM     49  C   UNL A   1      40.912  28.448  33.922  1.00  0.00     0.031 C 
ATOM     50  C   UNL A   1      40.539  27.373  27.270  1.00  0.00     0.029 A 
ATOM     51  C   UNL A   1      41.808  26.974  27.853  1.00  0.00     0.049 A 
ATOM     52  H   UNL A   1      42.681  27.732  29.599  1.00  0.00     0.167 HD
ATOM     53  C   UNL A   1      43.366  29.004  34.071  1.00  0.00     0.037 A 
ATOM     54  C   UNL A   1      42.729  26.046  27.502  1.00  0.00     0.037 A 
ATOM     55  C   UNL A   1      44.300  29.698  33.207  1.00  0.00     0.049 A 
ATOM     56  C   UNL A   1      43.958  26.346  28.294  1.00  0.00     0.074 A 
ATOM     57  C   UNL A   1      44.561  31.016  32.891  1.00  0.00     0.029 A 
ATOM     58  N   UNL A   1      44.774  28.931  32.168  1.00  0.00    -0.354 N 
ATOM     59  N   UNL A   1      44.661  27.437  28.134  1.00  0.00    -0.248 NA
ATOM     60  C   UNL A   1      44.151  25.673  29.574  1.00  0.00     0.031 C 
ATOM     61  C   UNL A   1      44.994  31.015  31.529  1.00  0.00     0.029 A 
ATOM     62  C   UNL A   1      45.054  29.698  31.070  1.00  0.00     0.049 A 
ATOM     63  H   UNL A   1      44.898  27.956  32.211  1.00  0.00     0.167 HD
ATOM     64  C   UNL A   1      45.041  27.808  29.417  1.00  0.00     0.074 A 
ATOM     65  C   UNL A   1      44.835  26.616  30.232  1.00  0.00     0.031 C 
ATOM     66  C   UNL A   1      45.175  29.131  29.739  1.00  0.00     0.037 A 
BRANCH  53  67
ATOM     67  C   UNL A   1      43.805  27.809  34.900  1.00  0.00     0.064 A 
ATOM     68  C   UNL A   1      44.381  28.066  36.159  1.00  0.00     0.173 A 
ATOM     69  C   UNL A   1      43.964  26.482  34.431  1.00  0.00     0.173 A 
ATOM     70  F   UNL A   1      44.294  29.286  36.711  1.00  0.00    -0.203 F 
ATOM     71  C   UNL A   1      45.134  27.104  36.840  1.00  0.00     0.198 A 
ATOM     72  C   UNL A   1      44.681  25.516  35.132  1.00  0.00     0.198 A 
ATOM     73  F   UNL A   1      43.533  26.060  33.240  1.00  0.00    -0.203 F 
ATOM     74  F   UNL A   1      45.760  27.435  37.975  1.00  0.00    -0.200 F 
ATOM     75  C   UNL A   1      45.293  25.834  36.320  1.00  0.00     0.200 A 
ATOM     76  F   UNL A   1      44.834  24.297  34.593  1.00  0.00    -0.200 F 
ATOM     77  F   UNL A   1      46.065  24.931  36.937  1.00  0.00    -0.200 F 
ENDBRANCH  53  67
BRANCH  54  78
ATOM     78  C   UNL A   1      42.507  24.761  26.811  1.00  0.00     0.064 A 
ATOM     79  C   UNL A   1      43.151  24.469  25.600  1.00  0.00     0.173 A 
ATOM     80  C   UNL A   1      41.868  23.686  27.460  1.00  0.00     0.173 A 
ATOM     81  F   UNL A   1      43.822  25.429  24.947  1.00  0.00    -0.203 F 
ATOM     82  C   UNL A   1      43.174  23.171  25.078  1.00  0.00     0.198 A 
ATOM     83  C   UNL A   1      41.888  22.393  26.937  1.00  0.00     0.198 A 
ATOM     84  F   UNL A   1      41.297  23.851  28.662  1.00  0.00    -0.203 F 
ATOM     85  F   UNL A   1      43.848  22.917  23.948  1.00  0.00    -0.200 F 
ATOM     86  C   UNL A   1      42.551  22.134  25.752  1.00  0.00     0.200 A 
ATOM     87  F   UNL A   1      41.318  21.391  27.621  1.00  0.00    -0.200 F 
ATOM     88  F   UNL A   1      42.624  20.880  25.284  1.00  0.00    -0.200 F 
ENDBRANCH  54  78
BRANCH  66  89
ATOM     89  C   UNL A   1      45.317  30.098  28.594  1.00  0.00     0.064 A 
ATOM     90  C   UNL A   1      44.250  30.768  27.975  1.00  0.00     0.173 A 
ATOM     91  C   UNL A   1      46.613  30.421  28.173  1.00  0.00     0.173 A 
ATOM     92  F   UNL A   1      42.989  30.580  28.382  1.00  0.00    -0.203 F 
ATOM     93  C   UNL A   1      44.472  31.686  26.947  1.00  0.00     0.198 A 
ATOM     94  C   UNL A   1      46.836  31.364  27.176  1.00  0.00     0.198 A 
ATOM     95  F   UNL A   1      47.673  29.846  28.763  1.00  0.00    -0.203 F 
ATOM     96  F   UNL A   1      43.436  32.300  26.357  1.00  0.00    -0.200 F 
ATOM     97  C   UNL A   1      45.766  31.988  26.553  1.00  0.00     0.200 A 
ATOM     98  F   UNL A   1      48.091  31.686  26.832  1.00  0.00    -0.200 F 
ATOM     99  F   UNL A   1      45.983  32.894  25.591  1.00  0.00    -0.200 F 
ENDBRANCH  66  89
ENDBRANCH  40  41
ENDBRANCH  33  35
ENDBRANCH  32  33
ENDBRANCH  31  32
ENDBRANCH  30  31
ENDBRANCH  29  30
ENDBRANCH  28  29
ENDBRANCH  27  28
ENDBRANCH   1  27
TORSDOF 22
ENDMDL
MODEL 3
REMARK VINA RESULT:     -10.3      4.133     10.152
REMARK SMILES COCCn1cc(NC(=O)N[C@H]2C=C[C@H](C(=O)OCCOCCOCCOC(=O)c3ccc(-c4c5nc(c(-c6c(F)c(F)c(F)c(F)c6F)c6ccc([nH]6)c(-c6c(F)c(F)c(F)c(F)c6F)c6nc(c(-c7c(F)c(F)c(F)c(F)c7F)c7ccc4[nH]7)C=C6)C=C5)cc3)C2)cn1
REMARK SMILES IDX 21 1 20 2 19 3 18 4 16 5 17 6 15 7 12 8 13 9 93 10 14 11
REMARK SMILES IDX 11 12 8 13 9 14 10 16 7 18 5 19 6 20 95 21 94 22 4 23 3 24
REMARK SMILES IDX 2 25 1 26 22 27 23 28 24 29 25 30 26 31 27 32 28 33 29 34
REMARK SMILES IDX 30 35 31 36 92 37 32 38 91 39 33 40 34 41 35 42 85 43 36 44
REMARK SMILES IDX 90 45 84 46 86 47 37 48 89 49 83 50 82 51 38 53 70 54 50 55
REMARK SMILES IDX 69 56 51 57 54 58 68 59 87 60 52 61 53 62 67 64 88 65 55 66
REMARK SMILES IDX 39 67 40 68 48 69 41 70 42 71 46 72 49 73 43 74 44 75 47 76
REMARK SMILES IDX 45 77 71 78 72 79 80 80 73 81 74 82 78 83 81 84 75 85 76 86
REMARK SMILES IDX 79 87 77 88 56 89 57 90 65 91 58 92 59 93 63 94 66 95 60 96
REMARK SMILES IDX 61 97 64 98 62 99
REMARK H PARENT 8 15 11 17 86 52 54 63
REMARK Flexibility Score: inf
ROOT
ATOM      1  O   UNL A   1      34.142  30.179  27.672  1.00  0.00    -0.376 OA
ENDROOT
BRANCH   1   2
ATOM      2  C   UNL A   1      33.436  29.277  26.827  1.00  0.00     0.202 C 
BRANCH   2   3
ATOM      3  C   UNL A   1      33.134  29.687  25.368  1.00  0.00     0.261 C 
BRANCH   3   4
ATOM      4  O   UNL A   1      31.789  29.470  24.862  1.00  0.00    -0.463 OA
BRANCH   4   5
ATOM      5  C   UNL A   1      31.610  28.391  24.054  1.00  0.00     0.312 C 
ATOM      6  O   UNL A   1      32.237  28.215  23.012  1.00  0.00    -0.252 OA
BRANCH   5   7
ATOM      7  C   UNL A   1      30.568  27.363  24.539  1.00  0.00     0.124 C 
ATOM      8  C   UNL A   1      30.906  25.053  25.424  1.00  0.00     0.107 C 
ATOM      9  C   UNL A   1      30.489  25.067  23.982  1.00  0.00    -0.006 C 
ATOM     10  C   UNL A   1      30.793  26.539  25.826  1.00  0.00     0.048 C 
ATOM     11  C   UNL A   1      30.320  26.304  23.501  1.00  0.00    -0.014 C 
BRANCH   8  12
ATOM     12  N   UNL A   1      30.026  24.138  26.129  1.00  0.00    -0.332 N 
ATOM     13  N   UNL A   1      31.373  22.515  27.250  1.00  0.00    -0.305 N 
ATOM     14  C   UNL A   1      30.192  23.085  26.946  1.00  0.00     0.319 C 
ATOM     15  H   UNL A   1      31.443  22.227  28.189  1.00  0.00     0.171 HD
ATOM     16  O   UNL A   1      29.188  22.693  27.552  1.00  0.00    -0.248 OA
ATOM     17  H   UNL A   1      29.077  24.340  25.970  1.00  0.00     0.165 HD
BRANCH  13  18
ATOM     18  C   UNL A   1      32.502  22.255  26.507  1.00  0.00     0.081 A 
ATOM     19  N   UNL A   1      34.598  21.815  25.992  1.00  0.00    -0.268 N 
ATOM     20  C   UNL A   1      33.714  21.861  27.039  1.00  0.00     0.135 A 
ATOM     21  N   UNL A   1      33.960  21.835  24.810  1.00  0.00    -0.179 NA
ATOM     22  C   UNL A   1      32.696  22.146  25.126  1.00  0.00     0.161 A 
BRANCH  19  23
ATOM     23  C   UNL A   1      36.033  21.569  26.042  1.00  0.00     0.172 C 
BRANCH  23  24
ATOM     24  C   UNL A   1      36.690  21.105  24.732  1.00  0.00     0.183 C 
BRANCH  24  25
ATOM     25  O   UNL A   1      38.103  20.921  24.871  1.00  0.00    -0.383 OA
ATOM     26  C   UNL A   1      38.733  21.798  25.803  1.00  0.00     0.194 C 
ENDBRANCH  24  25
ENDBRANCH  23  24
ENDBRANCH  19  23
ENDBRANCH  13  18
ENDBRANCH   8  12
ENDBRANCH   5   7
ENDBRANCH   4   5
ENDBRANCH   3   4
ENDBRANCH   2   3
ENDBRANCH   1   2
BRANCH   1  27
ATOM     27  C   UNL A   1      33.798  31.553  27.660  1.00  0.00     0.188 C 
BRANCH  27  28
ATOM     28  C   UNL A   1      34.855  32.597  28.022  1.00  0.00     0.188 C 
BRANCH  28  29
ATOM     29  O   UNL A   1      34.432  33.933  27.809  1.00  0.00    -0.376 OA
BRANCH  29  30
ATOM     30  C   UNL A   1      33.249  34.288  28.501  1.00  0.00     0.202 C 
BRANCH  30  31
ATOM     31  C   UNL A   1      33.637  35.076  29.728  1.00  0.00     0.261 C 
BRANCH  31  32
ATOM     32  O   UNL A   1      33.594  34.233  30.848  1.00  0.00    -0.460 OA
BRANCH  32  33
ATOM     33  C   UNL A   1      33.592  34.811  32.065  1.00  0.00     0.338 C 
ATOM     34  O   UNL A   1      32.892  35.686  32.520  1.00  0.00    -0.246 OA
BRANCH  33  35
ATOM     35  C   UNL A   1      34.746  34.244  32.740  1.00  0.00     0.060 A 
ATOM     36  C   UNL A   1      35.830  35.112  32.827  1.00  0.00     0.016 A 
ATOM     37  C   UNL A   1      34.847  32.846  32.717  1.00  0.00     0.016 A 
ATOM     38  C   UNL A   1      37.053  34.574  32.560  1.00  0.00     0.010 A 
ATOM     39  C   UNL A   1      36.036  32.334  32.331  1.00  0.00     0.010 A 
ATOM     40  C   UNL A   1      37.101  33.220  32.213  1.00  0.00    -0.014 A 
BRANCH  40  41
ATOM     41  C   UNL A   1      38.379  32.613  32.029  1.00  0.00     0.031 A 
ATOM     42  C   UNL A   1      39.089  32.658  33.319  1.00  0.00     0.074 A 
ATOM     43  C   UNL A   1      38.705  31.981  30.898  1.00  0.00     0.049 A 
ATOM     44  N   UNL A   1      39.845  33.624  33.727  1.00  0.00    -0.248 NA
ATOM     45  C   UNL A   1      38.590  31.795  34.410  1.00  0.00     0.031 C 
ATOM     46  C   UNL A   1      37.870  31.663  29.740  1.00  0.00     0.029 A 
ATOM     47  N   UNL A   1      39.895  31.413  30.603  1.00  0.00    -0.354 N 
ATOM     48  C   UNL A   1      40.146  33.283  35.036  1.00  0.00     0.074 A 
ATOM     49  C   UNL A   1      39.074  32.440  35.474  1.00  0.00     0.031 C 
ATOM     50  C   UNL A   1      38.526  30.772  28.958  1.00  0.00     0.029 A 
ATOM     51  C   UNL A   1      39.860  30.577  29.497  1.00  0.00     0.049 A 
ATOM     52  H   UNL A   1      40.714  31.578  31.127  1.00  0.00     0.167 HD
ATOM     53  C   UNL A   1      41.445  33.295  35.440  1.00  0.00     0.037 A 
ATOM     54  C   UNL A   1      40.871  29.739  29.168  1.00  0.00     0.037 A 
ATOM     55  C   UNL A   1      42.245  34.019  34.472  1.00  0.00     0.049 A 
ATOM     56  C   UNL A   1      42.089  30.248  29.863  1.00  0.00     0.074 A 
ATOM     57  C   UNL A   1      42.327  35.327  34.040  1.00  0.00     0.029 A 
ATOM     58  N   UNL A   1      42.761  33.230  33.471  1.00  0.00    -0.354 N 
ATOM     59  N   UNL A   1      42.645  31.398  29.579  1.00  0.00    -0.248 NA
ATOM     60  C   UNL A   1      42.423  29.714  31.178  1.00  0.00     0.031 C 
ATOM     61  C   UNL A   1      42.693  35.263  32.661  1.00  0.00     0.029 A 
ATOM     62  C   UNL A   1      42.892  33.929  32.302  1.00  0.00     0.049 A 
ATOM     63  H   UNL A   1      43.006  32.283  33.583  1.00  0.00     0.167 HD
ATOM     64  C   UNL A   1      43.035  31.919  30.806  1.00  0.00     0.074 A 
ATOM     65  C   UNL A   1      43.016  30.783  31.721  1.00  0.00     0.031 C 
ATOM     66  C   UNL A   1      43.020  33.271  31.016  1.00  0.00     0.037 A 
BRANCH  53  67
ATOM     67  C   UNL A   1      42.066  32.234  36.333  1.00  0.00     0.064 A 
ATOM     68  C   UNL A   1      42.779  32.672  37.466  1.00  0.00     0.173 A 
ATOM     69  C   UNL A   1      42.255  30.870  36.002  1.00  0.00     0.173 A 
ATOM     70  F   UNL A   1      42.679  33.944  37.882  1.00  0.00    -0.203 F 
ATOM     71  C   UNL A   1      43.676  31.842  38.145  1.00  0.00     0.198 A 
ATOM     72  C   UNL A   1      43.119  30.036  36.705  1.00  0.00     0.198 A 
ATOM     73  F   UNL A   1      41.707  30.284  34.935  1.00  0.00    -0.203 F 
ATOM     74  F   UNL A   1      44.417  32.342  39.141  1.00  0.00    -0.200 F 
ATOM     75  C   UNL A   1      43.854  30.528  37.756  1.00  0.00     0.200 A 
ATOM     76  F   UNL A   1      43.286  28.770  36.293  1.00  0.00    -0.200 F 
ATOM     77  F   UNL A   1      44.758  29.749  38.363  1.00  0.00    -0.200 F 
ENDBRANCH  53  67
BRANCH  54  78
ATOM     78  C   UNL A   1      40.776  28.382  28.593  1.00  0.00     0.064 A 
ATOM     79  C   UNL A   1      40.038  27.375  29.231  1.00  0.00     0.173 A 
ATOM     80  C   UNL A   1      41.184  28.123  27.270  1.00  0.00     0.173 A 
ATOM     81  F   UNL A   1      39.572  27.568  30.474  1.00  0.00    -0.203 F 
ATOM     82  C   UNL A   1      39.708  26.184  28.576  1.00  0.00     0.198 A 
ATOM     83  C   UNL A   1      40.858  26.933  26.618  1.00  0.00     0.198 A 
ATOM     84  F   UNL A   1      41.823  29.058  26.552  1.00  0.00    -0.203 F 
ATOM     85  F   UNL A   1      38.952  25.268  29.197  1.00  0.00    -0.200 F 
ATOM     86  C   UNL A   1      40.111  25.969  27.268  1.00  0.00     0.200 A 
ATOM     87  F   UNL A   1      41.217  26.756  25.339  1.00  0.00    -0.200 F 
ATOM     88  F   UNL A   1      39.743  24.854  26.621  1.00  0.00    -0.200 F 
ENDBRANCH  54  78
BRANCH  66  89
ATOM     89  C   UNL A   1      42.989  34.147  29.792  1.00  0.00     0.064 A 
ATOM     90  C   UNL A   1      44.106  34.458  29.000  1.00  0.00     0.173 A 
ATOM     91  C   UNL A   1      41.742  34.615  29.359  1.00  0.00     0.173 A 
ATOM     92  F   UNL A   1      45.318  33.974  29.299  1.00  0.00    -0.203 F 
ATOM     93  C   UNL A   1      43.983  35.242  27.852  1.00  0.00     0.198 A 
ATOM     94  C   UNL A   1      41.614  35.363  28.194  1.00  0.00     0.198 A 
ATOM     95  F   UNL A   1      40.633  34.307  30.051  1.00  0.00    -0.203 F 
ATOM     96  F   UNL A   1      45.068  35.542  27.123  1.00  0.00    -0.200 F 
ATOM     97  C   UNL A   1      42.736  35.688  27.447  1.00  0.00     0.200 A 
ATOM     98  F   UNL A   1      40.400  35.751  27.782  1.00  0.00    -0.200 F 
ATOM     99  F   UNL A   1      42.610  36.412  26.327  1.00  0.00    -0.200 F 
ENDBRANCH  66  89
ENDBRANCH  40  41
ENDBRANCH  33  35
ENDBRANCH  32  33
ENDBRANCH  31  32
ENDBRANCH  30  31
ENDBRANCH  29  30
ENDBRANCH  28  29
ENDBRANCH  27  28
ENDBRANCH   1  27
TORSDOF 22
ENDMDL
