MODEL 1
REMARK VINA RESULT:     -11.1      0.000      0.000
REMARK SMILES CC(C)(C)[N@H+](CC(=O)OCCOCCOCCOC(=O)c1ccc(-c2c3nc(c(-c4c(F)c(F)c(F)c(F)c4F)c4ccc([nH]4)c(-c4c(F)c(F)c(F)c(F)c4F)c4nc(c(-c5c(F)c(F)c(F)c(F)c5F)c5ccc2[nH]5)C=C4)C=C3)cc1)C[C@H]1Cc2cc(F)ccc2O1
REMARK SMILES IDX 13 1 12 2 11 3 10 4 9 5 7 6 8 7 6 8 5 9 2 11 1 12 3 13 4 14
REMARK SMILES IDX 84 15 85 16 86 17 94 18 87 19 93 20 88 21 92 22 89 23 91 24
REMARK SMILES IDX 90 25 14 26 15 27 16 28 17 29 18 30 19 31 20 32 21 33 22 34
REMARK SMILES IDX 83 35 23 36 82 37 24 38 25 39 26 40 76 41 27 42 81 43 75 44
REMARK SMILES IDX 77 45 28 46 80 47 74 48 73 49 29 51 61 52 41 53 60 54 42 55
REMARK SMILES IDX 45 56 59 57 78 58 43 59 44 60 58 62 79 63 46 64 30 65 31 66
REMARK SMILES IDX 39 67 32 68 33 69 37 70 40 71 34 72 35 73 38 74 36 75 62 76
REMARK SMILES IDX 63 77 71 78 64 79 65 80 69 81 72 82 66 83 67 84 70 85 68 86
REMARK SMILES IDX 47 87 48 88 56 89 49 90 50 91 54 92 57 93 51 94 52 95 55 96
REMARK SMILES IDX 53 97
REMARK H PARENT 5 10 77 50 45 61
REMARK Flexibility Score: inf
ROOT
ATOM      1  C   UNL A   1      31.240  28.117  23.111  1.00  0.00     0.188 C 
ENDROOT
BRANCH   1   2
ATOM      2  O   UNL A   1      30.569  26.905  23.420  1.00  0.00    -0.376 OA
BRANCH   2   3
ATOM      3  C   UNL A   1      30.286  26.665  24.801  1.00  0.00     0.202 C 
BRANCH   3   4
ATOM      4  C   UNL A   1      30.369  25.203  25.263  1.00  0.00     0.261 C 
BRANCH   4   5
ATOM      5  O   UNL A   1      30.896  25.078  26.603  1.00  0.00    -0.459 OA
BRANCH   5   6
ATOM      6  C   UNL A   1      31.774  24.058  26.799  1.00  0.00     0.361 C 
ATOM      7  O   UNL A   1      31.525  23.056  27.466  1.00  0.00    -0.245 OA
BRANCH   6   8
ATOM      8  C   UNL A   1      33.064  24.181  25.982  1.00  0.00     0.387 C 
BRANCH   8   9
ATOM      9  N   UNL A   1      33.438  23.054  25.071  1.00  0.00    -0.318 N 
ATOM     10  H   UNL A   1      32.608  22.495  24.870  1.00  0.00     0.349 HD
BRANCH   9  11
ATOM     11  C   UNL A   1      33.802  23.461  23.669  1.00  0.00     0.090 C 
ATOM     12  C   UNL A   1      33.645  24.968  23.354  1.00  0.00     0.078 C 
ATOM     13  C   UNL A   1      32.886  22.654  22.716  1.00  0.00     0.078 C 
ATOM     14  C   UNL A   1      35.242  23.117  23.225  1.00  0.00     0.078 C 
ENDBRANCH   9  11
BRANCH   9  15
ATOM     15  C   UNL A   1      34.419  22.166  25.791  1.00  0.00     0.309 C 
BRANCH  15  16
ATOM     16  C   UNL A   1      34.109  20.644  25.741  1.00  0.00     0.232 C 
ATOM     17  C   UNL A   1      32.652  20.253  25.444  1.00  0.00     0.090 C 
ATOM     18  O   UNL A   1      34.855  19.966  24.674  1.00  0.00    -0.484 OA
ATOM     19  C   UNL A   1      32.926  18.824  25.141  1.00  0.00     0.001 A 
ATOM     20  C   UNL A   1      34.211  18.745  24.625  1.00  0.00     0.123 A 
ATOM     21  C   UNL A   1      32.187  17.683  25.378  1.00  0.00     0.047 A 
ATOM     22  C   UNL A   1      34.782  17.544  24.254  1.00  0.00     0.050 A 
ATOM     23  C   UNL A   1      32.793  16.457  25.104  1.00  0.00     0.123 A 
ATOM     24  C   UNL A   1      34.072  16.377  24.540  1.00  0.00     0.043 A 
ATOM     25  F   UNL A   1      32.149  15.324  25.419  1.00  0.00    -0.207 F 
ENDBRANCH  15  16
ENDBRANCH   9  15
ENDBRANCH   8   9
ENDBRANCH   6   8
ENDBRANCH   5   6
ENDBRANCH   4   5
ENDBRANCH   3   4
ENDBRANCH   2   3
ENDBRANCH   1   2
BRANCH   1  26
ATOM     26  C   UNL A   1      32.577  28.395  23.814  1.00  0.00     0.188 C 
BRANCH  26  27
ATOM     27  O   UNL A   1      32.623  29.561  24.625  1.00  0.00    -0.376 OA
BRANCH  27  28
ATOM     28  C   UNL A   1      31.341  30.071  24.999  1.00  0.00     0.202 C 
BRANCH  28  29
ATOM     29  C   UNL A   1      31.416  31.120  26.129  1.00  0.00     0.261 C 
BRANCH  29  30
ATOM     30  O   UNL A   1      32.472  30.877  27.089  1.00  0.00    -0.460 OA
BRANCH  30  31
ATOM     31  C   UNL A   1      33.246  31.964  27.318  1.00  0.00     0.338 C 
ATOM     32  O   UNL A   1      32.860  33.110  27.259  1.00  0.00    -0.246 OA
BRANCH  31  33
ATOM     33  C   UNL A   1      34.578  31.573  27.846  1.00  0.00     0.060 A 
ATOM     34  C   UNL A   1      34.766  30.240  28.225  1.00  0.00     0.016 A 
ATOM     35  C   UNL A   1      35.592  32.499  28.071  1.00  0.00     0.016 A 
ATOM     36  C   UNL A   1      35.913  29.844  28.914  1.00  0.00     0.010 A 
ATOM     37  C   UNL A   1      36.770  32.090  28.725  1.00  0.00     0.010 A 
ATOM     38  C   UNL A   1      36.930  30.767  29.185  1.00  0.00    -0.014 A 
BRANCH  38  39
ATOM     39  C   UNL A   1      38.113  30.360  29.998  1.00  0.00     0.031 A 
ATOM     40  C   UNL A   1      39.145  29.422  29.423  1.00  0.00     0.074 A 
ATOM     41  C   UNL A   1      38.308  30.854  31.237  1.00  0.00     0.049 A 
ATOM     42  N   UNL A   1      40.174  28.855  30.006  1.00  0.00    -0.248 NA
ATOM     43  C   UNL A   1      38.999  29.079  28.001  1.00  0.00     0.031 C 
ATOM     44  C   UNL A   1      37.446  31.825  31.906  1.00  0.00     0.029 A 
ATOM     45  N   UNL A   1      39.303  30.605  32.155  1.00  0.00    -0.354 N 
ATOM     46  C   UNL A   1      40.774  28.062  29.036  1.00  0.00     0.074 A 
ATOM     47  C   UNL A   1      39.990  28.216  27.828  1.00  0.00     0.031 C 
ATOM     48  C   UNL A   1      37.951  32.100  33.120  1.00  0.00     0.029 A 
ATOM     49  C   UNL A   1      39.137  31.275  33.342  1.00  0.00     0.049 A 
ATOM     50  H   UNL A   1      40.061  30.004  31.977  1.00  0.00     0.167 HD
ATOM     51  C   UNL A   1      41.876  27.279  29.140  1.00  0.00     0.037 A 
ATOM     52  C   UNL A   1      39.833  31.210  34.494  1.00  0.00     0.037 A 
ATOM     53  C   UNL A   1      42.686  27.146  30.325  1.00  0.00     0.049 A 
ATOM     54  C   UNL A   1      41.017  30.287  34.604  1.00  0.00     0.074 A 
ATOM     55  C   UNL A   1      43.819  26.372  30.516  1.00  0.00     0.029 A 
ATOM     56  N   UNL A   1      42.457  27.812  31.520  1.00  0.00    -0.354 N 
ATOM     57  N   UNL A   1      41.545  29.502  33.698  1.00  0.00    -0.248 NA
ATOM     58  C   UNL A   1      41.696  30.235  35.908  1.00  0.00     0.031 C 
ATOM     59  C   UNL A   1      44.252  26.536  31.837  1.00  0.00     0.029 A 
ATOM     60  C   UNL A   1      43.419  27.454  32.455  1.00  0.00     0.049 A 
ATOM     61  H   UNL A   1      41.721  28.445  31.681  1.00  0.00     0.167 HD
ATOM     62  C   UNL A   1      42.628  28.885  34.310  1.00  0.00     0.074 A 
ATOM     63  C   UNL A   1      42.694  29.400  35.662  1.00  0.00     0.031 C 
ATOM     64  C   UNL A   1      43.488  27.971  33.797  1.00  0.00     0.037 A 
BRANCH  51  65
ATOM     65  C   UNL A   1      42.260  26.461  27.940  1.00  0.00     0.064 A 
ATOM     66  C   UNL A   1      41.676  25.214  27.673  1.00  0.00     0.173 A 
ATOM     67  C   UNL A   1      43.197  26.957  27.019  1.00  0.00     0.173 A 
ATOM     68  F   UNL A   1      40.784  24.690  28.526  1.00  0.00    -0.203 F 
ATOM     69  C   UNL A   1      42.036  24.482  26.543  1.00  0.00     0.198 A 
ATOM     70  C   UNL A   1      43.532  26.237  25.877  1.00  0.00     0.198 A 
ATOM     71  F   UNL A   1      43.778  28.149  27.224  1.00  0.00    -0.203 F 
ATOM     72  F   UNL A   1      41.499  23.273  26.330  1.00  0.00    -0.200 F 
ATOM     73  C   UNL A   1      42.957  24.998  25.643  1.00  0.00     0.200 A 
ATOM     74  F   UNL A   1      44.413  26.743  25.001  1.00  0.00    -0.200 F 
ATOM     75  F   UNL A   1      43.296  24.296  24.552  1.00  0.00    -0.200 F 
ENDBRANCH  51  65
BRANCH  52  76
ATOM     76  C   UNL A   1      39.410  32.026  35.663  1.00  0.00     0.064 A 
ATOM     77  C   UNL A   1      38.452  31.550  36.569  1.00  0.00     0.173 A 
ATOM     78  C   UNL A   1      39.935  33.308  35.882  1.00  0.00     0.173 A 
ATOM     79  F   UNL A   1      37.897  30.343  36.384  1.00  0.00    -0.203 F 
ATOM     80  C   UNL A   1      38.025  32.331  37.641  1.00  0.00     0.198 A 
ATOM     81  C   UNL A   1      39.529  34.076  36.971  1.00  0.00     0.198 A 
ATOM     82  F   UNL A   1      40.849  33.813  35.039  1.00  0.00    -0.203 F 
ATOM     83  F   UNL A   1      37.071  31.874  38.462  1.00  0.00    -0.200 F 
ATOM     84  C   UNL A   1      38.569  33.591  37.845  1.00  0.00     0.200 A 
ATOM     85  F   UNL A   1      40.066  35.288  37.169  1.00  0.00    -0.200 F 
ATOM     86  F   UNL A   1      38.159  34.341  38.876  1.00  0.00    -0.200 F 
ENDBRANCH  52  76
BRANCH  64  87
ATOM     87  C   UNL A   1      44.606  27.503  34.686  1.00  0.00     0.064 A 
ATOM     88  C   UNL A   1      45.803  28.225  34.812  1.00  0.00     0.173 A 
ATOM     89  C   UNL A   1      44.476  26.317  35.426  1.00  0.00     0.173 A 
ATOM     90  F   UNL A   1      45.985  29.356  34.116  1.00  0.00    -0.203 F 
ATOM     91  C   UNL A   1      46.841  27.755  35.614  1.00  0.00     0.198 A 
ATOM     92  C   UNL A   1      45.504  25.867  36.250  1.00  0.00     0.198 A 
ATOM     93  F   UNL A   1      43.350  25.592  35.348  1.00  0.00    -0.203 F 
ATOM     94  F   UNL A   1      47.998  28.431  35.672  1.00  0.00    -0.200 F 
ATOM     95  C   UNL A   1      46.690  26.581  36.336  1.00  0.00     0.200 A 
ATOM     96  F   UNL A   1      45.351  24.738  36.955  1.00  0.00    -0.200 F 
ATOM     97  F   UNL A   1      47.692  26.130  37.103  1.00  0.00    -0.200 F 
ENDBRANCH  64  87
ENDBRANCH  38  39
ENDBRANCH  31  33
ENDBRANCH  30  31
ENDBRANCH  29  30
ENDBRANCH  28  29
ENDBRANCH  27  28
ENDBRANCH  26  27
ENDBRANCH   1  26
TORSDOF 21
ENDMDL
MODEL 2
REMARK VINA RESULT:     -10.8      3.011      8.934
REMARK SMILES CC(C)(C)[N@H+](CC(=O)OCCOCCOCCOC(=O)c1ccc(-c2c3nc(c(-c4c(F)c(F)c(F)c(F)c4F)c4ccc([nH]4)c(-c4c(F)c(F)c(F)c(F)c4F)c4nc(c(-c5c(F)c(F)c(F)c(F)c5F)c5ccc2[nH]5)C=C4)C=C3)cc1)C[C@H]1Cc2cc(F)ccc2O1
REMARK SMILES IDX 13 1 12 2 11 3 10 4 9 5 7 6 8 7 6 8 5 9 2 11 1 12 3 13 4 14
REMARK SMILES IDX 84 15 85 16 86 17 94 18 87 19 93 20 88 21 92 22 89 23 91 24
REMARK SMILES IDX 90 25 14 26 15 27 16 28 17 29 18 30 19 31 20 32 21 33 22 34
REMARK SMILES IDX 83 35 23 36 82 37 24 38 25 39 26 40 76 41 27 42 81 43 75 44
REMARK SMILES IDX 77 45 28 46 80 47 74 48 73 49 29 51 61 52 41 53 60 54 42 55
REMARK SMILES IDX 45 56 59 57 78 58 43 59 44 60 58 62 79 63 46 64 30 65 31 66
REMARK SMILES IDX 39 67 32 68 33 69 37 70 40 71 34 72 35 73 38 74 36 75 62 76
REMARK SMILES IDX 63 77 71 78 64 79 65 80 69 81 72 82 66 83 67 84 70 85 68 86
REMARK SMILES IDX 47 87 48 88 56 89 49 90 50 91 54 92 57 93 51 94 52 95 55 96
REMARK SMILES IDX 53 97
REMARK H PARENT 5 10 77 50 45 61
REMARK Flexibility Score: inf
ROOT
ATOM      1  C   UNL A   1      34.552  31.421  28.093  1.00  0.00     0.188 C 
ENDROOT
BRANCH   1   2
ATOM      2  O   UNL A   1      33.301  31.084  27.511  1.00  0.00    -0.376 OA
BRANCH   2   3
ATOM      3  C   UNL A   1      33.312  30.040  26.535  1.00  0.00     0.202 C 
BRANCH   3   4
ATOM      4  C   UNL A   1      33.633  28.632  27.056  1.00  0.00     0.261 C 
BRANCH   4   5
ATOM      5  O   UNL A   1      33.187  27.596  26.152  1.00  0.00    -0.459 OA
BRANCH   5   6
ATOM      6  C   UNL A   1      32.168  26.818  26.605  1.00  0.00     0.361 C 
ATOM      7  O   UNL A   1      31.295  27.210  27.376  1.00  0.00    -0.245 OA
BRANCH   6   8
ATOM      8  C   UNL A   1      32.099  25.435  25.948  1.00  0.00     0.387 C 
BRANCH   8   9
ATOM      9  N   UNL A   1      31.879  25.361  24.469  1.00  0.00    -0.318 N 
ATOM     10  H   UNL A   1      32.393  26.118  24.016  1.00  0.00     0.349 HD
BRANCH   9  11
ATOM     11  C   UNL A   1      32.525  24.186  23.787  1.00  0.00     0.090 C 
ATOM     12  C   UNL A   1      33.760  23.596  24.509  1.00  0.00     0.078 C 
ATOM     13  C   UNL A   1      32.953  24.666  22.378  1.00  0.00     0.078 C 
ATOM     14  C   UNL A   1      31.604  22.972  23.532  1.00  0.00     0.078 C 
ENDBRANCH   9  11
BRANCH   9  15
ATOM     15  C   UNL A   1      30.415  25.579  24.196  1.00  0.00     0.309 C 
BRANCH  15  16
ATOM     16  C   UNL A   1      30.011  27.032  23.817  1.00  0.00     0.232 C 
ATOM     17  C   UNL A   1      30.626  27.597  22.526  1.00  0.00     0.090 C 
ATOM     18  O   UNL A   1      28.569  27.155  23.574  1.00  0.00    -0.484 OA
ATOM     19  C   UNL A   1      29.709  28.760  22.405  1.00  0.00     0.001 A 
ATOM     20  C   UNL A   1      28.498  28.399  22.977  1.00  0.00     0.123 A 
ATOM     21  C   UNL A   1      29.918  30.043  21.941  1.00  0.00     0.047 A 
ATOM     22  C   UNL A   1      27.427  29.268  23.042  1.00  0.00     0.050 A 
ATOM     23  C   UNL A   1      28.877  30.959  22.096  1.00  0.00     0.123 A 
ATOM     24  C   UNL A   1      27.639  30.584  22.631  1.00  0.00     0.043 A 
ATOM     25  F   UNL A   1      29.078  32.240  21.756  1.00  0.00    -0.207 F 
ENDBRANCH  15  16
ENDBRANCH   9  15
ENDBRANCH   8   9
ENDBRANCH   6   8
ENDBRANCH   5   6
ENDBRANCH   4   5
ENDBRANCH   3   4
ENDBRANCH   2   3
ENDBRANCH   1   2
BRANCH   1  26
ATOM     26  C   UNL A   1      34.899  32.910  28.232  1.00  0.00     0.188 C 
BRANCH  26  27
ATOM     27  O   UNL A   1      34.073  33.663  29.110  1.00  0.00    -0.376 OA
BRANCH  27  28
ATOM     28  C   UNL A   1      33.506  34.837  28.525  1.00  0.00     0.202 C 
BRANCH  28  29
ATOM     29  C   UNL A   1      32.992  35.845  29.575  1.00  0.00     0.261 C 
BRANCH  29  30
ATOM     30  O   UNL A   1      32.297  35.234  30.688  1.00  0.00    -0.460 OA
BRANCH  30  31
ATOM     31  C   UNL A   1      32.627  35.775  31.885  1.00  0.00     0.338 C 
ATOM     32  O   UNL A   1      31.991  36.635  32.451  1.00  0.00    -0.246 OA
BRANCH  31  33
ATOM     33  C   UNL A   1      33.757  35.043  32.511  1.00  0.00     0.060 A 
ATOM     34  C   UNL A   1      35.014  35.657  32.514  1.00  0.00     0.016 A 
ATOM     35  C   UNL A   1      33.629  33.742  32.991  1.00  0.00     0.016 A 
ATOM     36  C   UNL A   1      36.157  34.953  32.897  1.00  0.00     0.010 A 
ATOM     37  C   UNL A   1      34.775  33.047  33.420  1.00  0.00     0.010 A 
ATOM     38  C   UNL A   1      36.056  33.631  33.345  1.00  0.00    -0.014 A 
BRANCH  38  39
ATOM     39  C   UNL A   1      37.289  32.855  33.669  1.00  0.00     0.031 A 
ATOM     40  C   UNL A   1      37.998  33.066  34.984  1.00  0.00     0.074 A 
ATOM     41  C   UNL A   1      37.767  31.923  32.820  1.00  0.00     0.049 A 
ATOM     42  N   UNL A   1      39.144  32.583  35.401  1.00  0.00    -0.248 NA
ATOM     43  C   UNL A   1      37.324  33.935  35.960  1.00  0.00     0.031 C 
ATOM     44  C   UNL A   1      37.157  31.547  31.547  1.00  0.00     0.029 A 
ATOM     45  N   UNL A   1      38.879  31.117  32.907  1.00  0.00    -0.354 N 
ATOM     46  C   UNL A   1      39.346  33.117  36.667  1.00  0.00     0.074 A 
ATOM     47  C   UNL A   1      38.207  33.967  36.949  1.00  0.00     0.031 C 
ATOM     48  C   UNL A   1      37.892  30.579  30.976  1.00  0.00     0.029 A 
ATOM     49  C   UNL A   1      39.062  30.311  31.810  1.00  0.00     0.049 A 
ATOM     50  H   UNL A   1      39.486  31.119  33.682  1.00  0.00     0.167 HD
ATOM     51  C   UNL A   1      40.382  32.919  37.519  1.00  0.00     0.037 A 
ATOM     52  C   UNL A   1      40.071  29.478  31.489  1.00  0.00     0.037 A 
ATOM     53  C   UNL A   1      41.503  32.048  37.267  1.00  0.00     0.049 A 
ATOM     54  C   UNL A   1      41.241  29.321  32.424  1.00  0.00     0.074 A 
ATOM     55  C   UNL A   1      42.598  31.791  38.076  1.00  0.00     0.029 A 
ATOM     56  N   UNL A   1      41.669  31.282  36.123  1.00  0.00    -0.354 N 
ATOM     57  N   UNL A   1      41.447  29.870  33.594  1.00  0.00    -0.248 NA
ATOM     58  C   UNL A   1      42.325  28.433  31.981  1.00  0.00     0.031 C 
ATOM     59  C   UNL A   1      43.446  30.903  37.406  1.00  0.00     0.029 A 
ATOM     60  C   UNL A   1      42.855  30.564  36.200  1.00  0.00     0.049 A 
ATOM     61  H   UNL A   1      41.039  31.251  35.367  1.00  0.00     0.167 HD
ATOM     62  C   UNL A   1      42.668  29.377  34.039  1.00  0.00     0.074 A 
ATOM     63  C   UNL A   1      43.148  28.468  33.019  1.00  0.00     0.031 C 
ATOM     64  C   UNL A   1      43.329  29.655  35.188  1.00  0.00     0.037 A 
BRANCH  51  65
ATOM     65  C   UNL A   1      40.379  33.694  38.806  1.00  0.00     0.064 A 
ATOM     66  C   UNL A   1      41.127  34.869  38.967  1.00  0.00     0.173 A 
ATOM     67  C   UNL A   1      39.578  33.273  39.880  1.00  0.00     0.173 A 
ATOM     68  F   UNL A   1      41.917  35.308  37.976  1.00  0.00    -0.203 F 
ATOM     69  C   UNL A   1      41.093  35.580  40.166  1.00  0.00     0.198 A 
ATOM     70  C   UNL A   1      39.524  34.002  41.064  1.00  0.00     0.198 A 
ATOM     71  F   UNL A   1      38.836  32.160  39.773  1.00  0.00    -0.203 F 
ATOM     72  F   UNL A   1      41.850  36.676  40.314  1.00  0.00    -0.200 F 
ATOM     73  C   UNL A   1      40.286  35.150  41.209  1.00  0.00     0.200 A 
ATOM     74  F   UNL A   1      38.732  33.592  42.066  1.00  0.00    -0.200 F 
ATOM     75  F   UNL A   1      40.249  35.840  42.358  1.00  0.00    -0.200 F 
ENDBRANCH  51  65
BRANCH  52  76
ATOM     76  C   UNL A   1      40.042  28.741  30.198  1.00  0.00     0.064 A 
ATOM     77  C   UNL A   1      39.451  27.474  30.100  1.00  0.00     0.173 A 
ATOM     78  C   UNL A   1      40.630  29.278  29.042  1.00  0.00     0.173 A 
ATOM     79  F   UNL A   1      38.905  26.905  31.185  1.00  0.00    -0.203 F 
ATOM     80  C   UNL A   1      39.461  26.766  28.901  1.00  0.00     0.198 A 
ATOM     81  C   UNL A   1      40.612  28.582  27.836  1.00  0.00     0.198 A 
ATOM     82  F   UNL A   1      41.216  30.484  29.085  1.00  0.00    -0.203 F 
ATOM     83  F   UNL A   1      38.934  25.535  28.847  1.00  0.00    -0.200 F 
ATOM     84  C   UNL A   1      40.035  27.323  27.768  1.00  0.00     0.200 A 
ATOM     85  F   UNL A   1      41.159  29.129  26.742  1.00  0.00    -0.200 F 
ATOM     86  F   UNL A   1      40.043  26.643  26.614  1.00  0.00    -0.200 F 
ENDBRANCH  52  76
BRANCH  64  87
ATOM     87  C   UNL A   1      44.625  28.933  35.428  1.00  0.00     0.064 A 
ATOM     88  C   UNL A   1      45.857  29.467  35.021  1.00  0.00     0.173 A 
ATOM     89  C   UNL A   1      44.635  27.688  36.078  1.00  0.00     0.173 A 
ATOM     90  F   UNL A   1      45.903  30.645  34.382  1.00  0.00    -0.203 F 
ATOM     91  C   UNL A   1      47.044  28.765  35.221  1.00  0.00     0.198 A 
ATOM     92  C   UNL A   1      45.827  27.004  36.303  1.00  0.00     0.198 A 
ATOM     93  F   UNL A   1      43.487  27.134  36.495  1.00  0.00    -0.203 F 
ATOM     94  F   UNL A   1      48.202  29.269  34.769  1.00  0.00    -0.200 F 
ATOM     95  C   UNL A   1      47.029  27.538  35.865  1.00  0.00     0.200 A 
ATOM     96  F   UNL A   1      45.810  25.823  36.936  1.00  0.00    -0.200 F 
ATOM     97  F   UNL A   1      48.171  26.863  36.052  1.00  0.00    -0.200 F 
ENDBRANCH  64  87
ENDBRANCH  38  39
ENDBRANCH  31  33
ENDBRANCH  30  31
ENDBRANCH  29  30
ENDBRANCH  28  29
ENDBRANCH  27  28
ENDBRANCH  26  27
ENDBRANCH   1  26
TORSDOF 21
ENDMDL
MODEL 3
REMARK VINA RESULT:     -10.4      1.921      7.669
REMARK SMILES CC(C)(C)[N@H+](CC(=O)OCCOCCOCCOC(=O)c1ccc(-c2c3nc(c(-c4c(F)c(F)c(F)c(F)c4F)c4ccc([nH]4)c(-c4c(F)c(F)c(F)c(F)c4F)c4nc(c(-c5c(F)c(F)c(F)c(F)c5F)c5ccc2[nH]5)C=C4)C=C3)cc1)C[C@H]1Cc2cc(F)ccc2O1
REMARK SMILES IDX 13 1 12 2 11 3 10 4 9 5 7 6 8 7 6 8 5 9 2 11 1 12 3 13 4 14
REMARK SMILES IDX 84 15 85 16 86 17 94 18 87 19 93 20 88 21 92 22 89 23 91 24
REMARK SMILES IDX 90 25 14 26 15 27 16 28 17 29 18 30 19 31 20 32 21 33 22 34
REMARK SMILES IDX 83 35 23 36 82 37 24 38 25 39 26 40 76 41 27 42 81 43 75 44
REMARK SMILES IDX 77 45 28 46 80 47 74 48 73 49 29 51 61 52 41 53 60 54 42 55
REMARK SMILES IDX 45 56 59 57 78 58 43 59 44 60 58 62 79 63 46 64 30 65 31 66
REMARK SMILES IDX 39 67 32 68 33 69 37 70 40 71 34 72 35 73 38 74 36 75 62 76
REMARK SMILES IDX 63 77 71 78 64 79 65 80 69 81 72 82 66 83 67 84 70 85 68 86
REMARK SMILES IDX 47 87 48 88 56 89 49 90 50 91 54 92 57 93 51 94 52 95 55 96
REMARK SMILES IDX 53 97
REMARK H PARENT 5 10 77 50 45 61
REMARK Flexibility Score: inf
ROOT
ATOM      1  C   UNL A   1      33.861  27.680  24.158  1.00  0.00     0.188 C 
ENDROOT
BRANCH   1   2
ATOM      2  O   UNL A   1      33.956  26.619  23.219  1.00  0.00    -0.376 OA
BRANCH   2   3
ATOM      3  C   UNL A   1      33.275  26.802  21.976  1.00  0.00     0.202 C 
BRANCH   3   4
ATOM      4  C   UNL A   1      32.081  25.872  21.716  1.00  0.00     0.261 C 
BRANCH   4   5
ATOM      5  O   UNL A   1      32.233  24.588  22.363  1.00  0.00    -0.459 OA
BRANCH   5   6
ATOM      6  C   UNL A   1      31.321  24.304  23.330  1.00  0.00     0.361 C 
ATOM      7  O   UNL A   1      30.267  23.705  23.125  1.00  0.00    -0.245 OA
BRANCH   6   8
ATOM      8  C   UNL A   1      31.784  24.655  24.748  1.00  0.00     0.387 C 
BRANCH   8   9
ATOM      9  N   UNL A   1      32.737  23.727  25.434  1.00  0.00    -0.318 N 
ATOM     10  H   UNL A   1      33.167  24.212  26.222  1.00  0.00     0.349 HD
BRANCH   9  11
ATOM     11  C   UNL A   1      32.095  22.584  26.172  1.00  0.00     0.090 C 
ATOM     12  C   UNL A   1      30.665  22.854  26.698  1.00  0.00     0.078 C 
ATOM     13  C   UNL A   1      33.015  22.254  27.373  1.00  0.00     0.078 C 
ATOM     14  C   UNL A   1      31.977  21.261  25.383  1.00  0.00     0.078 C 
ENDBRANCH   9  11
BRANCH   9  15
ATOM     15  C   UNL A   1      33.834  23.373  24.466  1.00  0.00     0.309 C 
BRANCH  15  16
ATOM     16  C   UNL A   1      35.196  22.985  25.107  1.00  0.00     0.232 C 
ATOM     17  C   UNL A   1      36.114  22.082  24.267  1.00  0.00     0.090 C 
ATOM     18  O   UNL A   1      36.038  24.160  25.363  1.00  0.00    -0.484 OA
ATOM     19  C   UNL A   1      37.342  22.300  25.076  1.00  0.00     0.001 A 
ATOM     20  C   UNL A   1      37.258  23.570  25.629  1.00  0.00     0.123 A 
ATOM     21  C   UNL A   1      38.386  21.457  25.395  1.00  0.00     0.047 A 
ATOM     22  C   UNL A   1      38.240  24.079  26.455  1.00  0.00     0.050 A 
ATOM     23  C   UNL A   1      39.331  21.922  26.310  1.00  0.00     0.123 A 
ATOM     24  C   UNL A   1      39.273  23.220  26.833  1.00  0.00     0.043 A 
ATOM     25  F   UNL A   1      40.301  21.096  26.726  1.00  0.00    -0.207 F 
ENDBRANCH  15  16
ENDBRANCH   9  15
ENDBRANCH   8   9
ENDBRANCH   6   8
ENDBRANCH   5   6
ENDBRANCH   4   5
ENDBRANCH   3   4
ENDBRANCH   2   3
ENDBRANCH   1   2
BRANCH   1  26
ATOM     26  C   UNL A   1      32.539  28.456  24.229  1.00  0.00     0.188 C 
BRANCH  26  27
ATOM     27  O   UNL A   1      32.620  29.778  24.746  1.00  0.00    -0.376 OA
BRANCH  27  28
ATOM     28  C   UNL A   1      31.386  30.288  25.259  1.00  0.00     0.202 C 
BRANCH  28  29
ATOM     29  C   UNL A   1      31.576  31.184  26.502  1.00  0.00     0.261 C 
BRANCH  29  30
ATOM     30  O   UNL A   1      32.734  30.844  27.302  1.00  0.00    -0.460 OA
BRANCH  30  31
ATOM     31  C   UNL A   1      33.602  31.873  27.448  1.00  0.00     0.338 C 
ATOM     32  O   UNL A   1      33.304  33.043  27.365  1.00  0.00    -0.246 OA
BRANCH  31  33
ATOM     33  C   UNL A   1      34.926  31.394  27.919  1.00  0.00     0.060 A 
ATOM     34  C   UNL A   1      35.052  30.042  28.255  1.00  0.00     0.016 A 
ATOM     35  C   UNL A   1      35.998  32.256  28.135  1.00  0.00     0.016 A 
ATOM     36  C   UNL A   1      36.198  29.564  28.893  1.00  0.00     0.010 A 
ATOM     37  C   UNL A   1      37.171  31.764  28.737  1.00  0.00     0.010 A 
ATOM     38  C   UNL A   1      37.272  30.422  29.156  1.00  0.00    -0.014 A 
BRANCH  38  39
ATOM     39  C   UNL A   1      38.456  29.927  29.917  1.00  0.00     0.031 A 
ATOM     40  C   UNL A   1      38.693  30.383  31.335  1.00  0.00     0.074 A 
ATOM     41  C   UNL A   1      39.308  29.034  29.374  1.00  0.00     0.049 A 
ATOM     42  N   UNL A   1      39.722  30.166  32.120  1.00  0.00    -0.248 NA
ATOM     43  C   UNL A   1      37.629  31.187  31.952  1.00  0.00     0.031 C 
ATOM     44  C   UNL A   1      39.177  28.440  28.045  1.00  0.00     0.029 A 
ATOM     45  N   UNL A   1      40.455  28.467  29.880  1.00  0.00    -0.354 N 
ATOM     46  C   UNL A   1      39.447  30.836  33.305  1.00  0.00     0.074 A 
ATOM     47  C   UNL A   1      38.156  31.473  33.135  1.00  0.00     0.031 C 
ATOM     48  C   UNL A   1      40.194  27.586  27.844  1.00  0.00     0.029 A 
ATOM     49  C   UNL A   1      41.084  27.620  29.001  1.00  0.00     0.049 A 
ATOM     50  H   UNL A   1      40.792  28.652  30.786  1.00  0.00     0.167 HD
ATOM     51  C   UNL A   1      40.196  30.914  34.432  1.00  0.00     0.037 A 
ATOM     52  C   UNL A   1      42.262  26.971  29.095  1.00  0.00     0.037 A 
ATOM     53  C   UNL A   1      41.464  30.256  34.628  1.00  0.00     0.049 A 
ATOM     54  C   UNL A   1      43.106  27.123  30.334  1.00  0.00     0.074 A 
ATOM     55  C   UNL A   1      42.290  30.284  35.740  1.00  0.00     0.029 A 
ATOM     56  N   UNL A   1      42.085  29.440  33.695  1.00  0.00    -0.354 N 
ATOM     57  N   UNL A   1      42.861  27.800  31.427  1.00  0.00    -0.248 NA
ATOM     58  C   UNL A   1      44.399  26.423  30.341  1.00  0.00     0.031 C 
ATOM     59  C   UNL A   1      43.430  29.521  35.465  1.00  0.00     0.029 A 
ATOM     60  C   UNL A   1      43.291  28.973  34.201  1.00  0.00     0.049 A 
ATOM     61  H   UNL A   1      41.725  29.225  32.804  1.00  0.00     0.167 HD
ATOM     62  C   UNL A   1      43.952  27.590  32.260  1.00  0.00     0.074 A 
ATOM     63  C   UNL A   1      44.854  26.705  31.553  1.00  0.00     0.031 C 
ATOM     64  C   UNL A   1      44.184  28.088  33.499  1.00  0.00     0.037 A 
BRANCH  51  65
ATOM     65  C   UNL A   1      39.683  31.782  35.546  1.00  0.00     0.064 A 
ATOM     66  C   UNL A   1      40.156  33.087  35.749  1.00  0.00     0.173 A 
ATOM     67  C   UNL A   1      38.671  31.312  36.397  1.00  0.00     0.173 A 
ATOM     68  F   UNL A   1      41.131  33.580  34.971  1.00  0.00    -0.203 F 
ATOM     69  C   UNL A   1      39.651  33.879  36.779  1.00  0.00     0.198 A 
ATOM     70  C   UNL A   1      38.148  32.116  37.405  1.00  0.00     0.198 A 
ATOM     71  F   UNL A   1      38.178  30.073  36.239  1.00  0.00    -0.203 F 
ATOM     72  F   UNL A   1      40.148  35.107  36.982  1.00  0.00    -0.200 F 
ATOM     73  C   UNL A   1      38.643  33.395  37.600  1.00  0.00     0.200 A 
ATOM     74  F   UNL A   1      37.164  31.651  38.189  1.00  0.00    -0.200 F 
ATOM     75  F   UNL A   1      38.154  34.162  38.585  1.00  0.00    -0.200 F 
ENDBRANCH  51  65
BRANCH  52  76
ATOM     76  C   UNL A   1      42.740  26.134  27.963  1.00  0.00     0.064 A 
ATOM     77  C   UNL A   1      43.474  26.694  26.908  1.00  0.00     0.173 A 
ATOM     78  C   UNL A   1      42.447  24.763  27.900  1.00  0.00     0.173 A 
ATOM     79  F   UNL A   1      43.750  28.007  26.908  1.00  0.00    -0.203 F 
ATOM     80  C   UNL A   1      43.885  25.918  25.827  1.00  0.00     0.198 A 
ATOM     81  C   UNL A   1      42.885  23.982  26.833  1.00  0.00     0.198 A 
ATOM     82  F   UNL A   1      41.741  24.181  28.880  1.00  0.00    -0.203 F 
ATOM     83  F   UNL A   1      44.541  26.488  24.807  1.00  0.00    -0.200 F 
ATOM     84  C   UNL A   1      43.596  24.561  25.793  1.00  0.00     0.200 A 
ATOM     85  F   UNL A   1      42.613  22.671  26.810  1.00  0.00    -0.200 F 
ATOM     86  F   UNL A   1      43.993  23.815  24.754  1.00  0.00    -0.200 F 
ENDBRANCH  52  76
BRANCH  64  87
ATOM     87  C   UNL A   1      45.445  27.650  34.191  1.00  0.00     0.064 A 
ATOM     88  C   UNL A   1      46.661  28.327  34.010  1.00  0.00     0.173 A 
ATOM     89  C   UNL A   1      45.435  26.540  35.049  1.00  0.00     0.173 A 
ATOM     90  F   UNL A   1      46.730  29.384  33.189  1.00  0.00    -0.203 F 
ATOM     91  C   UNL A   1      47.827  27.884  34.633  1.00  0.00     0.198 A 
ATOM     92  C   UNL A   1      46.596  26.118  35.693  1.00  0.00     0.198 A 
ATOM     93  F   UNL A   1      44.299  25.860  35.264  1.00  0.00    -0.203 F 
ATOM     94  F   UNL A   1      48.988  28.510  34.398  1.00  0.00    -0.200 F 
ATOM     95  C   UNL A   1      47.793  26.785  35.477  1.00  0.00     0.200 A 
ATOM     96  F   UNL A   1      46.558  25.063  36.518  1.00  0.00    -0.200 F 
ATOM     97  F   UNL A   1      48.916  26.358  36.071  1.00  0.00    -0.200 F 
ENDBRANCH  64  87
ENDBRANCH  38  39
ENDBRANCH  31  33
ENDBRANCH  30  31
ENDBRANCH  29  30
ENDBRANCH  28  29
ENDBRANCH  27  28
ENDBRANCH  26  27
ENDBRANCH   1  26
TORSDOF 21
ENDMDL
