MODEL 1
REMARK VINA RESULT:     -11.2      0.000      0.000
REMARK SMILES Cc1cccc2[nH]cc(C[C@H](NC(=O)OC(C)(C)C)C(=O)OCCOCCOCCOC(=O)c3ccc(-c4c5nc(c(-c6c(F)c(F)c(F)c(F)c6F)c6ccc([nH]6)c(-c6c(F)c(F)c(F)c(F)c6F)c6nc(c(-c7c(F)c(F)c(F)c(F)c7F)c7ccc4[nH]7)C=C6)C=C5)cc3)c12
REMARK SMILES IDX 26 1 25 2 24 3 23 4 22 5 20 6 21 7 11 8 10 9 9 10 1 11 2 12
REMARK SMILES IDX 3 13 97 14 4 15 6 16 5 17 7 18 8 19 12 21 13 22 14 24 15 25
REMARK SMILES IDX 16 26 17 27 18 28 19 29 27 30 28 31 29 32 30 33 31 34 32 35
REMARK SMILES IDX 33 36 34 37 35 38 96 39 36 40 95 41 37 42 38 43 39 44 89 45
REMARK SMILES IDX 40 46 94 47 88 48 90 49 41 50 93 51 87 52 86 53 42 55 74 56
REMARK SMILES IDX 54 57 73 58 55 59 58 60 72 61 91 62 56 63 57 64 71 66 92 67
REMARK SMILES IDX 59 68 43 69 44 70 52 71 45 72 46 73 50 74 53 75 47 76 48 77
REMARK SMILES IDX 51 78 49 79 75 80 76 81 84 82 77 83 78 84 82 85 85 86 79 87
REMARK SMILES IDX 80 88 83 89 81 90 60 91 61 92 69 93 62 94 63 95 67 96 70 97
REMARK SMILES IDX 64 98 65 99 68 100 66 101
REMARK H PARENT 7 20 12 23 90 54 58 65
REMARK Flexibility Score: inf
ROOT
ATOM      1  C   UNL A   1      41.158  20.321  26.182  1.00  0.00     0.188 C 
ENDROOT
BRANCH   1   2
ATOM      2  O   UNL A   1      40.388  21.511  26.086  1.00  0.00    -0.376 OA
BRANCH   2   3
ATOM      3  C   UNL A   1      38.980  21.369  25.936  1.00  0.00     0.202 C 
BRANCH   3   4
ATOM      4  C   UNL A   1      38.153  22.664  25.804  1.00  0.00     0.261 C 
BRANCH   4   5
ATOM      5  O   UNL A   1      36.705  22.482  25.750  1.00  0.00    -0.462 OA
BRANCH   5   6
ATOM      6  C   UNL A   1      36.082  22.958  24.632  1.00  0.00     0.329 C 
ATOM      7  O   UNL A   1      36.610  22.942  23.521  1.00  0.00    -0.250 OA
BRANCH   6   8
ATOM      8  C   UNL A   1      34.672  23.582  24.851  1.00  0.00     0.200 C 
BRANCH   8   9
ATOM      9  C   UNL A   1      33.733  22.564  24.166  1.00  0.00     0.075 C 
BRANCH   9  10
ATOM     10  C   UNL A   1      33.345  21.377  24.984  1.00  0.00    -0.020 A 
ATOM     11  C   UNL A   1      32.130  20.390  22.045  1.00  0.00     0.045 C 
ATOM     12  C   UNL A   1      32.393  19.579  23.285  1.00  0.00    -0.041 A 
ATOM     13  C   UNL A   1      32.181  18.187  23.192  1.00  0.00     0.004 A 
ATOM     14  C   UNL A   1      32.854  20.103  24.525  1.00  0.00     0.006 A 
ATOM     15  C   UNL A   1      32.368  17.341  24.280  1.00  0.00     0.002 A 
ATOM     16  C   UNL A   1      32.971  19.228  25.612  1.00  0.00     0.046 A 
ATOM     17  C   UNL A   1      32.746  17.852  25.518  1.00  0.00     0.027 A 
ATOM     18  N   UNL A   1      33.351  19.969  26.707  1.00  0.00    -0.361 N 
ATOM     19  C   UNL A   1      33.582  21.263  26.342  1.00  0.00     0.087 A 
ATOM     20  H   UNL A   1      33.442  19.616  27.621  1.00  0.00     0.166 HD
ENDBRANCH   9  10
ENDBRANCH   8   9
BRANCH   8  21
ATOM     21  N   UNL A   1      34.354  24.935  24.333  1.00  0.00    -0.308 N 
ATOM     22  C   UNL A   1      33.310  25.780  24.564  1.00  0.00     0.408 C 
ATOM     23  H   UNL A   1      35.023  25.290  23.704  1.00  0.00     0.168 HD
ATOM     24  O   UNL A   1      33.206  26.827  23.913  1.00  0.00    -0.225 OA
BRANCH  22  25
ATOM     25  O   UNL A   1      32.505  25.445  25.579  1.00  0.00    -0.444 OA
BRANCH  25  26
ATOM     26  C   UNL A   1      31.121  25.104  25.303  1.00  0.00     0.106 C 
ATOM     27  C   UNL A   1      30.128  26.280  25.499  1.00  0.00     0.056 C 
ATOM     28  C   UNL A   1      30.787  24.469  23.945  1.00  0.00     0.056 C 
ATOM     29  C   UNL A   1      30.953  23.975  26.294  1.00  0.00     0.056 C 
ENDBRANCH  25  26
ENDBRANCH  22  25
ENDBRANCH   8  21
ENDBRANCH   6   8
ENDBRANCH   5   6
ENDBRANCH   4   5
ENDBRANCH   3   4
ENDBRANCH   2   3
ENDBRANCH   1   2
BRANCH   1  30
ATOM     30  C   UNL A   1      42.663  20.496  26.028  1.00  0.00     0.188 C 
BRANCH  30  31
ATOM     31  O   UNL A   1      42.905  21.650  25.242  1.00  0.00    -0.376 OA
BRANCH  31  32
ATOM     32  C   UNL A   1      44.142  22.282  25.520  1.00  0.00     0.202 C 
BRANCH  32  33
ATOM     33  C   UNL A   1      44.243  23.522  24.648  1.00  0.00     0.261 C 
BRANCH  33  34
ATOM     34  O   UNL A   1      43.957  24.734  25.362  1.00  0.00    -0.460 OA
BRANCH  34  35
ATOM     35  C   UNL A   1      42.774  25.390  25.409  1.00  0.00     0.338 C 
ATOM     36  O   UNL A   1      42.701  26.504  24.892  1.00  0.00    -0.246 OA
BRANCH  35  37
ATOM     37  C   UNL A   1      41.525  24.742  26.055  1.00  0.00     0.060 A 
ATOM     38  C   UNL A   1      40.424  25.617  25.971  1.00  0.00     0.016 A 
ATOM     39  C   UNL A   1      41.846  24.333  27.341  1.00  0.00     0.016 A 
ATOM     40  C   UNL A   1      40.339  26.621  26.896  1.00  0.00     0.010 A 
ATOM     41  C   UNL A   1      41.763  25.281  28.331  1.00  0.00     0.010 A 
ATOM     42  C   UNL A   1      41.162  26.493  28.004  1.00  0.00    -0.014 A 
BRANCH  42  43
ATOM     43  C   UNL A   1      41.306  27.646  28.849  1.00  0.00     0.031 A 
ATOM     44  C   UNL A   1      42.518  28.412  28.507  1.00  0.00     0.074 A 
ATOM     45  C   UNL A   1      40.369  27.911  29.774  1.00  0.00     0.049 A 
ATOM     46  N   UNL A   1      43.549  28.653  29.246  1.00  0.00    -0.248 NA
ATOM     47  C   UNL A   1      42.715  28.710  27.075  1.00  0.00     0.031 C 
ATOM     48  C   UNL A   1      39.090  27.230  29.999  1.00  0.00     0.029 A 
ATOM     49  N   UNL A   1      40.303  28.978  30.611  1.00  0.00    -0.354 N 
ATOM     50  C   UNL A   1      44.432  29.321  28.409  1.00  0.00     0.074 A 
ATOM     51  C   UNL A   1      43.989  29.091  27.062  1.00  0.00     0.031 C 
ATOM     52  C   UNL A   1      38.268  28.045  30.694  1.00  0.00     0.029 A 
ATOM     53  C   UNL A   1      39.004  29.242  31.044  1.00  0.00     0.049 A 
ATOM     54  H   UNL A   1      41.087  29.508  30.883  1.00  0.00     0.167 HD
ATOM     55  C   UNL A   1      45.253  30.289  28.889  1.00  0.00     0.037 A 
ATOM     56  C   UNL A   1      38.604  30.473  31.445  1.00  0.00     0.037 A 
ATOM     57  C   UNL A   1      45.463  30.154  30.305  1.00  0.00     0.049 A 
ATOM     58  C   UNL A   1      39.852  31.219  31.805  1.00  0.00     0.074 A 
ATOM     59  C   UNL A   1      46.016  29.161  31.092  1.00  0.00     0.029 A 
ATOM     60  N   UNL A   1      44.701  30.925  31.149  1.00  0.00    -0.354 N 
ATOM     61  N   UNL A   1      40.627  30.886  32.806  1.00  0.00    -0.248 NA
ATOM     62  C   UNL A   1      40.501  31.989  30.748  1.00  0.00     0.031 C 
ATOM     63  C   UNL A   1      45.194  29.106  32.254  1.00  0.00     0.029 A 
ATOM     64  C   UNL A   1      44.229  30.107  32.148  1.00  0.00     0.049 A 
ATOM     65  H   UNL A   1      44.524  31.889  31.057  1.00  0.00     0.167 HD
ATOM     66  C   UNL A   1      41.923  31.037  32.319  1.00  0.00     0.074 A 
ATOM     67  C   UNL A   1      41.781  31.769  31.065  1.00  0.00     0.031 C 
ATOM     68  C   UNL A   1      42.965  30.307  32.819  1.00  0.00     0.037 A 
BRANCH  55  69
ATOM     69  C   UNL A   1      45.515  31.549  28.116  1.00  0.00     0.064 A 
ATOM     70  C   UNL A   1      44.444  32.385  27.770  1.00  0.00     0.173 A 
ATOM     71  C   UNL A   1      46.749  31.839  27.485  1.00  0.00     0.173 A 
ATOM     72  F   UNL A   1      43.222  32.170  28.277  1.00  0.00    -0.203 F 
ATOM     73  C   UNL A   1      44.594  33.414  26.835  1.00  0.00     0.198 A 
ATOM     74  C   UNL A   1      46.911  32.905  26.611  1.00  0.00     0.198 A 
ATOM     75  F   UNL A   1      47.818  31.041  27.598  1.00  0.00    -0.203 F 
ATOM     76  F   UNL A   1      43.523  34.118  26.448  1.00  0.00    -0.200 F 
ATOM     77  C   UNL A   1      45.827  33.675  26.261  1.00  0.00     0.200 A 
ATOM     78  F   UNL A   1      48.112  33.122  26.054  1.00  0.00    -0.200 F 
ATOM     79  F   UNL A   1      45.961  34.631  25.334  1.00  0.00    -0.200 F 
ENDBRANCH  55  69
BRANCH  56  80
ATOM     80  C   UNL A   1      37.329  31.133  31.070  1.00  0.00     0.064 A 
ATOM     81  C   UNL A   1      36.403  31.511  32.053  1.00  0.00     0.173 A 
ATOM     82  C   UNL A   1      37.092  31.627  29.768  1.00  0.00     0.173 A 
ATOM     83  F   UNL A   1      36.581  31.128  33.325  1.00  0.00    -0.203 F 
ATOM     84  C   UNL A   1      35.315  32.341  31.754  1.00  0.00     0.198 A 
ATOM     85  C   UNL A   1      36.002  32.441  29.469  1.00  0.00     0.198 A 
ATOM     86  F   UNL A   1      37.962  31.409  28.771  1.00  0.00    -0.203 F 
ATOM     87  F   UNL A   1      34.483  32.727  32.730  1.00  0.00    -0.200 F 
ATOM     88  C   UNL A   1      35.119  32.809  30.464  1.00  0.00     0.200 A 
ATOM     89  F   UNL A   1      35.847  32.914  28.223  1.00  0.00    -0.200 F 
ATOM     90  F   UNL A   1      34.108  33.645  30.190  1.00  0.00    -0.200 F 
ENDBRANCH  56  80
BRANCH  68  91
ATOM     91  C   UNL A   1      42.710  29.458  34.035  1.00  0.00     0.064 A 
ATOM     92  C   UNL A   1      42.100  28.191  33.984  1.00  0.00     0.173 A 
ATOM     93  C   UNL A   1      43.263  29.855  35.258  1.00  0.00     0.173 A 
ATOM     94  F   UNL A   1      41.641  27.698  32.829  1.00  0.00    -0.203 F 
ATOM     95  C   UNL A   1      42.016  27.380  35.116  1.00  0.00     0.198 A 
ATOM     96  C   UNL A   1      43.210  29.028  36.378  1.00  0.00     0.198 A 
ATOM     97  F   UNL A   1      43.911  31.027  35.351  1.00  0.00    -0.203 F 
ATOM     98  F   UNL A   1      41.425  26.178  35.040  1.00  0.00    -0.200 F 
ATOM     99  C   UNL A   1      42.580  27.797  36.310  1.00  0.00     0.200 A 
ATOM    100  F   UNL A   1      43.801  29.414  37.516  1.00  0.00    -0.200 F 
ATOM    101  F   UNL A   1      42.543  26.999  37.386  1.00  0.00    -0.200 F 
ENDBRANCH  68  91
ENDBRANCH  42  43
ENDBRANCH  35  37
ENDBRANCH  34  35
ENDBRANCH  33  34
ENDBRANCH  32  33
ENDBRANCH  31  32
ENDBRANCH  30  31
ENDBRANCH   1  30
TORSDOF 22
ENDMDL
MODEL 2
REMARK VINA RESULT:     -11.1      3.921      9.111
REMARK SMILES Cc1cccc2[nH]cc(C[C@H](NC(=O)OC(C)(C)C)C(=O)OCCOCCOCCOC(=O)c3ccc(-c4c5nc(c(-c6c(F)c(F)c(F)c(F)c6F)c6ccc([nH]6)c(-c6c(F)c(F)c(F)c(F)c6F)c6nc(c(-c7c(F)c(F)c(F)c(F)c7F)c7ccc4[nH]7)C=C6)C=C5)cc3)c12
REMARK SMILES IDX 26 1 25 2 24 3 23 4 22 5 20 6 21 7 11 8 10 9 9 10 1 11 2 12
REMARK SMILES IDX 3 13 97 14 4 15 6 16 5 17 7 18 8 19 12 21 13 22 14 24 15 25
REMARK SMILES IDX 16 26 17 27 18 28 19 29 27 30 28 31 29 32 30 33 31 34 32 35
REMARK SMILES IDX 33 36 34 37 35 38 96 39 36 40 95 41 37 42 38 43 39 44 89 45
REMARK SMILES IDX 40 46 94 47 88 48 90 49 41 50 93 51 87 52 86 53 42 55 74 56
REMARK SMILES IDX 54 57 73 58 55 59 58 60 72 61 91 62 56 63 57 64 71 66 92 67
REMARK SMILES IDX 59 68 43 69 44 70 52 71 45 72 46 73 50 74 53 75 47 76 48 77
REMARK SMILES IDX 51 78 49 79 75 80 76 81 84 82 77 83 78 84 82 85 85 86 79 87
REMARK SMILES IDX 80 88 83 89 81 90 60 91 61 92 69 93 62 94 63 95 67 96 70 97
REMARK SMILES IDX 64 98 65 99 68 100 66 101
REMARK H PARENT 7 20 12 23 90 54 58 65
REMARK Flexibility Score: inf
ROOT
ATOM      1  C   UNL A   1      34.560  29.674  27.552  1.00  0.00     0.188 C 
ENDROOT
BRANCH   1   2
ATOM      2  O   UNL A   1      33.830  28.813  26.691  1.00  0.00    -0.376 OA
BRANCH   2   3
ATOM      3  C   UNL A   1      32.635  28.233  27.203  1.00  0.00     0.202 C 
BRANCH   3   4
ATOM      4  C   UNL A   1      32.052  27.029  26.436  1.00  0.00     0.261 C 
BRANCH   4   5
ATOM      5  O   UNL A   1      30.694  26.645  26.810  1.00  0.00    -0.462 OA
BRANCH   5   6
ATOM      6  C   UNL A   1      30.174  25.567  26.154  1.00  0.00     0.329 C 
ATOM      7  O   UNL A   1      29.497  24.710  26.718  1.00  0.00    -0.250 OA
BRANCH   6   8
ATOM      8  C   UNL A   1      30.536  25.448  24.643  1.00  0.00     0.200 C 
BRANCH   8   9
ATOM      9  C   UNL A   1      29.364  26.177  23.949  1.00  0.00     0.075 C 
BRANCH   9  10
ATOM     10  C   UNL A   1      29.733  27.344  23.093  1.00  0.00    -0.020 A 
ATOM     11  C   UNL A   1      26.553  28.132  23.686  1.00  0.00     0.045 C 
ATOM     12  C   UNL A   1      27.662  28.997  23.154  1.00  0.00    -0.041 A 
ATOM     13  C   UNL A   1      27.363  30.360  22.944  1.00  0.00     0.004 A 
ATOM     14  C   UNL A   1      28.984  28.553  22.867  1.00  0.00     0.006 A 
ATOM     15  C   UNL A   1      28.301  31.249  22.433  1.00  0.00     0.002 A 
ATOM     16  C   UNL A   1      29.880  29.464  22.296  1.00  0.00     0.046 A 
ATOM     17  C   UNL A   1      29.573  30.810  22.078  1.00  0.00     0.027 A 
ATOM     18  N   UNL A   1      31.052  28.792  22.039  1.00  0.00    -0.361 N 
ATOM     19  C   UNL A   1      30.978  27.517  22.516  1.00  0.00     0.087 A 
ATOM     20  H   UNL A   1      31.831  29.177  21.576  1.00  0.00     0.166 HD
ENDBRANCH   9  10
ENDBRANCH   8   9
BRANCH   8  21
ATOM     21  N   UNL A   1      30.705  24.119  24.006  1.00  0.00    -0.308 N 
ATOM     22  C   UNL A   1      31.778  23.287  23.898  1.00  0.00     0.408 C 
ATOM     23  H   UNL A   1      29.886  23.773  23.583  1.00  0.00     0.168 HD
ATOM     24  O   UNL A   1      31.700  22.264  23.205  1.00  0.00    -0.225 OA
BRANCH  22  25
ATOM     25  O   UNL A   1      32.837  23.603  24.651  1.00  0.00    -0.444 OA
BRANCH  25  26
ATOM     26  C   UNL A   1      34.021  24.153  24.014  1.00  0.00     0.106 C 
ATOM     27  C   UNL A   1      34.884  23.104  23.267  1.00  0.00     0.056 C 
ATOM     28  C   UNL A   1      33.844  25.340  23.055  1.00  0.00     0.056 C 
ATOM     29  C   UNL A   1      34.686  24.754  25.232  1.00  0.00     0.056 C 
ENDBRANCH  25  26
ENDBRANCH  22  25
ENDBRANCH   8  21
ENDBRANCH   6   8
ENDBRANCH   5   6
ENDBRANCH   4   5
ENDBRANCH   3   4
ENDBRANCH   2   3
ENDBRANCH   1   2
BRANCH   1  30
ATOM     30  C   UNL A   1      34.184  31.149  27.485  1.00  0.00     0.188 C 
BRANCH  30  31
ATOM     31  O   UNL A   1      35.329  31.921  27.802  1.00  0.00    -0.376 OA
BRANCH  31  32
ATOM     32  C   UNL A   1      35.063  33.304  27.949  1.00  0.00     0.202 C 
BRANCH  32  33
ATOM     33  C   UNL A   1      33.846  33.456  28.846  1.00  0.00     0.261 C 
BRANCH  33  34
ATOM     34  O   UNL A   1      34.159  33.339  30.241  1.00  0.00    -0.460 OA
BRANCH  34  35
ATOM     35  C   UNL A   1      34.500  34.340  31.085  1.00  0.00     0.338 C 
ATOM     36  O   UNL A   1      34.772  35.441  30.609  1.00  0.00    -0.246 OA
BRANCH  35  37
ATOM     37  C   UNL A   1      34.504  34.127  32.619  1.00  0.00     0.060 A 
ATOM     38  C   UNL A   1      35.437  34.988  33.228  1.00  0.00     0.016 A 
ATOM     39  C   UNL A   1      34.697  32.778  32.884  1.00  0.00     0.016 A 
ATOM     40  C   UNL A   1      36.753  34.615  33.207  1.00  0.00     0.010 A 
ATOM     41  C   UNL A   1      35.995  32.332  32.902  1.00  0.00     0.010 A 
ATOM     42  C   UNL A   1      37.001  33.293  32.872  1.00  0.00    -0.014 A 
BRANCH  42  43
ATOM     43  C   UNL A   1      38.360  32.938  32.571  1.00  0.00     0.031 A 
ATOM     44  C   UNL A   1      39.230  33.106  33.749  1.00  0.00     0.074 A 
ATOM     45  C   UNL A   1      38.671  32.483  31.346  1.00  0.00     0.049 A 
ATOM     46  N   UNL A   1      40.242  33.895  33.892  1.00  0.00    -0.248 NA
ATOM     47  C   UNL A   1      38.738  32.516  35.010  1.00  0.00     0.031 C 
ATOM     48  C   UNL A   1      37.770  32.172  30.232  1.00  0.00     0.029 A 
ATOM     49  N   UNL A   1      39.876  32.043  30.902  1.00  0.00    -0.354 N 
ATOM     50  C   UNL A   1      40.631  33.731  35.214  1.00  0.00     0.074 A 
ATOM     51  C   UNL A   1      39.537  33.100  35.898  1.00  0.00     0.031 C 
ATOM     52  C   UNL A   1      38.399  31.348  29.368  1.00  0.00     0.029 A 
ATOM     53  C   UNL A   1      39.764  31.172  29.819  1.00  0.00     0.049 A 
ATOM     54  H   UNL A   1      40.736  32.310  31.301  1.00  0.00     0.167 HD
ATOM     55  C   UNL A   1      41.937  33.809  35.573  1.00  0.00     0.037 A 
ATOM     56  C   UNL A   1      40.708  30.245  29.527  1.00  0.00     0.037 A 
ATOM     57  C   UNL A   1      42.708  34.554  34.614  1.00  0.00     0.049 A 
ATOM     58  C   UNL A   1      41.966  30.707  30.196  1.00  0.00     0.074 A 
ATOM     59  C   UNL A   1      42.655  35.859  34.161  1.00  0.00     0.029 A 
ATOM     60  N   UNL A   1      43.413  33.852  33.665  1.00  0.00    -0.354 N 
ATOM     61  N   UNL A   1      42.600  31.802  29.861  1.00  0.00    -0.248 NA
ATOM     62  C   UNL A   1      42.210  30.241  31.558  1.00  0.00     0.031 C 
ATOM     63  C   UNL A   1      42.914  35.778  32.762  1.00  0.00     0.029 A 
ATOM     64  C   UNL A   1      43.176  34.445  32.448  1.00  0.00     0.049 A 
ATOM     65  H   UNL A   1      43.985  33.068  33.827  1.00  0.00     0.167 HD
ATOM     66  C   UNL A   1      42.981  32.377  31.070  1.00  0.00     0.074 A 
ATOM     67  C   UNL A   1      42.759  31.344  32.076  1.00  0.00     0.031 C 
ATOM     68  C   UNL A   1      43.164  33.726  31.195  1.00  0.00     0.037 A 
BRANCH  55  69
ATOM     69  C   UNL A   1      42.531  32.870  36.582  1.00  0.00     0.064 A 
ATOM     70  C   UNL A   1      43.191  33.388  37.706  1.00  0.00     0.173 A 
ATOM     71  C   UNL A   1      42.696  31.482  36.359  1.00  0.00     0.173 A 
ATOM     72  F   UNL A   1      43.136  34.699  37.983  1.00  0.00    -0.203 F 
ATOM     73  C   UNL A   1      43.984  32.578  38.524  1.00  0.00     0.198 A 
ATOM     74  C   UNL A   1      43.427  30.667  37.213  1.00  0.00     0.198 A 
ATOM     75  F   UNL A   1      42.255  30.875  35.250  1.00  0.00    -0.203 F 
ATOM     76  F   UNL A   1      44.687  33.130  39.521  1.00  0.00    -0.200 F 
ATOM     77  C   UNL A   1      44.096  31.219  38.280  1.00  0.00     0.200 A 
ATOM     78  F   UNL A   1      43.536  29.358  36.941  1.00  0.00    -0.200 F 
ATOM     79  F   UNL A   1      44.890  30.452  39.036  1.00  0.00    -0.200 F 
ENDBRANCH  55  69
BRANCH  56  80
ATOM     80  C   UNL A   1      40.447  28.834  29.148  1.00  0.00     0.064 A 
ATOM     81  C   UNL A   1      39.734  27.983  30.004  1.00  0.00     0.173 A 
ATOM     82  C   UNL A   1      40.677  28.352  27.840  1.00  0.00     0.173 A 
ATOM     83  F   UNL A   1      39.428  28.383  31.246  1.00  0.00    -0.203 F 
ATOM     84  C   UNL A   1      39.270  26.733  29.575  1.00  0.00     0.198 A 
ATOM     85  C   UNL A   1      40.227  27.102  27.419  1.00  0.00     0.198 A 
ATOM     86  F   UNL A   1      41.265  29.118  26.909  1.00  0.00    -0.203 F 
ATOM     87  F   UNL A   1      38.543  25.970  30.403  1.00  0.00    -0.200 F 
ATOM     88  C   UNL A   1      39.513  26.297  28.282  1.00  0.00     0.200 A 
ATOM     89  F   UNL A   1      40.441  26.711  26.154  1.00  0.00    -0.200 F 
ATOM     90  F   UNL A   1      39.024  25.123  27.856  1.00  0.00    -0.200 F 
ENDBRANCH  56  80
BRANCH  68  91
ATOM     91  C   UNL A   1      43.114  34.562  29.943  1.00  0.00     0.064 A 
ATOM     92  C   UNL A   1      41.918  35.012  29.357  1.00  0.00     0.173 A 
ATOM     93  C   UNL A   1      44.313  35.072  29.431  1.00  0.00     0.173 A 
ATOM     94  F   UNL A   1      40.732  34.651  29.857  1.00  0.00    -0.203 F 
ATOM     95  C   UNL A   1      41.926  35.902  28.283  1.00  0.00     0.198 A 
ATOM     96  C   UNL A   1      44.318  35.989  28.382  1.00  0.00     0.198 A 
ATOM     97  F   UNL A   1      45.483  34.725  29.990  1.00  0.00    -0.203 F 
ATOM     98  F   UNL A   1      40.770  36.312  27.740  1.00  0.00    -0.200 F 
ATOM     99  C   UNL A   1      43.127  36.397  27.803  1.00  0.00     0.200 A 
ATOM    100  F   UNL A   1      45.478  36.503  27.955  1.00  0.00    -0.200 F 
ATOM    101  F   UNL A   1      43.136  37.289  26.804  1.00  0.00    -0.200 F 
ENDBRANCH  68  91
ENDBRANCH  42  43
ENDBRANCH  35  37
ENDBRANCH  34  35
ENDBRANCH  33  34
ENDBRANCH  32  33
ENDBRANCH  31  32
ENDBRANCH  30  31
ENDBRANCH   1  30
TORSDOF 22
ENDMDL
MODEL 3
REMARK VINA RESULT:     -10.9      3.749      8.399
REMARK SMILES Cc1cccc2[nH]cc(C[C@H](NC(=O)OC(C)(C)C)C(=O)OCCOCCOCCOC(=O)c3ccc(-c4c5nc(c(-c6c(F)c(F)c(F)c(F)c6F)c6ccc([nH]6)c(-c6c(F)c(F)c(F)c(F)c6F)c6nc(c(-c7c(F)c(F)c(F)c(F)c7F)c7ccc4[nH]7)C=C6)C=C5)cc3)c12
REMARK SMILES IDX 26 1 25 2 24 3 23 4 22 5 20 6 21 7 11 8 10 9 9 10 1 11 2 12
REMARK SMILES IDX 3 13 97 14 4 15 6 16 5 17 7 18 8 19 12 21 13 22 14 24 15 25
REMARK SMILES IDX 16 26 17 27 18 28 19 29 27 30 28 31 29 32 30 33 31 34 32 35
REMARK SMILES IDX 33 36 34 37 35 38 96 39 36 40 95 41 37 42 38 43 39 44 89 45
REMARK SMILES IDX 40 46 94 47 88 48 90 49 41 50 93 51 87 52 86 53 42 55 74 56
REMARK SMILES IDX 54 57 73 58 55 59 58 60 72 61 91 62 56 63 57 64 71 66 92 67
REMARK SMILES IDX 59 68 43 69 44 70 52 71 45 72 46 73 50 74 53 75 47 76 48 77
REMARK SMILES IDX 51 78 49 79 75 80 76 81 84 82 77 83 78 84 82 85 85 86 79 87
REMARK SMILES IDX 80 88 83 89 81 90 60 91 61 92 69 93 62 94 63 95 67 96 70 97
REMARK SMILES IDX 64 98 65 99 68 100 66 101
REMARK H PARENT 7 20 12 23 90 54 58 65
REMARK Flexibility Score: inf
ROOT
ATOM      1  C   UNL A   1      34.821  30.462  27.253  1.00  0.00     0.188 C 
ENDROOT
BRANCH   1   2
ATOM      2  O   UNL A   1      33.768  29.538  27.021  1.00  0.00    -0.376 OA
BRANCH   2   3
ATOM      3  C   UNL A   1      32.575  30.038  26.427  1.00  0.00     0.202 C 
BRANCH   3   4
ATOM      4  C   UNL A   1      31.536  29.001  25.954  1.00  0.00     0.261 C 
BRANCH   4   5
ATOM      5  O   UNL A   1      32.052  27.654  25.726  1.00  0.00    -0.462 OA
BRANCH   5   6
ATOM      6  C   UNL A   1      31.117  26.674  25.559  1.00  0.00     0.329 C 
ATOM      7  O   UNL A   1      30.378  26.300  26.469  1.00  0.00    -0.250 OA
BRANCH   6   8
ATOM      8  C   UNL A   1      31.071  26.007  24.153  1.00  0.00     0.200 C 
BRANCH   8   9
ATOM      9  C   UNL A   1      29.791  26.605  23.527  1.00  0.00     0.075 C 
BRANCH   9  10
ATOM     10  C   UNL A   1      29.955  27.910  22.821  1.00  0.00    -0.020 A 
ATOM     11  C   UNL A   1      26.739  28.175  23.641  1.00  0.00     0.045 C 
ATOM     12  C   UNL A   1      27.693  29.244  23.185  1.00  0.00    -0.041 A 
ATOM     13  C   UNL A   1      27.208  30.569  23.171  1.00  0.00     0.004 A 
ATOM     14  C   UNL A   1      29.043  29.024  22.789  1.00  0.00     0.006 A 
ATOM     15  C   UNL A   1      27.992  31.635  22.745  1.00  0.00     0.002 A 
ATOM     16  C   UNL A   1      29.779  30.114  22.309  1.00  0.00     0.046 A 
ATOM     17  C   UNL A   1      29.287  31.422  22.284  1.00  0.00     0.027 A 
ATOM     18  N   UNL A   1      31.012  29.646  21.917  1.00  0.00    -0.361 N 
ATOM     19  C   UNL A   1      31.132  28.323  22.222  1.00  0.00     0.087 A 
ATOM     20  H   UNL A   1      31.706  30.189  21.479  1.00  0.00     0.166 HD
ENDBRANCH   9  10
ENDBRANCH   8   9
BRANCH   8  21
ATOM     21  N   UNL A   1      31.014  24.531  24.016  1.00  0.00    -0.308 N 
ATOM     22  C   UNL A   1      31.900  23.623  23.518  1.00  0.00     0.408 C 
ATOM     23  H   UNL A   1      30.178  24.131  24.347  1.00  0.00     0.168 HD
ATOM     24  O   UNL A   1      31.571  22.437  23.403  1.00  0.00    -0.225 OA
BRANCH  22  25
ATOM     25  O   UNL A   1      33.131  24.087  23.275  1.00  0.00    -0.444 OA
BRANCH  25  26
ATOM     26  C   UNL A   1      34.166  23.913  24.278  1.00  0.00     0.106 C 
ATOM     27  C   UNL A   1      34.551  25.218  25.024  1.00  0.00     0.056 C 
ATOM     28  C   UNL A   1      33.960  22.837  25.354  1.00  0.00     0.056 C 
ATOM     29  C   UNL A   1      35.260  23.354  23.396  1.00  0.00     0.056 C 
ENDBRANCH  25  26
ENDBRANCH  22  25
ENDBRANCH   8  21
ENDBRANCH   6   8
ENDBRANCH   5   6
ENDBRANCH   4   5
ENDBRANCH   3   4
ENDBRANCH   2   3
ENDBRANCH   1   2
BRANCH   1  30
ATOM     30  C   UNL A   1      34.498  31.603  28.210  1.00  0.00     0.188 C 
BRANCH  30  31
ATOM     31  O   UNL A   1      35.589  32.507  28.217  1.00  0.00    -0.376 OA
BRANCH  31  32
ATOM     32  C   UNL A   1      35.782  33.161  29.458  1.00  0.00     0.202 C 
BRANCH  32  33
ATOM     33  C   UNL A   1      37.254  33.058  29.821  1.00  0.00     0.261 C 
BRANCH  33  34
ATOM     34  O   UNL A   1      37.836  31.800  29.451  1.00  0.00    -0.460 OA
BRANCH  34  35
ATOM     35  C   UNL A   1      38.009  30.718  30.247  1.00  0.00     0.338 C 
ATOM     36  O   UNL A   1      38.569  30.872  31.331  1.00  0.00    -0.246 OA
BRANCH  35  37
ATOM     37  C   UNL A   1      37.475  29.326  29.830  1.00  0.00     0.060 A 
ATOM     38  C   UNL A   1      37.949  28.338  30.715  1.00  0.00     0.016 A 
ATOM     39  C   UNL A   1      37.783  29.108  28.495  1.00  0.00     0.016 A 
ATOM     40  C   UNL A   1      39.221  27.871  30.521  1.00  0.00     0.010 A 
ATOM     41  C   UNL A   1      39.036  28.618  28.222  1.00  0.00     0.010 A 
ATOM     42  C   UNL A   1      39.799  28.179  29.300  1.00  0.00    -0.014 A 
BRANCH  42  43
ATOM     43  C   UNL A   1      41.211  27.951  29.168  1.00  0.00     0.031 A 
ATOM     44  C   UNL A   1      41.488  26.592  28.668  1.00  0.00     0.074 A 
ATOM     45  C   UNL A   1      42.073  28.941  29.455  1.00  0.00     0.049 A 
ATOM     46  N   UNL A   1      42.134  25.639  29.254  1.00  0.00    -0.248 NA
ATOM     47  C   UNL A   1      40.714  26.165  27.486  1.00  0.00     0.031 C 
ATOM     48  C   UNL A   1      41.779  30.335  29.800  1.00  0.00     0.029 A 
ATOM     49  N   UNL A   1      43.424  28.931  29.329  1.00  0.00    -0.354 N 
ATOM     50  C   UNL A   1      42.012  24.555  28.397  1.00  0.00     0.074 A 
ATOM     51  C   UNL A   1      40.935  24.853  27.493  1.00  0.00     0.031 C 
ATOM     52  C   UNL A   1      42.878  31.088  29.580  1.00  0.00     0.029 A 
ATOM     53  C   UNL A   1      43.960  30.210  29.189  1.00  0.00     0.049 A 
ATOM     54  H   UNL A   1      43.968  28.110  29.336  1.00  0.00     0.167 HD
ATOM     55  C   UNL A   1      43.014  23.650  28.268  1.00  0.00     0.037 A 
ATOM     56  C   UNL A   1      45.144  30.442  28.571  1.00  0.00     0.037 A 
ATOM     57  C   UNL A   1      43.880  23.650  29.416  1.00  0.00     0.049 A 
ATOM     58  C   UNL A   1      45.888  29.142  28.595  1.00  0.00     0.074 A 
ATOM     59  C   UNL A   1      43.680  23.381  30.757  1.00  0.00     0.029 A 
ATOM     60  N   UNL A   1      45.048  24.372  29.345  1.00  0.00    -0.354 N 
ATOM     61  N   UNL A   1      46.305  28.571  29.697  1.00  0.00    -0.248 NA
ATOM     62  C   UNL A   1      45.697  28.240  27.463  1.00  0.00     0.031 C 
ATOM     63  C   UNL A   1      44.468  24.343  31.451  1.00  0.00     0.029 A 
ATOM     64  C   UNL A   1      45.157  25.101  30.505  1.00  0.00     0.049 A 
ATOM     65  H   UNL A   1      45.691  24.368  28.599  1.00  0.00     0.167 HD
ATOM     66  C   UNL A   1      46.034  27.217  29.521  1.00  0.00     0.074 A 
ATOM     67  C   UNL A   1      45.709  27.069  28.106  1.00  0.00     0.031 C 
ATOM     68  C   UNL A   1      45.809  26.388  30.584  1.00  0.00     0.037 A 
BRANCH  55  69
ATOM     69  C   UNL A   1      43.389  23.078  26.931  1.00  0.00     0.064 A 
ATOM     70  C   UNL A   1      43.127  21.729  26.657  1.00  0.00     0.173 A 
ATOM     71  C   UNL A   1      44.224  23.743  26.001  1.00  0.00     0.173 A 
ATOM     72  F   UNL A   1      42.383  20.995  27.497  1.00  0.00    -0.203 F 
ATOM     73  C   UNL A   1      43.690  21.087  25.550  1.00  0.00     0.198 A 
ATOM     74  C   UNL A   1      44.724  23.122  24.865  1.00  0.00     0.198 A 
ATOM     75  F   UNL A   1      44.685  24.984  26.208  1.00  0.00    -0.203 F 
ATOM     76  F   UNL A   1      43.507  19.771  25.383  1.00  0.00    -0.200 F 
ATOM     77  C   UNL A   1      44.482  21.785  24.653  1.00  0.00     0.200 A 
ATOM     78  F   UNL A   1      45.506  23.817  24.025  1.00  0.00    -0.200 F 
ATOM     79  F   UNL A   1      45.056  21.161  23.618  1.00  0.00    -0.200 F 
ENDBRANCH  55  69
BRANCH  56  80
ATOM     80  C   UNL A   1      45.413  31.527  27.594  1.00  0.00     0.064 A 
ATOM     81  C   UNL A   1      44.510  31.794  26.555  1.00  0.00     0.173 A 
ATOM     82  C   UNL A   1      46.434  32.481  27.793  1.00  0.00     0.173 A 
ATOM     83  F   UNL A   1      43.480  30.966  26.331  1.00  0.00    -0.203 F 
ATOM     84  C   UNL A   1      44.615  32.951  25.773  1.00  0.00     0.198 A 
ATOM     85  C   UNL A   1      46.547  33.625  27.005  1.00  0.00     0.198 A 
ATOM     86  F   UNL A   1      47.296  32.377  28.815  1.00  0.00    -0.203 F 
ATOM     87  F   UNL A   1      43.701  33.201  24.826  1.00  0.00    -0.200 F 
ATOM     88  C   UNL A   1      45.630  33.867  26.001  1.00  0.00     0.200 A 
ATOM     89  F   UNL A   1      47.514  34.517  27.262  1.00  0.00    -0.200 F 
ATOM     90  F   UNL A   1      45.700  34.998  25.286  1.00  0.00    -0.200 F 
ENDBRANCH  56  80
BRANCH  68  91
ATOM     91  C   UNL A   1      46.037  26.940  31.967  1.00  0.00     0.064 A 
ATOM     92  C   UNL A   1      45.041  27.589  32.718  1.00  0.00     0.173 A 
ATOM     93  C   UNL A   1      47.239  26.639  32.618  1.00  0.00     0.173 A 
ATOM     94  F   UNL A   1      43.830  27.817  32.197  1.00  0.00    -0.203 F 
ATOM     95  C   UNL A   1      45.256  27.954  34.047  1.00  0.00     0.198 A 
ATOM     96  C   UNL A   1      47.438  26.971  33.956  1.00  0.00     0.198 A 
ATOM     97  F   UNL A   1      48.203  25.966  31.970  1.00  0.00    -0.203 F 
ATOM     98  F   UNL A   1      44.290  28.577  34.738  1.00  0.00    -0.200 F 
ATOM     99  C   UNL A   1      46.452  27.635  34.667  1.00  0.00     0.200 A 
ATOM    100  F   UNL A   1      48.577  26.616  34.566  1.00  0.00    -0.200 F 
ATOM    101  F   UNL A   1      46.643  27.941  35.958  1.00  0.00    -0.200 F 
ENDBRANCH  68  91
ENDBRANCH  42  43
ENDBRANCH  35  37
ENDBRANCH  34  35
ENDBRANCH  33  34
ENDBRANCH  32  33
ENDBRANCH  31  32
ENDBRANCH  30  31
ENDBRANCH   1  30
TORSDOF 22
ENDMDL
