MODEL 1
REMARK VINA RESULT:     -11.1      0.000      0.000
REMARK SMILES C[C@@H](C(=O)OCCOCCOCCOC(=O)c1ccc(-c2c3nc(c(-c4c(F)c(F)c(F)c(F)c4F)c4ccc([nH]4)c(-c4c(F)c(F)c(F)c(F)c4F)c4nc(c(-c5c(F)c(F)c(F)c(F)c5F)c5ccc2[nH]5)C=C4)C=C3)cc1)c1cc(C(=O)c2ccccc2)ccc1O
REMARK SMILES IDX 9 1 8 2 7 3 6 4 5 5 3 6 4 7 2 8 1 9 80 10 81 11 93 12 82 13
REMARK SMILES IDX 92 14 91 15 94 16 83 18 84 19 85 20 86 21 90 22 87 23 89 24
REMARK SMILES IDX 88 25 10 26 11 27 12 28 13 29 14 30 15 31 16 32 17 33 18 34
REMARK SMILES IDX 79 35 19 36 78 37 20 38 21 39 22 40 72 41 23 42 77 43 71 44
REMARK SMILES IDX 73 45 24 46 76 47 70 48 69 49 25 51 57 52 37 53 56 54 38 55
REMARK SMILES IDX 41 56 55 57 74 58 39 59 40 60 54 62 75 63 42 64 26 65 27 66
REMARK SMILES IDX 35 67 28 68 29 69 33 70 36 71 30 72 31 73 34 74 32 75 58 76
REMARK SMILES IDX 59 77 67 78 60 79 61 80 65 81 68 82 62 83 63 84 66 85 64 86
REMARK SMILES IDX 43 87 44 88 52 89 45 90 46 91 50 92 53 93 47 94 48 95 51 96
REMARK SMILES IDX 49 97
REMARK H PARENT 94 17 73 50 41 61
REMARK Flexibility Score: inf
ROOT
ATOM      1  C   UNL A   1      34.594  24.913  25.748  1.00  0.00     0.188 C 
ENDROOT
BRANCH   1   2
ATOM      2  O   UNL A   1      34.272  26.068  24.988  1.00  0.00    -0.376 OA
BRANCH   2   3
ATOM      3  C   UNL A   1      33.893  27.254  25.684  1.00  0.00     0.202 C 
BRANCH   3   4
ATOM      4  C   UNL A   1      32.647  27.237  26.593  1.00  0.00     0.261 C 
BRANCH   4   5
ATOM      5  O   UNL A   1      31.391  27.450  25.905  1.00  0.00    -0.463 OA
BRANCH   5   6
ATOM      6  C   UNL A   1      30.655  26.347  25.639  1.00  0.00     0.313 C 
ATOM      7  O   UNL A   1      30.036  25.724  26.501  1.00  0.00    -0.252 OA
BRANCH   6   8
ATOM      8  C   UNL A   1      30.545  25.958  24.155  1.00  0.00     0.130 C 
ATOM      9  C   UNL A   1      29.099  25.953  23.631  1.00  0.00     0.025 C 
BRANCH   8  10
ATOM     10  C   UNL A   1      31.481  24.803  23.725  1.00  0.00     0.009 A 
ATOM     11  C   UNL A   1      31.492  23.542  24.389  1.00  0.00     0.020 A 
ATOM     12  C   UNL A   1      32.267  24.886  22.559  1.00  0.00     0.119 A 
ATOM     13  C   UNL A   1      32.208  22.415  23.892  1.00  0.00     0.023 A 
ATOM     14  C   UNL A   1      32.960  23.782  22.059  1.00  0.00     0.047 A 
ATOM     15  C   UNL A   1      32.896  22.548  22.691  1.00  0.00     0.016 A 
BRANCH  12  16
ATOM     16  O   UNL A   1      32.398  25.982  21.756  1.00  0.00    -0.508 OA
ATOM     17  H   UNL A   1      33.080  26.013  21.114  1.00  0.00     0.293 HD
ENDBRANCH  12  16
BRANCH  13  18
ATOM     18  C   UNL A   1      32.144  21.102  24.627  1.00  0.00     0.193 C 
ATOM     19  O   UNL A   1      31.710  21.108  25.778  1.00  0.00    -0.289 OA
BRANCH  18  20
ATOM     20  C   UNL A   1      32.598  19.783  24.058  1.00  0.00     0.022 A 
ATOM     21  C   UNL A   1      33.575  19.052  24.753  1.00  0.00     0.012 A 
ATOM     22  C   UNL A   1      32.153  19.281  22.832  1.00  0.00     0.012 A 
ATOM     23  C   UNL A   1      34.059  17.834  24.251  1.00  0.00     0.001 A 
ATOM     24  C   UNL A   1      32.606  18.045  22.357  1.00  0.00     0.001 A 
ATOM     25  C   UNL A   1      33.565  17.326  23.056  1.00  0.00     0.000 A 
ENDBRANCH  18  20
ENDBRANCH  13  18
ENDBRANCH   8  10
ENDBRANCH   6   8
ENDBRANCH   5   6
ENDBRANCH   4   5
ENDBRANCH   3   4
ENDBRANCH   2   3
ENDBRANCH   1   2
BRANCH   1  26
ATOM     26  C   UNL A   1      35.514  23.846  25.128  1.00  0.00     0.188 C 
BRANCH  26  27
ATOM     27  O   UNL A   1      35.705  22.691  25.905  1.00  0.00    -0.376 OA
BRANCH  27  28
ATOM     28  C   UNL A   1      35.836  21.424  25.286  1.00  0.00     0.202 C 
BRANCH  28  29
ATOM     29  C   UNL A   1      37.177  20.681  25.101  1.00  0.00     0.261 C 
BRANCH  29  30
ATOM     30  O   UNL A   1      38.387  21.447  25.118  1.00  0.00    -0.460 OA
BRANCH  30  31
ATOM     31  C   UNL A   1      39.279  21.160  26.094  1.00  0.00     0.338 C 
ATOM     32  O   UNL A   1      39.787  20.073  26.337  1.00  0.00    -0.246 OA
BRANCH  31  33
ATOM     33  C   UNL A   1      39.726  22.443  26.675  1.00  0.00     0.060 A 
ATOM     34  C   UNL A   1      39.093  23.626  26.273  1.00  0.00     0.016 A 
ATOM     35  C   UNL A   1      40.748  22.479  27.626  1.00  0.00     0.016 A 
ATOM     36  C   UNL A   1      39.478  24.843  26.829  1.00  0.00     0.010 A 
ATOM     37  C   UNL A   1      41.158  23.710  28.154  1.00  0.00     0.010 A 
ATOM     38  C   UNL A   1      40.534  24.902  27.747  1.00  0.00    -0.014 A 
BRANCH  38  39
ATOM     39  C   UNL A   1      41.119  26.221  28.096  1.00  0.00     0.031 A 
ATOM     40  C   UNL A   1      42.486  26.548  27.558  1.00  0.00     0.074 A 
ATOM     41  C   UNL A   1      40.427  27.146  28.786  1.00  0.00     0.049 A 
ATOM     42  N   UNL A   1      43.206  27.632  27.699  1.00  0.00    -0.248 NA
ATOM     43  C   UNL A   1      43.123  25.505  26.735  1.00  0.00     0.031 C 
ATOM     44  C   UNL A   1      39.036  27.014  29.211  1.00  0.00     0.029 A 
ATOM     45  N   UNL A   1      40.779  28.417  29.176  1.00  0.00    -0.354 N 
ATOM     46  C   UNL A   1      44.396  27.379  27.028  1.00  0.00     0.074 A 
ATOM     47  C   UNL A   1      44.296  26.053  26.462  1.00  0.00     0.031 C 
ATOM     48  C   UNL A   1      38.625  28.188  29.722  1.00  0.00     0.029 A 
ATOM     49  C   UNL A   1      39.738  29.139  29.712  1.00  0.00     0.049 A 
ATOM     50  H   UNL A   1      41.691  28.776  29.080  1.00  0.00     0.167 HD
ATOM     51  C   UNL A   1      45.487  28.175  26.914  1.00  0.00     0.037 A 
ATOM     52  C   UNL A   1      39.688  30.433  30.099  1.00  0.00     0.037 A 
ATOM     53  C   UNL A   1      45.573  29.509  27.443  1.00  0.00     0.049 A 
ATOM     54  C   UNL A   1      40.929  31.291  29.983  1.00  0.00     0.074 A 
ATOM     55  C   UNL A   1      46.649  30.379  27.416  1.00  0.00     0.029 A 
ATOM     56  N   UNL A   1      44.539  30.170  28.086  1.00  0.00    -0.354 N 
ATOM     57  N   UNL A   1      42.068  31.034  29.385  1.00  0.00    -0.248 NA
ATOM     58  C   UNL A   1      40.869  32.625  30.601  1.00  0.00     0.031 C 
ATOM     59  C   UNL A   1      46.286  31.543  28.099  1.00  0.00     0.029 A 
ATOM     60  C   UNL A   1      44.962  31.426  28.490  1.00  0.00     0.049 A 
ATOM     61  H   UNL A   1      43.637  29.802  28.233  1.00  0.00     0.167 HD
ATOM     62  C   UNL A   1      42.853  32.172  29.551  1.00  0.00     0.074 A 
ATOM     63  C   UNL A   1      42.040  33.141  30.253  1.00  0.00     0.031 C 
ATOM     64  C   UNL A   1      44.140  32.388  29.179  1.00  0.00     0.037 A 
BRANCH  51  65
ATOM     65  C   UNL A   1      46.710  27.585  26.275  1.00  0.00     0.064 A 
ATOM     66  C   UNL A   1      46.944  27.641  24.895  1.00  0.00     0.173 A 
ATOM     67  C   UNL A   1      47.680  26.968  27.082  1.00  0.00     0.173 A 
ATOM     68  F   UNL A   1      46.039  28.203  24.079  1.00  0.00    -0.203 F 
ATOM     69  C   UNL A   1      48.091  27.077  24.342  1.00  0.00     0.198 A 
ATOM     70  C   UNL A   1      48.842  26.438  26.530  1.00  0.00     0.198 A 
ATOM     71  F   UNL A   1      47.507  26.890  28.409  1.00  0.00    -0.203 F 
ATOM     72  F   UNL A   1      48.272  27.096  23.013  1.00  0.00    -0.200 F 
ATOM     73  C   UNL A   1      49.043  26.484  25.160  1.00  0.00     0.200 A 
ATOM     74  F   UNL A   1      49.766  25.880  27.325  1.00  0.00    -0.200 F 
ATOM     75  F   UNL A   1      50.151  25.953  24.626  1.00  0.00    -0.200 F 
ENDBRANCH  51  65
BRANCH  52  76
ATOM     76  C   UNL A   1      38.414  31.033  30.593  1.00  0.00     0.064 A 
ATOM     77  C   UNL A   1      38.136  31.092  31.968  1.00  0.00     0.173 A 
ATOM     78  C   UNL A   1      37.429  31.507  29.716  1.00  0.00     0.173 A 
ATOM     79  F   UNL A   1      39.033  30.631  32.854  1.00  0.00    -0.203 F 
ATOM     80  C   UNL A   1      36.916  31.573  32.442  1.00  0.00     0.198 A 
ATOM     81  C   UNL A   1      36.226  32.027  30.191  1.00  0.00     0.198 A 
ATOM     82  F   UNL A   1      37.633  31.466  28.391  1.00  0.00    -0.203 F 
ATOM     83  F   UNL A   1      36.654  31.553  33.755  1.00  0.00    -0.200 F 
ATOM     84  C   UNL A   1      35.965  32.047  31.553  1.00  0.00     0.200 A 
ATOM     85  F   UNL A   1      35.316  32.498  29.328  1.00  0.00    -0.200 F 
ATOM     86  F   UNL A   1      34.792  32.511  32.006  1.00  0.00    -0.200 F 
ENDBRANCH  52  76
BRANCH  64  87
ATOM     87  C   UNL A   1      44.759  33.719  29.517  1.00  0.00     0.064 A 
ATOM     88  C   UNL A   1      44.612  34.833  28.675  1.00  0.00     0.173 A 
ATOM     89  C   UNL A   1      45.443  33.904  30.729  1.00  0.00     0.173 A 
ATOM     90  F   UNL A   1      43.969  34.714  27.504  1.00  0.00    -0.203 F 
ATOM     91  C   UNL A   1      45.151  36.071  29.018  1.00  0.00     0.198 A 
ATOM     92  C   UNL A   1      45.949  35.152  31.086  1.00  0.00     0.198 A 
ATOM     93  F   UNL A   1      45.601  32.880  31.581  1.00  0.00    -0.203 F 
ATOM     94  F   UNL A   1      45.039  37.105  28.174  1.00  0.00    -0.200 F 
ATOM     95  C   UNL A   1      45.811  36.231  30.227  1.00  0.00     0.200 A 
ATOM     96  F   UNL A   1      46.568  35.311  32.264  1.00  0.00    -0.200 F 
ATOM     97  F   UNL A   1      46.317  37.427  30.562  1.00  0.00    -0.200 F 
ENDBRANCH  64  87
ENDBRANCH  38  39
ENDBRANCH  31  33
ENDBRANCH  30  31
ENDBRANCH  29  30
ENDBRANCH  28  29
ENDBRANCH  27  28
ENDBRANCH  26  27
ENDBRANCH   1  26
TORSDOF 21
ENDMDL
MODEL 2
REMARK VINA RESULT:     -11.0      5.578     11.542
REMARK SMILES C[C@@H](C(=O)OCCOCCOCCOC(=O)c1ccc(-c2c3nc(c(-c4c(F)c(F)c(F)c(F)c4F)c4ccc([nH]4)c(-c4c(F)c(F)c(F)c(F)c4F)c4nc(c(-c5c(F)c(F)c(F)c(F)c5F)c5ccc2[nH]5)C=C4)C=C3)cc1)c1cc(C(=O)c2ccccc2)ccc1O
REMARK SMILES IDX 9 1 8 2 7 3 6 4 5 5 3 6 4 7 2 8 1 9 80 10 81 11 93 12 82 13
REMARK SMILES IDX 92 14 91 15 94 16 83 18 84 19 85 20 86 21 90 22 87 23 89 24
REMARK SMILES IDX 88 25 10 26 11 27 12 28 13 29 14 30 15 31 16 32 17 33 18 34
REMARK SMILES IDX 79 35 19 36 78 37 20 38 21 39 22 40 72 41 23 42 77 43 71 44
REMARK SMILES IDX 73 45 24 46 76 47 70 48 69 49 25 51 57 52 37 53 56 54 38 55
REMARK SMILES IDX 41 56 55 57 74 58 39 59 40 60 54 62 75 63 42 64 26 65 27 66
REMARK SMILES IDX 35 67 28 68 29 69 33 70 36 71 30 72 31 73 34 74 32 75 58 76
REMARK SMILES IDX 59 77 67 78 60 79 61 80 65 81 68 82 62 83 63 84 66 85 64 86
REMARK SMILES IDX 43 87 44 88 52 89 45 90 46 91 50 92 53 93 47 94 48 95 51 96
REMARK SMILES IDX 49 97
REMARK H PARENT 94 17 73 50 41 61
REMARK Flexibility Score: inf
ROOT
ATOM      1  C   UNL A   1      33.142  35.888  30.772  1.00  0.00     0.188 C 
ENDROOT
BRANCH   1   2
ATOM      2  O   UNL A   1      33.837  36.948  31.413  1.00  0.00    -0.376 OA
BRANCH   2   3
ATOM      3  C   UNL A   1      33.757  37.050  32.833  1.00  0.00     0.202 C 
BRANCH   3   4
ATOM      4  C   UNL A   1      34.197  35.858  33.707  1.00  0.00     0.261 C 
BRANCH   4   5
ATOM      5  O   UNL A   1      35.499  35.314  33.380  1.00  0.00    -0.463 OA
BRANCH   5   6
ATOM      6  C   UNL A   1      35.939  34.296  34.154  1.00  0.00     0.313 C 
ATOM      7  O   UNL A   1      35.789  34.262  35.376  1.00  0.00    -0.252 OA
BRANCH   6   8
ATOM      8  C   UNL A   1      36.564  33.108  33.405  1.00  0.00     0.130 C 
ATOM      9  C   UNL A   1      37.290  32.117  34.331  1.00  0.00     0.025 C 
BRANCH   8  10
ATOM     10  C   UNL A   1      37.236  33.480  32.062  1.00  0.00     0.009 A 
ATOM     11  C   UNL A   1      38.600  33.885  31.978  1.00  0.00     0.020 A 
ATOM     12  C   UNL A   1      36.578  33.292  30.832  1.00  0.00     0.119 A 
ATOM     13  C   UNL A   1      39.281  34.049  30.737  1.00  0.00     0.023 A 
ATOM     14  C   UNL A   1      37.242  33.437  29.612  1.00  0.00     0.047 A 
ATOM     15  C   UNL A   1      38.590  33.766  29.564  1.00  0.00     0.016 A 
BRANCH  12  16
ATOM     16  O   UNL A   1      35.283  32.893  30.666  1.00  0.00    -0.508 OA
ATOM     17  H   UNL A   1      34.972  32.122  31.100  1.00  0.00     0.293 HD
ENDBRANCH  12  16
BRANCH  13  18
ATOM     18  C   UNL A   1      40.734  34.444  30.724  1.00  0.00     0.193 C 
ATOM     19  O   UNL A   1      41.305  34.567  31.808  1.00  0.00    -0.289 OA
BRANCH  18  20
ATOM     20  C   UNL A   1      41.531  34.724  29.478  1.00  0.00     0.022 A 
ATOM     21  C   UNL A   1      42.787  34.113  29.332  1.00  0.00     0.012 A 
ATOM     22  C   UNL A   1      41.121  35.623  28.489  1.00  0.00     0.012 A 
ATOM     23  C   UNL A   1      43.587  34.366  28.208  1.00  0.00     0.001 A 
ATOM     24  C   UNL A   1      41.902  35.839  27.348  1.00  0.00     0.001 A 
ATOM     25  C   UNL A   1      43.138  35.223  27.210  1.00  0.00     0.000 A 
ENDBRANCH  18  20
ENDBRANCH  13  18
ENDBRANCH   8  10
ENDBRANCH   6   8
ENDBRANCH   5   6
ENDBRANCH   4   5
ENDBRANCH   3   4
ENDBRANCH   2   3
ENDBRANCH   1   2
BRANCH   1  26
ATOM     26  C   UNL A   1      32.917  35.958  29.251  1.00  0.00     0.188 C 
BRANCH  26  27
ATOM     27  O   UNL A   1      32.567  34.742  28.639  1.00  0.00    -0.376 OA
BRANCH  27  28
ATOM     28  C   UNL A   1      33.554  33.944  28.012  1.00  0.00     0.202 C 
BRANCH  28  29
ATOM     29  C   UNL A   1      33.409  32.429  27.749  1.00  0.00     0.261 C 
BRANCH  29  30
ATOM     30  O   UNL A   1      34.221  31.526  28.507  1.00  0.00    -0.460 OA
BRANCH  30  31
ATOM     31  C   UNL A   1      34.635  30.401  27.880  1.00  0.00     0.338 C 
ATOM     32  O   UNL A   1      34.098  29.842  26.932  1.00  0.00    -0.246 OA
BRANCH  31  33
ATOM     33  C   UNL A   1      35.989  30.088  28.380  1.00  0.00     0.060 A 
ATOM     34  C   UNL A   1      37.094  30.371  27.566  1.00  0.00     0.016 A 
ATOM     35  C   UNL A   1      36.173  29.542  29.652  1.00  0.00     0.016 A 
ATOM     36  C   UNL A   1      38.382  30.112  28.029  1.00  0.00     0.010 A 
ATOM     37  C   UNL A   1      37.468  29.249  30.098  1.00  0.00     0.010 A 
ATOM     38  C   UNL A   1      38.580  29.519  29.282  1.00  0.00    -0.014 A 
BRANCH  38  39
ATOM     39  C   UNL A   1      39.921  28.984  29.626  1.00  0.00     0.031 A 
ATOM     40  C   UNL A   1      40.633  29.582  30.810  1.00  0.00     0.074 A 
ATOM     41  C   UNL A   1      40.457  27.934  28.977  1.00  0.00     0.049 A 
ATOM     42  N   UNL A   1      41.797  29.282  31.327  1.00  0.00    -0.248 NA
ATOM     43  C   UNL A   1      39.923  30.663  31.513  1.00  0.00     0.031 C 
ATOM     44  C   UNL A   1      39.793  27.162  27.930  1.00  0.00     0.029 A 
ATOM     45  N   UNL A   1      41.655  27.285  29.165  1.00  0.00    -0.354 N 
ATOM     46  C   UNL A   1      41.978  30.171  32.380  1.00  0.00     0.074 A 
ATOM     47  C   UNL A   1      40.798  31.005  32.444  1.00  0.00     0.031 C 
ATOM     48  C   UNL A   1      40.552  26.093  27.631  1.00  0.00     0.029 A 
ATOM     49  C   UNL A   1      41.782  26.133  28.424  1.00  0.00     0.049 A 
ATOM     50  H   UNL A   1      42.357  27.616  29.772  1.00  0.00     0.167 HD
ATOM     51  C   UNL A   1      43.044  30.296  33.207  1.00  0.00     0.037 A 
ATOM     52  C   UNL A   1      42.759  25.199  28.431  1.00  0.00     0.037 A 
ATOM     53  C   UNL A   1      44.200  29.443  33.171  1.00  0.00     0.049 A 
ATOM     54  C   UNL A   1      43.950  25.379  29.348  1.00  0.00     0.074 A 
ATOM     55  C   UNL A   1      45.350  29.516  33.937  1.00  0.00     0.029 A 
ATOM     56  N   UNL A   1      44.349  28.354  32.327  1.00  0.00    -0.354 N 
ATOM     57  N   UNL A   1      44.136  26.246  30.314  1.00  0.00    -0.248 NA
ATOM     58  C   UNL A   1      45.069  24.440  29.168  1.00  0.00     0.031 C 
ATOM     59  C   UNL A   1      46.221  28.509  33.514  1.00  0.00     0.029 A 
ATOM     60  C   UNL A   1      45.586  27.765  32.532  1.00  0.00     0.049 A 
ATOM     61  H   UNL A   1      43.675  28.044  31.678  1.00  0.00     0.167 HD
ATOM     62  C   UNL A   1      45.385  25.954  30.856  1.00  0.00     0.074 A 
ATOM     63  C   UNL A   1      45.884  24.793  30.151  1.00  0.00     0.031 C 
ATOM     64  C   UNL A   1      46.069  26.602  31.833  1.00  0.00     0.037 A 
BRANCH  51  65
ATOM     65  C   UNL A   1      43.050  31.459  34.155  1.00  0.00     0.064 A 
ATOM     66  C   UNL A   1      43.479  32.739  33.780  1.00  0.00     0.173 A 
ATOM     67  C   UNL A   1      42.590  31.281  35.471  1.00  0.00     0.173 A 
ATOM     68  F   UNL A   1      43.946  32.958  32.540  1.00  0.00    -0.203 F 
ATOM     69  C   UNL A   1      43.473  33.791  34.693  1.00  0.00     0.198 A 
ATOM     70  C   UNL A   1      42.552  32.342  36.369  1.00  0.00     0.198 A 
ATOM     71  F   UNL A   1      42.166  30.076  35.881  1.00  0.00    -0.203 F 
ATOM     72  F   UNL A   1      43.935  34.996  34.328  1.00  0.00    -0.200 F 
ATOM     73  C   UNL A   1      43.002  33.594  35.983  1.00  0.00     0.200 A 
ATOM     74  F   UNL A   1      42.081  32.151  37.610  1.00  0.00    -0.200 F 
ATOM     75  F   UNL A   1      42.986  34.611  36.856  1.00  0.00    -0.200 F 
ENDBRANCH  51  65
BRANCH  52  76
ATOM     76  C   UNL A   1      42.653  23.976  27.583  1.00  0.00     0.064 A 
ATOM     77  C   UNL A   1      42.193  22.765  28.126  1.00  0.00     0.173 A 
ATOM     78  C   UNL A   1      43.054  23.969  26.240  1.00  0.00     0.173 A 
ATOM     79  F   UNL A   1      41.818  22.707  29.413  1.00  0.00    -0.203 F 
ATOM     80  C   UNL A   1      42.167  21.595  27.369  1.00  0.00     0.198 A 
ATOM     81  C   UNL A   1      42.988  22.808  25.472  1.00  0.00     0.198 A 
ATOM     82  F   UNL A   1      43.512  25.092  25.669  1.00  0.00    -0.203 F 
ATOM     83  F   UNL A   1      41.789  20.441  27.936  1.00  0.00    -0.200 F 
ATOM     84  C   UNL A   1      42.558  21.618  26.040  1.00  0.00     0.200 A 
ATOM     85  F   UNL A   1      43.353  22.839  24.183  1.00  0.00    -0.200 F 
ATOM     86  F   UNL A   1      42.533  20.494  25.311  1.00  0.00    -0.200 F 
ENDBRANCH  52  76
BRANCH  64  87
ATOM     87  C   UNL A   1      47.432  26.080  32.205  1.00  0.00     0.064 A 
ATOM     88  C   UNL A   1      47.605  25.162  33.253  1.00  0.00     0.173 A 
ATOM     89  C   UNL A   1      48.566  26.442  31.462  1.00  0.00     0.173 A 
ATOM     90  F   UNL A   1      46.557  24.782  33.998  1.00  0.00    -0.203 F 
ATOM     91  C   UNL A   1      48.865  24.652  33.562  1.00  0.00     0.198 A 
ATOM     92  C   UNL A   1      49.818  25.902  31.750  1.00  0.00     0.198 A 
ATOM     93  F   UNL A   1      48.459  27.304  30.439  1.00  0.00    -0.203 F 
ATOM     94  F   UNL A   1      49.010  23.816  34.598  1.00  0.00    -0.200 F 
ATOM     95  C   UNL A   1      49.968  25.015  32.805  1.00  0.00     0.200 A 
ATOM     96  F   UNL A   1      50.879  26.237  31.003  1.00  0.00    -0.200 F 
ATOM     97  F   UNL A   1      51.176  24.512  33.094  1.00  0.00    -0.200 F 
ENDBRANCH  64  87
ENDBRANCH  38  39
ENDBRANCH  31  33
ENDBRANCH  30  31
ENDBRANCH  29  30
ENDBRANCH  28  29
ENDBRANCH  27  28
ENDBRANCH  26  27
ENDBRANCH   1  26
TORSDOF 21
ENDMDL
MODEL 3
REMARK VINA RESULT:     -10.9      3.934      9.388
REMARK SMILES C[C@@H](C(=O)OCCOCCOCCOC(=O)c1ccc(-c2c3nc(c(-c4c(F)c(F)c(F)c(F)c4F)c4ccc([nH]4)c(-c4c(F)c(F)c(F)c(F)c4F)c4nc(c(-c5c(F)c(F)c(F)c(F)c5F)c5ccc2[nH]5)C=C4)C=C3)cc1)c1cc(C(=O)c2ccccc2)ccc1O
REMARK SMILES IDX 9 1 8 2 7 3 6 4 5 5 3 6 4 7 2 8 1 9 80 10 81 11 93 12 82 13
REMARK SMILES IDX 92 14 91 15 94 16 83 18 84 19 85 20 86 21 90 22 87 23 89 24
REMARK SMILES IDX 88 25 10 26 11 27 12 28 13 29 14 30 15 31 16 32 17 33 18 34
REMARK SMILES IDX 79 35 19 36 78 37 20 38 21 39 22 40 72 41 23 42 77 43 71 44
REMARK SMILES IDX 73 45 24 46 76 47 70 48 69 49 25 51 57 52 37 53 56 54 38 55
REMARK SMILES IDX 41 56 55 57 74 58 39 59 40 60 54 62 75 63 42 64 26 65 27 66
REMARK SMILES IDX 35 67 28 68 29 69 33 70 36 71 30 72 31 73 34 74 32 75 58 76
REMARK SMILES IDX 59 77 67 78 60 79 61 80 65 81 68 82 62 83 63 84 66 85 64 86
REMARK SMILES IDX 43 87 44 88 52 89 45 90 46 91 50 92 53 93 47 94 48 95 51 96
REMARK SMILES IDX 49 97
REMARK H PARENT 94 17 73 50 41 61
REMARK Flexibility Score: inf
ROOT
ATOM      1  C   UNL A   1      31.532  26.048  26.219  1.00  0.00     0.188 C 
ENDROOT
BRANCH   1   2
ATOM      2  O   UNL A   1      31.267  24.927  25.389  1.00  0.00    -0.376 OA
BRANCH   2   3
ATOM      3  C   UNL A   1      30.652  23.781  25.976  1.00  0.00     0.202 C 
BRANCH   3   4
ATOM      4  C   UNL A   1      31.517  22.557  26.340  1.00  0.00     0.261 C 
BRANCH   4   5
ATOM      5  O   UNL A   1      31.098  21.313  25.728  1.00  0.00    -0.463 OA
BRANCH   5   6
ATOM      6  C   UNL A   1      32.066  20.575  25.140  1.00  0.00     0.313 C 
ATOM      7  O   UNL A   1      32.672  19.672  25.717  1.00  0.00    -0.252 OA
BRANCH   6   8
ATOM      8  C   UNL A   1      32.311  20.858  23.648  1.00  0.00     0.130 C 
ATOM      9  C   UNL A   1      32.539  19.586  22.814  1.00  0.00     0.025 C 
BRANCH   8  10
ATOM     10  C   UNL A   1      33.211  22.085  23.369  1.00  0.00     0.009 A 
ATOM     11  C   UNL A   1      32.764  23.201  22.602  1.00  0.00     0.020 A 
ATOM     12  C   UNL A   1      34.469  22.232  23.985  1.00  0.00     0.119 A 
ATOM     13  C   UNL A   1      33.509  24.410  22.493  1.00  0.00     0.023 A 
ATOM     14  C   UNL A   1      35.198  23.420  23.894  1.00  0.00     0.047 A 
ATOM     15  C   UNL A   1      34.705  24.514  23.196  1.00  0.00     0.016 A 
BRANCH  12  16
ATOM     16  O   UNL A   1      35.089  21.308  24.775  1.00  0.00    -0.508 OA
ATOM     17  H   UNL A   1      34.622  20.548  25.061  1.00  0.00     0.293 HD
ENDBRANCH  12  16
BRANCH  13  18
ATOM     18  C   UNL A   1      32.959  25.562  21.695  1.00  0.00     0.193 C 
ATOM     19  O   UNL A   1      33.050  25.506  20.469  1.00  0.00    -0.289 OA
BRANCH  18  20
ATOM     20  C   UNL A   1      32.325  26.790  22.293  1.00  0.00     0.022 A 
ATOM     21  C   UNL A   1      33.159  27.818  22.760  1.00  0.00     0.012 A 
ATOM     22  C   UNL A   1      30.946  26.930  22.480  1.00  0.00     0.012 A 
ATOM     23  C   UNL A   1      32.623  28.968  23.358  1.00  0.00     0.001 A 
ATOM     24  C   UNL A   1      30.413  28.097  23.037  1.00  0.00     0.001 A 
ATOM     25  C   UNL A   1      31.246  29.112  23.487  1.00  0.00     0.000 A 
ENDBRANCH  18  20
ENDBRANCH  13  18
ENDBRANCH   8  10
ENDBRANCH   6   8
ENDBRANCH   5   6
ENDBRANCH   4   5
ENDBRANCH   3   4
ENDBRANCH   2   3
ENDBRANCH   1   2
BRANCH   1  26
ATOM     26  C   UNL A   1      32.935  26.680  26.191  1.00  0.00     0.188 C 
BRANCH  26  27
ATOM     27  O   UNL A   1      33.055  27.910  26.859  1.00  0.00    -0.376 OA
BRANCH  27  28
ATOM     28  C   UNL A   1      31.914  28.715  27.090  1.00  0.00     0.202 C 
BRANCH  28  29
ATOM     29  C   UNL A   1      31.889  30.252  26.938  1.00  0.00     0.261 C 
BRANCH  29  30
ATOM     30  O   UNL A   1      33.092  30.916  26.537  1.00  0.00    -0.460 OA
BRANCH  30  31
ATOM     31  C   UNL A   1      33.563  31.880  27.361  1.00  0.00     0.338 C 
ATOM     32  O   UNL A   1      32.948  32.843  27.802  1.00  0.00    -0.246 OA
BRANCH  31  33
ATOM     33  C   UNL A   1      34.891  31.443  27.840  1.00  0.00     0.060 A 
ATOM     34  C   UNL A   1      35.133  30.074  28.011  1.00  0.00     0.016 A 
ATOM     35  C   UNL A   1      35.900  32.374  28.096  1.00  0.00     0.016 A 
ATOM     36  C   UNL A   1      36.386  29.637  28.433  1.00  0.00     0.010 A 
ATOM     37  C   UNL A   1      37.147  31.932  28.557  1.00  0.00     0.010 A 
ATOM     38  C   UNL A   1      37.392  30.561  28.742  1.00  0.00    -0.014 A 
BRANCH  38  39
ATOM     39  C   UNL A   1      38.603  30.098  29.464  1.00  0.00     0.031 A 
ATOM     40  C   UNL A   1      38.750  30.486  30.911  1.00  0.00     0.074 A 
ATOM     41  C   UNL A   1      39.503  29.276  28.892  1.00  0.00     0.049 A 
ATOM     42  N   UNL A   1      39.698  30.195  31.765  1.00  0.00    -0.248 NA
ATOM     43  C   UNL A   1      37.666  31.310  31.472  1.00  0.00     0.031 C 
ATOM     44  C   UNL A   1      39.383  28.693  27.559  1.00  0.00     0.029 A 
ATOM     45  N   UNL A   1      40.656  28.723  29.399  1.00  0.00    -0.354 N 
ATOM     46  C   UNL A   1      39.348  30.843  32.945  1.00  0.00     0.074 A 
ATOM     47  C   UNL A   1      38.094  31.521  32.706  1.00  0.00     0.031 C 
ATOM     48  C   UNL A   1      40.371  27.797  27.387  1.00  0.00     0.029 A 
ATOM     49  C   UNL A   1      41.226  27.781  28.575  1.00  0.00     0.049 A 
ATOM     50  H   UNL A   1      41.037  28.978  30.271  1.00  0.00     0.167 HD
ATOM     51  C   UNL A   1      40.026  30.886  34.117  1.00  0.00     0.037 A 
ATOM     52  C   UNL A   1      42.286  26.970  28.786  1.00  0.00     0.037 A 
ATOM     53  C   UNL A   1      41.252  30.180  34.369  1.00  0.00     0.049 A 
ATOM     54  C   UNL A   1      43.038  27.059  30.096  1.00  0.00     0.074 A 
ATOM     55  C   UNL A   1      42.037  30.195  35.509  1.00  0.00     0.029 A 
ATOM     56  N   UNL A   1      41.868  29.325  33.469  1.00  0.00    -0.354 N 
ATOM     57  N   UNL A   1      42.728  27.705  31.194  1.00  0.00    -0.248 NA
ATOM     58  C   UNL A   1      44.295  26.298  30.188  1.00  0.00     0.031 C 
ATOM     59  C   UNL A   1      43.160  29.397  35.276  1.00  0.00     0.029 A 
ATOM     60  C   UNL A   1      43.041  28.830  34.017  1.00  0.00     0.049 A 
ATOM     61  H   UNL A   1      41.523  29.102  32.574  1.00  0.00     0.167 HD
ATOM     62  C   UNL A   1      43.744  27.425  32.104  1.00  0.00     0.074 A 
ATOM     63  C   UNL A   1      44.647  26.503  31.449  1.00  0.00     0.031 C 
ATOM     64  C   UNL A   1      43.928  27.904  33.360  1.00  0.00     0.037 A 
BRANCH  51  65
ATOM     65  C   UNL A   1      39.505  31.805  35.183  1.00  0.00     0.064 A 
ATOM     66  C   UNL A   1      39.797  33.176  35.209  1.00  0.00     0.173 A 
ATOM     67  C   UNL A   1      38.670  31.292  36.190  1.00  0.00     0.173 A 
ATOM     68  F   UNL A   1      40.605  33.711  34.281  1.00  0.00    -0.203 F 
ATOM     69  C   UNL A   1      39.296  33.993  36.220  1.00  0.00     0.198 A 
ATOM     70  C   UNL A   1      38.143  32.119  37.177  1.00  0.00     0.198 A 
ATOM     71  F   UNL A   1      38.357  29.988  36.210  1.00  0.00    -0.203 F 
ATOM     72  F   UNL A   1      39.629  35.292  36.256  1.00  0.00    -0.200 F 
ATOM     73  C   UNL A   1      38.463  33.467  37.196  1.00  0.00     0.200 A 
ATOM     74  F   UNL A   1      37.326  31.610  38.109  1.00  0.00    -0.200 F 
ATOM     75  F   UNL A   1      37.973  34.258  38.161  1.00  0.00    -0.200 F 
ENDBRANCH  51  65
BRANCH  52  76
ATOM     76  C   UNL A   1      42.690  25.961  27.764  1.00  0.00     0.064 A 
ATOM     77  C   UNL A   1      43.643  26.277  26.782  1.00  0.00     0.173 A 
ATOM     78  C   UNL A   1      42.105  24.688  27.707  1.00  0.00     0.173 A 
ATOM     79  F   UNL A   1      44.220  27.489  26.773  1.00  0.00    -0.203 F 
ATOM     80  C   UNL A   1      43.970  25.374  25.771  1.00  0.00     0.198 A 
ATOM     81  C   UNL A   1      42.464  23.770  26.722  1.00  0.00     0.198 A 
ATOM     82  F   UNL A   1      41.181  24.333  28.612  1.00  0.00    -0.203 F 
ATOM     83  F   UNL A   1      44.831  25.732  24.809  1.00  0.00    -0.200 F 
ATOM     84  C   UNL A   1      43.385  24.118  25.746  1.00  0.00     0.200 A 
ATOM     85  F   UNL A   1      41.906  22.552  26.710  1.00  0.00    -0.200 F 
ATOM     86  F   UNL A   1      43.699  23.249  24.776  1.00  0.00    -0.200 F 
ENDBRANCH  52  76
BRANCH  64  87
ATOM     87  C   UNL A   1      45.147  27.450  34.119  1.00  0.00     0.064 A 
ATOM     88  C   UNL A   1      46.329  28.205  34.129  1.00  0.00     0.173 A 
ATOM     89  C   UNL A   1      45.110  26.286  34.903  1.00  0.00     0.173 A 
ATOM     90  F   UNL A   1      46.422  29.325  33.396  1.00  0.00    -0.203 F 
ATOM     91  C   UNL A   1      47.437  27.798  34.869  1.00  0.00     0.198 A 
ATOM     92  C   UNL A   1      46.207  25.901  35.671  1.00  0.00     0.198 A 
ATOM     93  F   UNL A   1      44.001  25.532  34.945  1.00  0.00    -0.203 F 
ATOM     94  F   UNL A   1      48.570  28.511  34.822  1.00  0.00    -0.200 F 
ATOM     95  C   UNL A   1      47.372  26.652  35.647  1.00  0.00     0.200 A 
ATOM     96  F   UNL A   1      46.135  24.805  36.439  1.00  0.00    -0.200 F 
ATOM     97  F   UNL A   1      48.434  26.270  36.369  1.00  0.00    -0.200 F 
ENDBRANCH  64  87
ENDBRANCH  38  39
ENDBRANCH  31  33
ENDBRANCH  30  31
ENDBRANCH  29  30
ENDBRANCH  28  29
ENDBRANCH  27  28
ENDBRANCH  26  27
ENDBRANCH   1  26
TORSDOF 21
ENDMDL
