MODEL 1
REMARK VINA RESULT:     -10.5      0.000      0.000
REMARK SMILES COC(=O)c1ccccc1N1C(=O)/C(=C\c2ccc(-c3ccc(Cl)c(C(=O)OCCOCCOCCOC(=O)c4ccc(-c5c6nc(c(-c7c(F)c(F)c(F)c(F)c7F)c7ccc([nH]7)c(-c7c(F)c(F)c(F)c(F)c7F)c7nc(c(-c8c(F)c(F)c(F)c(F)c8F)c8ccc5[nH]8)C=C7)C=C6)cc4)c3)o2)SC1=S
REMARK SMILES IDX 31 1 30 2 29 3 28 4 26 5 27 6 25 7 20 8 21 9 103 10 22 11
REMARK SMILES IDX 23 12 24 13 19 14 16 15 17 16 104 17 18 18 15 19 11 20 12 21
REMARK SMILES IDX 106 22 13 23 14 24 105 25 107 26 10 27 5 28 6 29 7 30 9 31
REMARK SMILES IDX 8 32 3 33 4 34 2 35 1 36 32 37 33 38 34 39 35 40 36 41 37 42
REMARK SMILES IDX 38 43 39 44 40 45 41 46 102 47 42 48 101 49 43 50 44 51
REMARK SMILES IDX 45 52 95 53 46 54 100 55 94 56 96 57 47 58 99 59 93 60 92 61
REMARK SMILES IDX 48 63 80 64 60 65 79 66 61 67 64 68 78 69 97 70 62 71 63 72
REMARK SMILES IDX 77 74 98 75 65 76 49 77 50 78 58 79 51 80 52 81 56 82 59 83
REMARK SMILES IDX 53 84 54 85 57 86 55 87 81 88 82 89 90 90 83 91 84 92 88 93
REMARK SMILES IDX 91 94 85 95 86 96 89 97 87 98 66 99 67 100 75 101 68 102
REMARK SMILES IDX 69 103 73 104 76 105 70 106 71 107 74 108 72 109
REMARK H PARENT 96 62 64 73
REMARK Flexibility Score: inf
ROOT
ATOM      1  O   UNL A   1      38.186  29.577  32.114  1.00  0.00    -0.376 OA
ENDROOT
BRANCH   1   2
ATOM      2  C   UNL A   1      37.239  30.308  32.876  1.00  0.00     0.202 C 
BRANCH   2   3
ATOM      3  C   UNL A   1      36.351  31.443  32.332  1.00  0.00     0.261 C 
BRANCH   3   4
ATOM      4  O   UNL A   1      37.022  32.523  31.679  1.00  0.00    -0.460 OA
BRANCH   4   5
ATOM      5  C   UNL A   1      36.408  33.035  30.576  1.00  0.00     0.339 C 
ATOM      6  O   UNL A   1      35.927  34.137  30.450  1.00  0.00    -0.246 OA
BRANCH   5   7
ATOM      7  C   UNL A   1      36.512  32.028  29.496  1.00  0.00     0.079 A 
ATOM      8  C   UNL A   1      35.361  30.637  27.857  1.00  0.00     0.018 A 
ATOM      9  C   UNL A   1      36.588  30.059  27.511  1.00  0.00     0.013 A 
ATOM     10  C   UNL A   1      35.332  31.608  28.867  1.00  0.00     0.029 A 
ATOM     11  C   UNL A   1      37.769  30.474  28.138  1.00  0.00     0.022 A 
ATOM     12  C   UNL A   1      37.738  31.468  29.123  1.00  0.00     0.055 A 
ATOM     13  Cl  UNL A   1      39.238  31.891  29.866  1.00  0.00    -0.083 Cl
BRANCH   8  14
ATOM     14  C   UNL A   1      34.137  30.328  27.136  1.00  0.00     0.134 A 
ATOM     15  C   UNL A   1      32.967  29.414  25.488  1.00  0.00     0.128 A 
ATOM     16  C   UNL A   1      32.090  30.151  26.275  1.00  0.00     0.051 A 
ATOM     17  O   UNL A   1      34.222  29.504  26.052  1.00  0.00    -0.457 OA
ATOM     18  C   UNL A   1      32.836  30.741  27.312  1.00  0.00     0.051 A 
BRANCH  15  19
ATOM     19  C   UNL A   1      32.679  28.699  24.296  1.00  0.00     0.068 C 
ATOM     20  N   UNL A   1      33.105  25.114  24.893  1.00  0.00    -0.260 N 
ATOM     21  C   UNL A   1      33.040  26.423  25.357  1.00  0.00     0.270 C 
ATOM     22  C   UNL A   1      32.843  24.915  23.549  1.00  0.00     0.152 C 
ATOM     23  O   UNL A   1      33.174  26.774  26.522  1.00  0.00    -0.268 OA
ATOM     24  C   UNL A   1      32.765  27.362  24.230  1.00  0.00     0.084 C 
ATOM     25  S   UNL A   1      32.570  26.473  22.765  1.00  0.00    -0.054 SA
ATOM     26  S   UNL A   1      32.672  23.481  22.707  1.00  0.00    -0.051 S 
BRANCH  20  27
ATOM     27  C   UNL A   1      33.374  24.078  25.838  1.00  0.00     0.065 A 
ATOM     28  C   UNL A   1      32.393  23.470  26.647  1.00  0.00     0.084 A 
ATOM     29  C   UNL A   1      32.769  22.439  27.529  1.00  0.00     0.018 A 
ATOM     30  C   UNL A   1      34.090  21.995  27.596  1.00  0.00     0.001 A 
ATOM     31  C   UNL A   1      34.700  23.609  25.915  1.00  0.00     0.028 A 
ATOM     32  C   UNL A   1      35.057  22.579  26.786  1.00  0.00     0.002 A 
BRANCH  28  33
ATOM     33  C   UNL A   1      30.938  23.773  26.606  1.00  0.00     0.339 C 
ATOM     34  O   UNL A   1      30.484  24.887  26.814  1.00  0.00    -0.246 OA
BRANCH  33  35
ATOM     35  O   UNL A   1      30.210  22.650  26.382  1.00  0.00    -0.465 OA
ATOM     36  C   UNL A   1      29.105  22.496  27.276  1.00  0.00     0.282 C 
ENDBRANCH  33  35
ENDBRANCH  28  33
ENDBRANCH  20  27
ENDBRANCH  15  19
ENDBRANCH   8  14
ENDBRANCH   5   7
ENDBRANCH   4   5
ENDBRANCH   3   4
ENDBRANCH   2   3
ENDBRANCH   1   2
BRANCH   1  37
ATOM     37  C   UNL A   1      37.773  28.546  31.247  1.00  0.00     0.188 C 
BRANCH  37  38
ATOM     38  C   UNL A   1      38.795  27.472  30.821  1.00  0.00     0.188 C 
BRANCH  38  39
ATOM     39  O   UNL A   1      39.790  27.776  29.868  1.00  0.00    -0.376 OA
BRANCH  39  40
ATOM     40  C   UNL A   1      39.691  27.266  28.550  1.00  0.00     0.202 C 
BRANCH  40  41
ATOM     41  C   UNL A   1      39.711  25.767  28.197  1.00  0.00     0.261 C 
BRANCH  41  42
ATOM     42  O   UNL A   1      40.850  25.008  28.616  1.00  0.00    -0.460 OA
BRANCH  42  43
ATOM     43  C   UNL A   1      41.594  24.475  27.615  1.00  0.00     0.338 C 
ATOM     44  O   UNL A   1      41.262  23.617  26.816  1.00  0.00    -0.246 OA
BRANCH  43  45
ATOM     45  C   UNL A   1      42.860  25.223  27.509  1.00  0.00     0.060 A 
ATOM     46  C   UNL A   1      43.469  25.689  28.683  1.00  0.00     0.016 A 
ATOM     47  C   UNL A   1      43.415  25.501  26.261  1.00  0.00     0.016 A 
ATOM     48  C   UNL A   1      44.634  26.451  28.611  1.00  0.00     0.010 A 
ATOM     49  C   UNL A   1      44.568  26.286  26.189  1.00  0.00     0.010 A 
ATOM     50  C   UNL A   1      45.167  26.786  27.360  1.00  0.00    -0.014 A 
BRANCH  50  51
ATOM     51  C   UNL A   1      46.247  27.797  27.261  1.00  0.00     0.031 A 
ATOM     52  C   UNL A   1      45.871  29.250  27.206  1.00  0.00     0.074 A 
ATOM     53  C   UNL A   1      47.539  27.432  27.208  1.00  0.00     0.049 A 
ATOM     54  N   UNL A   1      46.628  30.302  27.028  1.00  0.00    -0.248 NA
ATOM     55  C   UNL A   1      44.441  29.556  27.366  1.00  0.00     0.031 C 
ATOM     56  C   UNL A   1      48.032  26.060  27.289  1.00  0.00     0.029 A 
ATOM     57  N   UNL A   1      48.671  28.192  27.048  1.00  0.00    -0.354 N 
ATOM     58  C   UNL A   1      45.767  31.390  27.034  1.00  0.00     0.074 A 
ATOM     59  C   UNL A   1      44.428  30.871  27.209  1.00  0.00     0.031 C 
ATOM     60  C   UNL A   1      49.368  26.071  27.146  1.00  0.00     0.029 A 
ATOM     61  C   UNL A   1      49.816  27.447  26.929  1.00  0.00     0.049 A 
ATOM     62  H   UNL A   1      48.661  29.176  27.020  1.00  0.00     0.167 HD
ATOM     63  C   UNL A   1      46.067  32.705  26.904  1.00  0.00     0.037 A 
ATOM     64  C   UNL A   1      51.076  27.829  26.641  1.00  0.00     0.037 A 
ATOM     65  C   UNL A   1      47.401  33.216  26.728  1.00  0.00     0.049 A 
ATOM     66  C   UNL A   1      51.382  29.292  26.440  1.00  0.00     0.074 A 
ATOM     67  C   UNL A   1      47.815  34.533  26.634  1.00  0.00     0.029 A 
ATOM     68  N   UNL A   1      48.538  32.429  26.600  1.00  0.00    -0.354 N 
ATOM     69  N   UNL A   1      50.572  30.322  26.489  1.00  0.00    -0.248 NA
ATOM     70  C   UNL A   1      52.779  29.644  26.148  1.00  0.00     0.031 C 
ATOM     71  C   UNL A   1      49.190  34.540  26.378  1.00  0.00     0.029 A 
ATOM     72  C   UNL A   1      49.647  33.232  26.386  1.00  0.00     0.049 A 
ATOM     73  H   UNL A   1      48.554  31.447  26.653  1.00  0.00     0.167 HD
ATOM     74  C   UNL A   1      51.362  31.443  26.262  1.00  0.00     0.074 A 
ATOM     75  C   UNL A   1      52.717  30.968  26.084  1.00  0.00     0.031 C 
ATOM     76  C   UNL A   1      50.995  32.749  26.210  1.00  0.00     0.037 A 
BRANCH  63  77
ATOM     77  C   UNL A   1      44.922  33.677  26.898  1.00  0.00     0.064 A 
ATOM     78  C   UNL A   1      44.125  33.884  25.762  1.00  0.00     0.173 A 
ATOM     79  C   UNL A   1      44.612  34.406  28.056  1.00  0.00     0.173 A 
ATOM     80  F   UNL A   1      44.384  33.221  24.625  1.00  0.00    -0.203 F 
ATOM     81  C   UNL A   1      43.088  34.815  25.773  1.00  0.00     0.198 A 
ATOM     82  C   UNL A   1      43.553  35.310  28.075  1.00  0.00     0.198 A 
ATOM     83  F   UNL A   1      45.338  34.244  29.173  1.00  0.00    -0.203 F 
ATOM     84  F   UNL A   1      42.382  35.042  24.657  1.00  0.00    -0.200 F 
ATOM     85  C   UNL A   1      42.800  35.522  26.931  1.00  0.00     0.200 A 
ATOM     86  F   UNL A   1      43.267  35.980  29.199  1.00  0.00    -0.200 F 
ATOM     87  F   UNL A   1      41.802  36.416  26.941  1.00  0.00    -0.200 F 
ENDBRANCH  63  77
BRANCH  64  88
ATOM     88  C   UNL A   1      52.139  26.799  26.504  1.00  0.00     0.064 A 
ATOM     89  C   UNL A   1      53.045  26.548  27.542  1.00  0.00     0.173 A 
ATOM     90  C   UNL A   1      52.264  26.041  25.330  1.00  0.00     0.173 A 
ATOM     91  F   UNL A   1      52.985  27.267  28.672  1.00  0.00    -0.203 F 
ATOM     92  C   UNL A   1      54.041  25.581  27.410  1.00  0.00     0.198 A 
ATOM     93  C   UNL A   1      53.240  25.054  25.210  1.00  0.00     0.198 A 
ATOM     94  F   UNL A   1      51.425  26.248  24.304  1.00  0.00    -0.203 F 
ATOM     95  F   UNL A   1      54.919  25.387  28.402  1.00  0.00    -0.200 F 
ATOM     96  C   UNL A   1      54.131  24.829  26.247  1.00  0.00     0.200 A 
ATOM     97  F   UNL A   1      53.318  24.324  24.089  1.00  0.00    -0.200 F 
ATOM     98  F   UNL A   1      55.083  23.893  26.125  1.00  0.00    -0.200 F 
ENDBRANCH  64  88
BRANCH  76  99
ATOM     99  C   UNL A   1      52.077  33.769  25.986  1.00  0.00     0.064 A 
ATOM    100  C   UNL A   1      52.776  34.353  27.052  1.00  0.00     0.173 A 
ATOM    101  C   UNL A   1      52.460  34.120  24.681  1.00  0.00     0.173 A 
ATOM    102  F   UNL A   1      52.443  34.062  28.319  1.00  0.00    -0.203 F 
ATOM    103  C   UNL A   1      53.802  35.268  26.820  1.00  0.00     0.198 A 
ATOM    104  C   UNL A   1      53.507  35.009  24.454  1.00  0.00     0.198 A 
ATOM    105  F   UNL A   1      51.831  33.584  23.625  1.00  0.00    -0.203 F 
ATOM    106  F   UNL A   1      54.425  35.849  27.855  1.00  0.00    -0.200 F 
ATOM    107  C   UNL A   1      54.171  35.589  25.523  1.00  0.00     0.200 A 
ATOM    108  F   UNL A   1      53.874  35.302  23.198  1.00  0.00    -0.200 F 
ATOM    109  F   UNL A   1      55.167  36.459  25.303  1.00  0.00    -0.200 F 
ENDBRANCH  76  99
ENDBRANCH  50  51
ENDBRANCH  43  45
ENDBRANCH  42  43
ENDBRANCH  41  42
ENDBRANCH  40  41
ENDBRANCH  39  40
ENDBRANCH  38  39
ENDBRANCH  37  38
ENDBRANCH   1  37
TORSDOF 22
ENDMDL
MODEL 2
REMARK VINA RESULT:     -10.4      5.714     11.379
REMARK SMILES COC(=O)c1ccccc1N1C(=O)/C(=C\c2ccc(-c3ccc(Cl)c(C(=O)OCCOCCOCCOC(=O)c4ccc(-c5c6nc(c(-c7c(F)c(F)c(F)c(F)c7F)c7ccc([nH]7)c(-c7c(F)c(F)c(F)c(F)c7F)c7nc(c(-c8c(F)c(F)c(F)c(F)c8F)c8ccc5[nH]8)C=C7)C=C6)cc4)c3)o2)SC1=S
REMARK SMILES IDX 31 1 30 2 29 3 28 4 26 5 27 6 25 7 20 8 21 9 103 10 22 11
REMARK SMILES IDX 23 12 24 13 19 14 16 15 17 16 104 17 18 18 15 19 11 20 12 21
REMARK SMILES IDX 106 22 13 23 14 24 105 25 107 26 10 27 5 28 6 29 7 30 9 31
REMARK SMILES IDX 8 32 3 33 4 34 2 35 1 36 32 37 33 38 34 39 35 40 36 41 37 42
REMARK SMILES IDX 38 43 39 44 40 45 41 46 102 47 42 48 101 49 43 50 44 51
REMARK SMILES IDX 45 52 95 53 46 54 100 55 94 56 96 57 47 58 99 59 93 60 92 61
REMARK SMILES IDX 48 63 80 64 60 65 79 66 61 67 64 68 78 69 97 70 62 71 63 72
REMARK SMILES IDX 77 74 98 75 65 76 49 77 50 78 58 79 51 80 52 81 56 82 59 83
REMARK SMILES IDX 53 84 54 85 57 86 55 87 81 88 82 89 90 90 83 91 84 92 88 93
REMARK SMILES IDX 91 94 85 95 86 96 89 97 87 98 66 99 67 100 75 101 68 102
REMARK SMILES IDX 69 103 73 104 76 105 70 106 71 107 74 108 72 109
REMARK H PARENT 96 62 64 73
REMARK Flexibility Score: inf
ROOT
ATOM      1  O   UNL A   1      44.033  19.341  24.129  1.00  0.00    -0.376 OA
ENDROOT
BRANCH   1   2
ATOM      2  C   UNL A   1      43.383  19.379  25.389  1.00  0.00     0.202 C 
BRANCH   2   3
ATOM      3  C   UNL A   1      42.903  20.659  26.099  1.00  0.00     0.261 C 
BRANCH   3   4
ATOM      4  O   UNL A   1      41.591  21.120  25.768  1.00  0.00    -0.460 OA
BRANCH   4   5
ATOM      5  C   UNL A   1      40.683  21.134  26.784  1.00  0.00     0.339 C 
ATOM      6  O   UNL A   1      40.409  20.226  27.534  1.00  0.00    -0.246 OA
BRANCH   5   7
ATOM      7  C   UNL A   1      40.140  22.507  26.882  1.00  0.00     0.079 A 
ATOM      8  C   UNL A   1      40.406  24.772  27.744  1.00  0.00     0.018 A 
ATOM      9  C   UNL A   1      39.156  25.104  27.209  1.00  0.00     0.013 A 
ATOM     10  C   UNL A   1      40.880  23.462  27.592  1.00  0.00     0.029 A 
ATOM     11  C   UNL A   1      38.412  24.153  26.501  1.00  0.00     0.022 A 
ATOM     12  C   UNL A   1      38.906  22.856  26.324  1.00  0.00     0.055 A 
ATOM     13  Cl  UNL A   1      37.904  21.740  25.468  1.00  0.00    -0.083 Cl
BRANCH   8  14
ATOM     14  C   UNL A   1      41.264  25.768  28.368  1.00  0.00     0.134 A 
ATOM     15  C   UNL A   1      42.037  27.823  28.679  1.00  0.00     0.128 A 
ATOM     16  C   UNL A   1      42.791  26.960  29.466  1.00  0.00     0.051 A 
ATOM     17  O   UNL A   1      41.074  27.076  28.033  1.00  0.00    -0.457 OA
ATOM     18  C   UNL A   1      42.307  25.655  29.257  1.00  0.00     0.051 A 
BRANCH  15  19
ATOM     19  C   UNL A   1      42.202  29.223  28.515  1.00  0.00     0.068 C 
ATOM     20  N   UNL A   1      40.490  30.976  31.233  1.00  0.00    -0.260 N 
ATOM     21  C   UNL A   1      40.949  29.804  30.643  1.00  0.00     0.270 C 
ATOM     22  C   UNL A   1      40.828  32.163  30.606  1.00  0.00     0.152 C 
ATOM     23  O   UNL A   1      40.804  28.675  31.094  1.00  0.00    -0.268 OA
ATOM     24  C   UNL A   1      41.666  30.107  29.370  1.00  0.00     0.084 C 
ATOM     25  S   UNL A   1      41.718  31.813  29.122  1.00  0.00    -0.054 SA
ATOM     26  S   UNL A   1      40.593  33.735  31.124  1.00  0.00    -0.051 S 
BRANCH  20  27
ATOM     27  C   UNL A   1      39.767  30.874  32.459  1.00  0.00     0.065 A 
ATOM     28  C   UNL A   1      38.384  31.116  32.587  1.00  0.00     0.084 A 
ATOM     29  C   UNL A   1      37.770  30.962  33.844  1.00  0.00     0.018 A 
ATOM     30  C   UNL A   1      38.504  30.551  34.958  1.00  0.00     0.001 A 
ATOM     31  C   UNL A   1      40.487  30.452  33.595  1.00  0.00     0.028 A 
ATOM     32  C   UNL A   1      39.863  30.293  34.833  1.00  0.00     0.002 A 
BRANCH  28  33
ATOM     33  C   UNL A   1      37.467  31.460  31.469  1.00  0.00     0.339 C 
ATOM     34  O   UNL A   1      36.689  32.400  31.510  1.00  0.00    -0.246 OA
BRANCH  33  35
ATOM     35  O   UNL A   1      37.568  30.560  30.458  1.00  0.00    -0.465 OA
ATOM     36  C   UNL A   1      36.893  29.327  30.719  1.00  0.00     0.282 C 
ENDBRANCH  33  35
ENDBRANCH  28  33
ENDBRANCH  20  27
ENDBRANCH  15  19
ENDBRANCH   8  14
ENDBRANCH   5   7
ENDBRANCH   4   5
ENDBRANCH   3   4
ENDBRANCH   2   3
ENDBRANCH   1   2
BRANCH   1  37
ATOM     37  C   UNL A   1      45.429  19.166  24.042  1.00  0.00     0.188 C 
BRANCH  37  38
ATOM     38  C   UNL A   1      46.343  19.969  24.990  1.00  0.00     0.188 C 
BRANCH  38  39
ATOM     39  O   UNL A   1      46.778  21.262  24.632  1.00  0.00    -0.376 OA
BRANCH  39  40
ATOM     40  C   UNL A   1      45.890  22.363  24.728  1.00  0.00     0.202 C 
BRANCH  40  41
ATOM     41  C   UNL A   1      45.939  23.420  25.846  1.00  0.00     0.261 C 
BRANCH  41  42
ATOM     42  O   UNL A   1      47.173  24.119  26.037  1.00  0.00    -0.460 OA
BRANCH  42  43
ATOM     43  C   UNL A   1      47.311  25.262  25.322  1.00  0.00     0.338 C 
ATOM     44  O   UNL A   1      47.535  25.372  24.129  1.00  0.00    -0.246 OA
BRANCH  43  45
ATOM     45  C   UNL A   1      46.974  26.410  26.183  1.00  0.00     0.060 A 
ATOM     46  C   UNL A   1      47.951  26.908  27.056  1.00  0.00     0.016 A 
ATOM     47  C   UNL A   1      45.692  26.957  26.163  1.00  0.00     0.016 A 
ATOM     48  C   UNL A   1      47.643  27.953  27.926  1.00  0.00     0.010 A 
ATOM     49  C   UNL A   1      45.378  27.988  27.052  1.00  0.00     0.010 A 
ATOM     50  C   UNL A   1      46.342  28.471  27.956  1.00  0.00    -0.014 A 
BRANCH  50  51
ATOM     51  C   UNL A   1      45.937  29.397  29.040  1.00  0.00     0.031 A 
ATOM     52  C   UNL A   1      45.607  28.825  30.389  1.00  0.00     0.074 A 
ATOM     53  C   UNL A   1      45.850  30.720  28.828  1.00  0.00     0.049 A 
ATOM     54  N   UNL A   1      45.144  29.421  31.458  1.00  0.00    -0.248 NA
ATOM     55  C   UNL A   1      45.822  27.379  30.550  1.00  0.00     0.031 C 
ATOM     56  C   UNL A   1      46.178  31.398  27.578  1.00  0.00     0.029 A 
ATOM     57  N   UNL A   1      45.434  31.728  29.663  1.00  0.00    -0.354 N 
ATOM     58  C   UNL A   1      44.993  28.423  32.410  1.00  0.00     0.074 A 
ATOM     59  C   UNL A   1      45.391  27.179  31.786  1.00  0.00     0.031 C 
ATOM     60  C   UNL A   1      45.920  32.710  27.715  1.00  0.00     0.029 A 
ATOM     61  C   UNL A   1      45.376  32.954  29.052  1.00  0.00     0.049 A 
ATOM     62  H   UNL A   1      45.199  31.583  30.609  1.00  0.00     0.167 HD
ATOM     63  C   UNL A   1      44.561  28.534  33.689  1.00  0.00     0.037 A 
ATOM     64  C   UNL A   1      44.905  34.132  29.508  1.00  0.00     0.037 A 
ATOM     65  C   UNL A   1      44.165  29.774  34.303  1.00  0.00     0.049 A 
ATOM     66  C   UNL A   1      44.372  34.225  30.916  1.00  0.00     0.074 A 
ATOM     67  C   UNL A   1      43.757  30.000  35.606  1.00  0.00     0.029 A 
ATOM     68  N   UNL A   1      44.108  30.997  33.648  1.00  0.00    -0.354 N 
ATOM     69  N   UNL A   1      44.271  33.287  31.826  1.00  0.00    -0.248 NA
ATOM     70  C   UNL A   1      43.891  35.542  31.358  1.00  0.00     0.031 C 
ATOM     71  C   UNL A   1      43.387  31.344  35.720  1.00  0.00     0.029 A 
ATOM     72  C   UNL A   1      43.633  31.973  34.510  1.00  0.00     0.049 A 
ATOM     73  H   UNL A   1      44.367  31.149  32.712  1.00  0.00     0.167 HD
ATOM     74  C   UNL A   1      43.743  33.904  32.955  1.00  0.00     0.074 A 
ATOM     75  C   UNL A   1      43.553  35.298  32.617  1.00  0.00     0.031 C 
ATOM     76  C   UNL A   1      43.446  33.361  34.164  1.00  0.00     0.037 A 
BRANCH  63  77
ATOM     77  C   UNL A   1      44.448  27.270  34.492  1.00  0.00     0.064 A 
ATOM     78  C   UNL A   1      45.524  26.757  35.231  1.00  0.00     0.173 A 
ATOM     79  C   UNL A   1      43.234  26.565  34.528  1.00  0.00     0.173 A 
ATOM     80  F   UNL A   1      46.710  27.385  35.223  1.00  0.00    -0.203 F 
ATOM     81  C   UNL A   1      45.403  25.565  35.942  1.00  0.00     0.198 A 
ATOM     82  C   UNL A   1      43.106  25.393  35.268  1.00  0.00     0.198 A 
ATOM     83  F   UNL A   1      42.171  27.012  33.844  1.00  0.00    -0.203 F 
ATOM     84  F   UNL A   1      46.463  25.062  36.588  1.00  0.00    -0.200 F 
ATOM     85  C   UNL A   1      44.193  24.888  35.964  1.00  0.00     0.200 A 
ATOM     86  F   UNL A   1      41.932  24.749  35.300  1.00  0.00    -0.200 F 
ATOM     87  F   UNL A   1      44.077  23.742  36.650  1.00  0.00    -0.200 F 
ENDBRANCH  63  77
BRANCH  64  88
ATOM     88  C   UNL A   1      44.899  35.315  28.608  1.00  0.00     0.064 A 
ATOM     89  C   UNL A   1      43.757  35.664  27.876  1.00  0.00     0.173 A 
ATOM     90  C   UNL A   1      46.037  36.124  28.468  1.00  0.00     0.173 A 
ATOM     91  F   UNL A   1      42.654  34.905  27.953  1.00  0.00    -0.203 F 
ATOM     92  C   UNL A   1      43.754  36.774  27.033  1.00  0.00     0.198 A 
ATOM     93  C   UNL A   1      46.024  37.250  27.649  1.00  0.00     0.198 A 
ATOM     94  F   UNL A   1      47.158  35.828  29.143  1.00  0.00    -0.203 F 
ATOM     95  F   UNL A   1      42.663  37.064  26.314  1.00  0.00    -0.200 F 
ATOM     96  C   UNL A   1      44.885  37.572  26.927  1.00  0.00     0.200 A 
ATOM     97  F   UNL A   1      47.116  38.022  27.557  1.00  0.00    -0.200 F 
ATOM     98  F   UNL A   1      44.878  38.644  26.124  1.00  0.00    -0.200 F 
ENDBRANCH  64  88
BRANCH  76  99
ATOM     99  C   UNL A   1      42.918  34.280  35.230  1.00  0.00     0.064 A 
ATOM    100  C   UNL A   1      43.771  35.033  36.050  1.00  0.00     0.173 A 
ATOM    101  C   UNL A   1      41.533  34.455  35.391  1.00  0.00     0.173 A 
ATOM    102  F   UNL A   1      45.102  34.896  35.946  1.00  0.00    -0.203 F 
ATOM    103  C   UNL A   1      43.259  35.907  37.006  1.00  0.00     0.198 A 
ATOM    104  C   UNL A   1      41.026  35.354  36.325  1.00  0.00     0.198 A 
ATOM    105  F   UNL A   1      40.672  33.767  34.627  1.00  0.00    -0.203 F 
ATOM    106  F   UNL A   1      44.093  36.582  37.810  1.00  0.00    -0.200 F 
ATOM    107  C   UNL A   1      41.888  36.074  37.137  1.00  0.00     0.200 A 
ATOM    108  F   UNL A   1      39.701  35.527  36.436  1.00  0.00    -0.200 F 
ATOM    109  F   UNL A   1      41.398  36.926  38.048  1.00  0.00    -0.200 F 
ENDBRANCH  76  99
ENDBRANCH  50  51
ENDBRANCH  43  45
ENDBRANCH  42  43
ENDBRANCH  41  42
ENDBRANCH  40  41
ENDBRANCH  39  40
ENDBRANCH  38  39
ENDBRANCH  37  38
ENDBRANCH   1  37
TORSDOF 22
ENDMDL
MODEL 3
REMARK VINA RESULT:     -10.0      1.146      2.397
REMARK SMILES COC(=O)c1ccccc1N1C(=O)/C(=C\c2ccc(-c3ccc(Cl)c(C(=O)OCCOCCOCCOC(=O)c4ccc(-c5c6nc(c(-c7c(F)c(F)c(F)c(F)c7F)c7ccc([nH]7)c(-c7c(F)c(F)c(F)c(F)c7F)c7nc(c(-c8c(F)c(F)c(F)c(F)c8F)c8ccc5[nH]8)C=C7)C=C6)cc4)c3)o2)SC1=S
REMARK SMILES IDX 31 1 30 2 29 3 28 4 26 5 27 6 25 7 20 8 21 9 103 10 22 11
REMARK SMILES IDX 23 12 24 13 19 14 16 15 17 16 104 17 18 18 15 19 11 20 12 21
REMARK SMILES IDX 106 22 13 23 14 24 105 25 107 26 10 27 5 28 6 29 7 30 9 31
REMARK SMILES IDX 8 32 3 33 4 34 2 35 1 36 32 37 33 38 34 39 35 40 36 41 37 42
REMARK SMILES IDX 38 43 39 44 40 45 41 46 102 47 42 48 101 49 43 50 44 51
REMARK SMILES IDX 45 52 95 53 46 54 100 55 94 56 96 57 47 58 99 59 93 60 92 61
REMARK SMILES IDX 48 63 80 64 60 65 79 66 61 67 64 68 78 69 97 70 62 71 63 72
REMARK SMILES IDX 77 74 98 75 65 76 49 77 50 78 58 79 51 80 52 81 56 82 59 83
REMARK SMILES IDX 53 84 54 85 57 86 55 87 81 88 82 89 90 90 83 91 84 92 88 93
REMARK SMILES IDX 91 94 85 95 86 96 89 97 87 98 66 99 67 100 75 101 68 102
REMARK SMILES IDX 69 103 73 104 76 105 70 106 71 107 74 108 72 109
REMARK H PARENT 96 62 64 73
REMARK Flexibility Score: inf
ROOT
ATOM      1  O   UNL A   1      38.162  29.836  32.407  1.00  0.00    -0.376 OA
ENDROOT
BRANCH   1   2
ATOM      2  C   UNL A   1      37.244  30.660  33.108  1.00  0.00     0.202 C 
BRANCH   2   3
ATOM      3  C   UNL A   1      36.324  31.711  32.460  1.00  0.00     0.261 C 
BRANCH   3   4
ATOM      4  O   UNL A   1      36.950  32.665  31.599  1.00  0.00    -0.460 OA
BRANCH   4   5
ATOM      5  C   UNL A   1      36.251  33.021  30.485  1.00  0.00     0.339 C 
ATOM      6  O   UNL A   1      35.609  34.032  30.313  1.00  0.00    -0.246 OA
BRANCH   5   7
ATOM      7  C   UNL A   1      36.487  31.984  29.456  1.00  0.00     0.079 A 
ATOM      8  C   UNL A   1      35.533  30.450  27.817  1.00  0.00     0.018 A 
ATOM      9  C   UNL A   1      36.816  29.952  27.563  1.00  0.00     0.013 A 
ATOM     10  C   UNL A   1      35.378  31.454  28.783  1.00  0.00     0.029 A 
ATOM     11  C   UNL A   1      37.927  30.476  28.234  1.00  0.00     0.022 A 
ATOM     12  C   UNL A   1      37.769  31.502  29.173  1.00  0.00     0.055 A 
ATOM     13  Cl  UNL A   1      39.191  32.062  29.977  1.00  0.00    -0.083 Cl
BRANCH   8  14
ATOM     14  C   UNL A   1      34.377  30.024  27.046  1.00  0.00     0.134 A 
ATOM     15  C   UNL A   1      33.375  29.041  25.328  1.00  0.00     0.128 A 
ATOM     16  C   UNL A   1      32.393  29.635  26.112  1.00  0.00     0.051 A 
ATOM     17  O   UNL A   1      34.593  29.259  25.937  1.00  0.00    -0.457 OA
ATOM     18  C   UNL A   1      33.031  30.270  27.194  1.00  0.00     0.051 A 
BRANCH  15  19
ATOM     19  C   UNL A   1      33.211  28.343  24.103  1.00  0.00     0.068 C 
ATOM     20  N   UNL A   1      33.397  24.741  24.717  1.00  0.00    -0.260 N 
ATOM     21  C   UNL A   1      33.331  26.050  25.181  1.00  0.00     0.270 C 
ATOM     22  C   UNL A   1      33.301  24.559  23.349  1.00  0.00     0.152 C 
ATOM     23  O   UNL A   1      33.330  26.391  26.356  1.00  0.00    -0.268 OA
ATOM     24  C   UNL A   1      33.245  27.004  24.036  1.00  0.00     0.084 C 
ATOM     25  S   UNL A   1      33.200  26.130  22.551  1.00  0.00    -0.054 SA
ATOM     26  S   UNL A   1      33.175  23.137  22.479  1.00  0.00    -0.051 S 
BRANCH  20  27
ATOM     27  C   UNL A   1      33.496  23.691  25.678  1.00  0.00     0.065 A 
ATOM     28  C   UNL A   1      34.649  22.906  25.880  1.00  0.00     0.084 A 
ATOM     29  C   UNL A   1      34.641  21.911  26.876  1.00  0.00     0.018 A 
ATOM     30  C   UNL A   1      33.518  21.706  27.680  1.00  0.00     0.001 A 
ATOM     31  C   UNL A   1      32.377  23.473  26.507  1.00  0.00     0.028 A 
ATOM     32  C   UNL A   1      32.386  22.490  27.497  1.00  0.00     0.002 A 
BRANCH  28  33
ATOM     33  C   UNL A   1      35.942  23.083  25.168  1.00  0.00     0.339 C 
ATOM     34  O   UNL A   1      36.523  24.155  25.098  1.00  0.00    -0.246 OA
BRANCH  33  35
ATOM     35  O   UNL A   1      36.331  21.932  24.567  1.00  0.00    -0.465 OA
ATOM     36  C   UNL A   1      37.686  21.568  24.847  1.00  0.00     0.282 C 
ENDBRANCH  33  35
ENDBRANCH  28  33
ENDBRANCH  20  27
ENDBRANCH  15  19
ENDBRANCH   8  14
ENDBRANCH   5   7
ENDBRANCH   4   5
ENDBRANCH   3   4
ENDBRANCH   2   3
ENDBRANCH   1   2
BRANCH   1  37
ATOM     37  C   UNL A   1      37.707  28.778  31.595  1.00  0.00     0.188 C 
BRANCH  37  38
ATOM     38  C   UNL A   1      38.662  27.606  31.289  1.00  0.00     0.188 C 
BRANCH  38  39
ATOM     39  O   UNL A   1      39.671  27.747  30.314  1.00  0.00    -0.376 OA
BRANCH  39  40
ATOM     40  C   UNL A   1      39.449  27.294  28.990  1.00  0.00     0.202 C 
BRANCH  40  41
ATOM     41  C   UNL A   1      39.409  25.811  28.577  1.00  0.00     0.261 C 
BRANCH  41  42
ATOM     42  O   UNL A   1      40.636  25.076  28.643  1.00  0.00    -0.460 OA
BRANCH  42  43
ATOM     43  C   UNL A   1      41.220  24.813  27.448  1.00  0.00     0.338 C 
ATOM     44  O   UNL A   1      40.759  24.175  26.518  1.00  0.00    -0.246 OA
BRANCH  43  45
ATOM     45  C   UNL A   1      42.478  25.575  27.352  1.00  0.00     0.060 A 
ATOM     46  C   UNL A   1      43.207  25.826  28.523  1.00  0.00     0.016 A 
ATOM     47  C   UNL A   1      42.908  26.079  26.125  1.00  0.00     0.016 A 
ATOM     48  C   UNL A   1      44.368  26.596  28.472  1.00  0.00     0.010 A 
ATOM     49  C   UNL A   1      44.058  26.871  26.079  1.00  0.00     0.010 A 
ATOM     50  C   UNL A   1      44.777  27.155  27.255  1.00  0.00    -0.014 A 
BRANCH  50  51
ATOM     51  C   UNL A   1      45.854  28.174  27.232  1.00  0.00     0.031 A 
ATOM     52  C   UNL A   1      45.485  29.616  27.435  1.00  0.00     0.074 A 
ATOM     53  C   UNL A   1      47.134  27.827  27.022  1.00  0.00     0.049 A 
ATOM     54  N   UNL A   1      46.235  30.686  27.365  1.00  0.00    -0.248 NA
ATOM     55  C   UNL A   1      44.075  29.886  27.752  1.00  0.00     0.031 C 
ATOM     56  C   UNL A   1      47.622  26.462  26.847  1.00  0.00     0.029 A 
ATOM     57  N   UNL A   1      48.256  28.609  26.894  1.00  0.00    -0.354 N 
ATOM     58  C   UNL A   1      45.385  31.756  27.609  1.00  0.00     0.074 A 
ATOM     59  C   UNL A   1      44.059  31.209  27.805  1.00  0.00     0.031 C 
ATOM     60  C   UNL A   1      48.943  26.502  26.604  1.00  0.00     0.029 A 
ATOM     61  C   UNL A   1      49.383  27.897  26.571  1.00  0.00     0.049 A 
ATOM     62  H   UNL A   1      48.252  29.585  27.023  1.00  0.00     0.167 HD
ATOM     63  C   UNL A   1      45.684  33.076  27.663  1.00  0.00     0.037 A 
ATOM     64  C   UNL A   1      50.620  28.325  26.249  1.00  0.00     0.037 A 
ATOM     65  C   UNL A   1      47.004  33.614  27.467  1.00  0.00     0.049 A 
ATOM     66  C   UNL A   1      50.920  29.803  26.256  1.00  0.00     0.074 A 
ATOM     67  C   UNL A   1      47.419  34.932  27.548  1.00  0.00     0.029 A 
ATOM     68  N   UNL A   1      48.121  32.863  27.128  1.00  0.00    -0.354 N 
ATOM     69  N   UNL A   1      50.124  30.809  26.529  1.00  0.00    -0.248 NA
ATOM     70  C   UNL A   1      52.293  30.204  25.915  1.00  0.00     0.031 C 
ATOM     71  C   UNL A   1      48.771  34.986  27.190  1.00  0.00     0.029 A 
ATOM     72  C   UNL A   1      49.217  33.695  26.957  1.00  0.00     0.049 A 
ATOM     73  H   UNL A   1      48.134  31.885  27.025  1.00  0.00     0.167 HD
ATOM     74  C   UNL A   1      50.903  31.956  26.420  1.00  0.00     0.074 A 
ATOM     75  C   UNL A   1      52.237  31.520  26.065  1.00  0.00     0.031 C 
ATOM     76  C   UNL A   1      50.543  33.252  26.602  1.00  0.00     0.037 A 
BRANCH  63  77
ATOM     77  C   UNL A   1      44.549  34.031  27.899  1.00  0.00     0.064 A 
ATOM     78  C   UNL A   1      44.108  34.362  29.190  1.00  0.00     0.173 A 
ATOM     79  C   UNL A   1      43.899  34.634  26.811  1.00  0.00     0.173 A 
ATOM     80  F   UNL A   1      44.687  33.807  30.265  1.00  0.00    -0.203 F 
ATOM     81  C   UNL A   1      43.033  35.227  29.380  1.00  0.00     0.198 A 
ATOM     82  C   UNL A   1      42.847  35.525  27.006  1.00  0.00     0.198 A 
ATOM     83  F   UNL A   1      44.282  34.358  25.556  1.00  0.00    -0.203 F 
ATOM     84  F   UNL A   1      42.588  35.477  30.619  1.00  0.00    -0.200 F 
ATOM     85  C   UNL A   1      42.408  35.811  28.289  1.00  0.00     0.200 A 
ATOM     86  F   UNL A   1      42.255  36.100  25.951  1.00  0.00    -0.200 F 
ATOM     87  F   UNL A   1      41.374  36.644  28.473  1.00  0.00    -0.200 F 
ENDBRANCH  63  77
BRANCH  64  88
ATOM     88  C   UNL A   1      51.661  27.335  25.870  1.00  0.00     0.064 A 
ATOM     89  C   UNL A   1      51.899  27.008  24.529  1.00  0.00     0.173 A 
ATOM     90  C   UNL A   1      52.445  26.700  26.846  1.00  0.00     0.173 A 
ATOM     91  F   UNL A   1      51.157  27.566  23.562  1.00  0.00    -0.203 F 
ATOM     92  C   UNL A   1      52.878  26.079  24.177  1.00  0.00     0.198 A 
ATOM     93  C   UNL A   1      53.442  25.794  26.492  1.00  0.00     0.198 A 
ATOM     94  F   UNL A   1      52.252  26.973  28.145  1.00  0.00    -0.203 F 
ATOM     95  F   UNL A   1      53.058  25.755  22.891  1.00  0.00    -0.200 F 
ATOM     96  C   UNL A   1      53.654  25.480  25.159  1.00  0.00     0.200 A 
ATOM     97  F   UNL A   1      54.195  25.224  27.443  1.00  0.00    -0.200 F 
ATOM     98  F   UNL A   1      54.600  24.594  24.819  1.00  0.00    -0.200 F 
ENDBRANCH  64  88
BRANCH  76  99
ATOM     99  C   UNL A   1      51.612  34.299  26.457  1.00  0.00     0.064 A 
ATOM    100  C   UNL A   1      51.828  34.976  25.249  1.00  0.00     0.173 A 
ATOM    101  C   UNL A   1      52.393  34.672  27.564  1.00  0.00     0.173 A 
ATOM    102  F   UNL A   1      51.118  34.652  24.156  1.00  0.00    -0.203 F 
ATOM    103  C   UNL A   1      52.799  35.970  25.147  1.00  0.00     0.198 A 
ATOM    104  C   UNL A   1      53.339  35.688  27.467  1.00  0.00     0.198 A 
ATOM    105  F   UNL A   1      52.222  34.062  28.747  1.00  0.00    -0.203 F 
ATOM    106  F   UNL A   1      53.018  36.572  23.969  1.00  0.00    -0.200 F 
ATOM    107  C   UNL A   1      53.547  36.331  26.257  1.00  0.00     0.200 A 
ATOM    108  F   UNL A   1      54.047  36.047  28.547  1.00  0.00    -0.200 F 
ATOM    109  F   UNL A   1      54.472  37.297  26.160  1.00  0.00    -0.200 F 
ENDBRANCH  76  99
ENDBRANCH  50  51
ENDBRANCH  43  45
ENDBRANCH  42  43
ENDBRANCH  41  42
ENDBRANCH  40  41
ENDBRANCH  39  40
ENDBRANCH  38  39
ENDBRANCH  37  38
ENDBRANCH   1  37
TORSDOF 22
ENDMDL
