MODEL 1
REMARK VINA RESULT:     -13.3      0.000      0.000
REMARK SMILES C[C@H](Oc1ccc(-c2ccccc2)cc1)C(=O)N[C@H](C)C(=O)OCCOCCOCCOC(=O)c1ccc(-c2c3nc(c(-c4c(F)c(F)c(F)c(F)c4F)c4ccc([nH]4)c(-c4c(F)c(F)c(F)c(F)c4F)c4nc(c(-c5c(F)c(F)c(F)c(F)c5F)c5ccc2[nH]5)C=C4)C=C3)cc1
REMARK SMILES IDX 26 1 25 2 24 3 23 4 21 5 22 6 19 7 20 8 18 9 16 10 17 11
REMARK SMILES IDX 2 13 1 14 3 15 4 16 5 17 15 18 6 19 14 20 7 21 8 22 9 23
REMARK SMILES IDX 13 24 10 25 12 26 11 27 27 28 28 29 29 30 30 31 31 32 32 33
REMARK SMILES IDX 33 34 34 35 35 36 36 37 97 38 37 39 96 40 38 41 39 42 40 43
REMARK SMILES IDX 90 44 41 45 95 46 89 47 91 48 42 49 94 50 88 51 87 52 43 54
REMARK SMILES IDX 75 55 55 56 74 57 56 58 59 59 73 60 92 61 57 62 58 63 72 65
REMARK SMILES IDX 93 66 60 67 44 68 45 69 53 70 46 71 47 72 51 73 54 74 48 75
REMARK SMILES IDX 49 76 52 77 50 78 76 79 77 80 85 81 78 82 79 83 83 84 86 85
REMARK SMILES IDX 80 86 81 87 84 88 82 89 61 90 62 91 70 92 63 93 64 94 68 95
REMARK SMILES IDX 71 96 65 97 66 98 69 99 67 100
REMARK H PARENT 18 12 91 53 59 64
REMARK Flexibility Score: inf
ROOT
ATOM      1  O   UNL A   1      34.226  29.778  26.709  1.00  0.00    -0.376 OA
ENDROOT
BRANCH   1   2
ATOM      2  C   UNL A   1      33.613  29.521  25.111  1.00  0.00     0.202 C 
BRANCH   2   3
ATOM      3  C   UNL A   1      33.880  28.177  24.005  1.00  0.00     0.261 C 
BRANCH   3   4
ATOM      4  O   UNL A   1      32.973  27.675  22.883  1.00  0.00    -0.462 OA
BRANCH   4   5
ATOM      5  C   UNL A   1      31.630  27.326  22.867  1.00  0.00     0.328 C 
ATOM      6  O   UNL A   1      30.997  26.885  21.919  1.00  0.00    -0.250 OA
BRANCH   5   7
ATOM      7  C   UNL A   1      30.811  27.657  24.127  1.00  0.00     0.189 C 
ATOM      8  C   UNL A   1      30.126  29.004  23.834  1.00  0.00     0.043 C 
BRANCH   7   9
ATOM      9  N   UNL A   1      29.934  26.605  24.595  1.00  0.00    -0.340 N 
ATOM     10  C   UNL A   1      30.128  25.852  25.732  1.00  0.00     0.261 C 
ATOM     11  O   UNL A   1      29.150  25.219  26.143  1.00  0.00    -0.271 OA
ATOM     12  H   UNL A   1      29.133  26.412  24.056  1.00  0.00     0.164 HD
BRANCH  10  13
ATOM     13  C   UNL A   1      31.532  25.781  26.479  1.00  0.00     0.258 C 
ATOM     14  C   UNL A   1      31.954  27.183  26.874  1.00  0.00     0.064 C 
BRANCH  13  15
ATOM     15  O   UNL A   1      32.528  25.199  25.646  1.00  0.00    -0.481 OA
BRANCH  15  16
ATOM     16  C   UNL A   1      32.880  23.909  25.411  1.00  0.00     0.120 A 
ATOM     17  C   UNL A   1      31.913  22.889  24.331  1.00  0.00     0.047 A 
ATOM     18  C   UNL A   1      34.354  23.151  26.244  1.00  0.00     0.047 A 
ATOM     19  C   UNL A   1      32.350  21.198  24.085  1.00  0.00     0.012 A 
ATOM     20  C   UNL A   1      34.819  21.419  25.905  1.00  0.00     0.012 A 
ATOM     21  C   UNL A   1      33.755  20.445  24.873  1.00  0.00    -0.018 A 
BRANCH  21  22
ATOM     22  C   UNL A   1      33.710  18.960  24.937  1.00  0.00    -0.018 A 
ATOM     23  C   UNL A   1      34.525  18.184  24.106  1.00  0.00     0.009 A 
ATOM     24  C   UNL A   1      32.685  18.288  25.638  1.00  0.00     0.009 A 
ATOM     25  C   UNL A   1      34.323  16.803  23.969  1.00  0.00     0.001 A 
ATOM     26  C   UNL A   1      32.472  16.908  25.497  1.00  0.00     0.001 A 
ATOM     27  C   UNL A   1      33.291  16.166  24.655  1.00  0.00     0.000 A 
ENDBRANCH  21  22
ENDBRANCH  15  16
ENDBRANCH  13  15
ENDBRANCH  10  13
ENDBRANCH   7   9
ENDBRANCH   5   7
ENDBRANCH   4   5
ENDBRANCH   3   4
ENDBRANCH   2   3
ENDBRANCH   1   2
BRANCH   1  28
ATOM     28  C   UNL A   1      34.937  31.327  27.748  1.00  0.00     0.188 C 
BRANCH  28  29
ATOM     29  C   UNL A   1      34.029  32.707  28.396  1.00  0.00     0.188 C 
BRANCH  29  30
ATOM     30  O   UNL A   1      34.603  33.803  29.127  1.00  0.00    -0.376 OA
BRANCH  30  31
ATOM     31  C   UNL A   1      34.121  34.318  30.396  1.00  0.00     0.202 C 
BRANCH  31  32
ATOM     32  C   UNL A   1      34.705  33.847  31.729  1.00  0.00     0.261 C 
BRANCH  32  33
ATOM     33  O   UNL A   1      35.119  32.491  31.703  1.00  0.00    -0.460 OA
BRANCH  33  34
ATOM     34  C   UNL A   1      36.065  32.195  32.626  1.00  0.00     0.338 C 
ATOM     35  O   UNL A   1      35.976  32.305  33.834  1.00  0.00    -0.246 OA
BRANCH  34  36
ATOM     36  C   UNL A   1      37.099  31.428  31.903  1.00  0.00     0.060 A 
ATOM     37  C   UNL A   1      38.167  30.896  32.638  1.00  0.00     0.016 A 
ATOM     38  C   UNL A   1      36.922  31.095  30.555  1.00  0.00     0.016 A 
ATOM     39  C   UNL A   1      39.092  30.067  32.008  1.00  0.00     0.010 A 
ATOM     40  C   UNL A   1      37.841  30.264  29.927  1.00  0.00     0.010 A 
ATOM     41  C   UNL A   1      38.957  29.792  30.640  1.00  0.00    -0.014 A 
BRANCH  41  42
ATOM     42  C   UNL A   1      40.135  29.327  29.878  1.00  0.00     0.031 A 
ATOM     43  C   UNL A   1      41.249  30.322  29.707  1.00  0.00     0.074 A 
ATOM     44  C   UNL A   1      40.235  28.088  29.372  1.00  0.00     0.049 A 
ATOM     45  N   UNL A   1      42.385  30.205  29.072  1.00  0.00    -0.248 NA
ATOM     46  C   UNL A   1      41.040  31.640  30.330  1.00  0.00     0.031 C 
ATOM     47  C   UNL A   1      39.239  27.028  29.496  1.00  0.00     0.029 A 
ATOM     48  N   UNL A   1      41.250  27.518  28.646  1.00  0.00    -0.354 N 
ATOM     49  C   UNL A   1      43.011  31.437  29.210  1.00  0.00     0.074 A 
ATOM     50  C   UNL A   1      42.112  32.302  29.936  1.00  0.00     0.031 C 
ATOM     51  C   UNL A   1      39.702  25.925  28.880  1.00  0.00     0.029 A 
ATOM     52  C   UNL A   1      41.012  26.212  28.294  1.00  0.00     0.049 A 
ATOM     53  H   UNL A   1      42.073  27.999  28.401  1.00  0.00     0.167 HD
ATOM     54  C   UNL A   1      44.238  31.812  28.788  1.00  0.00     0.037 A 
ATOM     55  C   UNL A   1      41.774  25.361  27.578  1.00  0.00     0.037 A 
ATOM     56  C   UNL A   1      45.137  30.951  28.078  1.00  0.00     0.049 A 
ATOM     57  C   UNL A   1      43.112  25.827  27.051  1.00  0.00     0.074 A 
ATOM     58  C   UNL A   1      46.418  31.219  27.633  1.00  0.00     0.029 A 
ATOM     59  N   UNL A   1      44.841  29.650  27.698  1.00  0.00    -0.354 N 
ATOM     60  N   UNL A   1      43.721  26.974  27.221  1.00  0.00    -0.248 NA
ATOM     61  C   UNL A   1      43.865  24.868  26.228  1.00  0.00     0.031 C 
ATOM     62  C   UNL A   1      46.873  30.102  26.927  1.00  0.00     0.029 A 
ATOM     63  C   UNL A   1      45.902  29.113  26.990  1.00  0.00     0.049 A 
ATOM     64  H   UNL A   1      44.001  29.179  27.901  1.00  0.00     0.167 HD
ATOM     65  C   UNL A   1      44.941  26.865  26.563  1.00  0.00     0.074 A 
ATOM     66  C   UNL A   1      44.987  25.535  25.993  1.00  0.00     0.031 C 
ATOM     67  C   UNL A   1      45.935  27.780  26.442  1.00  0.00     0.037 A 
BRANCH  54  68
ATOM     68  C   UNL A   1      44.642  33.231  29.059  1.00  0.00     0.064 A 
ATOM     69  C   UNL A   1      45.308  33.602  30.239  1.00  0.00     0.173 A 
ATOM     70  C   UNL A   1      44.322  34.239  28.140  1.00  0.00     0.173 A 
ATOM     71  F   UNL A   1      45.612  32.678  31.163  1.00  0.00    -0.203 F 
ATOM     72  C   UNL A   1      45.595  34.938  30.507  1.00  0.00     0.198 A 
ATOM     73  C   UNL A   1      44.644  35.569  28.395  1.00  0.00     0.198 A 
ATOM     74  F   UNL A   1      43.680  33.937  27.000  1.00  0.00    -0.203 F 
ATOM     75  F   UNL A   1      46.158  35.278  31.674  1.00  0.00    -0.200 F 
ATOM     76  C   UNL A   1      45.267  35.918  29.583  1.00  0.00     0.200 A 
ATOM     77  F   UNL A   1      44.335  36.514  27.497  1.00  0.00    -0.200 F 
ATOM     78  F   UNL A   1      45.538  37.204  29.845  1.00  0.00    -0.200 F 
ENDBRANCH  54  68
BRANCH  55  79
ATOM     79  C   UNL A   1      41.311  23.970  27.329  1.00  0.00     0.064 A 
ATOM     80  C   UNL A   1      40.180  23.721  26.538  1.00  0.00     0.173 A 
ATOM     81  C   UNL A   1      41.963  22.868  27.899  1.00  0.00     0.173 A 
ATOM     82  F   UNL A   1      39.503  24.744  25.997  1.00  0.00    -0.203 F 
ATOM     83  C   UNL A   1      39.709  22.424  26.341  1.00  0.00     0.198 A 
ATOM     84  C   UNL A   1      41.508  21.569  27.679  1.00  0.00     0.198 A 
ATOM     85  F   UNL A   1      43.044  23.052  28.671  1.00  0.00    -0.203 F 
ATOM     86  F   UNL A   1      38.598  22.218  25.621  1.00  0.00    -0.200 F 
ATOM     87  C   UNL A   1      40.377  21.349  26.907  1.00  0.00     0.200 A 
ATOM     88  F   UNL A   1      42.159  20.532  28.223  1.00  0.00    -0.200 F 
ATOM     89  F   UNL A   1      39.925  20.102  26.718  1.00  0.00    -0.200 F 
ENDBRANCH  55  79
BRANCH  67  90
ATOM     90  C   UNL A   1      47.180  27.369  25.708  1.00  0.00     0.064 A 
ATOM     91  C   UNL A   1      47.344  27.607  24.336  1.00  0.00     0.173 A 
ATOM     92  C   UNL A   1      48.251  26.787  26.405  1.00  0.00     0.173 A 
ATOM     93  F   UNL A   1      46.348  28.151  23.622  1.00  0.00    -0.203 F 
ATOM     94  C   UNL A   1      48.525  27.258  23.685  1.00  0.00     0.198 A 
ATOM     95  C   UNL A   1      49.443  26.471  25.759  1.00  0.00     0.198 A 
ATOM     96  F   UNL A   1      48.152  26.548  27.722  1.00  0.00    -0.203 F 
ATOM     97  F   UNL A   1      48.642  27.454  22.365  1.00  0.00    -0.200 F 
ATOM     98  C   UNL A   1      49.576  26.699  24.398  1.00  0.00     0.200 A 
ATOM     99  F   UNL A   1      50.463  25.950  26.454  1.00  0.00    -0.200 F 
ATOM    100  F   UNL A   1      50.716  26.377  23.771  1.00  0.00    -0.200 F 
ENDBRANCH  67  90
ENDBRANCH  41  42
ENDBRANCH  34  36
ENDBRANCH  33  34
ENDBRANCH  32  33
ENDBRANCH  31  32
ENDBRANCH  30  31
ENDBRANCH  29  30
ENDBRANCH  28  29
ENDBRANCH   1  28
TORSDOF 22
ENDMDL
MODEL 2
REMARK VINA RESULT:     -13.0      5.042      8.507
REMARK SMILES C[C@H](Oc1ccc(-c2ccccc2)cc1)C(=O)N[C@H](C)C(=O)OCCOCCOCCOC(=O)c1ccc(-c2c3nc(c(-c4c(F)c(F)c(F)c(F)c4F)c4ccc([nH]4)c(-c4c(F)c(F)c(F)c(F)c4F)c4nc(c(-c5c(F)c(F)c(F)c(F)c5F)c5ccc2[nH]5)C=C4)C=C3)cc1
REMARK SMILES IDX 26 1 25 2 24 3 23 4 21 5 22 6 19 7 20 8 18 9 16 10 17 11
REMARK SMILES IDX 2 13 1 14 3 15 4 16 5 17 15 18 6 19 14 20 7 21 8 22 9 23
REMARK SMILES IDX 13 24 10 25 12 26 11 27 27 28 28 29 29 30 30 31 31 32 32 33
REMARK SMILES IDX 33 34 34 35 35 36 36 37 97 38 37 39 96 40 38 41 39 42 40 43
REMARK SMILES IDX 90 44 41 45 95 46 89 47 91 48 42 49 94 50 88 51 87 52 43 54
REMARK SMILES IDX 75 55 55 56 74 57 56 58 59 59 73 60 92 61 57 62 58 63 72 65
REMARK SMILES IDX 93 66 60 67 44 68 45 69 53 70 46 71 47 72 51 73 54 74 48 75
REMARK SMILES IDX 49 76 52 77 50 78 76 79 77 80 85 81 78 82 79 83 83 84 86 85
REMARK SMILES IDX 80 86 81 87 84 88 82 89 61 90 62 91 70 92 63 93 64 94 68 95
REMARK SMILES IDX 71 96 65 97 66 98 69 99 67 100
REMARK H PARENT 18 12 91 53 59 64
REMARK Flexibility Score: inf
ROOT
ATOM      1  O   UNL A   1      32.580  30.095  27.250  1.00  0.00    -0.376 OA
ENDROOT
BRANCH   1   2
ATOM      2  C   UNL A   1      32.367  28.621  26.369  1.00  0.00     0.202 C 
BRANCH   2   3
ATOM      3  C   UNL A   1      33.566  27.579  25.610  1.00  0.00     0.261 C 
BRANCH   3   4
ATOM      4  O   UNL A   1      34.026  26.187  26.042  1.00  0.00    -0.462 OA
BRANCH   4   5
ATOM      5  C   UNL A   1      33.336  24.993  26.196  1.00  0.00     0.328 C 
ATOM      6  O   UNL A   1      32.146  24.857  26.441  1.00  0.00    -0.250 OA
BRANCH   5   7
ATOM      7  C   UNL A   1      34.175  23.702  26.198  1.00  0.00     0.189 C 
ATOM      8  C   UNL A   1      33.236  22.600  26.718  1.00  0.00     0.043 C 
BRANCH   7   9
ATOM      9  N   UNL A   1      34.858  23.401  24.958  1.00  0.00    -0.340 N 
ATOM     10  C   UNL A   1      34.247  23.178  23.745  1.00  0.00     0.261 C 
ATOM     11  O   UNL A   1      34.973  23.235  22.746  1.00  0.00    -0.271 OA
ATOM     12  H   UNL A   1      35.842  23.351  24.984  1.00  0.00     0.164 HD
BRANCH  10  13
ATOM     13  C   UNL A   1      32.694  22.850  23.619  1.00  0.00     0.258 C 
ATOM     14  C   UNL A   1      32.527  21.431  23.112  1.00  0.00     0.064 C 
BRANCH  13  15
ATOM     15  O   UNL A   1      32.049  23.754  22.731  1.00  0.00    -0.481 OA
BRANCH  15  16
ATOM     16  C   UNL A   1      31.627  25.036  22.882  1.00  0.00     0.120 A 
ATOM     17  C   UNL A   1      30.123  25.398  23.746  1.00  0.00     0.047 A 
ATOM     18  C   UNL A   1      32.582  26.451  22.155  1.00  0.00     0.047 A 
ATOM     19  C   UNL A   1      29.559  27.064  23.881  1.00  0.00     0.012 A 
ATOM     20  C   UNL A   1      32.007  28.169  22.382  1.00  0.00     0.012 A 
ATOM     21  C   UNL A   1      30.451  28.439  23.190  1.00  0.00    -0.018 A 
BRANCH  21  22
ATOM     22  C   UNL A   1      29.639  29.667  22.983  1.00  0.00    -0.018 A 
ATOM     23  C   UNL A   1      29.711  30.732  23.887  1.00  0.00     0.009 A 
ATOM     24  C   UNL A   1      28.597  29.703  22.031  1.00  0.00     0.009 A 
ATOM     25  C   UNL A   1      28.780  31.781  23.853  1.00  0.00     0.001 A 
ATOM     26  C   UNL A   1      27.658  30.745  21.999  1.00  0.00     0.001 A 
ATOM     27  C   UNL A   1      27.748  31.784  22.917  1.00  0.00     0.000 A 
ENDBRANCH  21  22
ENDBRANCH  15  16
ENDBRANCH  13  15
ENDBRANCH  10  13
ENDBRANCH   7   9
ENDBRANCH   5   7
ENDBRANCH   4   5
ENDBRANCH   3   4
ENDBRANCH   2   3
ENDBRANCH   1   2
BRANCH   1  28
ATOM     28  C   UNL A   1      34.127  31.148  27.945  1.00  0.00     0.188 C 
BRANCH  28  29
ATOM     29  C   UNL A   1      34.245  32.909  28.127  1.00  0.00     0.188 C 
BRANCH  29  30
ATOM     30  O   UNL A   1      33.263  33.854  27.671  1.00  0.00    -0.376 OA
BRANCH  30  31
ATOM     31  C   UNL A   1      32.909  35.094  28.336  1.00  0.00     0.202 C 
BRANCH  31  32
ATOM     32  C   UNL A   1      33.411  35.423  29.743  1.00  0.00     0.261 C 
BRANCH  32  33
ATOM     33  O   UNL A   1      32.487  35.067  30.759  1.00  0.00    -0.460 OA
BRANCH  33  34
ATOM     34  C   UNL A   1      32.762  35.624  31.962  1.00  0.00     0.338 C 
ATOM     35  O   UNL A   1      32.044  36.356  32.617  1.00  0.00    -0.246 OA
BRANCH  34  36
ATOM     36  C   UNL A   1      33.963  34.924  32.459  1.00  0.00     0.060 A 
ATOM     37  C   UNL A   1      35.176  35.624  32.486  1.00  0.00     0.016 A 
ATOM     38  C   UNL A   1      33.853  33.659  33.048  1.00  0.00     0.016 A 
ATOM     39  C   UNL A   1      36.300  35.034  33.061  1.00  0.00     0.010 A 
ATOM     40  C   UNL A   1      34.972  33.072  33.626  1.00  0.00     0.010 A 
ATOM     41  C   UNL A   1      36.209  33.737  33.586  1.00  0.00    -0.014 A 
BRANCH  41  42
ATOM     42  C   UNL A   1      37.443  32.942  33.761  1.00  0.00     0.031 A 
ATOM     43  C   UNL A   1      38.205  33.173  35.037  1.00  0.00     0.074 A 
ATOM     44  C   UNL A   1      37.870  32.047  32.858  1.00  0.00     0.049 A 
ATOM     45  N   UNL A   1      39.324  32.642  35.451  1.00  0.00    -0.248 NA
ATOM     46  C   UNL A   1      37.625  34.158  35.967  1.00  0.00     0.031 C 
ATOM     47  C   UNL A   1      37.205  31.713  31.602  1.00  0.00     0.029 A 
ATOM     48  N   UNL A   1      38.984  31.246  32.876  1.00  0.00    -0.354 N 
ATOM     49  C   UNL A   1      39.583  33.239  36.677  1.00  0.00     0.074 A 
ATOM     50  C   UNL A   1      38.542  34.210  36.915  1.00  0.00     0.031 C 
ATOM     51  C   UNL A   1      37.918  30.760  30.974  1.00  0.00     0.029 A 
ATOM     52  C   UNL A   1      39.103  30.440  31.772  1.00  0.00     0.049 A 
ATOM     53  H   UNL A   1      39.637  31.250  33.613  1.00  0.00     0.167 HD
ATOM     54  C   UNL A   1      40.589  32.988  37.544  1.00  0.00     0.037 A 
ATOM     55  C   UNL A   1      40.066  29.552  31.455  1.00  0.00     0.037 A 
ATOM     56  C   UNL A   1      41.616  32.015  37.314  1.00  0.00     0.049 A 
ATOM     57  C   UNL A   1      41.224  29.341  32.404  1.00  0.00     0.074 A 
ATOM     58  C   UNL A   1      42.664  31.658  38.141  1.00  0.00     0.029 A 
ATOM     59  N   UNL A   1      41.731  31.252  36.162  1.00  0.00    -0.354 N 
ATOM     60  N   UNL A   1      41.442  29.872  33.583  1.00  0.00    -0.248 NA
ATOM     61  C   UNL A   1      42.269  28.403  31.970  1.00  0.00     0.031 C 
ATOM     62  C   UNL A   1      43.450  30.721  37.462  1.00  0.00     0.029 A 
ATOM     63  C   UNL A   1      42.854  30.448  36.239  1.00  0.00     0.049 A 
ATOM     64  H   UNL A   1      41.105  31.278  35.402  1.00  0.00     0.167 HD
ATOM     65  C   UNL A   1      42.625  29.307  34.047  1.00  0.00     0.074 A 
ATOM     66  C   UNL A   1      43.075  28.387  33.024  1.00  0.00     0.031 C 
ATOM     67  C   UNL A   1      43.278  29.527  35.215  1.00  0.00     0.037 A 
BRANCH  54  68
ATOM     68  C   UNL A   1      40.629  33.817  38.792  1.00  0.00     0.064 A 
ATOM     69  C   UNL A   1      39.912  33.460  39.946  1.00  0.00     0.173 A 
ATOM     70  C   UNL A   1      41.366  35.009  38.820  1.00  0.00     0.173 A 
ATOM     71  F   UNL A   1      39.169  32.343  39.961  1.00  0.00    -0.203 F 
ATOM     72  C   UNL A   1      39.896  34.291  41.063  1.00  0.00     0.198 A 
ATOM     73  C   UNL A   1      41.377  35.818  39.952  1.00  0.00     0.198 A 
ATOM     74  F   UNL A   1      42.064  35.398  37.741  1.00  0.00    -0.203 F 
ATOM     75  F   UNL A   1      39.140  33.970  42.122  1.00  0.00    -0.200 F 
ATOM     76  C   UNL A   1      40.631  35.465  41.066  1.00  0.00     0.200 A 
ATOM     77  F   UNL A   1      42.096  36.948  39.957  1.00  0.00    -0.200 F 
ATOM     78  F   UNL A   1      40.610  36.267  42.139  1.00  0.00    -0.200 F 
ENDBRANCH  54  68
BRANCH  55  79
ATOM     79  C   UNL A   1      39.979  28.770  30.192  1.00  0.00     0.064 A 
ATOM     80  C   UNL A   1      39.382  27.502  30.173  1.00  0.00     0.173 A 
ATOM     81  C   UNL A   1      40.517  29.256  28.992  1.00  0.00     0.173 A 
ATOM     82  F   UNL A   1      38.881  26.980  31.302  1.00  0.00    -0.203 F 
ATOM     83  C   UNL A   1      39.341  26.741  29.006  1.00  0.00     0.198 A 
ATOM     84  C   UNL A   1      40.452  28.506  27.819  1.00  0.00     0.198 A 
ATOM     85  F   UNL A   1      41.107  30.459  28.959  1.00  0.00    -0.203 F 
ATOM     86  F   UNL A   1      38.808  25.512  29.026  1.00  0.00    -0.200 F 
ATOM     87  C   UNL A   1      39.871  27.247  27.828  1.00  0.00     0.200 A 
ATOM     88  F   UNL A   1      40.960  29.000  26.682  1.00  0.00    -0.200 F 
ATOM     89  F   UNL A   1      39.832  26.516  26.706  1.00  0.00    -0.200 F 
ENDBRANCH  55  79
BRANCH  67  90
ATOM     90  C   UNL A   1      44.525  28.729  35.480  1.00  0.00     0.064 A 
ATOM     91  C   UNL A   1      44.482  27.467  36.088  1.00  0.00     0.173 A 
ATOM     92  C   UNL A   1      45.774  29.212  35.057  1.00  0.00     0.173 A 
ATOM     93  F   UNL A   1      43.315  26.965  36.519  1.00  0.00    -0.203 F 
ATOM     94  C   UNL A   1      45.645  26.726  36.284  1.00  0.00     0.198 A 
ATOM     95  C   UNL A   1      46.930  28.454  35.223  1.00  0.00     0.198 A 
ATOM     96  F   UNL A   1      45.871  30.409  34.460  1.00  0.00    -0.203 F 
ATOM     97  F   UNL A   1      45.585  25.542  36.907  1.00  0.00    -0.200 F 
ATOM     98  C   UNL A   1      46.866  27.216  35.844  1.00  0.00     0.200 A 
ATOM     99  F   UNL A   1      48.105  28.921  34.779  1.00  0.00    -0.200 F 
ATOM    100  F   UNL A   1      47.982  26.495  36.020  1.00  0.00    -0.200 F 
ENDBRANCH  67  90
ENDBRANCH  41  42
ENDBRANCH  34  36
ENDBRANCH  33  34
ENDBRANCH  32  33
ENDBRANCH  31  32
ENDBRANCH  30  31
ENDBRANCH  29  30
ENDBRANCH  28  29
ENDBRANCH   1  28
TORSDOF 22
ENDMDL
MODEL 3
REMARK VINA RESULT:     -12.8      0.825      2.121
REMARK SMILES C[C@H](Oc1ccc(-c2ccccc2)cc1)C(=O)N[C@H](C)C(=O)OCCOCCOCCOC(=O)c1ccc(-c2c3nc(c(-c4c(F)c(F)c(F)c(F)c4F)c4ccc([nH]4)c(-c4c(F)c(F)c(F)c(F)c4F)c4nc(c(-c5c(F)c(F)c(F)c(F)c5F)c5ccc2[nH]5)C=C4)C=C3)cc1
REMARK SMILES IDX 26 1 25 2 24 3 23 4 21 5 22 6 19 7 20 8 18 9 16 10 17 11
REMARK SMILES IDX 2 13 1 14 3 15 4 16 5 17 15 18 6 19 14 20 7 21 8 22 9 23
REMARK SMILES IDX 13 24 10 25 12 26 11 27 27 28 28 29 29 30 30 31 31 32 32 33
REMARK SMILES IDX 33 34 34 35 35 36 36 37 97 38 37 39 96 40 38 41 39 42 40 43
REMARK SMILES IDX 90 44 41 45 95 46 89 47 91 48 42 49 94 50 88 51 87 52 43 54
REMARK SMILES IDX 75 55 55 56 74 57 56 58 59 59 73 60 92 61 57 62 58 63 72 65
REMARK SMILES IDX 93 66 60 67 44 68 45 69 53 70 46 71 47 72 51 73 54 74 48 75
REMARK SMILES IDX 49 76 52 77 50 78 76 79 77 80 85 81 78 82 79 83 83 84 86 85
REMARK SMILES IDX 80 86 81 87 84 88 82 89 61 90 62 91 70 92 63 93 64 94 68 95
REMARK SMILES IDX 71 96 65 97 66 98 69 99 67 100
REMARK H PARENT 18 12 91 53 59 64
REMARK Flexibility Score: inf
ROOT
ATOM      1  O   UNL A   1      33.874  30.119  27.231  1.00  0.00    -0.376 OA
ENDROOT
BRANCH   1   2
ATOM      2  C   UNL A   1      33.399  29.555  25.666  1.00  0.00     0.202 C 
BRANCH   2   3
ATOM      3  C   UNL A   1      34.004  28.193  24.727  1.00  0.00     0.261 C 
BRANCH   3   4
ATOM      4  O   UNL A   1      33.657  27.798  23.293  1.00  0.00    -0.462 OA
BRANCH   4   5
ATOM      5  C   UNL A   1      32.453  27.449  22.697  1.00  0.00     0.328 C 
ATOM      6  O   UNL A   1      32.295  26.702  21.741  1.00  0.00    -0.250 OA
BRANCH   5   7
ATOM      7  C   UNL A   1      31.194  28.181  23.193  1.00  0.00     0.189 C 
ATOM      8  C   UNL A   1      31.219  29.559  22.508  1.00  0.00     0.043 C 
BRANCH   7   9
ATOM      9  N   UNL A   1      29.953  27.447  23.063  1.00  0.00    -0.340 N 
ATOM     10  C   UNL A   1      29.401  26.637  24.030  1.00  0.00     0.261 C 
ATOM     11  O   UNL A   1      28.212  26.333  23.877  1.00  0.00    -0.271 OA
ATOM     12  H   UNL A   1      29.464  27.533  22.212  1.00  0.00     0.164 HD
BRANCH  10  13
ATOM     13  C   UNL A   1      30.236  26.103  25.275  1.00  0.00     0.258 C 
ATOM     14  C   UNL A   1      30.654  27.282  26.133  1.00  0.00     0.064 C 
BRANCH  13  15
ATOM     15  O   UNL A   1      31.390  25.388  24.851  1.00  0.00    -0.481 OA
BRANCH  15  16
ATOM     16  C   UNL A   1      31.624  24.064  24.667  1.00  0.00     0.120 A 
ATOM     17  C   UNL A   1      31.554  22.933  26.030  1.00  0.00     0.047 A 
ATOM     18  C   UNL A   1      32.071  23.392  22.995  1.00  0.00     0.047 A 
ATOM     19  C   UNL A   1      31.922  21.226  25.785  1.00  0.00     0.012 A 
ATOM     20  C   UNL A   1      32.369  21.606  22.766  1.00  0.00     0.012 A 
ATOM     21  C   UNL A   1      32.356  20.556  24.196  1.00  0.00    -0.018 A 
BRANCH  21  22
ATOM     22  C   UNL A   1      33.070  19.253  24.244  1.00  0.00    -0.018 A 
ATOM     23  C   UNL A   1      34.414  19.189  24.626  1.00  0.00     0.009 A 
ATOM     24  C   UNL A   1      32.510  18.090  23.673  1.00  0.00     0.009 A 
ATOM     25  C   UNL A   1      35.171  18.022  24.438  1.00  0.00     0.001 A 
ATOM     26  C   UNL A   1      33.265  16.924  23.475  1.00  0.00     0.001 A 
ATOM     27  C   UNL A   1      34.601  16.894  23.854  1.00  0.00     0.000 A 
ENDBRANCH  21  22
ENDBRANCH  15  16
ENDBRANCH  13  15
ENDBRANCH  10  13
ENDBRANCH   7   9
ENDBRANCH   5   7
ENDBRANCH   4   5
ENDBRANCH   3   4
ENDBRANCH   2   3
ENDBRANCH   1   2
BRANCH   1  28
ATOM     28  C   UNL A   1      34.618  31.809  27.989  1.00  0.00     0.188 C 
BRANCH  28  29
ATOM     29  C   UNL A   1      33.764  33.340  28.267  1.00  0.00     0.188 C 
BRANCH  29  30
ATOM     30  O   UNL A   1      34.225  34.399  29.123  1.00  0.00    -0.376 OA
BRANCH  30  31
ATOM     31  C   UNL A   1      33.742  34.673  30.464  1.00  0.00     0.202 C 
BRANCH  31  32
ATOM     32  C   UNL A   1      34.336  33.979  31.691  1.00  0.00     0.261 C 
BRANCH  32  33
ATOM     33  O   UNL A   1      35.665  33.528  31.482  1.00  0.00    -0.460 OA
BRANCH  33  34
ATOM     34  C   UNL A   1      36.074  32.609  32.388  1.00  0.00     0.338 C 
ATOM     35  O   UNL A   1      35.543  32.330  33.446  1.00  0.00    -0.246 OA
BRANCH  34  36
ATOM     36  C   UNL A   1      37.102  31.802  31.700  1.00  0.00     0.060 A 
ATOM     37  C   UNL A   1      38.086  31.178  32.475  1.00  0.00     0.016 A 
ATOM     38  C   UNL A   1      36.988  31.529  30.331  1.00  0.00     0.016 A 
ATOM     39  C   UNL A   1      38.996  30.313  31.870  1.00  0.00     0.010 A 
ATOM     40  C   UNL A   1      37.892  30.663  29.727  1.00  0.00     0.010 A 
ATOM     41  C   UNL A   1      38.930  30.096  30.487  1.00  0.00    -0.014 A 
BRANCH  41  42
ATOM     42  C   UNL A   1      40.121  29.583  29.780  1.00  0.00     0.031 A 
ATOM     43  C   UNL A   1      41.261  30.550  29.612  1.00  0.00     0.074 A 
ATOM     44  C   UNL A   1      40.214  28.326  29.319  1.00  0.00     0.049 A 
ATOM     45  N   UNL A   1      42.413  30.391  29.018  1.00  0.00    -0.248 NA
ATOM     46  C   UNL A   1      41.058  31.894  30.184  1.00  0.00     0.031 C 
ATOM     47  C   UNL A   1      39.193  27.290  29.446  1.00  0.00     0.029 A 
ATOM     48  N   UNL A   1      41.240  27.713  28.646  1.00  0.00    -0.354 N 
ATOM     49  C   UNL A   1      43.059  31.615  29.136  1.00  0.00     0.074 A 
ATOM     50  C   UNL A   1      42.154  32.521  29.803  1.00  0.00     0.031 C 
ATOM     51  C   UNL A   1      39.653  26.158  28.882  1.00  0.00     0.029 A 
ATOM     52  C   UNL A   1      40.987  26.401  28.330  1.00  0.00     0.049 A 
ATOM     53  H   UNL A   1      42.080  28.170  28.412  1.00  0.00     0.167 HD
ATOM     54  C   UNL A   1      44.306  31.953  28.742  1.00  0.00     0.037 A 
ATOM     55  C   UNL A   1      41.754  25.512  27.668  1.00  0.00     0.037 A 
ATOM     56  C   UNL A   1      45.210  31.051  28.091  1.00  0.00     0.049 A 
ATOM     57  C   UNL A   1      43.117  25.934  27.169  1.00  0.00     0.074 A 
ATOM     58  C   UNL A   1      46.509  31.280  27.679  1.00  0.00     0.029 A 
ATOM     59  N   UNL A   1      44.900  29.744  27.744  1.00  0.00    -0.354 N 
ATOM     60  N   UNL A   1      43.744  27.075  27.321  1.00  0.00    -0.248 NA
ATOM     61  C   UNL A   1      43.877  24.934  26.404  1.00  0.00     0.031 C 
ATOM     62  C   UNL A   1      46.965  30.131  27.026  1.00  0.00     0.029 A 
ATOM     63  C   UNL A   1      45.972  29.163  27.090  1.00  0.00     0.049 A 
ATOM     64  H   UNL A   1      44.045  29.296  27.936  1.00  0.00     0.167 HD
ATOM     65  C   UNL A   1      44.981  26.921  26.707  1.00  0.00     0.074 A 
ATOM     66  C   UNL A   1      45.020  25.571  26.184  1.00  0.00     0.031 C 
ATOM     67  C   UNL A   1      45.997  27.813  26.588  1.00  0.00     0.037 A 
BRANCH  54  68
ATOM     68  C   UNL A   1      44.730  33.372  28.978  1.00  0.00     0.064 A 
ATOM     69  C   UNL A   1      44.521  34.379  28.021  1.00  0.00     0.173 A 
ATOM     70  C   UNL A   1      45.391  33.719  30.164  1.00  0.00     0.173 A 
ATOM     71  F   UNL A   1      43.918  34.092  26.858  1.00  0.00    -0.203 F 
ATOM     72  C   UNL A   1      45.001  35.670  28.227  1.00  0.00     0.198 A 
ATOM     73  C   UNL A   1      45.837  35.019  30.381  1.00  0.00     0.198 A 
ATOM     74  F   UNL A   1      45.621  32.792  31.107  1.00  0.00    -0.203 F 
ATOM     75  F   UNL A   1      44.862  36.594  27.267  1.00  0.00    -0.200 F 
ATOM     76  C   UNL A   1      45.654  35.989  29.407  1.00  0.00     0.200 A 
ATOM     77  F   UNL A   1      46.459  35.329  31.526  1.00  0.00    -0.200 F 
ATOM     78  F   UNL A   1      46.121  37.230  29.601  1.00  0.00    -0.200 F 
ENDBRANCH  54  68
BRANCH  55  79
ATOM     79  C   UNL A   1      41.272  24.122  27.450  1.00  0.00     0.064 A 
ATOM     80  C   UNL A   1      41.914  23.035  28.059  1.00  0.00     0.173 A 
ATOM     81  C   UNL A   1      40.186  23.848  26.607  1.00  0.00     0.173 A 
ATOM     82  F   UNL A   1      42.977  23.243  28.850  1.00  0.00    -0.203 F 
ATOM     83  C   UNL A   1      41.501  21.726  27.820  1.00  0.00     0.198 A 
ATOM     84  C   UNL A   1      39.756  22.540  26.389  1.00  0.00     0.198 A 
ATOM     85  F   UNL A   1      39.542  24.851  25.992  1.00  0.00    -0.203 F 
ATOM     86  F   UNL A   1      42.164  20.703  28.376  1.00  0.00    -0.200 F 
ATOM     87  C   UNL A   1      40.418  21.480  26.990  1.00  0.00     0.200 A 
ATOM     88  F   UNL A   1      38.706  22.306  25.590  1.00  0.00    -0.200 F 
ATOM     89  F   UNL A   1      40.020  20.221  26.759  1.00  0.00    -0.200 F 
ENDBRANCH  55  79
BRANCH  67  90
ATOM     90  C   UNL A   1      47.256  27.353  25.909  1.00  0.00     0.064 A 
ATOM     91  C   UNL A   1      48.259  26.657  26.599  1.00  0.00     0.173 A 
ATOM     92  C   UNL A   1      47.429  27.556  24.530  1.00  0.00     0.173 A 
ATOM     93  F   UNL A   1      48.147  26.445  27.919  1.00  0.00    -0.203 F 
ATOM     94  C   UNL A   1      49.398  26.202  25.939  1.00  0.00     0.198 A 
ATOM     95  C   UNL A   1      48.552  27.070  23.868  1.00  0.00     0.198 A 
ATOM     96  F   UNL A   1      46.495  28.206  23.819  1.00  0.00    -0.203 F 
ATOM     97  F   UNL A   1      50.364  25.578  26.628  1.00  0.00    -0.200 F 
ATOM     98  C   UNL A   1      49.540  26.401  24.574  1.00  0.00     0.200 A 
ATOM     99  F   UNL A   1      48.677  27.246  22.545  1.00  0.00    -0.200 F 
ATOM    100  F   UNL A   1      50.630  25.949  23.939  1.00  0.00    -0.200 F 
ENDBRANCH  67  90
ENDBRANCH  41  42
ENDBRANCH  34  36
ENDBRANCH  33  34
ENDBRANCH  32  33
ENDBRANCH  31  32
ENDBRANCH  30  31
ENDBRANCH  29  30
ENDBRANCH  28  29
ENDBRANCH   1  28
TORSDOF 22
ENDMDL
