MODEL 1
REMARK VINA RESULT:     -10.1      0.000      0.000
REMARK SMILES CCOc1cncc(N(CC(=O)OCCOCCOCCOC(=O)c2ccc(-c3c4nc(c(-c5c(F)c(F)c(F)c(F)c5F)c5ccc([nH]5)c(-c5c(F)c(F)c(F)c(F)c5F)c5nc(c(-c6c(F)c(F)c(F)c(F)c6F)c6ccc3[nH]6)C=C5)C=C4)cc2)C(C)(C)C)n1
REMARK SMILES IDX 17 1 16 2 15 3 14 4 13 5 11 6 12 7 10 8 9 9 8 10 4 11 5 12
REMARK SMILES IDX 92 13 6 14 7 15 3 16 2 17 1 18 88 19 89 20 90 21 91 22 18 23
REMARK SMILES IDX 19 24 20 25 21 26 22 27 23 28 24 29 25 30 26 31 87 32 27 33
REMARK SMILES IDX 86 34 28 35 29 36 30 37 80 38 31 39 85 40 79 41 81 42 32 43
REMARK SMILES IDX 84 44 78 45 77 46 33 48 65 49 45 50 64 51 46 52 49 53 63 54
REMARK SMILES IDX 82 55 47 56 48 57 62 59 83 60 50 61 34 62 35 63 43 64 36 65
REMARK SMILES IDX 37 66 41 67 44 68 38 69 39 70 42 71 40 72 66 73 67 74 75 75
REMARK SMILES IDX 68 76 69 77 73 78 76 79 70 80 71 81 74 82 72 83 51 84 52 85
REMARK SMILES IDX 60 86 53 87 54 88 58 89 61 90 55 91 56 92 59 93 57 94
REMARK H PARENT 81 47 49 58
REMARK Flexibility Score: inf
ROOT
ATOM      1  C   UNL A   1      33.978  32.831  28.094  1.00  0.00     0.188 C 
ENDROOT
BRANCH   1   2
ATOM      2  O   UNL A   1      34.816  31.882  27.438  1.00  0.00    -0.376 OA
BRANCH   2   3
ATOM      3  C   UNL A   1      34.505  30.500  27.621  1.00  0.00     0.202 C 
BRANCH   3   4
ATOM      4  C   UNL A   1      33.346  29.987  26.762  1.00  0.00     0.261 C 
BRANCH   4   5
ATOM      5  O   UNL A   1      33.550  28.624  26.332  1.00  0.00    -0.462 OA
BRANCH   5   6
ATOM      6  C   UNL A   1      32.594  28.134  25.500  1.00  0.00     0.325 C 
ATOM      7  O   UNL A   1      31.397  28.392  25.606  1.00  0.00    -0.250 OA
BRANCH   6   8
ATOM      8  C   UNL A   1      33.131  27.287  24.341  1.00  0.00     0.241 C 
BRANCH   8   9
ATOM      9  N   UNL A   1      32.525  25.947  24.142  1.00  0.00    -0.339 N 
BRANCH   9  10
ATOM     10  C   UNL A   1      32.509  25.060  25.233  1.00  0.00     0.152 A 
ATOM     11  C   UNL A   1      33.560  23.431  26.511  1.00  0.00     0.234 A 
ATOM     12  C   UNL A   1      32.452  23.283  27.318  1.00  0.00     0.179 A 
ATOM     13  N   UNL A   1      33.608  24.313  25.488  1.00  0.00    -0.193 NA
ATOM     14  N   UNL A   1      31.329  23.997  27.114  1.00  0.00    -0.255 NA
ATOM     15  C   UNL A   1      31.397  24.876  26.075  1.00  0.00     0.158 A 
BRANCH  11  16
ATOM     16  O   UNL A   1      34.701  22.728  26.801  1.00  0.00    -0.477 OA
BRANCH  16  17
ATOM     17  C   UNL A   1      34.589  21.369  26.371  1.00  0.00     0.228 C 
ATOM     18  C   UNL A   1      35.442  21.174  25.128  1.00  0.00     0.049 C 
ENDBRANCH  16  17
ENDBRANCH  11  16
ENDBRANCH   9  10
BRANCH   9  19
ATOM     19  C   UNL A   1      31.611  25.673  22.978  1.00  0.00     0.034 C 
ATOM     20  C   UNL A   1      30.927  24.290  23.116  1.00  0.00     0.034 C 
ATOM     21  C   UNL A   1      30.547  26.783  22.823  1.00  0.00     0.034 C 
ATOM     22  C   UNL A   1      32.375  25.662  21.636  1.00  0.00     0.034 C 
ENDBRANCH   9  19
ENDBRANCH   8   9
ENDBRANCH   6   8
ENDBRANCH   5   6
ENDBRANCH   4   5
ENDBRANCH   3   4
ENDBRANCH   2   3
ENDBRANCH   1   2
BRANCH   1  23
ATOM     23  C   UNL A   1      34.493  34.277  28.157  1.00  0.00     0.188 C 
BRANCH  23  24
ATOM     24  O   UNL A   1      34.976  34.725  29.419  1.00  0.00    -0.376 OA
BRANCH  24  25
ATOM     25  C   UNL A   1      34.019  34.810  30.471  1.00  0.00     0.202 C 
BRANCH  25  26
ATOM     26  C   UNL A   1      34.456  34.083  31.740  1.00  0.00     0.261 C 
BRANCH  26  27
ATOM     27  O   UNL A   1      34.818  32.727  31.415  1.00  0.00    -0.460 OA
BRANCH  27  28
ATOM     28  C   UNL A   1      35.647  32.152  32.310  1.00  0.00     0.338 C 
ATOM     29  O   UNL A   1      35.616  32.264  33.528  1.00  0.00    -0.246 OA
BRANCH  28  30
ATOM     30  C   UNL A   1      36.620  31.301  31.606  1.00  0.00     0.060 A 
ATOM     31  C   UNL A   1      37.441  30.440  32.338  1.00  0.00     0.016 A 
ATOM     32  C   UNL A   1      36.828  31.476  30.241  1.00  0.00     0.016 A 
ATOM     33  C   UNL A   1      38.531  29.820  31.723  1.00  0.00     0.010 A 
ATOM     34  C   UNL A   1      37.886  30.811  29.614  1.00  0.00     0.010 A 
ATOM     35  C   UNL A   1      38.784  30.023  30.359  1.00  0.00    -0.014 A 
BRANCH  35  36
ATOM     36  C   UNL A   1      40.060  29.558  29.744  1.00  0.00     0.031 A 
ATOM     37  C   UNL A   1      41.229  30.509  29.669  1.00  0.00     0.074 A 
ATOM     38  C   UNL A   1      40.211  28.299  29.292  1.00  0.00     0.049 A 
ATOM     39  N   UNL A   1      42.366  30.386  29.029  1.00  0.00    -0.248 NA
ATOM     40  C   UNL A   1      41.093  31.773  30.410  1.00  0.00     0.031 C 
ATOM     41  C   UNL A   1      39.202  27.245  29.359  1.00  0.00     0.029 A 
ATOM     42  N   UNL A   1      41.289  27.693  28.690  1.00  0.00    -0.354 N 
ATOM     43  C   UNL A   1      43.048  31.578  29.237  1.00  0.00     0.074 A 
ATOM     44  C   UNL A   1      42.204  32.410  30.068  1.00  0.00     0.031 C 
ATOM     45  C   UNL A   1      39.716  26.113  28.848  1.00  0.00     0.029 A 
ATOM     46  C   UNL A   1      41.066  26.380  28.354  1.00  0.00     0.049 A 
ATOM     47  H   UNL A   1      42.140  28.156  28.517  1.00  0.00     0.167 HD
ATOM     48  C   UNL A   1      44.266  31.950  28.775  1.00  0.00     0.037 A 
ATOM     49  C   UNL A   1      41.846  25.501  27.695  1.00  0.00     0.037 A 
ATOM     50  C   UNL A   1      45.139  31.107  28.003  1.00  0.00     0.049 A 
ATOM     51  C   UNL A   1      43.195  25.937  27.185  1.00  0.00     0.074 A 
ATOM     52  C   UNL A   1      46.387  31.400  27.478  1.00  0.00     0.029 A 
ATOM     53  N   UNL A   1      44.864  29.790  27.668  1.00  0.00    -0.354 N 
ATOM     54  N   UNL A   1      43.793  27.097  27.309  1.00  0.00    -0.248 NA
ATOM     55  C   UNL A   1      43.968  24.943  26.425  1.00  0.00     0.031 C 
ATOM     56  C   UNL A   1      46.859  30.265  26.808  1.00  0.00     0.029 A 
ATOM     57  C   UNL A   1      45.920  29.256  26.946  1.00  0.00     0.049 A 
ATOM     58  H   UNL A   1      44.042  29.306  27.908  1.00  0.00     0.167 HD
ATOM     59  C   UNL A   1      45.007  26.973  26.647  1.00  0.00     0.074 A 
ATOM     60  C   UNL A   1      45.076  25.615  26.149  1.00  0.00     0.031 C 
ATOM     61  C   UNL A   1      45.974  27.904  26.457  1.00  0.00     0.037 A 
BRANCH  48  62
ATOM     62  C   UNL A   1      44.713  33.353  29.063  1.00  0.00     0.064 A 
ATOM     63  C   UNL A   1      45.427  33.681  30.223  1.00  0.00     0.173 A 
ATOM     64  C   UNL A   1      44.436  34.379  28.148  1.00  0.00     0.173 A 
ATOM     65  F   UNL A   1      45.700  32.737  31.138  1.00  0.00    -0.203 F 
ATOM     66  C   UNL A   1      45.829  34.992  30.468  1.00  0.00     0.198 A 
ATOM     67  C   UNL A   1      44.860  35.684  28.383  1.00  0.00     0.198 A 
ATOM     68  F   UNL A   1      43.756  34.115  27.021  1.00  0.00    -0.203 F 
ATOM     69  F   UNL A   1      46.473  35.293  31.605  1.00  0.00    -0.200 F 
ATOM     70  C   UNL A   1      45.550  35.991  29.546  1.00  0.00     0.200 A 
ATOM     71  F   UNL A   1      44.597  36.646  27.487  1.00  0.00    -0.200 F 
ATOM     72  F   UNL A   1      45.939  37.251  29.782  1.00  0.00    -0.200 F 
ENDBRANCH  48  62
BRANCH  49  73
ATOM     73  C   UNL A   1      41.362  24.118  27.448  1.00  0.00     0.064 A 
ATOM     74  C   UNL A   1      40.257  23.879  26.619  1.00  0.00     0.173 A 
ATOM     75  C   UNL A   1      41.983  23.012  28.046  1.00  0.00     0.173 A 
ATOM     76  F   UNL A   1      39.613  24.908  26.050  1.00  0.00    -0.203 F 
ATOM     77  C   UNL A   1      39.786  22.586  26.405  1.00  0.00     0.198 A 
ATOM     78  C   UNL A   1      41.526  21.717  27.809  1.00  0.00     0.198 A 
ATOM     79  F   UNL A   1      43.039  23.189  28.853  1.00  0.00    -0.203 F 
ATOM     80  F   UNL A   1      38.703  22.388  25.642  1.00  0.00    -0.200 F 
ATOM     81  C   UNL A   1      40.425  21.506  26.994  1.00  0.00     0.200 A 
ATOM     82  F   UNL A   1      42.154  20.676  28.373  1.00  0.00    -0.200 F 
ATOM     83  F   UNL A   1      39.975  20.261  26.783  1.00  0.00    -0.200 F 
ENDBRANCH  49  73
BRANCH  61  84
ATOM     84  C   UNL A   1      47.192  27.478  25.693  1.00  0.00     0.064 A 
ATOM     85  C   UNL A   1      48.285  26.879  26.335  1.00  0.00     0.173 A 
ATOM     86  C   UNL A   1      47.260  27.657  24.303  1.00  0.00     0.173 A 
ATOM     87  F   UNL A   1      48.271  26.701  27.666  1.00  0.00    -0.203 F 
ATOM     88  C   UNL A   1      49.415  26.496  25.617  1.00  0.00     0.198 A 
ATOM     89  C   UNL A   1      48.383  27.253  23.585  1.00  0.00     0.198 A 
ATOM     90  F   UNL A   1      46.239  28.222  23.643  1.00  0.00    -0.203 F 
ATOM     91  F   UNL A   1      50.466  25.966  26.258  1.00  0.00    -0.200 F 
ATOM     92  C   UNL A   1      49.461  26.680  24.243  1.00  0.00     0.200 A 
ATOM     93  F   UNL A   1      48.424  27.425  22.257  1.00  0.00    -0.200 F 
ATOM     94  F   UNL A   1      50.551  26.315  23.554  1.00  0.00    -0.200 F 
ENDBRANCH  61  84
ENDBRANCH  35  36
ENDBRANCH  28  30
ENDBRANCH  27  28
ENDBRANCH  26  27
ENDBRANCH  25  26
ENDBRANCH  24  25
ENDBRANCH  23  24
ENDBRANCH   1  23
TORSDOF 22
ENDMDL
MODEL 2
REMARK VINA RESULT:     -10.0      3.956      9.373
REMARK SMILES CCOc1cncc(N(CC(=O)OCCOCCOCCOC(=O)c2ccc(-c3c4nc(c(-c5c(F)c(F)c(F)c(F)c5F)c5ccc([nH]5)c(-c5c(F)c(F)c(F)c(F)c5F)c5nc(c(-c6c(F)c(F)c(F)c(F)c6F)c6ccc3[nH]6)C=C5)C=C4)cc2)C(C)(C)C)n1
REMARK SMILES IDX 17 1 16 2 15 3 14 4 13 5 11 6 12 7 10 8 9 9 8 10 4 11 5 12
REMARK SMILES IDX 92 13 6 14 7 15 3 16 2 17 1 18 88 19 89 20 90 21 91 22 18 23
REMARK SMILES IDX 19 24 20 25 21 26 22 27 23 28 24 29 25 30 26 31 87 32 27 33
REMARK SMILES IDX 86 34 28 35 29 36 30 37 80 38 31 39 85 40 79 41 81 42 32 43
REMARK SMILES IDX 84 44 78 45 77 46 33 48 65 49 45 50 64 51 46 52 49 53 63 54
REMARK SMILES IDX 82 55 47 56 48 57 62 59 83 60 50 61 34 62 35 63 43 64 36 65
REMARK SMILES IDX 37 66 41 67 44 68 38 69 39 70 42 71 40 72 66 73 67 74 75 75
REMARK SMILES IDX 68 76 69 77 73 78 76 79 70 80 71 81 74 82 72 83 51 84 52 85
REMARK SMILES IDX 60 86 53 87 54 88 58 89 61 90 55 91 56 92 59 93 57 94
REMARK H PARENT 81 47 49 58
REMARK Flexibility Score: inf
ROOT
ATOM      1  C   UNL A   1      40.023  21.529  26.436  1.00  0.00     0.188 C 
ENDROOT
BRANCH   1   2
ATOM      2  O   UNL A   1      39.736  22.817  26.977  1.00  0.00    -0.376 OA
BRANCH   2   3
ATOM      3  C   UNL A   1      38.686  23.564  26.364  1.00  0.00     0.202 C 
BRANCH   3   4
ATOM      4  C   UNL A   1      37.599  22.713  25.702  1.00  0.00     0.261 C 
BRANCH   4   5
ATOM      5  O   UNL A   1      37.033  23.360  24.541  1.00  0.00    -0.462 OA
BRANCH   5   6
ATOM      6  C   UNL A   1      35.775  22.963  24.218  1.00  0.00     0.325 C 
ATOM      7  O   UNL A   1      35.274  23.111  23.106  1.00  0.00    -0.250 OA
BRANCH   6   8
ATOM      8  C   UNL A   1      35.034  22.221  25.337  1.00  0.00     0.241 C 
BRANCH   8   9
ATOM      9  N   UNL A   1      33.574  22.016  25.164  1.00  0.00    -0.339 N 
BRANCH   9  10
ATOM     10  C   UNL A   1      33.135  20.771  24.678  1.00  0.00     0.152 A 
ATOM     11  C   UNL A   1      32.887  18.480  24.960  1.00  0.00     0.234 A 
ATOM     12  C   UNL A   1      32.342  18.337  23.702  1.00  0.00     0.179 A 
ATOM     13  N   UNL A   1      33.269  19.676  25.461  1.00  0.00    -0.193 NA
ATOM     14  N   UNL A   1      32.184  19.388  22.877  1.00  0.00    -0.255 NA
ATOM     15  C   UNL A   1      32.580  20.583  23.398  1.00  0.00     0.158 A 
BRANCH  11  16
ATOM     16  O   UNL A   1      32.966  17.389  25.787  1.00  0.00    -0.477 OA
BRANCH  16  17
ATOM     17  C   UNL A   1      33.258  16.203  25.043  1.00  0.00     0.228 C 
ATOM     18  C   UNL A   1      32.422  15.059  25.594  1.00  0.00     0.049 C 
ENDBRANCH  16  17
ENDBRANCH  11  16
ENDBRANCH   9  10
BRANCH   9  19
ATOM     19  C   UNL A   1      32.578  22.918  25.842  1.00  0.00     0.034 C 
ATOM     20  C   UNL A   1      32.832  22.984  27.369  1.00  0.00     0.034 C 
ATOM     21  C   UNL A   1      32.599  24.338  25.234  1.00  0.00     0.034 C 
ATOM     22  C   UNL A   1      31.129  22.422  25.651  1.00  0.00     0.034 C 
ENDBRANCH   9  19
ENDBRANCH   8   9
ENDBRANCH   6   8
ENDBRANCH   5   6
ENDBRANCH   4   5
ENDBRANCH   3   4
ENDBRANCH   2   3
ENDBRANCH   1   2
BRANCH   1  23
ATOM     23  C   UNL A   1      41.497  21.221  26.134  1.00  0.00     0.188 C 
BRANCH  23  24
ATOM     24  O   UNL A   1      42.017  20.011  26.674  1.00  0.00    -0.376 OA
BRANCH  24  25
ATOM     25  C   UNL A   1      42.196  18.933  25.759  1.00  0.00     0.202 C 
BRANCH  25  26
ATOM     26  C   UNL A   1      43.640  18.444  25.684  1.00  0.00     0.261 C 
BRANCH  26  27
ATOM     27  O   UNL A   1      44.122  18.575  24.334  1.00  0.00    -0.460 OA
BRANCH  27  28
ATOM     28  C   UNL A   1      45.215  19.357  24.216  1.00  0.00     0.338 C 
ATOM     29  O   UNL A   1      46.292  19.055  23.721  1.00  0.00    -0.246 OA
BRANCH  28  30
ATOM     30  C   UNL A   1      44.924  20.696  24.751  1.00  0.00     0.060 A 
ATOM     31  C   UNL A   1      44.426  21.686  23.901  1.00  0.00     0.016 A 
ATOM     32  C   UNL A   1      45.298  21.014  26.054  1.00  0.00     0.016 A 
ATOM     33  C   UNL A   1      44.384  23.017  24.322  1.00  0.00     0.010 A 
ATOM     34  C   UNL A   1      45.203  22.338  26.495  1.00  0.00     0.010 A 
ATOM     35  C   UNL A   1      44.802  23.362  25.616  1.00  0.00    -0.014 A 
BRANCH  35  36
ATOM     36  C   UNL A   1      44.978  24.792  26.003  1.00  0.00     0.031 A 
ATOM     37  C   UNL A   1      46.310  25.459  25.762  1.00  0.00     0.074 A 
ATOM     38  C   UNL A   1      43.969  25.515  26.521  1.00  0.00     0.049 A 
ATOM     39  N   UNL A   1      46.746  26.625  26.171  1.00  0.00    -0.248 NA
ATOM     40  C   UNL A   1      47.284  24.705  24.957  1.00  0.00     0.031 C 
ATOM     41  C   UNL A   1      42.608  25.036  26.746  1.00  0.00     0.029 A 
ATOM     42  N   UNL A   1      43.938  26.823  26.947  1.00  0.00    -0.354 N 
ATOM     43  C   UNL A   1      48.061  26.713  25.730  1.00  0.00     0.074 A 
ATOM     44  C   UNL A   1      48.351  25.489  25.016  1.00  0.00     0.031 C 
ATOM     45  C   UNL A   1      41.865  26.042  27.241  1.00  0.00     0.029 A 
ATOM     46  C   UNL A   1      42.715  27.216  27.432  1.00  0.00     0.049 A 
ATOM     47  H   UNL A   1      44.719  27.421  26.907  1.00  0.00     0.167 HD
ATOM     48  C   UNL A   1      48.949  27.721  25.907  1.00  0.00     0.037 A 
ATOM     49  C   UNL A   1      42.329  28.377  27.995  1.00  0.00     0.037 A 
ATOM     50  C   UNL A   1      48.650  28.968  26.559  1.00  0.00     0.049 A 
ATOM     51  C   UNL A   1      43.334  29.483  28.187  1.00  0.00     0.074 A 
ATOM     52  C   UNL A   1      49.488  30.044  26.799  1.00  0.00     0.029 A 
ATOM     53  N   UNL A   1      47.402  29.315  27.054  1.00  0.00    -0.354 N 
ATOM     54  N   UNL A   1      44.599  29.521  27.848  1.00  0.00    -0.248 NA
ATOM     55  C   UNL A   1      42.857  30.701  28.860  1.00  0.00     0.031 C 
ATOM     56  C   UNL A   1      48.751  31.037  27.456  1.00  0.00     0.029 A 
ATOM     57  C   UNL A   1      47.447  30.590  27.595  1.00  0.00     0.049 A 
ATOM     58  H   UNL A   1      46.603  28.742  27.025  1.00  0.00     0.167 HD
ATOM     59  C   UNL A   1      45.069  30.761  28.263  1.00  0.00     0.074 A 
ATOM     60  C   UNL A   1      43.944  31.458  28.852  1.00  0.00     0.031 C 
ATOM     61  C   UNL A   1      46.321  31.271  28.177  1.00  0.00     0.037 A 
BRANCH  48  62
ATOM     62  C   UNL A   1      50.349  27.498  25.417  1.00  0.00     0.064 A 
ATOM     63  C   UNL A   1      50.703  27.681  24.073  1.00  0.00     0.173 A 
ATOM     64  C   UNL A   1      51.355  27.117  26.317  1.00  0.00     0.173 A 
ATOM     65  F   UNL A   1      49.772  28.027  23.171  1.00  0.00    -0.203 F 
ATOM     66  C   UNL A   1      52.010  27.466  23.643  1.00  0.00     0.198 A 
ATOM     67  C   UNL A   1      52.666  26.927  25.889  1.00  0.00     0.198 A 
ATOM     68  F   UNL A   1      51.067  26.932  27.614  1.00  0.00    -0.203 F 
ATOM     69  F   UNL A   1      52.319  27.603  22.346  1.00  0.00    -0.200 F 
ATOM     70  C   UNL A   1      52.991  27.095  24.552  1.00  0.00     0.200 A 
ATOM     71  F   UNL A   1      53.614  26.576  26.770  1.00  0.00    -0.200 F 
ATOM     72  F   UNL A   1      54.249  26.891  24.137  1.00  0.00    -0.200 F 
ENDBRANCH  48  62
BRANCH  49  73
ATOM     73  C   UNL A   1      40.925  28.552  28.451  1.00  0.00     0.064 A 
ATOM     74  C   UNL A   1      40.545  28.215  29.757  1.00  0.00     0.173 A 
ATOM     75  C   UNL A   1      39.935  29.043  27.587  1.00  0.00     0.173 A 
ATOM     76  F   UNL A   1      41.451  27.713  30.608  1.00  0.00    -0.203 F 
ATOM     77  C   UNL A   1      39.225  28.354  30.180  1.00  0.00     0.198 A 
ATOM     78  C   UNL A   1      38.621  29.207  28.020  1.00  0.00     0.198 A 
ATOM     79  F   UNL A   1      40.248  29.373  26.326  1.00  0.00    -0.203 F 
ATOM     80  F   UNL A   1      38.879  27.986  31.421  1.00  0.00    -0.200 F 
ATOM     81  C   UNL A   1      38.266  28.857  29.314  1.00  0.00     0.200 A 
ATOM     82  F   UNL A   1      37.701  29.703  27.182  1.00  0.00    -0.200 F 
ATOM     83  F   UNL A   1      36.998  28.996  29.723  1.00  0.00    -0.200 F 
ENDBRANCH  49  73
BRANCH  61  84
ATOM     84  C   UNL A   1      46.535  32.654  28.717  1.00  0.00     0.064 A 
ATOM     85  C   UNL A   1      46.411  33.785  27.898  1.00  0.00     0.173 A 
ATOM     86  C   UNL A   1      46.849  32.850  30.070  1.00  0.00     0.173 A 
ATOM     87  F   UNL A   1      46.126  33.646  26.594  1.00  0.00    -0.203 F 
ATOM     88  C   UNL A   1      46.620  35.064  28.408  1.00  0.00     0.198 A 
ATOM     89  C   UNL A   1      47.037  34.131  30.581  1.00  0.00     0.198 A 
ATOM     90  F   UNL A   1      46.975  31.800  30.894  1.00  0.00    -0.203 F 
ATOM     91  F   UNL A   1      46.542  36.128  27.597  1.00  0.00    -0.200 F 
ATOM     92  C   UNL A   1      46.930  35.235  29.749  1.00  0.00     0.200 A 
ATOM     93  F   UNL A   1      47.329  34.297  31.878  1.00  0.00    -0.200 F 
ATOM     94  F   UNL A   1      47.135  36.467  30.238  1.00  0.00    -0.200 F 
ENDBRANCH  61  84
ENDBRANCH  35  36
ENDBRANCH  28  30
ENDBRANCH  27  28
ENDBRANCH  26  27
ENDBRANCH  25  26
ENDBRANCH  24  25
ENDBRANCH  23  24
ENDBRANCH   1  23
TORSDOF 22
ENDMDL
MODEL 3
REMARK VINA RESULT:     -10.0      2.799      8.036
REMARK SMILES CCOc1cncc(N(CC(=O)OCCOCCOCCOC(=O)c2ccc(-c3c4nc(c(-c5c(F)c(F)c(F)c(F)c5F)c5ccc([nH]5)c(-c5c(F)c(F)c(F)c(F)c5F)c5nc(c(-c6c(F)c(F)c(F)c(F)c6F)c6ccc3[nH]6)C=C5)C=C4)cc2)C(C)(C)C)n1
REMARK SMILES IDX 17 1 16 2 15 3 14 4 13 5 11 6 12 7 10 8 9 9 8 10 4 11 5 12
REMARK SMILES IDX 92 13 6 14 7 15 3 16 2 17 1 18 88 19 89 20 90 21 91 22 18 23
REMARK SMILES IDX 19 24 20 25 21 26 22 27 23 28 24 29 25 30 26 31 87 32 27 33
REMARK SMILES IDX 86 34 28 35 29 36 30 37 80 38 31 39 85 40 79 41 81 42 32 43
REMARK SMILES IDX 84 44 78 45 77 46 33 48 65 49 45 50 64 51 46 52 49 53 63 54
REMARK SMILES IDX 82 55 47 56 48 57 62 59 83 60 50 61 34 62 35 63 43 64 36 65
REMARK SMILES IDX 37 66 41 67 44 68 38 69 39 70 42 71 40 72 66 73 67 74 75 75
REMARK SMILES IDX 68 76 69 77 73 78 76 79 70 80 71 81 74 82 72 83 51 84 52 85
REMARK SMILES IDX 60 86 53 87 54 88 58 89 61 90 55 91 56 92 59 93 57 94
REMARK H PARENT 81 47 49 58
REMARK Flexibility Score: inf
ROOT
ATOM      1  C   UNL A   1      34.120  22.577  23.777  1.00  0.00     0.188 C 
ENDROOT
BRANCH   1   2
ATOM      2  O   UNL A   1      32.845  22.342  24.370  1.00  0.00    -0.376 OA
BRANCH   2   3
ATOM      3  C   UNL A   1      32.810  22.116  25.779  1.00  0.00     0.202 C 
BRANCH   3   4
ATOM      4  C   UNL A   1      31.864  23.040  26.551  1.00  0.00     0.261 C 
BRANCH   4   5
ATOM      5  O   UNL A   1      30.879  23.651  25.689  1.00  0.00    -0.462 OA
BRANCH   5   6
ATOM      6  C   UNL A   1      30.837  25.008  25.737  1.00  0.00     0.325 C 
ATOM      7  O   UNL A   1      29.969  25.647  26.328  1.00  0.00    -0.250 OA
BRANCH   6   8
ATOM      8  C   UNL A   1      32.022  25.706  25.060  1.00  0.00     0.241 C 
BRANCH   8   9
ATOM      9  N   UNL A   1      31.829  27.118  24.643  1.00  0.00    -0.339 N 
BRANCH   9  10
ATOM     10  C   UNL A   1      32.333  28.129  25.481  1.00  0.00     0.152 A 
ATOM     11  C   UNL A   1      34.025  28.949  26.844  1.00  0.00     0.234 A 
ATOM     12  C   UNL A   1      33.286  30.066  27.168  1.00  0.00     0.179 A 
ATOM     13  N   UNL A   1      33.574  27.992  26.002  1.00  0.00    -0.193 NA
ATOM     14  N   UNL A   1      32.045  30.258  26.682  1.00  0.00    -0.255 NA
ATOM     15  C   UNL A   1      31.608  29.280  25.840  1.00  0.00     0.158 A 
BRANCH  11  16
ATOM     16  O   UNL A   1      35.308  28.832  27.313  1.00  0.00    -0.477 OA
BRANCH  16  17
ATOM     17  C   UNL A   1      35.866  30.116  27.604  1.00  0.00     0.228 C 
ATOM     18  C   UNL A   1      37.378  29.985  27.697  1.00  0.00     0.049 C 
ENDBRANCH  16  17
ENDBRANCH  11  16
ENDBRANCH   9  10
BRANCH   9  19
ATOM     19  C   UNL A   1      31.483  27.467  23.220  1.00  0.00     0.034 C 
ATOM     20  C   UNL A   1      30.030  27.995  23.112  1.00  0.00     0.034 C 
ATOM     21  C   UNL A   1      32.472  28.499  22.635  1.00  0.00     0.034 C 
ATOM     22  C   UNL A   1      31.583  26.242  22.286  1.00  0.00     0.034 C 
ENDBRANCH   9  19
ENDBRANCH   8   9
ENDBRANCH   6   8
ENDBRANCH   5   6
ENDBRANCH   4   5
ENDBRANCH   3   4
ENDBRANCH   2   3
ENDBRANCH   1   2
BRANCH   1  23
ATOM     23  C   UNL A   1      34.975  23.690  24.401  1.00  0.00     0.188 C 
BRANCH  23  24
ATOM     24  O   UNL A   1      36.375  23.445  24.486  1.00  0.00    -0.376 OA
BRANCH  24  25
ATOM     25  C   UNL A   1      36.861  22.298  23.794  1.00  0.00     0.202 C 
BRANCH  25  26
ATOM     26  C   UNL A   1      37.387  21.212  24.729  1.00  0.00     0.261 C 
BRANCH  26  27
ATOM     27  O   UNL A   1      37.811  21.811  25.969  1.00  0.00    -0.460 OA
BRANCH  27  28
ATOM     28  C   UNL A   1      39.133  21.696  26.209  1.00  0.00     0.338 C 
ATOM     29  O   UNL A   1      39.859  20.753  25.923  1.00  0.00    -0.246 OA
BRANCH  28  30
ATOM     30  C   UNL A   1      39.626  22.921  26.857  1.00  0.00     0.060 A 
ATOM     31  C   UNL A   1      39.108  24.161  26.475  1.00  0.00     0.016 A 
ATOM     32  C   UNL A   1      40.712  22.853  27.724  1.00  0.00     0.016 A 
ATOM     33  C   UNL A   1      39.733  25.340  26.888  1.00  0.00     0.010 A 
ATOM     34  C   UNL A   1      41.304  24.034  28.184  1.00  0.00     0.010 A 
ATOM     35  C   UNL A   1      40.858  25.288  27.723  1.00  0.00    -0.014 A 
BRANCH  35  36
ATOM     36  C   UNL A   1      41.668  26.512  27.987  1.00  0.00     0.031 A 
ATOM     37  C   UNL A   1      41.091  27.601  28.858  1.00  0.00     0.074 A 
ATOM     38  C   UNL A   1      42.916  26.654  27.503  1.00  0.00     0.049 A 
ATOM     39  N   UNL A   1      41.533  28.814  29.081  1.00  0.00    -0.248 NA
ATOM     40  C   UNL A   1      39.844  27.279  29.569  1.00  0.00     0.031 C 
ATOM     41  C   UNL A   1      43.637  25.663  26.708  1.00  0.00     0.029 A 
ATOM     42  N   UNL A   1      43.804  27.698  27.623  1.00  0.00    -0.354 N 
ATOM     43  C   UNL A   1      40.586  29.417  29.900  1.00  0.00     0.074 A 
ATOM     44  C   UNL A   1      39.551  28.436  30.143  1.00  0.00     0.031 C 
ATOM     45  C   UNL A   1      44.867  26.132  26.435  1.00  0.00     0.029 A 
ATOM     46  C   UNL A   1      44.996  27.484  26.977  1.00  0.00     0.049 A 
ATOM     47  H   UNL A   1      43.603  28.520  28.124  1.00  0.00     0.167 HD
ATOM     48  C   UNL A   1      40.578  30.675  30.402  1.00  0.00     0.037 A 
ATOM     49  C   UNL A   1      46.060  28.294  26.812  1.00  0.00     0.037 A 
ATOM     50  C   UNL A   1      41.633  31.635  30.219  1.00  0.00     0.049 A 
ATOM     51  C   UNL A   1      46.027  29.691  27.374  1.00  0.00     0.074 A 
ATOM     52  C   UNL A   1      41.708  32.940  30.676  1.00  0.00     0.029 A 
ATOM     53  N   UNL A   1      42.815  31.382  29.539  1.00  0.00    -0.354 N 
ATOM     54  N   UNL A   1      45.088  30.283  28.070  1.00  0.00    -0.248 NA
ATOM     55  C   UNL A   1      47.198  30.539  27.107  1.00  0.00     0.031 C 
ATOM     56  C   UNL A   1      42.929  33.483  30.258  1.00  0.00     0.029 A 
ATOM     57  C   UNL A   1      43.627  32.505  29.569  1.00  0.00     0.049 A 
ATOM     58  H   UNL A   1      43.045  30.531  29.101  1.00  0.00     0.167 HD
ATOM     59  C   UNL A   1      45.552  31.566  28.326  1.00  0.00     0.074 A 
ATOM     60  C   UNL A   1      46.871  31.659  27.736  1.00  0.00     0.031 C 
ATOM     61  C   UNL A   1      44.936  32.582  28.978  1.00  0.00     0.037 A 
BRANCH  48  62
ATOM     62  C   UNL A   1      39.362  31.101  31.171  1.00  0.00     0.064 A 
ATOM     63  C   UNL A   1      39.160  30.727  32.507  1.00  0.00     0.173 A 
ATOM     64  C   UNL A   1      38.396  31.916  30.562  1.00  0.00     0.173 A 
ATOM     65  F   UNL A   1      40.047  29.932  33.126  1.00  0.00    -0.203 F 
ATOM     66  C   UNL A   1      38.022  31.134  33.198  1.00  0.00     0.198 A 
ATOM     67  C   UNL A   1      37.271  32.341  31.264  1.00  0.00     0.198 A 
ATOM     68  F   UNL A   1      38.545  32.303  29.286  1.00  0.00    -0.203 F 
ATOM     69  F   UNL A   1      37.826  30.728  34.461  1.00  0.00    -0.200 F 
ATOM     70  C   UNL A   1      37.082  31.945  32.579  1.00  0.00     0.200 A 
ATOM     71  F   UNL A   1      36.369  33.132  30.666  1.00  0.00    -0.200 F 
ATOM     72  F   UNL A   1      35.989  32.337  33.246  1.00  0.00    -0.200 F 
ENDBRANCH  48  62
BRANCH  49  73
ATOM     73  C   UNL A   1      47.246  27.818  26.053  1.00  0.00     0.064 A 
ATOM     74  C   UNL A   1      47.257  27.831  24.652  1.00  0.00     0.173 A 
ATOM     75  C   UNL A   1      48.383  27.328  26.712  1.00  0.00     0.173 A 
ATOM     76  F   UNL A   1      46.180  28.262  23.979  1.00  0.00    -0.203 F 
ATOM     77  C   UNL A   1      48.357  27.363  23.937  1.00  0.00     0.198 A 
ATOM     78  C   UNL A   1      49.493  26.886  25.996  1.00  0.00     0.198 A 
ATOM     79  F   UNL A   1      48.419  27.289  28.052  1.00  0.00    -0.203 F 
ATOM     80  F   UNL A   1      48.325  27.347  22.598  1.00  0.00    -0.200 F 
ATOM     81  C   UNL A   1      49.477  26.898  24.609  1.00  0.00     0.200 A 
ATOM     82  F   UNL A   1      50.577  26.447  26.650  1.00  0.00    -0.200 F 
ATOM     83  F   UNL A   1      50.538  26.454  23.922  1.00  0.00    -0.200 F 
ENDBRANCH  49  73
BRANCH  61  84
ATOM     84  C   UNL A   1      45.691  33.873  29.101  1.00  0.00     0.064 A 
ATOM     85  C   UNL A   1      45.561  34.888  28.142  1.00  0.00     0.173 A 
ATOM     86  C   UNL A   1      46.537  34.103  30.194  1.00  0.00     0.173 A 
ATOM     87  F   UNL A   1      44.773  34.708  27.070  1.00  0.00    -0.203 F 
ATOM     88  C   UNL A   1      46.273  36.079  28.260  1.00  0.00     0.198 A 
ATOM     89  C   UNL A   1      47.231  35.303  30.321  1.00  0.00     0.198 A 
ATOM     90  F   UNL A   1      46.692  33.164  31.139  1.00  0.00    -0.203 F 
ATOM     91  F   UNL A   1      46.169  37.017  27.309  1.00  0.00    -0.200 F 
ATOM     92  C   UNL A   1      47.104  36.286  29.351  1.00  0.00     0.200 A 
ATOM     93  F   UNL A   1      48.029  35.506  31.378  1.00  0.00    -0.200 F 
ATOM     94  F   UNL A   1      47.793  37.431  29.461  1.00  0.00    -0.200 F 
ENDBRANCH  61  84
ENDBRANCH  35  36
ENDBRANCH  28  30
ENDBRANCH  27  28
ENDBRANCH  26  27
ENDBRANCH  25  26
ENDBRANCH  24  25
ENDBRANCH  23  24
ENDBRANCH   1  23
TORSDOF 22
ENDMDL
