MODEL 1
REMARK VINA RESULT:     -11.1      0.000      0.000
REMARK SMILES C#Cc1cc(Cl)cc2c1O[C@H](C(F)(F)F)C(C(=O)OCCOCCOCCOC(=O)c1ccc(-c3c4nc(c(-c5c(F)c(F)c(F)c(F)c5F)c5ccc([nH]5)c(-c5c(F)c(F)c(F)c(F)c5F)c5nc(c(-c6c(F)c(F)c(F)c(F)c6F)c6ccc3[nH]6)C=C5)C=C4)cc1)=C2
REMARK SMILES IDX 24 1 23 2 22 3 21 4 20 5 19 6 17 7 18 8 16 9 3 10 4 11 9 12
REMARK SMILES IDX 5 13 8 14 10 15 6 16 7 17 94 18 11 19 2 20 1 21 12 22 13 23
REMARK SMILES IDX 14 24 15 25 25 26 26 27 27 28 28 29 29 30 30 31 31 32 32 33
REMARK SMILES IDX 93 34 33 35 92 36 34 37 35 38 36 39 86 40 37 41 91 42 85 43
REMARK SMILES IDX 87 44 38 45 90 46 84 47 83 48 39 50 71 51 51 52 70 53 52 54
REMARK SMILES IDX 55 55 69 56 88 57 53 58 54 59 68 61 89 62 56 63 40 64 41 65
REMARK SMILES IDX 49 66 42 67 43 68 47 69 50 70 44 71 45 72 48 73 46 74 72 75
REMARK SMILES IDX 73 76 81 77 74 78 75 79 79 80 82 81 76 82 77 83 80 84 78 85
REMARK SMILES IDX 57 86 58 87 66 88 59 89 60 90 64 91 67 92 61 93 62 94 65 95
REMARK SMILES IDX 63 96
REMARK H PARENT 87 49 55 60
REMARK Flexibility Score: inf
ROOT
ATOM      1  C   UNL A   1      32.612  30.321  27.023  1.00  0.00     0.188 C 
ENDROOT
BRANCH   1   2
ATOM      2  C   UNL A   1      32.534  28.799  26.780  1.00  0.00     0.188 C 
BRANCH   2   3
ATOM      3  O   UNL A   1      31.412  28.089  27.256  1.00  0.00    -0.376 OA
BRANCH   3   4
ATOM      4  C   UNL A   1      31.028  26.858  26.669  1.00  0.00     0.202 C 
BRANCH   4   5
ATOM      5  C   UNL A   1      30.651  26.663  25.186  1.00  0.00     0.261 C 
BRANCH   5   6
ATOM      6  O   UNL A   1      30.762  25.340  24.646  1.00  0.00    -0.460 OA
BRANCH   6   7
ATOM      7  C   UNL A   1      31.547  25.216  23.548  1.00  0.00     0.338 C 
ATOM      8  O   UNL A   1      31.629  26.000  22.618  1.00  0.00    -0.246 OA
BRANCH   7   9
ATOM      9  C   UNL A   1      32.451  24.057  23.720  1.00  0.00     0.087 C 
ATOM     10  C   UNL A   1      34.880  20.791  24.646  1.00  0.00     0.068 A 
ATOM     11  C   UNL A   1      34.303  19.525  24.795  1.00  0.00     0.041 A 
ATOM     12  C   UNL A   1      34.096  21.877  24.225  1.00  0.00     0.143 A 
ATOM     13  C   UNL A   1      32.955  19.343  24.501  1.00  0.00     0.043 A 
ATOM     14  C   UNL A   1      32.730  21.694  23.984  1.00  0.00     0.020 A 
ATOM     15  O   UNL A   1      34.718  23.086  24.071  1.00  0.00    -0.474 OA
ATOM     16  Cl  UNL A   1      32.243  17.788  24.687  1.00  0.00    -0.084 Cl
ATOM     17  C   UNL A   1      32.167  20.417  24.092  1.00  0.00     0.032 A 
ATOM     18  C   UNL A   1      31.883  22.843  23.714  1.00  0.00     0.027 C 
ATOM     19  C   UNL A   1      33.928  24.288  23.878  1.00  0.00     0.316 C 
BRANCH  10  20
ATOM     20  C   UNL A   1      36.262  20.960  24.999  1.00  0.00    -0.067 C 
ATOM     21  C   UNL A   1      37.403  21.123  25.324  1.00  0.00     0.010 C 
ENDBRANCH  10  20
BRANCH  19  22
ATOM     22  C   UNL A   1      34.238  25.260  25.023  1.00  0.00     0.430 C 
ATOM     23  F   UNL A   1      33.464  25.015  26.105  1.00  0.00    -0.167 F 
ATOM     24  F   UNL A   1      35.524  25.156  25.432  1.00  0.00    -0.167 F 
ATOM     25  F   UNL A   1      34.032  26.545  24.654  1.00  0.00    -0.167 F 
ENDBRANCH  19  22
ENDBRANCH   7   9
ENDBRANCH   6   7
ENDBRANCH   5   6
ENDBRANCH   4   5
ENDBRANCH   3   4
ENDBRANCH   2   3
ENDBRANCH   1   2
BRANCH   1  26
ATOM     26  O   UNL A   1      31.728  31.144  26.305  1.00  0.00    -0.376 OA
BRANCH  26  27
ATOM     27  C   UNL A   1      31.511  32.477  26.739  1.00  0.00     0.202 C 
BRANCH  27  28
ATOM     28  C   UNL A   1      32.577  33.419  27.352  1.00  0.00     0.261 C 
BRANCH  28  29
ATOM     29  O   UNL A   1      32.153  34.451  28.254  1.00  0.00    -0.460 OA
BRANCH  29  30
ATOM     30  C   UNL A   1      33.128  35.266  28.736  1.00  0.00     0.338 C 
ATOM     31  O   UNL A   1      33.063  36.468  28.915  1.00  0.00    -0.246 OA
BRANCH  30  32
ATOM     32  C   UNL A   1      34.246  34.432  29.229  1.00  0.00     0.060 A 
ATOM     33  C   UNL A   1      34.007  33.496  30.249  1.00  0.00     0.016 A 
ATOM     34  C   UNL A   1      35.527  34.582  28.700  1.00  0.00     0.016 A 
ATOM     35  C   UNL A   1      35.046  32.705  30.739  1.00  0.00     0.010 A 
ATOM     36  C   UNL A   1      36.577  33.817  29.220  1.00  0.00     0.010 A 
ATOM     37  C   UNL A   1      36.347  32.891  30.256  1.00  0.00    -0.014 A 
BRANCH  37  38
ATOM     38  C   UNL A   1      37.492  32.266  30.965  1.00  0.00     0.031 A 
ATOM     39  C   UNL A   1      38.247  31.168  30.268  1.00  0.00     0.074 A 
ATOM     40  C   UNL A   1      37.876  32.679  32.188  1.00  0.00     0.049 A 
ATOM     41  N   UNL A   1      39.234  30.429  30.707  1.00  0.00    -0.248 NA
ATOM     42  C   UNL A   1      37.834  30.863  28.888  1.00  0.00     0.031 C 
ATOM     43  C   UNL A   1      37.267  33.771  32.941  1.00  0.00     0.029 A 
ATOM     44  N   UNL A   1      38.874  32.216  33.011  1.00  0.00    -0.354 N 
ATOM     45  C   UNL A   1      39.557  29.574  29.660  1.00  0.00     0.074 A 
ATOM     46  C   UNL A   1      38.638  29.856  28.579  1.00  0.00     0.031 C 
ATOM     47  C   UNL A   1      37.900  33.890  34.122  1.00  0.00     0.029 A 
ATOM     48  C   UNL A   1      38.933  32.860  34.224  1.00  0.00     0.049 A 
ATOM     49  H   UNL A   1      39.491  31.493  32.756  1.00  0.00     0.167 HD
ATOM     50  C   UNL A   1      40.542  28.650  29.600  1.00  0.00     0.037 A 
ATOM     51  C   UNL A   1      39.714  32.626  35.298  1.00  0.00     0.037 A 
ATOM     52  C   UNL A   1      41.457  28.372  30.674  1.00  0.00     0.049 A 
ATOM     53  C   UNL A   1      40.734  31.512  35.243  1.00  0.00     0.074 A 
ATOM     54  C   UNL A   1      42.489  27.451  30.707  1.00  0.00     0.029 A 
ATOM     55  N   UNL A   1      41.450  29.011  31.906  1.00  0.00    -0.354 N 
ATOM     56  N   UNL A   1      41.044  30.718  34.246  1.00  0.00    -0.248 NA
ATOM     57  C   UNL A   1      41.516  31.263  36.465  1.00  0.00     0.031 C 
ATOM     58  C   UNL A   1      43.067  27.488  31.977  1.00  0.00     0.029 A 
ATOM     59  C   UNL A   1      42.443  28.481  32.714  1.00  0.00     0.049 A 
ATOM     60  H   UNL A   1      40.834  29.732  32.166  1.00  0.00     0.167 HD
ATOM     61  C   UNL A   1      42.073  29.906  34.707  1.00  0.00     0.074 A 
ATOM     62  C   UNL A   1      42.351  30.313  36.067  1.00  0.00     0.031 C 
ATOM     63  C   UNL A   1      42.726  28.909  34.061  1.00  0.00     0.037 A 
BRANCH  50  64
ATOM     64  C   UNL A   1      40.695  27.860  28.334  1.00  0.00     0.064 A 
ATOM     65  C   UNL A   1      41.524  28.301  27.292  1.00  0.00     0.173 A 
ATOM     66  C   UNL A   1      40.089  26.600  28.203  1.00  0.00     0.173 A 
ATOM     67  F   UNL A   1      42.115  29.503  27.362  1.00  0.00    -0.203 F 
ATOM     68  C   UNL A   1      41.739  27.512  26.165  1.00  0.00     0.198 A 
ATOM     69  C   UNL A   1      40.332  25.801  27.090  1.00  0.00     0.198 A 
ATOM     70  F   UNL A   1      39.290  26.131  29.173  1.00  0.00    -0.203 F 
ATOM     71  F   UNL A   1      42.516  27.964  25.171  1.00  0.00    -0.200 F 
ATOM     72  C   UNL A   1      41.155  26.256  26.072  1.00  0.00     0.200 A 
ATOM     73  F   UNL A   1      39.783  24.581  27.012  1.00  0.00    -0.200 F 
ATOM     74  F   UNL A   1      41.390  25.485  25.002  1.00  0.00    -0.200 F 
ENDBRANCH  50  64
BRANCH  51  75
ATOM     75  C   UNL A   1      39.570  33.455  36.527  1.00  0.00     0.064 A 
ATOM     76  C   UNL A   1      38.713  33.061  37.566  1.00  0.00     0.173 A 
ATOM     77  C   UNL A   1      40.257  34.669  36.680  1.00  0.00     0.173 A 
ATOM     78  F   UNL A   1      38.009  31.924  37.458  1.00  0.00    -0.203 F 
ATOM     79  C   UNL A   1      38.537  33.855  38.698  1.00  0.00     0.198 A 
ATOM     80  C   UNL A   1      40.107  35.445  37.828  1.00  0.00     0.198 A 
ATOM     81  F   UNL A   1      41.082  35.101  35.714  1.00  0.00    -0.203 F 
ATOM     82  F   UNL A   1      37.670  33.479  39.647  1.00  0.00    -0.200 F 
ATOM     83  C   UNL A   1      39.240  35.042  38.832  1.00  0.00     0.200 A 
ATOM     84  F   UNL A   1      40.798  36.586  37.958  1.00  0.00    -0.200 F 
ATOM     85  F   UNL A   1      39.074  35.803  39.922  1.00  0.00    -0.200 F 
ENDBRANCH  51  75
BRANCH  63  86
ATOM     86  C   UNL A   1      43.834  28.198  34.790  1.00  0.00     0.064 A 
ATOM     87  C   UNL A   1      45.121  28.746  34.888  1.00  0.00     0.173 A 
ATOM     88  C   UNL A   1      43.578  27.000  35.476  1.00  0.00     0.173 A 
ATOM     89  F   UNL A   1      45.422  29.886  34.246  1.00  0.00    -0.203 F 
ATOM     90  C   UNL A   1      46.115  28.113  35.631  1.00  0.00     0.198 A 
ATOM     91  C   UNL A   1      44.563  26.390  36.248  1.00  0.00     0.198 A 
ATOM     92  F   UNL A   1      42.361  26.438  35.428  1.00  0.00    -0.203 F 
ATOM     93  F   UNL A   1      47.348  28.636  35.679  1.00  0.00    -0.200 F 
ATOM     94  C   UNL A   1      45.831  26.943  36.321  1.00  0.00     0.200 A 
ATOM     95  F   UNL A   1      44.280  25.273  36.934  1.00  0.00    -0.200 F 
ATOM     96  F   UNL A   1      46.782  26.349  37.055  1.00  0.00    -0.200 F 
ENDBRANCH  63  86
ENDBRANCH  37  38
ENDBRANCH  30  32
ENDBRANCH  29  30
ENDBRANCH  28  29
ENDBRANCH  27  28
ENDBRANCH  26  27
ENDBRANCH   1  26
TORSDOF 19
ENDMDL
MODEL 2
REMARK VINA RESULT:     -11.1      2.064      3.418
REMARK SMILES C#Cc1cc(Cl)cc2c1O[C@H](C(F)(F)F)C(C(=O)OCCOCCOCCOC(=O)c1ccc(-c3c4nc(c(-c5c(F)c(F)c(F)c(F)c5F)c5ccc([nH]5)c(-c5c(F)c(F)c(F)c(F)c5F)c5nc(c(-c6c(F)c(F)c(F)c(F)c6F)c6ccc3[nH]6)C=C5)C=C4)cc1)=C2
REMARK SMILES IDX 24 1 23 2 22 3 21 4 20 5 19 6 17 7 18 8 16 9 3 10 4 11 9 12
REMARK SMILES IDX 5 13 8 14 10 15 6 16 7 17 94 18 11 19 2 20 1 21 12 22 13 23
REMARK SMILES IDX 14 24 15 25 25 26 26 27 27 28 28 29 29 30 30 31 31 32 32 33
REMARK SMILES IDX 93 34 33 35 92 36 34 37 35 38 36 39 86 40 37 41 91 42 85 43
REMARK SMILES IDX 87 44 38 45 90 46 84 47 83 48 39 50 71 51 51 52 70 53 52 54
REMARK SMILES IDX 55 55 69 56 88 57 53 58 54 59 68 61 89 62 56 63 40 64 41 65
REMARK SMILES IDX 49 66 42 67 43 68 47 69 50 70 44 71 45 72 48 73 46 74 72 75
REMARK SMILES IDX 73 76 81 77 74 78 75 79 79 80 82 81 76 82 77 83 80 84 78 85
REMARK SMILES IDX 57 86 58 87 66 88 59 89 60 90 64 91 67 92 61 93 62 94 65 95
REMARK SMILES IDX 63 96
REMARK H PARENT 87 49 55 60
REMARK Flexibility Score: inf
ROOT
ATOM      1  C   UNL A   1      29.552  29.701  23.045  1.00  0.00     0.188 C 
ENDROOT
BRANCH   1   2
ATOM      2  C   UNL A   1      29.872  28.199  22.892  1.00  0.00     0.188 C 
BRANCH   2   3
ATOM      3  O   UNL A   1      28.943  27.253  23.371  1.00  0.00    -0.376 OA
BRANCH   3   4
ATOM      4  C   UNL A   1      29.343  26.233  24.270  1.00  0.00     0.202 C 
BRANCH   4   5
ATOM      5  C   UNL A   1      30.433  26.381  25.351  1.00  0.00     0.261 C 
BRANCH   5   6
ATOM      6  O   UNL A   1      31.346  25.290  25.523  1.00  0.00    -0.460 OA
BRANCH   6   7
ATOM      7  C   UNL A   1      32.424  25.289  24.702  1.00  0.00     0.338 C 
ATOM      8  O   UNL A   1      32.816  26.214  24.012  1.00  0.00    -0.246 OA
BRANCH   7   9
ATOM      9  C   UNL A   1      33.189  24.037  24.898  1.00  0.00     0.087 C 
ATOM     10  C   UNL A   1      35.516  20.573  25.029  1.00  0.00     0.068 A 
ATOM     11  C   UNL A   1      36.888  20.676  25.279  1.00  0.00     0.041 A 
ATOM     12  C   UNL A   1      34.701  21.715  25.093  1.00  0.00     0.143 A 
ATOM     13  C   UNL A   1      37.438  21.909  25.615  1.00  0.00     0.043 A 
ATOM     14  C   UNL A   1      35.273  22.960  25.379  1.00  0.00     0.020 A 
ATOM     15  O   UNL A   1      33.361  21.552  24.865  1.00  0.00    -0.474 OA
ATOM     16  Cl  UNL A   1      39.126  22.039  25.919  1.00  0.00    -0.084 Cl
ATOM     17  C   UNL A   1      36.638  23.050  25.671  1.00  0.00     0.032 A 
ATOM     18  C   UNL A   1      34.468  24.166  25.279  1.00  0.00     0.027 C 
ATOM     19  C   UNL A   1      32.513  22.713  24.676  1.00  0.00     0.316 C 
BRANCH  10  20
ATOM     20  C   UNL A   1      34.983  19.297  24.642  1.00  0.00    -0.067 C 
ATOM     21  C   UNL A   1      34.574  18.217  24.324  1.00  0.00     0.010 C 
ENDBRANCH  10  20
BRANCH  19  22
ATOM     22  C   UNL A   1      31.870  22.622  23.287  1.00  0.00     0.430 C 
ATOM     23  F   UNL A   1      32.627  23.238  22.349  1.00  0.00    -0.167 F 
ATOM     24  F   UNL A   1      31.723  21.338  22.888  1.00  0.00    -0.167 F 
ATOM     25  F   UNL A   1      30.645  23.196  23.266  1.00  0.00    -0.167 F 
ENDBRANCH  19  22
ENDBRANCH   7   9
ENDBRANCH   6   7
ENDBRANCH   5   6
ENDBRANCH   4   5
ENDBRANCH   3   4
ENDBRANCH   2   3
ENDBRANCH   1   2
BRANCH   1  26
ATOM     26  O   UNL A   1      30.284  30.431  23.998  1.00  0.00    -0.376 OA
BRANCH  26  27
ATOM     27  C   UNL A   1      31.042  29.733  24.975  1.00  0.00     0.202 C 
BRANCH  27  28
ATOM     28  C   UNL A   1      32.494  30.058  25.403  1.00  0.00     0.261 C 
BRANCH  28  29
ATOM     29  O   UNL A   1      32.798  30.162  26.800  1.00  0.00    -0.460 OA
BRANCH  29  30
ATOM     30  C   UNL A   1      33.390  31.316  27.203  1.00  0.00     0.338 C 
ATOM     31  O   UNL A   1      32.892  32.426  27.244  1.00  0.00    -0.246 OA
BRANCH  30  32
ATOM     32  C   UNL A   1      34.703  30.994  27.805  1.00  0.00     0.060 A 
ATOM     33  C   UNL A   1      34.979  29.670  28.182  1.00  0.00     0.016 A 
ATOM     34  C   UNL A   1      35.651  31.996  28.011  1.00  0.00     0.016 A 
ATOM     35  C   UNL A   1      36.205  29.342  28.761  1.00  0.00     0.010 A 
ATOM     36  C   UNL A   1      36.865  31.673  28.629  1.00  0.00     0.010 A 
ATOM     37  C   UNL A   1      37.140  30.350  29.027  1.00  0.00    -0.014 A 
BRANCH  37  38
ATOM     38  C   UNL A   1      38.310  30.060  29.892  1.00  0.00     0.031 A 
ATOM     39  C   UNL A   1      39.373  29.136  29.366  1.00  0.00     0.074 A 
ATOM     40  C   UNL A   1      38.446  30.623  31.107  1.00  0.00     0.049 A 
ATOM     41  N   UNL A   1      40.448  28.680  29.958  1.00  0.00    -0.248 NA
ATOM     42  C   UNL A   1      39.201  28.660  27.983  1.00  0.00     0.031 C 
ATOM     43  C   UNL A   1      37.520  31.580  31.705  1.00  0.00     0.029 A 
ATOM     44  N   UNL A   1      39.425  30.462  32.059  1.00  0.00    -0.354 N 
ATOM     45  C   UNL A   1      41.076  27.868  29.023  1.00  0.00     0.074 A 
ATOM     46  C   UNL A   1      40.246  27.858  27.838  1.00  0.00     0.031 C 
ATOM     47  C   UNL A   1      37.970  31.917  32.927  1.00  0.00     0.029 A 
ATOM     48  C   UNL A   1      39.195  31.171  33.214  1.00  0.00     0.049 A 
ATOM     49  H   UNL A   1      40.217  29.894  31.926  1.00  0.00     0.167 HD
ATOM     50  C   UNL A   1      42.249  27.204  29.136  1.00  0.00     0.037 A 
ATOM     51  C   UNL A   1      39.882  31.194  34.374  1.00  0.00     0.037 A 
ATOM     52  C   UNL A   1      43.076  27.217  30.313  1.00  0.00     0.049 A 
ATOM     53  C   UNL A   1      41.132  30.355  34.511  1.00  0.00     0.074 A 
ATOM     54  C   UNL A   1      44.282  26.573  30.522  1.00  0.00     0.029 A 
ATOM     55  N   UNL A   1      42.781  27.907  31.480  1.00  0.00    -0.354 N 
ATOM     56  N   UNL A   1      41.728  29.601  33.619  1.00  0.00    -0.248 NA
ATOM     57  C   UNL A   1      41.806  30.373  35.819  1.00  0.00     0.031 C 
ATOM     58  C   UNL A   1      44.688  26.821  31.834  1.00  0.00     0.029 A 
ATOM     59  C   UNL A   1      43.772  27.678  32.421  1.00  0.00     0.049 A 
ATOM     60  H   UNL A   1      41.989  28.473  31.618  1.00  0.00     0.167 HD
ATOM     61  C   UNL A   1      42.858  29.087  34.243  1.00  0.00     0.074 A 
ATOM     62  C   UNL A   1      42.878  29.628  35.584  1.00  0.00     0.031 C 
ATOM     63  C   UNL A   1      43.794  28.239  33.749  1.00  0.00     0.037 A 
BRANCH  50  64
ATOM     64  C   UNL A   1      42.723  26.401  27.961  1.00  0.00     0.064 A 
ATOM     65  C   UNL A   1      42.262  25.096  27.732  1.00  0.00     0.173 A 
ATOM     66  C   UNL A   1      43.566  26.978  26.998  1.00  0.00     0.173 A 
ATOM     67  F   UNL A   1      41.466  24.494  28.628  1.00  0.00    -0.203 F 
ATOM     68  C   UNL A   1      42.629  24.398  26.584  1.00  0.00     0.198 A 
ATOM     69  C   UNL A   1      43.905  26.290  25.837  1.00  0.00     0.198 A 
ATOM     70  F   UNL A   1      44.032  28.225  27.168  1.00  0.00    -0.203 F 
ATOM     71  F   UNL A   1      42.197  23.144  26.397  1.00  0.00    -0.200 F 
ATOM     72  C   UNL A   1      43.438  25.001  25.631  1.00  0.00     0.200 A 
ATOM     73  F   UNL A   1      44.670  26.882  24.909  1.00  0.00    -0.200 F 
ATOM     74  F   UNL A   1      43.763  24.340  24.512  1.00  0.00    -0.200 F 
ENDBRANCH  50  64
BRANCH  51  75
ATOM     75  C   UNL A   1      39.411  32.035  35.509  1.00  0.00     0.064 A 
ATOM     76  C   UNL A   1      39.876  33.349  35.674  1.00  0.00     0.173 A 
ATOM     77  C   UNL A   1      38.514  31.540  36.469  1.00  0.00     0.173 A 
ATOM     78  F   UNL A   1      40.758  33.861  34.804  1.00  0.00    -0.203 F 
ATOM     79  C   UNL A   1      39.476  34.125  36.761  1.00  0.00     0.198 A 
ATOM     80  C   UNL A   1      38.088  32.330  37.535  1.00  0.00     0.198 A 
ATOM     81  F   UNL A   1      38.045  30.288  36.368  1.00  0.00    -0.203 F 
ATOM     82  F   UNL A   1      39.979  35.356  36.921  1.00  0.00    -0.200 F 
ATOM     83  C   UNL A   1      38.576  33.619  37.685  1.00  0.00     0.200 A 
ATOM     84  F   UNL A   1      37.208  31.840  38.419  1.00  0.00    -0.200 F 
ATOM     85  F   UNL A   1      38.188  34.368  38.727  1.00  0.00    -0.200 F 
ENDBRANCH  51  75
BRANCH  63  86
ATOM     86  C   UNL A   1      44.946  27.858  34.638  1.00  0.00     0.064 A 
ATOM     87  C   UNL A   1      44.909  26.708  35.439  1.00  0.00     0.173 A 
ATOM     88  C   UNL A   1      46.136  28.603  34.616  1.00  0.00     0.173 A 
ATOM     89  F   UNL A   1      43.793  25.964  35.503  1.00  0.00    -0.203 F 
ATOM     90  C   UNL A   1      46.013  26.328  36.198  1.00  0.00     0.198 A 
ATOM     91  C   UNL A   1      47.250  28.199  35.346  1.00  0.00     0.198 A 
ATOM     92  F   UNL A   1      46.233  29.705  33.856  1.00  0.00    -0.203 F 
ATOM     93  F   UNL A   1      45.940  25.246  36.987  1.00  0.00    -0.200 F 
ATOM     94  C   UNL A   1      47.186  27.065  36.141  1.00  0.00     0.200 A 
ATOM     95  F   UNL A   1      48.391  28.899  35.270  1.00  0.00    -0.200 F 
ATOM     96  F   UNL A   1      48.255  26.683  36.853  1.00  0.00    -0.200 F 
ENDBRANCH  63  86
ENDBRANCH  37  38
ENDBRANCH  30  32
ENDBRANCH  29  30
ENDBRANCH  28  29
ENDBRANCH  27  28
ENDBRANCH  26  27
ENDBRANCH   1  26
TORSDOF 19
ENDMDL
MODEL 3
REMARK VINA RESULT:     -11.0      5.463     10.544
REMARK SMILES C#Cc1cc(Cl)cc2c1O[C@H](C(F)(F)F)C(C(=O)OCCOCCOCCOC(=O)c1ccc(-c3c4nc(c(-c5c(F)c(F)c(F)c(F)c5F)c5ccc([nH]5)c(-c5c(F)c(F)c(F)c(F)c5F)c5nc(c(-c6c(F)c(F)c(F)c(F)c6F)c6ccc3[nH]6)C=C5)C=C4)cc1)=C2
REMARK SMILES IDX 24 1 23 2 22 3 21 4 20 5 19 6 17 7 18 8 16 9 3 10 4 11 9 12
REMARK SMILES IDX 5 13 8 14 10 15 6 16 7 17 94 18 11 19 2 20 1 21 12 22 13 23
REMARK SMILES IDX 14 24 15 25 25 26 26 27 27 28 28 29 29 30 30 31 31 32 32 33
REMARK SMILES IDX 93 34 33 35 92 36 34 37 35 38 36 39 86 40 37 41 91 42 85 43
REMARK SMILES IDX 87 44 38 45 90 46 84 47 83 48 39 50 71 51 51 52 70 53 52 54
REMARK SMILES IDX 55 55 69 56 88 57 53 58 54 59 68 61 89 62 56 63 40 64 41 65
REMARK SMILES IDX 49 66 42 67 43 68 47 69 50 70 44 71 45 72 48 73 46 74 72 75
REMARK SMILES IDX 73 76 81 77 74 78 75 79 79 80 82 81 76 82 77 83 80 84 78 85
REMARK SMILES IDX 57 86 58 87 66 88 59 89 60 90 64 91 67 92 61 93 62 94 65 95
REMARK SMILES IDX 63 96
REMARK H PARENT 87 49 55 60
REMARK Flexibility Score: inf
ROOT
ATOM      1  C   UNL A   1      37.410  23.464  25.759  1.00  0.00     0.188 C 
ENDROOT
BRANCH   1   2
ATOM      2  C   UNL A   1      35.886  23.687  25.675  1.00  0.00     0.188 C 
BRANCH   2   3
ATOM      3  O   UNL A   1      35.081  23.313  26.770  1.00  0.00    -0.376 OA
BRANCH   3   4
ATOM      4  C   UNL A   1      34.522  22.013  26.851  1.00  0.00     0.202 C 
BRANCH   4   5
ATOM      5  C   UNL A   1      33.023  21.704  27.042  1.00  0.00     0.261 C 
BRANCH   5   6
ATOM      6  O   UNL A   1      32.108  22.256  26.088  1.00  0.00    -0.460 OA
BRANCH   6   7
ATOM      7  C   UNL A   1      31.429  23.357  26.492  1.00  0.00     0.338 C 
ATOM      8  O   UNL A   1      30.513  23.394  27.296  1.00  0.00    -0.246 OA
BRANCH   7   9
ATOM      9  C   UNL A   1      32.085  24.567  25.947  1.00  0.00     0.087 C 
ATOM     10  C   UNL A   1      33.513  28.148  24.346  1.00  0.00     0.068 A 
ATOM     11  C   UNL A   1      33.540  29.296  25.146  1.00  0.00     0.041 A 
ATOM     12  C   UNL A   1      33.142  26.913  24.901  1.00  0.00     0.143 A 
ATOM     13  C   UNL A   1      33.221  29.203  26.497  1.00  0.00     0.043 A 
ATOM     14  C   UNL A   1      32.772  26.841  26.249  1.00  0.00     0.020 A 
ATOM     15  O   UNL A   1      33.159  25.818  24.080  1.00  0.00    -0.474 OA
ATOM     16  Cl  UNL A   1      33.250  30.614  27.480  1.00  0.00    -0.084 Cl
ATOM     17  C   UNL A   1      32.842  27.983  27.054  1.00  0.00     0.032 A 
ATOM     18  C   UNL A   1      32.226  25.604  26.784  1.00  0.00     0.027 C 
ATOM     19  C   UNL A   1      32.559  24.573  24.521  1.00  0.00     0.316 C 
BRANCH  10  20
ATOM     20  C   UNL A   1      33.804  28.280  22.946  1.00  0.00    -0.067 C 
ATOM     21  C   UNL A   1      34.076  28.364  21.783  1.00  0.00     0.010 C 
ENDBRANCH  10  20
BRANCH  19  22
ATOM     22  C   UNL A   1      31.439  24.201  23.541  1.00  0.00     0.430 C 
ATOM     23  F   UNL A   1      31.527  24.914  22.395  1.00  0.00    -0.167 F 
ATOM     24  F   UNL A   1      31.493  22.894  23.193  1.00  0.00    -0.167 F 
ATOM     25  F   UNL A   1      30.216  24.429  24.073  1.00  0.00    -0.167 F 
ENDBRANCH  19  22
ENDBRANCH   7   9
ENDBRANCH   6   7
ENDBRANCH   5   6
ENDBRANCH   4   5
ENDBRANCH   3   4
ENDBRANCH   2   3
ENDBRANCH   1   2
BRANCH   1  26
ATOM     26  O   UNL A   1      37.927  22.274  25.218  1.00  0.00    -0.376 OA
BRANCH  26  27
ATOM     27  C   UNL A   1      39.025  21.640  25.856  1.00  0.00     0.202 C 
BRANCH  27  28
ATOM     28  C   UNL A   1      39.528  20.201  25.585  1.00  0.00     0.261 C 
BRANCH  28  29
ATOM     29  O   UNL A   1      40.420  19.589  26.526  1.00  0.00    -0.460 OA
BRANCH  29  30
ATOM     30  C   UNL A   1      41.727  19.522  26.160  1.00  0.00     0.338 C 
ATOM     31  O   UNL A   1      42.258  18.670  25.472  1.00  0.00    -0.246 OA
BRANCH  30  32
ATOM     32  C   UNL A   1      42.397  20.783  26.551  1.00  0.00     0.060 A 
ATOM     33  C   UNL A   1      42.370  21.186  27.896  1.00  0.00     0.016 A 
ATOM     34  C   UNL A   1      43.034  21.571  25.594  1.00  0.00     0.016 A 
ATOM     35  C   UNL A   1      42.984  22.375  28.288  1.00  0.00     0.010 A 
ATOM     36  C   UNL A   1      43.615  22.784  25.982  1.00  0.00     0.010 A 
ATOM     37  C   UNL A   1      43.575  23.203  27.325  1.00  0.00    -0.014 A 
BRANCH  37  38
ATOM     38  C   UNL A   1      43.971  24.587  27.687  1.00  0.00     0.031 A 
ATOM     39  C   UNL A   1      42.884  25.582  27.989  1.00  0.00     0.074 A 
ATOM     40  C   UNL A   1      45.264  24.951  27.774  1.00  0.00     0.049 A 
ATOM     41  N   UNL A   1      42.977  26.859  28.261  1.00  0.00    -0.248 NA
ATOM     42  C   UNL A   1      41.505  25.066  27.985  1.00  0.00     0.031 C 
ATOM     43  C   UNL A   1      46.407  24.068  27.566  1.00  0.00     0.029 A 
ATOM     44  N   UNL A   1      45.828  26.172  28.059  1.00  0.00    -0.354 N 
ATOM     45  C   UNL A   1      41.674  27.296  28.459  1.00  0.00     0.074 A 
ATOM     46  C   UNL A   1      40.804  26.162  28.238  1.00  0.00     0.031 C 
ATOM     47  C   UNL A   1      47.539  24.778  27.722  1.00  0.00     0.029 A 
ATOM     48  C   UNL A   1      47.201  26.173  28.003  1.00  0.00     0.049 A 
ATOM     49  H   UNL A   1      45.298  26.971  28.283  1.00  0.00     0.167 HD
ATOM     50  C   UNL A   1      41.243  28.529  28.810  1.00  0.00     0.037 A 
ATOM     51  C   UNL A   1      48.078  27.188  28.141  1.00  0.00     0.037 A 
ATOM     52  C   UNL A   1      42.110  29.655  29.034  1.00  0.00     0.049 A 
ATOM     53  C   UNL A   1      47.562  28.579  28.426  1.00  0.00     0.074 A 
ATOM     54  C   UNL A   1      41.765  30.947  29.392  1.00  0.00     0.029 A 
ATOM     55  N   UNL A   1      43.492  29.627  28.917  1.00  0.00    -0.354 N 
ATOM     56  N   UNL A   1      46.330  28.983  28.626  1.00  0.00    -0.248 NA
ATOM     57  C   UNL A   1      48.561  29.657  28.506  1.00  0.00     0.031 C 
ATOM     58  C   UNL A   1      42.930  31.714  29.433  1.00  0.00     0.029 A 
ATOM     59  C   UNL A   1      44.009  30.888  29.170  1.00  0.00     0.049 A 
ATOM     60  H   UNL A   1      44.024  28.832  28.690  1.00  0.00     0.167 HD
ATOM     61  C   UNL A   1      46.410  30.346  28.889  1.00  0.00     0.074 A 
ATOM     62  C   UNL A   1      47.812  30.699  28.841  1.00  0.00     0.031 C 
ATOM     63  C   UNL A   1      45.410  31.225  29.142  1.00  0.00     0.037 A 
BRANCH  50  64
ATOM     64  C   UNL A   1      39.768  28.741  28.981  1.00  0.00     0.064 A 
ATOM     65  C   UNL A   1      39.144  28.578  30.226  1.00  0.00     0.173 A 
ATOM     66  C   UNL A   1      38.989  29.213  27.913  1.00  0.00     0.173 A 
ATOM     67  F   UNL A   1      39.841  28.117  31.276  1.00  0.00    -0.203 F 
ATOM     68  C   UNL A   1      37.794  28.877  30.396  1.00  0.00     0.198 A 
ATOM     69  C   UNL A   1      37.648  29.540  28.093  1.00  0.00     0.198 A 
ATOM     70  F   UNL A   1      39.538  29.389  26.702  1.00  0.00    -0.203 F 
ATOM     71  F   UNL A   1      37.213  28.690  31.589  1.00  0.00    -0.200 F 
ATOM     72  C   UNL A   1      37.052  29.372  29.333  1.00  0.00     0.200 A 
ATOM     73  F   UNL A   1      36.939  30.037  27.071  1.00  0.00    -0.200 F 
ATOM     74  F   UNL A   1      35.762  29.689  29.507  1.00  0.00    -0.200 F 
ENDBRANCH  50  64
BRANCH  51  75
ATOM     75  C   UNL A   1      49.541  26.939  28.010  1.00  0.00     0.064 A 
ATOM     76  C   UNL A   1      50.159  26.925  26.751  1.00  0.00     0.173 A 
ATOM     77  C   UNL A   1      50.346  26.682  29.131  1.00  0.00     0.173 A 
ATOM     78  F   UNL A   1      49.431  27.135  25.645  1.00  0.00    -0.203 F 
ATOM     79  C   UNL A   1      51.519  26.646  26.617  1.00  0.00     0.198 A 
ATOM     80  C   UNL A   1      51.712  26.438  28.998  1.00  0.00     0.198 A 
ATOM     81  F   UNL A   1      49.807  26.673  30.359  1.00  0.00    -0.203 F 
ATOM     82  F   UNL A   1      52.069  26.585  25.397  1.00  0.00    -0.200 F 
ATOM     83  C   UNL A   1      52.296  26.411  27.741  1.00  0.00     0.200 A 
ATOM     84  F   UNL A   1      52.461  26.224  30.089  1.00  0.00    -0.200 F 
ATOM     85  F   UNL A   1      53.603  26.148  27.612  1.00  0.00    -0.200 F 
ENDBRANCH  51  75
BRANCH  63  86
ATOM     86  C   UNL A   1      45.778  32.656  29.424  1.00  0.00     0.064 A 
ATOM     87  C   UNL A   1      46.106  33.090  30.716  1.00  0.00     0.173 A 
ATOM     88  C   UNL A   1      45.895  33.580  28.373  1.00  0.00     0.173 A 
ATOM     89  F   UNL A   1      46.005  32.251  31.758  1.00  0.00    -0.203 F 
ATOM     90  C   UNL A   1      46.519  34.400  30.949  1.00  0.00     0.198 A 
ATOM     91  C   UNL A   1      46.344  34.877  28.603  1.00  0.00     0.198 A 
ATOM     92  F   UNL A   1      45.607  33.215  27.115  1.00  0.00    -0.203 F 
ATOM     93  F   UNL A   1      46.790  34.804  32.198  1.00  0.00    -0.200 F 
ATOM     94  C   UNL A   1      46.651  35.288  29.891  1.00  0.00     0.200 A 
ATOM     95  F   UNL A   1      46.494  35.726  27.577  1.00  0.00    -0.200 F 
ATOM     96  F   UNL A   1      47.073  36.541  30.114  1.00  0.00    -0.200 F 
ENDBRANCH  63  86
ENDBRANCH  37  38
ENDBRANCH  30  32
ENDBRANCH  29  30
ENDBRANCH  28  29
ENDBRANCH  27  28
ENDBRANCH  26  27
ENDBRANCH   1  26
TORSDOF 19
ENDMDL
