MODEL 1
REMARK VINA RESULT:     -11.1      0.000      0.000
REMARK SMILES CC1=C(C)C[C@@H](C(=O)N[C@H](C)C(C)(C)C)[C@@H](C(=O)OCCOCCOCCOC(=O)c2ccc(-c3c4nc(c(-c5c(F)c(F)c(F)c(F)c5F)c5ccc([nH]5)c(-c5c(F)c(F)c(F)c(F)c5F)c5nc(c(-c6c(F)c(F)c(F)c(F)c6F)c6ccc3[nH]6)C=C5)C=C4)cc2)C1
REMARK SMILES IDX 23 1 22 2 21 3 20 4 19 5 17 6 18 7 16 8 1 9 2 10 3 11 94 12
REMARK SMILES IDX 4 13 5 14 6 15 7 16 8 17 9 18 10 20 11 21 12 22 13 23 14 24
REMARK SMILES IDX 15 25 24 26 25 27 26 28 27 29 28 30 29 31 30 32 31 33 32 34
REMARK SMILES IDX 93 35 33 36 92 37 34 38 35 39 36 40 86 41 37 42 91 43 85 44
REMARK SMILES IDX 87 45 38 46 90 47 84 48 83 49 39 51 71 52 51 53 70 54 52 55
REMARK SMILES IDX 55 56 69 57 88 58 53 59 54 60 68 62 89 63 56 64 40 65 41 66
REMARK SMILES IDX 49 67 42 68 43 69 47 70 50 71 44 72 45 73 48 74 46 75 72 76
REMARK SMILES IDX 73 77 81 78 74 79 75 80 79 81 82 82 76 83 77 84 80 85 78 86
REMARK SMILES IDX 57 87 58 88 66 89 59 90 60 91 64 92 67 93 61 94 62 95 65 96
REMARK SMILES IDX 63 97
REMARK H PARENT 9 19 87 50 55 61
REMARK Flexibility Score: inf
ROOT
ATOM      1  C   UNL A   1      33.834  31.776  27.601  1.00  0.00     0.188 C 
ENDROOT
BRANCH   1   2
ATOM      2  O   UNL A   1      35.017  31.039  27.273  1.00  0.00    -0.376 OA
BRANCH   2   3
ATOM      3  C   UNL A   1      34.873  29.623  27.409  1.00  0.00     0.202 C 
BRANCH   3   4
ATOM      4  C   UNL A   1      33.414  29.224  27.606  1.00  0.00     0.261 C 
BRANCH   4   5
ATOM      5  O   UNL A   1      32.996  28.307  26.577  1.00  0.00    -0.463 OA
BRANCH   5   6
ATOM      6  C   UNL A   1      31.725  27.839  26.598  1.00  0.00     0.310 C 
ATOM      7  O   UNL A   1      31.131  27.493  27.610  1.00  0.00    -0.252 OA
BRANCH   6   8
ATOM      8  C   UNL A   1      31.218  27.687  25.176  1.00  0.00     0.116 C 
ATOM      9  C   UNL A   1      33.872  28.289  22.369  1.00  0.00     0.039 C 
ATOM     10  C   UNL A   1      32.616  27.707  22.967  1.00  0.00    -0.073 C 
ATOM     11  C   UNL A   1      32.010  26.593  22.509  1.00  0.00    -0.074 C 
ATOM     12  C   UNL A   1      32.111  28.452  24.179  1.00  0.00     0.046 C 
ATOM     13  C   UNL A   1      32.375  25.903  21.215  1.00  0.00     0.039 C 
ATOM     14  C   UNL A   1      30.866  25.957  23.255  1.00  0.00     0.045 C 
ATOM     15  C   UNL A   1      30.762  26.281  24.757  1.00  0.00     0.097 C 
BRANCH  15  16
ATOM     16  C   UNL A   1      30.832  25.025  25.644  1.00  0.00     0.224 C 
ATOM     17  O   UNL A   1      29.937  24.943  26.508  1.00  0.00    -0.275 OA
ATOM     18  N   UNL A   1      31.601  23.933  25.698  1.00  0.00    -0.353 N 
ATOM     19  H   UNL A   1      31.394  23.473  26.543  1.00  0.00     0.163 HD
BRANCH  18  20
ATOM     20  C   UNL A   1      32.635  23.133  25.006  1.00  0.00     0.084 C 
ATOM     21  C   UNL A   1      32.502  21.644  25.308  1.00  0.00     0.031 C 
BRANCH  20  22
ATOM     22  C   UNL A   1      34.060  23.740  24.989  1.00  0.00    -0.018 C 
ATOM     23  C   UNL A   1      35.095  22.835  25.687  1.00  0.00     0.013 C 
ATOM     24  C   UNL A   1      34.523  23.915  23.524  1.00  0.00     0.013 C 
ATOM     25  C   UNL A   1      34.065  25.048  25.769  1.00  0.00     0.013 C 
ENDBRANCH  20  22
ENDBRANCH  18  20
ENDBRANCH  15  16
ENDBRANCH   6   8
ENDBRANCH   5   6
ENDBRANCH   4   5
ENDBRANCH   3   4
ENDBRANCH   2   3
ENDBRANCH   1   2
BRANCH   1  26
ATOM     26  C   UNL A   1      34.128  33.014  28.469  1.00  0.00     0.188 C 
BRANCH  26  27
ATOM     27  O   UNL A   1      34.018  32.874  29.884  1.00  0.00    -0.376 OA
BRANCH  27  28
ATOM     28  C   UNL A   1      34.354  34.008  30.666  1.00  0.00     0.202 C 
BRANCH  28  29
ATOM     29  C   UNL A   1      34.489  33.786  32.178  1.00  0.00     0.261 C 
BRANCH  29  30
ATOM     30  O   UNL A   1      34.819  32.440  32.574  1.00  0.00    -0.460 OA
BRANCH  30  31
ATOM     31  C   UNL A   1      36.020  32.295  33.192  1.00  0.00     0.338 C 
ATOM     32  O   UNL A   1      36.322  32.708  34.302  1.00  0.00    -0.246 OA
BRANCH  31  33
ATOM     33  C   UNL A   1      36.971  31.519  32.357  1.00  0.00     0.060 A 
ATOM     34  C   UNL A   1      37.990  30.812  33.007  1.00  0.00     0.016 A 
ATOM     35  C   UNL A   1      36.934  31.548  30.958  1.00  0.00     0.016 A 
ATOM     36  C   UNL A   1      38.969  30.137  32.272  1.00  0.00     0.010 A 
ATOM     37  C   UNL A   1      37.939  30.902  30.220  1.00  0.00     0.010 A 
ATOM     38  C   UNL A   1      38.975  30.211  30.873  1.00  0.00    -0.014 A 
BRANCH  38  39
ATOM     39  C   UNL A   1      40.161  29.723  30.121  1.00  0.00     0.031 A 
ATOM     40  C   UNL A   1      41.311  30.670  29.902  1.00  0.00     0.074 A 
ATOM     41  C   UNL A   1      40.241  28.463  29.655  1.00  0.00     0.049 A 
ATOM     42  N   UNL A   1      42.449  30.471  29.287  1.00  0.00    -0.248 NA
ATOM     43  C   UNL A   1      41.153  32.026  30.452  1.00  0.00     0.031 C 
ATOM     44  C   UNL A   1      39.216  27.438  29.821  1.00  0.00     0.029 A 
ATOM     45  N   UNL A   1      41.235  27.832  28.944  1.00  0.00    -0.354 N 
ATOM     46  C   UNL A   1      43.143  31.670  29.383  1.00  0.00     0.074 A 
ATOM     47  C   UNL A   1      42.297  32.595  30.103  1.00  0.00     0.031 C 
ATOM     48  C   UNL A   1      39.633  26.303  29.232  1.00  0.00     0.029 A 
ATOM     49  C   UNL A   1      40.940  26.530  28.614  1.00  0.00     0.049 A 
ATOM     50  H   UNL A   1      42.080  28.271  28.696  1.00  0.00     0.167 HD
ATOM     51  C   UNL A   1      44.372  31.976  28.904  1.00  0.00     0.037 A 
ATOM     52  C   UNL A   1      41.636  25.637  27.881  1.00  0.00     0.037 A 
ATOM     53  C   UNL A   1      45.206  31.075  28.157  1.00  0.00     0.049 A 
ATOM     54  C   UNL A   1      42.973  26.033  27.298  1.00  0.00     0.074 A 
ATOM     55  C   UNL A   1      46.463  31.307  27.625  1.00  0.00     0.029 A 
ATOM     56  N   UNL A   1      44.859  29.779  27.815  1.00  0.00    -0.354 N 
ATOM     57  N   UNL A   1      43.639  27.154  27.431  1.00  0.00    -0.248 NA
ATOM     58  C   UNL A   1      43.654  25.037  26.454  1.00  0.00     0.031 C 
ATOM     59  C   UNL A   1      46.853  30.168  26.914  1.00  0.00     0.029 A 
ATOM     60  C   UNL A   1      45.865  29.207  27.054  1.00  0.00     0.049 A 
ATOM     61  H   UNL A   1      44.022  29.329  28.076  1.00  0.00     0.167 HD
ATOM     62  C   UNL A   1      44.820  26.988  26.716  1.00  0.00     0.074 A 
ATOM     63  C   UNL A   1      44.793  25.651  26.166  1.00  0.00     0.031 C 
ATOM     64  C   UNL A   1      45.835  27.867  26.528  1.00  0.00     0.037 A 
BRANCH  51  65
ATOM     65  C   UNL A   1      44.874  33.368  29.138  1.00  0.00     0.064 A 
ATOM     66  C   UNL A   1      45.596  33.707  30.293  1.00  0.00     0.173 A 
ATOM     67  C   UNL A   1      44.666  34.366  28.174  1.00  0.00     0.173 A 
ATOM     68  F   UNL A   1      45.807  32.791  31.249  1.00  0.00    -0.203 F 
ATOM     69  C   UNL A   1      46.078  35.000  30.478  1.00  0.00     0.198 A 
ATOM     70  C   UNL A   1      45.171  35.650  28.352  1.00  0.00     0.198 A 
ATOM     71  F   UNL A   1      43.982  34.090  27.053  1.00  0.00    -0.203 F 
ATOM     72  F   UNL A   1      46.737  35.311  31.604  1.00  0.00    -0.200 F 
ATOM     73  C   UNL A   1      45.873  35.966  29.506  1.00  0.00     0.200 A 
ATOM     74  F   UNL A   1      44.981  36.580  27.407  1.00  0.00    -0.200 F 
ATOM     75  F   UNL A   1      46.348  37.207  29.682  1.00  0.00    -0.200 F 
ENDBRANCH  51  65
BRANCH  52  76
ATOM     76  C   UNL A   1      41.081  24.281  27.609  1.00  0.00     0.064 A 
ATOM     77  C   UNL A   1      41.636  23.135  28.200  1.00  0.00     0.173 A 
ATOM     78  C   UNL A   1      40.034  24.095  26.693  1.00  0.00     0.173 A 
ATOM     79  F   UNL A   1      42.659  23.253  29.059  1.00  0.00    -0.203 F 
ATOM     80  C   UNL A   1      41.189  21.858  27.859  1.00  0.00     0.198 A 
ATOM     81  C   UNL A   1      39.566  22.821  26.380  1.00  0.00     0.198 A 
ATOM     82  F   UNL A   1      39.470  25.152  26.093  1.00  0.00    -0.203 F 
ATOM     83  F   UNL A   1      41.786  20.779  28.384  1.00  0.00    -0.200 F 
ATOM     84  C   UNL A   1      40.153  21.702  26.951  1.00  0.00     0.200 A 
ATOM     85  F   UNL A   1      38.556  22.676  25.511  1.00  0.00    -0.200 F 
ATOM     86  F   UNL A   1      39.731  20.475  26.616  1.00  0.00    -0.200 F 
ENDBRANCH  52  76
BRANCH  64  87
ATOM     87  C   UNL A   1      47.023  27.406  25.730  1.00  0.00     0.064 A 
ATOM     88  C   UNL A   1      47.134  27.664  24.356  1.00  0.00     0.173 A 
ATOM     89  C   UNL A   1      48.091  26.751  26.362  1.00  0.00     0.173 A 
ATOM     90  F   UNL A   1      46.137  28.276  23.700  1.00  0.00    -0.203 F 
ATOM     91  C   UNL A   1      48.261  27.264  23.640  1.00  0.00     0.198 A 
ATOM     92  C   UNL A   1      49.229  26.381  25.652  1.00  0.00     0.198 A 
ATOM     93  F   UNL A   1      48.039  26.488  27.677  1.00  0.00    -0.203 F 
ATOM     94  F   UNL A   1      48.327  27.484  22.320  1.00  0.00    -0.200 F 
ATOM     95  C   UNL A   1      49.310  26.631  24.290  1.00  0.00     0.200 A 
ATOM     96  F   UNL A   1      50.249  25.783  26.284  1.00  0.00    -0.200 F 
ATOM     97  F   UNL A   1      50.399  26.259  23.603  1.00  0.00    -0.200 F 
ENDBRANCH  64  87
ENDBRANCH  38  39
ENDBRANCH  31  33
ENDBRANCH  30  31
ENDBRANCH  29  30
ENDBRANCH  28  29
ENDBRANCH  27  28
ENDBRANCH  26  27
ENDBRANCH   1  26
TORSDOF 20
ENDMDL
MODEL 2
REMARK VINA RESULT:     -10.9      1.034      2.256
REMARK SMILES CC1=C(C)C[C@@H](C(=O)N[C@H](C)C(C)(C)C)[C@@H](C(=O)OCCOCCOCCOC(=O)c2ccc(-c3c4nc(c(-c5c(F)c(F)c(F)c(F)c5F)c5ccc([nH]5)c(-c5c(F)c(F)c(F)c(F)c5F)c5nc(c(-c6c(F)c(F)c(F)c(F)c6F)c6ccc3[nH]6)C=C5)C=C4)cc2)C1
REMARK SMILES IDX 23 1 22 2 21 3 20 4 19 5 17 6 18 7 16 8 1 9 2 10 3 11 94 12
REMARK SMILES IDX 4 13 5 14 6 15 7 16 8 17 9 18 10 20 11 21 12 22 13 23 14 24
REMARK SMILES IDX 15 25 24 26 25 27 26 28 27 29 28 30 29 31 30 32 31 33 32 34
REMARK SMILES IDX 93 35 33 36 92 37 34 38 35 39 36 40 86 41 37 42 91 43 85 44
REMARK SMILES IDX 87 45 38 46 90 47 84 48 83 49 39 51 71 52 51 53 70 54 52 55
REMARK SMILES IDX 55 56 69 57 88 58 53 59 54 60 68 62 89 63 56 64 40 65 41 66
REMARK SMILES IDX 49 67 42 68 43 69 47 70 50 71 44 72 45 73 48 74 46 75 72 76
REMARK SMILES IDX 73 77 81 78 74 79 75 80 79 81 82 82 76 83 77 84 80 85 78 86
REMARK SMILES IDX 57 87 58 88 66 89 59 90 60 91 64 92 67 93 61 94 62 95 65 96
REMARK SMILES IDX 63 97
REMARK H PARENT 9 19 87 50 55 61
REMARK Flexibility Score: inf
ROOT
ATOM      1  C   UNL A   1      33.699  31.520  27.626  1.00  0.00     0.188 C 
ENDROOT
BRANCH   1   2
ATOM      2  O   UNL A   1      34.823  30.710  27.269  1.00  0.00    -0.376 OA
BRANCH   2   3
ATOM      3  C   UNL A   1      34.628  29.314  27.505  1.00  0.00     0.202 C 
BRANCH   3   4
ATOM      4  C   UNL A   1      33.212  28.876  27.149  1.00  0.00     0.261 C 
BRANCH   4   5
ATOM      5  O   UNL A   1      33.231  27.619  26.447  1.00  0.00    -0.463 OA
BRANCH   5   6
ATOM      6  C   UNL A   1      33.824  27.561  25.230  1.00  0.00     0.310 C 
ATOM      7  O   UNL A   1      33.942  28.512  24.471  1.00  0.00    -0.252 OA
BRANCH   6   8
ATOM      8  C   UNL A   1      34.185  26.121  24.911  1.00  0.00     0.116 C 
ATOM      9  C   UNL A   1      32.388  23.414  27.087  1.00  0.00     0.039 C 
ATOM     10  C   UNL A   1      33.085  23.947  25.860  1.00  0.00    -0.073 C 
ATOM     11  C   UNL A   1      32.967  23.405  24.631  1.00  0.00    -0.074 C 
ATOM     12  C   UNL A   1      33.898  25.195  26.110  1.00  0.00     0.046 C 
ATOM     13  C   UNL A   1      32.302  22.078  24.353  1.00  0.00     0.039 C 
ATOM     14  C   UNL A   1      33.538  24.085  23.414  1.00  0.00     0.045 C 
ATOM     15  C   UNL A   1      33.777  25.602  23.524  1.00  0.00     0.097 C 
BRANCH  15  16
ATOM     16  C   UNL A   1      32.993  26.407  22.472  1.00  0.00     0.224 C 
ATOM     17  O   UNL A   1      33.480  26.384  21.324  1.00  0.00    -0.275 OA
ATOM     18  N   UNL A   1      31.856  27.109  22.456  1.00  0.00    -0.353 N 
ATOM     19  H   UNL A   1      31.830  27.601  21.604  1.00  0.00     0.163 HD
BRANCH  18  20
ATOM     20  C   UNL A   1      30.620  27.448  23.195  1.00  0.00     0.084 C 
ATOM     21  C   UNL A   1      30.760  28.751  23.975  1.00  0.00     0.031 C 
BRANCH  20  22
ATOM     22  C   UNL A   1      29.904  26.265  23.892  1.00  0.00    -0.018 C 
ATOM     23  C   UNL A   1      30.151  24.922  23.178  1.00  0.00     0.013 C 
ATOM     24  C   UNL A   1      30.444  26.120  25.334  1.00  0.00     0.013 C 
ATOM     25  C   UNL A   1      28.398  26.484  23.846  1.00  0.00     0.013 C 
ENDBRANCH  20  22
ENDBRANCH  18  20
ENDBRANCH  15  16
ENDBRANCH   6   8
ENDBRANCH   5   6
ENDBRANCH   4   5
ENDBRANCH   3   4
ENDBRANCH   2   3
ENDBRANCH   1   2
BRANCH   1  26
ATOM     26  C   UNL A   1      34.091  32.729  28.498  1.00  0.00     0.188 C 
BRANCH  26  27
ATOM     27  O   UNL A   1      34.215  32.522  29.903  1.00  0.00    -0.376 OA
BRANCH  27  28
ATOM     28  C   UNL A   1      34.421  33.675  30.702  1.00  0.00     0.202 C 
BRANCH  28  29
ATOM     29  C   UNL A   1      34.388  33.473  32.223  1.00  0.00     0.261 C 
BRANCH  29  30
ATOM     30  O   UNL A   1      35.052  32.286  32.699  1.00  0.00    -0.460 OA
BRANCH  30  31
ATOM     31  C   UNL A   1      36.341  32.462  33.096  1.00  0.00     0.338 C 
ATOM     32  O   UNL A   1      36.727  33.147  34.031  1.00  0.00    -0.246 OA
BRANCH  31  33
ATOM     33  C   UNL A   1      37.279  31.674  32.258  1.00  0.00     0.060 A 
ATOM     34  C   UNL A   1      38.293  30.957  32.905  1.00  0.00     0.016 A 
ATOM     35  C   UNL A   1      37.237  31.701  30.859  1.00  0.00     0.016 A 
ATOM     36  C   UNL A   1      39.262  30.270  32.167  1.00  0.00     0.010 A 
ATOM     37  C   UNL A   1      38.232  31.044  30.118  1.00  0.00     0.010 A 
ATOM     38  C   UNL A   1      39.263  30.342  30.768  1.00  0.00    -0.014 A 
BRANCH  38  39
ATOM     39  C   UNL A   1      40.441  29.840  30.012  1.00  0.00     0.031 A 
ATOM     40  C   UNL A   1      41.588  30.782  29.764  1.00  0.00     0.074 A 
ATOM     41  C   UNL A   1      40.514  28.572  29.567  1.00  0.00     0.049 A 
ATOM     42  N   UNL A   1      42.720  30.571  29.141  1.00  0.00    -0.248 NA
ATOM     43  C   UNL A   1      41.437  32.147  30.292  1.00  0.00     0.031 C 
ATOM     44  C   UNL A   1      39.491  27.551  29.762  1.00  0.00     0.029 A 
ATOM     45  N   UNL A   1      41.500  27.928  28.857  1.00  0.00    -0.354 N 
ATOM     46  C   UNL A   1      43.415  31.771  29.208  1.00  0.00     0.074 A 
ATOM     47  C   UNL A   1      42.578  32.709  29.921  1.00  0.00     0.031 C 
ATOM     48  C   UNL A   1      39.900  26.406  29.189  1.00  0.00     0.029 A 
ATOM     49  C   UNL A   1      41.201  26.621  28.553  1.00  0.00     0.049 A 
ATOM     50  H   UNL A   1      42.343  28.362  28.592  1.00  0.00     0.167 HD
ATOM     51  C   UNL A   1      44.639  32.068  28.711  1.00  0.00     0.037 A 
ATOM     52  C   UNL A   1      41.889  25.714  27.827  1.00  0.00     0.037 A 
ATOM     53  C   UNL A   1      45.465  31.154  27.971  1.00  0.00     0.049 A 
ATOM     54  C   UNL A   1      43.220  26.099  27.224  1.00  0.00     0.074 A 
ATOM     55  C   UNL A   1      46.716  31.375  27.421  1.00  0.00     0.029 A 
ATOM     56  N   UNL A   1      45.114  29.851  27.656  1.00  0.00    -0.354 N 
ATOM     57  N   UNL A   1      43.888  27.222  27.330  1.00  0.00    -0.248 NA
ATOM     58  C   UNL A   1      43.891  25.088  26.390  1.00  0.00     0.031 C 
ATOM     59  C   UNL A   1      47.098  30.223  26.726  1.00  0.00     0.029 A 
ATOM     60  C   UNL A   1      46.111  29.266  26.893  1.00  0.00     0.049 A 
ATOM     61  H   UNL A   1      44.279  29.407  27.933  1.00  0.00     0.167 HD
ATOM     62  C   UNL A   1      45.061  27.042  26.606  1.00  0.00     0.074 A 
ATOM     63  C   UNL A   1      45.027  25.696  26.079  1.00  0.00     0.031 C 
ATOM     64  C   UNL A   1      46.074  27.916  26.391  1.00  0.00     0.037 A 
BRANCH  51  65
ATOM     65  C   UNL A   1      45.145  33.464  28.916  1.00  0.00     0.064 A 
ATOM     66  C   UNL A   1      45.957  33.800  30.009  1.00  0.00     0.173 A 
ATOM     67  C   UNL A   1      44.846  34.467  27.982  1.00  0.00     0.173 A 
ATOM     68  F   UNL A   1      46.257  32.879  30.936  1.00  0.00    -0.203 F 
ATOM     69  C   UNL A   1      46.440  35.097  30.165  1.00  0.00     0.198 A 
ATOM     70  C   UNL A   1      45.352  35.755  28.129  1.00  0.00     0.198 A 
ATOM     71  F   UNL A   1      44.075  34.194  26.919  1.00  0.00    -0.203 F 
ATOM     72  F   UNL A   1      47.187  35.406  31.235  1.00  0.00    -0.200 F 
ATOM     73  C   UNL A   1      46.144  36.069  29.223  1.00  0.00     0.200 A 
ATOM     74  F   UNL A   1      45.074  36.691  27.211  1.00  0.00    -0.200 F 
ATOM     75  F   UNL A   1      46.620  37.314  29.370  1.00  0.00    -0.200 F 
ENDBRANCH  51  65
BRANCH  52  76
ATOM     76  C   UNL A   1      41.330  24.354  27.586  1.00  0.00     0.064 A 
ATOM     77  C   UNL A   1      41.918  23.213  28.153  1.00  0.00     0.173 A 
ATOM     78  C   UNL A   1      40.242  24.159  26.720  1.00  0.00     0.173 A 
ATOM     79  F   UNL A   1      42.980  23.340  28.963  1.00  0.00    -0.203 F 
ATOM     80  C   UNL A   1      41.464  21.933  27.836  1.00  0.00     0.198 A 
ATOM     81  C   UNL A   1      39.768  22.881  26.432  1.00  0.00     0.198 A 
ATOM     82  F   UNL A   1      39.645  25.212  26.144  1.00  0.00    -0.203 F 
ATOM     83  F   UNL A   1      42.092  20.859  28.336  1.00  0.00    -0.200 F 
ATOM     84  C   UNL A   1      40.388  21.768  26.978  1.00  0.00     0.200 A 
ATOM     85  F   UNL A   1      38.720  22.728  25.612  1.00  0.00    -0.200 F 
ATOM     86  F   UNL A   1      39.958  20.538  26.666  1.00  0.00    -0.200 F 
ENDBRANCH  52  76
BRANCH  64  87
ATOM     87  C   UNL A   1      47.253  27.441  25.588  1.00  0.00     0.064 A 
ATOM     88  C   UNL A   1      47.329  27.635  24.201  1.00  0.00     0.173 A 
ATOM     89  C   UNL A   1      48.349  26.839  26.227  1.00  0.00     0.173 A 
ATOM     90  F   UNL A   1      46.304  28.194  23.540  1.00  0.00    -0.203 F 
ATOM     91  C   UNL A   1      48.447  27.222  23.480  1.00  0.00     0.198 A 
ATOM     92  C   UNL A   1      49.478  26.457  25.508  1.00  0.00     0.198 A 
ATOM     93  F   UNL A   1      48.332  26.639  27.553  1.00  0.00    -0.203 F 
ATOM     94  F   UNL A   1      48.479  27.378  22.150  1.00  0.00    -0.200 F 
ATOM     95  C   UNL A   1      49.523  26.642  24.135  1.00  0.00     0.200 A 
ATOM     96  F   UNL A   1      50.524  25.911  26.145  1.00  0.00    -0.200 F 
ATOM     97  F   UNL A   1      50.604  26.258  23.441  1.00  0.00    -0.200 F 
ENDBRANCH  64  87
ENDBRANCH  38  39
ENDBRANCH  31  33
ENDBRANCH  30  31
ENDBRANCH  29  30
ENDBRANCH  28  29
ENDBRANCH  27  28
ENDBRANCH  26  27
ENDBRANCH   1  26
TORSDOF 20
ENDMDL
MODEL 3
REMARK VINA RESULT:     -10.7      3.745      9.029
REMARK SMILES CC1=C(C)C[C@@H](C(=O)N[C@H](C)C(C)(C)C)[C@@H](C(=O)OCCOCCOCCOC(=O)c2ccc(-c3c4nc(c(-c5c(F)c(F)c(F)c(F)c5F)c5ccc([nH]5)c(-c5c(F)c(F)c(F)c(F)c5F)c5nc(c(-c6c(F)c(F)c(F)c(F)c6F)c6ccc3[nH]6)C=C5)C=C4)cc2)C1
REMARK SMILES IDX 23 1 22 2 21 3 20 4 19 5 17 6 18 7 16 8 1 9 2 10 3 11 94 12
REMARK SMILES IDX 4 13 5 14 6 15 7 16 8 17 9 18 10 20 11 21 12 22 13 23 14 24
REMARK SMILES IDX 15 25 24 26 25 27 26 28 27 29 28 30 29 31 30 32 31 33 32 34
REMARK SMILES IDX 93 35 33 36 92 37 34 38 35 39 36 40 86 41 37 42 91 43 85 44
REMARK SMILES IDX 87 45 38 46 90 47 84 48 83 49 39 51 71 52 51 53 70 54 52 55
REMARK SMILES IDX 55 56 69 57 88 58 53 59 54 60 68 62 89 63 56 64 40 65 41 66
REMARK SMILES IDX 49 67 42 68 43 69 47 70 50 71 44 72 45 73 48 74 46 75 72 76
REMARK SMILES IDX 73 77 81 78 74 79 75 80 79 81 82 82 76 83 77 84 80 85 78 86
REMARK SMILES IDX 57 87 58 88 66 89 59 90 60 91 64 92 67 93 61 94 62 95 65 96
REMARK SMILES IDX 63 97
REMARK H PARENT 9 19 87 50 55 61
REMARK Flexibility Score: inf
ROOT
ATOM      1  C   UNL A   1      40.288  22.873  27.375  1.00  0.00     0.188 C 
ENDROOT
BRANCH   1   2
ATOM      2  O   UNL A   1      39.470  23.595  26.449  1.00  0.00    -0.376 OA
BRANCH   2   3
ATOM      3  C   UNL A   1      38.244  22.936  26.124  1.00  0.00     0.202 C 
BRANCH   3   4
ATOM      4  C   UNL A   1      37.473  23.685  25.043  1.00  0.00     0.261 C 
BRANCH   4   5
ATOM      5  O   UNL A   1      36.097  23.262  25.015  1.00  0.00    -0.463 OA
BRANCH   5   6
ATOM      6  C   UNL A   1      35.570  22.835  23.843  1.00  0.00     0.310 C 
ATOM      7  O   UNL A   1      36.113  22.956  22.754  1.00  0.00    -0.252 OA
BRANCH   6   8
ATOM      8  C   UNL A   1      34.161  22.319  24.079  1.00  0.00     0.116 C 
ATOM      9  C   UNL A   1      33.016  22.203  27.815  1.00  0.00     0.039 C 
ATOM     10  C   UNL A   1      32.820  22.296  26.322  1.00  0.00    -0.073 C 
ATOM     11  C   UNL A   1      31.726  22.825  25.738  1.00  0.00    -0.074 C 
ATOM     12  C   UNL A   1      33.994  21.792  25.518  1.00  0.00     0.046 C 
ATOM     13  C   UNL A   1      30.466  23.195  26.482  1.00  0.00     0.039 C 
ATOM     14  C   UNL A   1      31.665  23.058  24.251  1.00  0.00     0.045 C 
ATOM     15  C   UNL A   1      33.015  23.174  23.518  1.00  0.00     0.097 C 
BRANCH  15  16
ATOM     16  C   UNL A   1      33.185  24.521  22.793  1.00  0.00     0.224 C 
ATOM     17  O   UNL A   1      33.270  24.442  21.552  1.00  0.00    -0.275 OA
ATOM     18  N   UNL A   1      33.215  25.806  23.157  1.00  0.00    -0.353 N 
ATOM     19  H   UNL A   1      33.521  26.322  22.377  1.00  0.00     0.163 HD
BRANCH  18  20
ATOM     20  C   UNL A   1      32.976  26.770  24.253  1.00  0.00     0.084 C 
ATOM     21  C   UNL A   1      33.655  26.341  25.550  1.00  0.00     0.031 C 
BRANCH  20  22
ATOM     22  C   UNL A   1      31.541  27.344  24.348  1.00  0.00    -0.018 C 
ATOM     23  C   UNL A   1      30.699  27.037  23.093  1.00  0.00     0.013 C 
ATOM     24  C   UNL A   1      30.813  26.703  25.552  1.00  0.00     0.013 C 
ATOM     25  C   UNL A   1      31.605  28.863  24.438  1.00  0.00     0.013 C 
ENDBRANCH  20  22
ENDBRANCH  18  20
ENDBRANCH  15  16
ENDBRANCH   6   8
ENDBRANCH   5   6
ENDBRANCH   4   5
ENDBRANCH   3   4
ENDBRANCH   2   3
ENDBRANCH   1   2
BRANCH   1  26
ATOM     26  C   UNL A   1      40.445  21.388  26.996  1.00  0.00     0.188 C 
BRANCH  26  27
ATOM     27  O   UNL A   1      41.740  20.935  26.608  1.00  0.00    -0.376 OA
BRANCH  27  28
ATOM     28  C   UNL A   1      42.058  19.584  26.900  1.00  0.00     0.202 C 
BRANCH  28  29
ATOM     29  C   UNL A   1      42.681  18.762  25.764  1.00  0.00     0.261 C 
BRANCH  29  30
ATOM     30  O   UNL A   1      44.107  18.910  25.610  1.00  0.00    -0.460 OA
BRANCH  30  31
ATOM     31  C   UNL A   1      44.505  19.567  24.489  1.00  0.00     0.338 C 
ATOM     32  O   UNL A   1      44.529  19.119  23.353  1.00  0.00    -0.246 OA
BRANCH  31  33
ATOM     33  C   UNL A   1      44.899  20.966  24.791  1.00  0.00     0.060 A 
ATOM     34  C   UNL A   1      45.312  21.264  26.096  1.00  0.00     0.016 A 
ATOM     35  C   UNL A   1      44.783  21.996  23.851  1.00  0.00     0.016 A 
ATOM     36  C   UNL A   1      45.609  22.579  26.466  1.00  0.00     0.010 A 
ATOM     37  C   UNL A   1      45.043  23.322  24.233  1.00  0.00     0.010 A 
ATOM     38  C   UNL A   1      45.437  23.624  25.549  1.00  0.00    -0.014 A 
BRANCH  38  39
ATOM     39  C   UNL A   1      45.492  25.031  26.027  1.00  0.00     0.031 A 
ATOM     40  C   UNL A   1      46.817  25.746  25.997  1.00  0.00     0.074 A 
ATOM     41  C   UNL A   1      44.397  25.680  26.463  1.00  0.00     0.049 A 
ATOM     42  N   UNL A   1      47.111  26.972  26.353  1.00  0.00    -0.248 NA
ATOM     43  C   UNL A   1      47.964  24.973  25.497  1.00  0.00     0.031 C 
ATOM     44  C   UNL A   1      43.053  25.117  26.518  1.00  0.00     0.029 A 
ATOM     45  N   UNL A   1      44.245  26.960  26.942  1.00  0.00    -0.354 N 
ATOM     46  C   UNL A   1      48.470  27.117  26.114  1.00  0.00     0.074 A 
ATOM     47  C   UNL A   1      48.948  25.855  25.594  1.00  0.00     0.031 C 
ATOM     48  C   UNL A   1      42.208  26.046  27.001  1.00  0.00     0.029 A 
ATOM     49  C   UNL A   1      42.959  27.260  27.325  1.00  0.00     0.049 A 
ATOM     50  H   UNL A   1      44.989  27.602  27.005  1.00  0.00     0.167 HD
ATOM     51  C   UNL A   1      49.254  28.202  26.318  1.00  0.00     0.037 A 
ATOM     52  C   UNL A   1      42.455  28.377  27.890  1.00  0.00     0.037 A 
ATOM     53  C   UNL A   1      48.796  29.449  26.868  1.00  0.00     0.049 A 
ATOM     54  C   UNL A   1      43.371  29.546  28.174  1.00  0.00     0.074 A 
ATOM     55  C   UNL A   1      49.525  30.598  27.118  1.00  0.00     0.029 A 
ATOM     56  N   UNL A   1      47.496  29.703  27.273  1.00  0.00    -0.354 N 
ATOM     57  N   UNL A   1      44.645  29.688  27.904  1.00  0.00    -0.248 NA
ATOM     58  C   UNL A   1      42.775  30.710  28.850  1.00  0.00     0.031 C 
ATOM     59  C   UNL A   1      48.677  31.529  27.727  1.00  0.00     0.029 A 
ATOM     60  C   UNL A   1      47.408  30.981  27.800  1.00  0.00     0.049 A 
ATOM     61  H   UNL A   1      46.745  29.069  27.197  1.00  0.00     0.167 HD
ATOM     62  C   UNL A   1      44.993  30.959  28.348  1.00  0.00     0.074 A 
ATOM     63  C   UNL A   1      43.794  31.558  28.889  1.00  0.00     0.031 C 
ATOM     64  C   UNL A   1      46.201  31.574  28.317  1.00  0.00     0.037 A 
BRANCH  51  65
ATOM     65  C   UNL A   1      50.709  28.072  25.985  1.00  0.00     0.064 A 
ATOM     66  C   UNL A   1      51.183  28.249  24.677  1.00  0.00     0.173 A 
ATOM     67  C   UNL A   1      51.645  27.811  26.997  1.00  0.00     0.173 A 
ATOM     68  F   UNL A   1      50.325  28.486  23.674  1.00  0.00    -0.203 F 
ATOM     69  C   UNL A   1      52.544  28.153  24.393  1.00  0.00     0.198 A 
ATOM     70  C   UNL A   1      53.005  27.740  26.713  1.00  0.00     0.198 A 
ATOM     71  F   UNL A   1      51.239  27.636  28.264  1.00  0.00    -0.203 F 
ATOM     72  F   UNL A   1      52.973  28.291  23.130  1.00  0.00    -0.200 F 
ATOM     73  C   UNL A   1      53.452  27.907  25.411  1.00  0.00     0.200 A 
ATOM     74  F   UNL A   1      53.883  27.513  27.700  1.00  0.00    -0.200 F 
ATOM     75  F   UNL A   1      54.762  27.825  25.137  1.00  0.00    -0.200 F 
ENDBRANCH  51  65
BRANCH  52  76
ATOM     76  C   UNL A   1      41.016  28.452  28.271  1.00  0.00     0.064 A 
ATOM     77  C   UNL A   1      40.053  28.949  27.382  1.00  0.00     0.173 A 
ATOM     78  C   UNL A   1      40.588  28.100  29.560  1.00  0.00     0.173 A 
ATOM     79  F   UNL A   1      40.414  29.330  26.147  1.00  0.00    -0.203 F 
ATOM     80  C   UNL A   1      38.726  29.125  27.777  1.00  0.00     0.198 A 
ATOM     81  C   UNL A   1      39.256  28.243  29.943  1.00  0.00     0.198 A 
ATOM     82  F   UNL A   1      41.466  27.625  30.455  1.00  0.00    -0.203 F 
ATOM     83  F   UNL A   1      37.843  29.670  26.930  1.00  0.00    -0.200 F 
ATOM     84  C   UNL A   1      38.329  28.769  29.057  1.00  0.00     0.200 A 
ATOM     85  F   UNL A   1      38.874  27.886  31.177  1.00  0.00    -0.200 F 
ATOM     86  F   UNL A   1      37.057  28.946  29.440  1.00  0.00    -0.200 F 
ENDBRANCH  52  76
BRANCH  64  87
ATOM     87  C   UNL A   1      46.287  32.980  28.841  1.00  0.00     0.064 A 
ATOM     88  C   UNL A   1      46.061  34.091  28.015  1.00  0.00     0.173 A 
ATOM     89  C   UNL A   1      46.540  33.215  30.201  1.00  0.00     0.173 A 
ATOM     90  F   UNL A   1      45.827  33.923  26.705  1.00  0.00    -0.203 F 
ATOM     91  C   UNL A   1      46.106  35.386  28.527  1.00  0.00     0.198 A 
ATOM     92  C   UNL A   1      46.553  34.508  30.717  1.00  0.00     0.198 A 
ATOM     93  F   UNL A   1      46.754  32.187  31.036  1.00  0.00    -0.203 F 
ATOM     94  F   UNL A   1      45.929  36.434  27.712  1.00  0.00    -0.200 F 
ATOM     95  C   UNL A   1      46.344  35.592  29.879  1.00  0.00     0.200 A 
ATOM     96  F   UNL A   1      46.767  34.705  32.025  1.00  0.00    -0.200 F 
ATOM     97  F   UNL A   1      46.374  36.838  30.372  1.00  0.00    -0.200 F 
ENDBRANCH  64  87
ENDBRANCH  38  39
ENDBRANCH  31  33
ENDBRANCH  30  31
ENDBRANCH  29  30
ENDBRANCH  28  29
ENDBRANCH  27  28
ENDBRANCH  26  27
ENDBRANCH   1  26
TORSDOF 20
ENDMDL
