MODEL 1
REMARK VINA RESULT:     -11.7      0.000      0.000
REMARK SMILES O=C(Cn1cnc(-c2ccccc2)c1-c1ccccc1)OCCOCCOCCOC(=O)c1ccc(-c2c3nc(c(-c4c(F)c(F)c(F)c(F)c4F)c4ccc([nH]4)c(-c4c(F)c(F)c(F)c(F)c4F)c4nc(c(-c5c(F)c(F)c(F)c(F)c5F)c5ccc2[nH]5)C=C4)C=C3)cc1
REMARK SMILES IDX 25 1 24 2 23 3 22 4 21 5 2 6 1 7 3 8 4 9 5 10 14 11 6 12
REMARK SMILES IDX 7 13 15 14 16 15 20 16 17 17 19 18 18 19 8 20 9 21 13 22
REMARK SMILES IDX 10 23 12 24 11 25 26 26 27 27 28 28 29 29 30 30 31 31 32 32
REMARK SMILES IDX 33 33 34 34 95 35 35 36 94 37 36 38 37 39 38 40 88 41 39 42
REMARK SMILES IDX 93 43 87 44 89 45 40 46 92 47 86 48 85 49 41 51 73 52 53 53
REMARK SMILES IDX 72 54 54 55 57 56 71 57 90 58 55 59 56 60 70 62 91 63 58 64
REMARK SMILES IDX 42 65 43 66 51 67 44 68 45 69 49 70 52 71 46 72 47 73 50 74
REMARK SMILES IDX 48 75 74 76 75 77 83 78 76 79 77 80 81 81 84 82 78 83 79 84
REMARK SMILES IDX 82 85 80 86 59 87 60 88 68 89 61 90 62 91 66 92 69 93 63 94
REMARK SMILES IDX 64 95 67 96 65 97
REMARK H PARENT 89 50 57 61
REMARK Flexibility Score: inf
ROOT
ATOM      1  C   UNL A   1      40.409  21.541  27.021  1.00  0.00     0.188 C 
ENDROOT
BRANCH   1   2
ATOM      2  O   UNL A   1      39.628  22.370  26.170  1.00  0.00    -0.376 OA
BRANCH   2   3
ATOM      3  C   UNL A   1      38.358  21.866  25.758  1.00  0.00     0.202 C 
BRANCH   3   4
ATOM      4  C   UNL A   1      37.324  22.898  25.300  1.00  0.00     0.261 C 
BRANCH   4   5
ATOM      5  O   UNL A   1      35.983  22.387  25.211  1.00  0.00    -0.462 OA
BRANCH   5   6
ATOM      6  C   UNL A   1      34.959  23.108  25.722  1.00  0.00     0.326 C 
ATOM      7  O   UNL A   1      34.005  22.552  26.254  1.00  0.00    -0.250 OA
BRANCH   6   8
ATOM      8  C   UNL A   1      34.961  24.571  25.374  1.00  0.00     0.246 C 
BRANCH   8   9
ATOM      9  N   UNL A   1      33.867  24.924  24.496  1.00  0.00    -0.319 N 
ATOM     10  C   UNL A   1      33.509  24.169  23.411  1.00  0.00     0.201 A 
ATOM     11  C   UNL A   1      33.003  25.996  24.577  1.00  0.00     0.076 A 
ATOM     12  N   UNL A   1      32.448  24.652  22.811  1.00  0.00    -0.236 NA
ATOM     13  C   UNL A   1      32.118  25.772  23.529  1.00  0.00     0.096 A 
BRANCH  11  14
ATOM     14  C   UNL A   1      32.937  27.027  25.611  1.00  0.00     0.000 A 
ATOM     15  C   UNL A   1      31.857  27.042  26.508  1.00  0.00     0.010 A 
ATOM     16  C   UNL A   1      33.848  28.089  25.633  1.00  0.00     0.010 A 
ATOM     17  C   UNL A   1      31.710  28.081  27.431  1.00  0.00     0.001 A 
ATOM     18  C   UNL A   1      33.697  29.132  26.555  1.00  0.00     0.001 A 
ATOM     19  C   UNL A   1      32.632  29.125  27.455  1.00  0.00     0.000 A 
ENDBRANCH  11  14
BRANCH  13  20
ATOM     20  C   UNL A   1      30.913  26.539  23.313  1.00  0.00     0.002 A 
ATOM     21  C   UNL A   1      29.704  26.048  23.817  1.00  0.00     0.010 A 
ATOM     22  C   UNL A   1      30.957  27.808  22.723  1.00  0.00     0.010 A 
ATOM     23  C   UNL A   1      28.556  26.836  23.765  1.00  0.00     0.001 A 
ATOM     24  C   UNL A   1      29.806  28.594  22.670  1.00  0.00     0.001 A 
ATOM     25  C   UNL A   1      28.610  28.109  23.198  1.00  0.00     0.000 A 
ENDBRANCH  13  20
ENDBRANCH   8   9
ENDBRANCH   6   8
ENDBRANCH   5   6
ENDBRANCH   4   5
ENDBRANCH   3   4
ENDBRANCH   2   3
ENDBRANCH   1   2
BRANCH   1  26
ATOM     26  C   UNL A   1      40.916  20.200  26.467  1.00  0.00     0.188 C 
BRANCH  26  27
ATOM     27  O   UNL A   1      42.243  19.849  26.860  1.00  0.00    -0.376 OA
BRANCH  27  28
ATOM     28  C   UNL A   1      42.691  18.589  26.360  1.00  0.00     0.202 C 
BRANCH  28  29
ATOM     29  C   UNL A   1      43.824  18.714  25.331  1.00  0.00     0.261 C 
BRANCH  29  30
ATOM     30  O   UNL A   1      43.828  19.912  24.545  1.00  0.00    -0.460 OA
BRANCH  30  31
ATOM     31  C   UNL A   1      44.972  20.624  24.570  1.00  0.00     0.338 C 
ATOM     32  O   UNL A   1      46.104  20.190  24.683  1.00  0.00    -0.246 OA
BRANCH  31  33
ATOM     33  C   UNL A   1      44.687  22.066  24.548  1.00  0.00     0.060 A 
ATOM     34  C   UNL A   1      45.779  22.933  24.660  1.00  0.00     0.016 A 
ATOM     35  C   UNL A   1      43.374  22.519  24.723  1.00  0.00     0.016 A 
ATOM     36  C   UNL A   1      45.571  24.217  25.131  1.00  0.00     0.010 A 
ATOM     37  C   UNL A   1      43.168  23.803  25.203  1.00  0.00     0.010 A 
ATOM     38  C   UNL A   1      44.278  24.605  25.492  1.00  0.00    -0.014 A 
BRANCH  38  39
ATOM     39  C   UNL A   1      44.152  25.755  26.383  1.00  0.00     0.031 A 
ATOM     40  C   UNL A   1      45.172  26.826  26.328  1.00  0.00     0.074 A 
ATOM     41  C   UNL A   1      43.065  25.889  27.171  1.00  0.00     0.049 A 
ATOM     42  N   UNL A   1      45.834  27.350  27.312  1.00  0.00    -0.248 NA
ATOM     43  C   UNL A   1      45.476  27.408  25.015  1.00  0.00     0.031 C 
ATOM     44  C   UNL A   1      41.834  25.093  27.131  1.00  0.00     0.029 A 
ATOM     45  N   UNL A   1      42.792  26.849  28.103  1.00  0.00    -0.354 N 
ATOM     46  C   UNL A   1      46.531  28.423  26.773  1.00  0.00     0.074 A 
ATOM     47  C   UNL A   1      46.323  28.384  25.346  1.00  0.00     0.031 C 
ATOM     48  C   UNL A   1      40.879  25.723  27.848  1.00  0.00     0.029 A 
ATOM     49  C   UNL A   1      41.461  26.893  28.484  1.00  0.00     0.049 A 
ATOM     50  H   UNL A   1      43.477  27.454  28.470  1.00  0.00     0.167 HD
ATOM     51  C   UNL A   1      47.116  29.385  27.537  1.00  0.00     0.037 A 
ATOM     52  C   UNL A   1      40.853  27.857  29.211  1.00  0.00     0.037 A 
ATOM     53  C   UNL A   1      47.343  28.973  28.891  1.00  0.00     0.049 A 
ATOM     54  C   UNL A   1      41.891  28.626  29.935  1.00  0.00     0.074 A 
ATOM     55  C   UNL A   1      48.085  27.973  29.487  1.00  0.00     0.029 A 
ATOM     56  N   UNL A   1      46.544  29.478  29.883  1.00  0.00    -0.354 N 
ATOM     57  N   UNL A   1      42.574  28.184  30.953  1.00  0.00    -0.248 NA
ATOM     58  C   UNL A   1      42.406  29.840  29.318  1.00  0.00     0.031 C 
ATOM     59  C   UNL A   1      47.381  27.632  30.678  1.00  0.00     0.029 A 
ATOM     60  C   UNL A   1      46.244  28.436  30.724  1.00  0.00     0.049 A 
ATOM     61  H   UNL A   1      46.243  30.411  29.975  1.00  0.00     0.167 HD
ATOM     62  C   UNL A   1      43.801  28.819  30.855  1.00  0.00     0.074 A 
ATOM     63  C   UNL A   1      43.588  29.923  29.930  1.00  0.00     0.031 C 
ATOM     64  C   UNL A   1      44.941  28.222  31.308  1.00  0.00     0.037 A 
BRANCH  51  65
ATOM     65  C   UNL A   1      47.269  30.802  27.079  1.00  0.00     0.064 A 
ATOM     66  C   UNL A   1      48.528  31.423  27.058  1.00  0.00     0.173 A 
ATOM     67  C   UNL A   1      46.155  31.645  26.876  1.00  0.00     0.173 A 
ATOM     68  F   UNL A   1      49.640  30.713  27.306  1.00  0.00    -0.203 F 
ATOM     69  C   UNL A   1      48.664  32.796  26.841  1.00  0.00     0.198 A 
ATOM     70  C   UNL A   1      46.296  33.006  26.614  1.00  0.00     0.198 A 
ATOM     71  F   UNL A   1      44.903  31.187  27.014  1.00  0.00    -0.203 F 
ATOM     72  F   UNL A   1      49.876  33.364  26.900  1.00  0.00    -0.200 F 
ATOM     73  C   UNL A   1      47.549  33.584  26.610  1.00  0.00     0.200 A 
ATOM     74  F   UNL A   1      45.203  33.759  26.420  1.00  0.00    -0.200 F 
ATOM     75  F   UNL A   1      47.677  34.905  26.426  1.00  0.00    -0.200 F 
ENDBRANCH  51  65
BRANCH  52  76
ATOM     76  C   UNL A   1      39.439  28.288  29.155  1.00  0.00     0.064 A 
ATOM     77  C   UNL A   1      38.642  28.325  30.308  1.00  0.00     0.173 A 
ATOM     78  C   UNL A   1      38.903  28.897  28.002  1.00  0.00     0.173 A 
ATOM     79  F   UNL A   1      39.099  27.816  31.462  1.00  0.00    -0.203 F 
ATOM     80  C   UNL A   1      37.386  28.939  30.310  1.00  0.00     0.198 A 
ATOM     81  C   UNL A   1      37.643  29.492  28.000  1.00  0.00     0.198 A 
ATOM     82  F   UNL A   1      39.628  29.003  26.879  1.00  0.00    -0.203 F 
ATOM     83  F   UNL A   1      36.676  29.004  31.446  1.00  0.00    -0.200 F 
ATOM     84  C   UNL A   1      36.889  29.523  29.157  1.00  0.00     0.200 A 
ATOM     85  F   UNL A   1      37.190  30.085  26.886  1.00  0.00    -0.200 F 
ATOM     86  F   UNL A   1      35.704  30.149  29.170  1.00  0.00    -0.200 F 
ENDBRANCH  52  76
BRANCH  64  87
ATOM     87  C   UNL A   1      44.786  27.049  32.231  1.00  0.00     0.064 A 
ATOM     88  C   UNL A   1      44.606  25.731  31.782  1.00  0.00     0.173 A 
ATOM     89  C   UNL A   1      44.947  27.249  33.608  1.00  0.00     0.173 A 
ATOM     90  F   UNL A   1      44.553  25.452  30.472  1.00  0.00    -0.203 F 
ATOM     91  C   UNL A   1      44.531  24.667  32.679  1.00  0.00     0.198 A 
ATOM     92  C   UNL A   1      44.908  26.180  34.501  1.00  0.00     0.198 A 
ATOM     93  F   UNL A   1      45.186  28.481  34.087  1.00  0.00    -0.203 F 
ATOM     94  F   UNL A   1      44.340  23.419  32.229  1.00  0.00    -0.200 F 
ATOM     95  C   UNL A   1      44.687  24.893  34.038  1.00  0.00     0.200 A 
ATOM     96  F   UNL A   1      45.109  26.395  35.809  1.00  0.00    -0.200 F 
ATOM     97  F   UNL A   1      44.651  23.866  34.899  1.00  0.00    -0.200 F 
ENDBRANCH  64  87
ENDBRANCH  38  39
ENDBRANCH  31  33
ENDBRANCH  30  31
ENDBRANCH  29  30
ENDBRANCH  28  29
ENDBRANCH  27  28
ENDBRANCH  26  27
ENDBRANCH   1  26
TORSDOF 20
ENDMDL
MODEL 2
REMARK VINA RESULT:     -11.5      2.777      3.983
REMARK SMILES O=C(Cn1cnc(-c2ccccc2)c1-c1ccccc1)OCCOCCOCCOC(=O)c1ccc(-c2c3nc(c(-c4c(F)c(F)c(F)c(F)c4F)c4ccc([nH]4)c(-c4c(F)c(F)c(F)c(F)c4F)c4nc(c(-c5c(F)c(F)c(F)c(F)c5F)c5ccc2[nH]5)C=C4)C=C3)cc1
REMARK SMILES IDX 25 1 24 2 23 3 22 4 21 5 2 6 1 7 3 8 4 9 5 10 14 11 6 12
REMARK SMILES IDX 7 13 15 14 16 15 20 16 17 17 19 18 18 19 8 20 9 21 13 22
REMARK SMILES IDX 10 23 12 24 11 25 26 26 27 27 28 28 29 29 30 30 31 31 32 32
REMARK SMILES IDX 33 33 34 34 95 35 35 36 94 37 36 38 37 39 38 40 88 41 39 42
REMARK SMILES IDX 93 43 87 44 89 45 40 46 92 47 86 48 85 49 41 51 73 52 53 53
REMARK SMILES IDX 72 54 54 55 57 56 71 57 90 58 55 59 56 60 70 62 91 63 58 64
REMARK SMILES IDX 42 65 43 66 51 67 44 68 45 69 49 70 52 71 46 72 47 73 50 74
REMARK SMILES IDX 48 75 74 76 75 77 83 78 76 79 77 80 81 81 84 82 78 83 79 84
REMARK SMILES IDX 82 85 80 86 59 87 60 88 68 89 61 90 62 91 66 92 69 93 63 94
REMARK SMILES IDX 64 95 67 96 65 97
REMARK H PARENT 89 50 57 61
REMARK Flexibility Score: inf
ROOT
ATOM      1  C   UNL A   1      38.675  22.499  26.085  1.00  0.00     0.188 C 
ENDROOT
BRANCH   1   2
ATOM      2  O   UNL A   1      37.762  22.554  24.995  1.00  0.00    -0.376 OA
BRANCH   2   3
ATOM      3  C   UNL A   1      36.470  23.101  25.257  1.00  0.00     0.202 C 
BRANCH   3   4
ATOM      4  C   UNL A   1      35.443  23.012  24.125  1.00  0.00     0.261 C 
BRANCH   4   5
ATOM      5  O   UNL A   1      34.077  23.104  24.562  1.00  0.00    -0.462 OA
BRANCH   5   6
ATOM      6  C   UNL A   1      33.571  24.306  24.923  1.00  0.00     0.326 C 
ATOM      7  O   UNL A   1      32.665  24.383  25.746  1.00  0.00    -0.250 OA
BRANCH   6   8
ATOM      8  C   UNL A   1      34.013  25.472  24.083  1.00  0.00     0.246 C 
BRANCH   8   9
ATOM      9  N   UNL A   1      32.908  26.092  23.386  1.00  0.00    -0.319 N 
ATOM     10  C   UNL A   1      32.400  25.606  22.211  1.00  0.00     0.201 A 
ATOM     11  C   UNL A   1      32.171  27.201  23.747  1.00  0.00     0.076 A 
ATOM     12  N   UNL A   1      31.360  26.295  21.809  1.00  0.00    -0.236 NA
ATOM     13  C   UNL A   1      31.200  27.273  22.755  1.00  0.00     0.096 A 
BRANCH  11  14
ATOM     14  C   UNL A   1      32.283  28.005  24.962  1.00  0.00     0.000 A 
ATOM     15  C   UNL A   1      31.626  27.591  26.132  1.00  0.00     0.010 A 
ATOM     16  C   UNL A   1      32.906  29.258  24.945  1.00  0.00     0.010 A 
ATOM     17  C   UNL A   1      31.623  28.398  27.272  1.00  0.00     0.001 A 
ATOM     18  C   UNL A   1      32.899  30.067  26.087  1.00  0.00     0.001 A 
ATOM     19  C   UNL A   1      32.261  29.635  27.250  1.00  0.00     0.000 A 
ENDBRANCH  11  14
BRANCH  13  20
ATOM     20  C   UNL A   1      30.071  28.175  22.794  1.00  0.00     0.002 A 
ATOM     21  C   UNL A   1      30.214  29.456  22.253  1.00  0.00     0.010 A 
ATOM     22  C   UNL A   1      28.817  27.747  23.248  1.00  0.00     0.010 A 
ATOM     23  C   UNL A   1      29.104  30.290  22.132  1.00  0.00     0.001 A 
ATOM     24  C   UNL A   1      27.708  28.584  23.128  1.00  0.00     0.001 A 
ATOM     25  C   UNL A   1      27.853  29.851  22.563  1.00  0.00     0.000 A 
ENDBRANCH  13  20
ENDBRANCH   8   9
ENDBRANCH   6   8
ENDBRANCH   5   6
ENDBRANCH   4   5
ENDBRANCH   3   4
ENDBRANCH   2   3
ENDBRANCH   1   2
BRANCH   1  26
ATOM     26  C   UNL A   1      39.617  21.288  26.185  1.00  0.00     0.188 C 
BRANCH  26  27
ATOM     27  O   UNL A   1      40.754  21.478  27.027  1.00  0.00    -0.376 OA
BRANCH  27  28
ATOM     28  C   UNL A   1      41.933  20.805  26.585  1.00  0.00     0.202 C 
BRANCH  28  29
ATOM     29  C   UNL A   1      42.941  21.738  25.899  1.00  0.00     0.261 C 
BRANCH  29  30
ATOM     30  O   UNL A   1      42.385  22.845  25.181  1.00  0.00    -0.460 OA
BRANCH  30  31
ATOM     31  C   UNL A   1      42.994  24.032  25.371  1.00  0.00     0.338 C 
ATOM     32  O   UNL A   1      44.126  24.336  25.042  1.00  0.00    -0.246 OA
BRANCH  31  33
ATOM     33  C   UNL A   1      42.138  24.936  26.153  1.00  0.00     0.060 A 
ATOM     34  C   UNL A   1      41.532  25.992  25.464  1.00  0.00     0.016 A 
ATOM     35  C   UNL A   1      42.193  24.912  27.551  1.00  0.00     0.016 A 
ATOM     36  C   UNL A   1      41.145  27.119  26.169  1.00  0.00     0.010 A 
ATOM     37  C   UNL A   1      41.811  26.044  28.254  1.00  0.00     0.010 A 
ATOM     38  C   UNL A   1      41.380  27.171  27.546  1.00  0.00    -0.014 A 
BRANCH  38  39
ATOM     39  C   UNL A   1      41.389  28.490  28.170  1.00  0.00     0.031 A 
ATOM     40  C   UNL A   1      42.516  29.410  27.898  1.00  0.00     0.074 A 
ATOM     41  C   UNL A   1      40.333  28.904  28.900  1.00  0.00     0.049 A 
ATOM     42  N   UNL A   1      43.243  30.058  28.755  1.00  0.00    -0.248 NA
ATOM     43  C   UNL A   1      42.863  29.664  26.495  1.00  0.00     0.031 C 
ATOM     44  C   UNL A   1      39.024  28.254  29.020  1.00  0.00     0.029 A 
ATOM     45  N   UNL A   1      40.176  30.064  29.604  1.00  0.00    -0.354 N 
ATOM     46  C   UNL A   1      44.043  30.911  28.006  1.00  0.00     0.074 A 
ATOM     47  C   UNL A   1      43.813  30.591  26.618  1.00  0.00     0.031 C 
ATOM     48  C   UNL A   1      38.151  29.119  29.576  1.00  0.00     0.029 A 
ATOM     49  C   UNL A   1      38.863  30.329  29.954  1.00  0.00     0.049 A 
ATOM     50  H   UNL A   1      40.926  30.657  29.841  1.00  0.00     0.167 HD
ATOM     51  C   UNL A   1      44.737  31.945  28.553  1.00  0.00     0.037 A 
ATOM     52  C   UNL A   1      38.370  31.485  30.453  1.00  0.00     0.037 A 
ATOM     53  C   UNL A   1      44.937  31.809  29.966  1.00  0.00     0.049 A 
ATOM     54  C   UNL A   1      39.492  32.276  31.006  1.00  0.00     0.074 A 
ATOM     55  C   UNL A   1      45.576  30.886  30.769  1.00  0.00     0.029 A 
ATOM     56  N   UNL A   1      44.209  32.596  30.820  1.00  0.00    -0.354 N 
ATOM     57  N   UNL A   1      40.138  31.991  32.102  1.00  0.00    -0.248 NA
ATOM     58  C   UNL A   1      40.125  33.269  30.150  1.00  0.00     0.031 C 
ATOM     59  C   UNL A   1      44.856  30.883  31.999  1.00  0.00     0.029 A 
ATOM     60  C   UNL A   1      43.811  31.795  31.860  1.00  0.00     0.049 A 
ATOM     61  H   UNL A   1      44.010  33.554  30.708  1.00  0.00     0.167 HD
ATOM     62  C   UNL A   1      41.424  32.456  31.883  1.00  0.00     0.074 A 
ATOM     63  C   UNL A   1      41.317  33.353  30.742  1.00  0.00     0.031 C 
ATOM     64  C   UNL A   1      42.500  31.851  32.463  1.00  0.00     0.037 A 
BRANCH  51  65
ATOM     65  C   UNL A   1      45.033  33.209  27.805  1.00  0.00     0.064 A 
ATOM     66  C   UNL A   1      46.345  33.528  27.418  1.00  0.00     0.173 A 
ATOM     67  C   UNL A   1      44.074  34.234  27.662  1.00  0.00     0.173 A 
ATOM     68  F   UNL A   1      47.336  32.639  27.579  1.00  0.00    -0.203 F 
ATOM     69  C   UNL A   1      46.672  34.789  26.913  1.00  0.00     0.198 A 
ATOM     70  C   UNL A   1      44.393  35.474  27.115  1.00  0.00     0.198 A 
ATOM     71  F   UNL A   1      42.825  34.087  28.128  1.00  0.00    -0.203 F 
ATOM     72  F   UNL A   1      47.947  35.080  26.622  1.00  0.00    -0.200 F 
ATOM     73  C   UNL A   1      45.694  35.757  26.754  1.00  0.00     0.200 A 
ATOM     74  F   UNL A   1      43.440  36.410  26.995  1.00  0.00    -0.200 F 
ATOM     75  F   UNL A   1      46.013  36.975  26.293  1.00  0.00    -0.200 F 
ENDBRANCH  51  65
BRANCH  52  76
ATOM     76  C   UNL A   1      37.009  32.043  30.292  1.00  0.00     0.064 A 
ATOM     77  C   UNL A   1      36.075  31.999  31.338  1.00  0.00     0.173 A 
ATOM     78  C   UNL A   1      36.670  32.841  29.181  1.00  0.00     0.173 A 
ATOM     79  F   UNL A   1      36.343  31.306  32.454  1.00  0.00    -0.203 F 
ATOM     80  C   UNL A   1      34.875  32.715  31.278  1.00  0.00     0.198 A 
ATOM     81  C   UNL A   1      35.466  33.540  29.115  1.00  0.00     0.198 A 
ATOM     82  F   UNL A   1      37.538  33.029  28.177  1.00  0.00    -0.203 F 
ATOM     83  F   UNL A   1      34.033  32.693  32.320  1.00  0.00    -0.200 F 
ATOM     84  C   UNL A   1      34.573  33.486  30.168  1.00  0.00     0.200 A 
ATOM     85  F   UNL A   1      35.203  34.310  28.049  1.00  0.00    -0.200 F 
ATOM     86  F   UNL A   1      33.445  34.207  30.130  1.00  0.00    -0.200 F 
ENDBRANCH  52  76
BRANCH  64  87
ATOM     87  C   UNL A   1      42.234  30.925  33.614  1.00  0.00     0.064 A 
ATOM     88  C   UNL A   1      42.205  31.346  34.954  1.00  0.00     0.173 A 
ATOM     89  C   UNL A   1      41.878  29.597  33.342  1.00  0.00     0.173 A 
ATOM     90  F   UNL A   1      42.428  32.627  35.277  1.00  0.00    -0.203 F 
ATOM     91  C   UNL A   1      41.890  30.458  35.981  1.00  0.00     0.198 A 
ATOM     92  C   UNL A   1      41.528  28.721  34.368  1.00  0.00     0.198 A 
ATOM     93  F   UNL A   1      41.827  29.159  32.074  1.00  0.00    -0.203 F 
ATOM     94  F   UNL A   1      41.886  30.877  37.254  1.00  0.00    -0.200 F 
ATOM     95  C   UNL A   1      41.548  29.147  35.686  1.00  0.00     0.200 A 
ATOM     96  F   UNL A   1      41.150  27.469  34.076  1.00  0.00    -0.200 F 
ATOM     97  F   UNL A   1      41.209  28.303  36.670  1.00  0.00    -0.200 F 
ENDBRANCH  64  87
ENDBRANCH  38  39
ENDBRANCH  31  33
ENDBRANCH  30  31
ENDBRANCH  29  30
ENDBRANCH  28  29
ENDBRANCH  27  28
ENDBRANCH  26  27
ENDBRANCH   1  26
TORSDOF 20
ENDMDL
MODEL 3
REMARK VINA RESULT:     -11.3      3.749      8.953
REMARK SMILES O=C(Cn1cnc(-c2ccccc2)c1-c1ccccc1)OCCOCCOCCOC(=O)c1ccc(-c2c3nc(c(-c4c(F)c(F)c(F)c(F)c4F)c4ccc([nH]4)c(-c4c(F)c(F)c(F)c(F)c4F)c4nc(c(-c5c(F)c(F)c(F)c(F)c5F)c5ccc2[nH]5)C=C4)C=C3)cc1
REMARK SMILES IDX 25 1 24 2 23 3 22 4 21 5 2 6 1 7 3 8 4 9 5 10 14 11 6 12
REMARK SMILES IDX 7 13 15 14 16 15 20 16 17 17 19 18 18 19 8 20 9 21 13 22
REMARK SMILES IDX 10 23 12 24 11 25 26 26 27 27 28 28 29 29 30 30 31 31 32 32
REMARK SMILES IDX 33 33 34 34 95 35 35 36 94 37 36 38 37 39 38 40 88 41 39 42
REMARK SMILES IDX 93 43 87 44 89 45 40 46 92 47 86 48 85 49 41 51 73 52 53 53
REMARK SMILES IDX 72 54 54 55 57 56 71 57 90 58 55 59 56 60 70 62 91 63 58 64
REMARK SMILES IDX 42 65 43 66 51 67 44 68 45 69 49 70 52 71 46 72 47 73 50 74
REMARK SMILES IDX 48 75 74 76 75 77 83 78 76 79 77 80 81 81 84 82 78 83 79 84
REMARK SMILES IDX 82 85 80 86 59 87 60 88 68 89 61 90 62 91 66 92 69 93 63 94
REMARK SMILES IDX 64 95 67 96 65 97
REMARK H PARENT 89 50 57 61
REMARK Flexibility Score: inf
ROOT
ATOM      1  C   UNL A   1      29.841  31.032  24.308  1.00  0.00     0.188 C 
ENDROOT
BRANCH   1   2
ATOM      2  O   UNL A   1      29.140  30.242  23.356  1.00  0.00    -0.376 OA
BRANCH   2   3
ATOM      3  C   UNL A   1      29.924  29.534  22.397  1.00  0.00     0.202 C 
BRANCH   3   4
ATOM      4  C   UNL A   1      29.944  28.007  22.517  1.00  0.00     0.261 C 
BRANCH   4   5
ATOM      5  O   UNL A   1      29.496  27.512  23.790  1.00  0.00    -0.462 OA
BRANCH   5   6
ATOM      6  C   UNL A   1      29.903  26.293  24.212  1.00  0.00     0.326 C 
ATOM      7  O   UNL A   1      29.665  25.289  23.550  1.00  0.00    -0.250 OA
BRANCH   6   8
ATOM      8  C   UNL A   1      30.423  26.237  25.622  1.00  0.00     0.246 C 
BRANCH   8   9
ATOM      9  N   UNL A   1      31.555  25.347  25.751  1.00  0.00    -0.319 N 
ATOM     10  C   UNL A   1      31.514  24.188  26.480  1.00  0.00     0.201 A 
ATOM     11  C   UNL A   1      32.809  25.454  25.185  1.00  0.00     0.076 A 
ATOM     12  N   UNL A   1      32.637  23.518  26.390  1.00  0.00    -0.236 NA
ATOM     13  C   UNL A   1      33.439  24.281  25.584  1.00  0.00     0.096 A 
BRANCH  11  14
ATOM     14  C   UNL A   1      33.299  26.474  24.260  1.00  0.00     0.000 A 
ATOM     15  C   UNL A   1      33.688  27.730  24.754  1.00  0.00     0.010 A 
ATOM     16  C   UNL A   1      33.248  26.279  22.876  1.00  0.00     0.010 A 
ATOM     17  C   UNL A   1      34.051  28.759  23.880  1.00  0.00     0.001 A 
ATOM     18  C   UNL A   1      33.608  27.312  22.002  1.00  0.00     0.001 A 
ATOM     19  C   UNL A   1      34.013  28.548  22.505  1.00  0.00     0.000 A 
ENDBRANCH  11  14
BRANCH  13  20
ATOM     20  C   UNL A   1      34.725  23.847  25.088  1.00  0.00     0.002 A 
ATOM     21  C   UNL A   1      35.857  24.052  25.884  1.00  0.00     0.010 A 
ATOM     22  C   UNL A   1      34.835  23.123  23.895  1.00  0.00     0.010 A 
ATOM     23  C   UNL A   1      37.082  23.505  25.507  1.00  0.00     0.001 A 
ATOM     24  C   UNL A   1      36.062  22.579  23.519  1.00  0.00     0.001 A 
ATOM     25  C   UNL A   1      37.182  22.764  24.329  1.00  0.00     0.000 A 
ENDBRANCH  13  20
ENDBRANCH   8   9
ENDBRANCH   6   8
ENDBRANCH   5   6
ENDBRANCH   4   5
ENDBRANCH   3   4
ENDBRANCH   2   3
ENDBRANCH   1   2
BRANCH   1  26
ATOM     26  C   UNL A   1      31.025  30.396  25.054  1.00  0.00     0.188 C 
BRANCH  26  27
ATOM     27  O   UNL A   1      31.484  31.127  26.191  1.00  0.00    -0.376 OA
BRANCH  27  28
ATOM     28  C   UNL A   1      32.501  30.466  26.945  1.00  0.00     0.202 C 
BRANCH  28  29
ATOM     29  C   UNL A   1      33.611  31.412  27.422  1.00  0.00     0.261 C 
BRANCH  29  30
ATOM     30  O   UNL A   1      34.882  30.806  27.684  1.00  0.00    -0.460 OA
BRANCH  30  31
ATOM     31  C   UNL A   1      35.860  31.645  28.079  1.00  0.00     0.338 C 
ATOM     32  O   UNL A   1      36.109  32.748  27.625  1.00  0.00    -0.246 OA
BRANCH  31  33
ATOM     33  C   UNL A   1      36.705  31.013  29.103  1.00  0.00     0.060 A 
ATOM     34  C   UNL A   1      37.855  31.705  29.496  1.00  0.00     0.016 A 
ATOM     35  C   UNL A   1      36.523  29.662  29.419  1.00  0.00     0.016 A 
ATOM     36  C   UNL A   1      38.910  30.997  30.045  1.00  0.00     0.010 A 
ATOM     37  C   UNL A   1      37.582  28.953  29.962  1.00  0.00     0.010 A 
ATOM     38  C   UNL A   1      38.798  29.611  30.180  1.00  0.00    -0.014 A 
BRANCH  38  39
ATOM     39  C   UNL A   1      40.037  28.854  30.324  1.00  0.00     0.031 A 
ATOM     40  C   UNL A   1      40.643  28.708  31.667  1.00  0.00     0.074 A 
ATOM     41  C   UNL A   1      40.567  28.208  29.265  1.00  0.00     0.049 A 
ATOM     42  N   UNL A   1      41.869  28.939  32.021  1.00  0.00    -0.248 NA
ATOM     43  C   UNL A   1      39.782  28.216  32.751  1.00  0.00     0.031 C 
ATOM     44  C   UNL A   1      39.950  27.996  27.952  1.00  0.00     0.029 A 
ATOM     45  N   UNL A   1      41.735  27.505  29.182  1.00  0.00    -0.354 N 
ATOM     46  C   UNL A   1      41.979  28.489  33.330  1.00  0.00     0.074 A 
ATOM     47  C   UNL A   1      40.654  28.105  33.754  1.00  0.00     0.031 C 
ATOM     48  C   UNL A   1      40.648  27.056  27.283  1.00  0.00     0.029 A 
ATOM     49  C   UNL A   1      41.817  26.689  28.066  1.00  0.00     0.049 A 
ATOM     50  H   UNL A   1      42.453  27.570  29.854  1.00  0.00     0.167 HD
ATOM     51  C   UNL A   1      43.174  28.304  33.951  1.00  0.00     0.037 A 
ATOM     52  C   UNL A   1      42.735  25.727  27.825  1.00  0.00     0.037 A 
ATOM     53  C   UNL A   1      44.251  29.020  33.332  1.00  0.00     0.049 A 
ATOM     54  C   UNL A   1      43.909  25.967  28.694  1.00  0.00     0.074 A 
ATOM     55  C   UNL A   1      44.519  30.353  33.098  1.00  0.00     0.029 A 
ATOM     56  N   UNL A   1      45.175  28.325  32.596  1.00  0.00    -0.354 N 
ATOM     57  N   UNL A   1      44.770  26.933  28.536  1.00  0.00    -0.248 NA
ATOM     58  C   UNL A   1      43.970  25.281  29.977  1.00  0.00     0.031 C 
ATOM     59  C   UNL A   1      45.289  30.385  31.899  1.00  0.00     0.029 A 
ATOM     60  C   UNL A   1      45.428  29.067  31.469  1.00  0.00     0.049 A 
ATOM     61  H   UNL A   1      45.581  27.459  32.831  1.00  0.00     0.167 HD
ATOM     62  C   UNL A   1      45.199  27.235  29.818  1.00  0.00     0.074 A 
ATOM     63  C   UNL A   1      44.791  26.101  30.635  1.00  0.00     0.031 C 
ATOM     64  C   UNL A   1      45.588  28.499  30.152  1.00  0.00     0.037 A 
BRANCH  51  65
ATOM     65  C   UNL A   1      43.387  27.265  35.008  1.00  0.00     0.064 A 
ATOM     66  C   UNL A   1      43.698  27.630  36.328  1.00  0.00     0.173 A 
ATOM     67  C   UNL A   1      43.518  25.895  34.692  1.00  0.00     0.173 A 
ATOM     68  F   UNL A   1      43.666  28.917  36.702  1.00  0.00    -0.203 F 
ATOM     69  C   UNL A   1      44.106  26.684  37.271  1.00  0.00     0.198 A 
ATOM     70  C   UNL A   1      43.880  24.948  35.647  1.00  0.00     0.198 A 
ATOM     71  F   UNL A   1      43.382  25.456  33.433  1.00  0.00    -0.203 F 
ATOM     72  F   UNL A   1      44.465  27.080  38.500  1.00  0.00    -0.200 F 
ATOM     73  C   UNL A   1      44.188  25.343  36.933  1.00  0.00     0.200 A 
ATOM     74  F   UNL A   1      43.981  23.658  35.294  1.00  0.00    -0.200 F 
ATOM     75  F   UNL A   1      44.604  24.440  37.831  1.00  0.00    -0.200 F 
ENDBRANCH  51  65
BRANCH  52  76
ATOM     76  C   UNL A   1      42.572  24.486  27.036  1.00  0.00     0.064 A 
ATOM     77  C   UNL A   1      43.237  24.306  25.814  1.00  0.00     0.173 A 
ATOM     78  C   UNL A   1      41.938  23.350  27.578  1.00  0.00     0.173 A 
ATOM     79  F   UNL A   1      43.911  25.323  25.256  1.00  0.00    -0.203 F 
ATOM     80  C   UNL A   1      43.271  23.063  25.175  1.00  0.00     0.198 A 
ATOM     81  C   UNL A   1      41.958  22.115  26.932  1.00  0.00     0.198 A 
ATOM     82  F   UNL A   1      41.363  23.394  28.789  1.00  0.00    -0.203 F 
ATOM     83  F   UNL A   1      43.964  22.916  24.038  1.00  0.00    -0.200 F 
ATOM     84  C   UNL A   1      42.633  21.969  25.736  1.00  0.00     0.200 A 
ATOM     85  F   UNL A   1      41.366  21.057  27.504  1.00  0.00    -0.200 F 
ATOM     86  F   UNL A   1      42.703  20.768  25.146  1.00  0.00    -0.200 F 
ENDBRANCH  52  76
BRANCH  64  87
ATOM     87  C   UNL A   1      45.889  29.447  29.028  1.00  0.00     0.064 A 
ATOM     88  C   UNL A   1      44.902  30.180  28.349  1.00  0.00     0.173 A 
ATOM     89  C   UNL A   1      47.228  29.714  28.711  1.00  0.00     0.173 A 
ATOM     90  F   UNL A   1      43.608  30.056  28.675  1.00  0.00    -0.203 F 
ATOM     91  C   UNL A   1      45.240  31.096  27.355  1.00  0.00     0.198 A 
ATOM     92  C   UNL A   1      47.565  30.656  27.742  1.00  0.00     0.198 A 
ATOM     93  F   UNL A   1      48.215  29.089  29.373  1.00  0.00    -0.203 F 
ATOM     94  F   UNL A   1      44.279  31.770  26.706  1.00  0.00    -0.200 F 
ATOM     95  C   UNL A   1      46.572  31.336  27.055  1.00  0.00     0.200 A 
ATOM     96  F   UNL A   1      48.854  30.923  27.490  1.00  0.00    -0.200 F 
ATOM     97  F   UNL A   1      46.899  32.243  26.124  1.00  0.00    -0.200 F 
ENDBRANCH  64  87
ENDBRANCH  38  39
ENDBRANCH  31  33
ENDBRANCH  30  31
ENDBRANCH  29  30
ENDBRANCH  28  29
ENDBRANCH  27  28
ENDBRANCH  26  27
ENDBRANCH   1  26
TORSDOF 20
ENDMDL
