MODEL 1
REMARK VINA RESULT:     -12.2      0.000      0.000
REMARK SMILES CSc1ccc(/C=C2\C(C)=C(CC(=O)OCCOCCOCCOC(=O)c3ccc(-c4c5nc(c(-c6c(F)c(F)c(F)c(F)c6F)c6ccc([nH]6)c(-c6c(F)c(F)c(F)c(F)c6F)c6nc(c(-c7c(F)c(F)c(F)c(F)c7F)c7ccc4[nH]7)C=C6)C=C5)cc3)c3cc(F)ccc32)cc1
REMARK SMILES IDX 19 1 18 2 17 3 16 4 15 5 13 6 14 7 12 8 11 9 7 10 8 11 9 12
REMARK SMILES IDX 96 13 10 14 90 15 95 16 91 17 94 18 92 19 93 20 6 21 3 22
REMARK SMILES IDX 4 23 98 24 5 25 97 26 2 27 1 28 20 29 21 30 22 31 23 32
REMARK SMILES IDX 24 33 25 34 26 35 27 36 28 37 89 38 29 39 88 40 30 41 31 42
REMARK SMILES IDX 32 43 82 44 33 45 87 46 81 47 83 48 34 49 86 50 80 51 79 52
REMARK SMILES IDX 35 54 67 55 47 56 66 57 48 58 51 59 65 60 84 61 49 62 50 63
REMARK SMILES IDX 64 65 85 66 52 67 36 68 37 69 45 70 38 71 39 72 43 73 46 74
REMARK SMILES IDX 40 75 41 76 44 77 42 78 68 79 69 80 77 81 70 82 71 83 75 84
REMARK SMILES IDX 78 85 72 86 73 87 76 88 74 89 53 90 54 91 62 92 55 93 56 94
REMARK SMILES IDX 60 95 63 96 57 97 58 98 61 99 59 100
REMARK H PARENT 83 53 51 64
REMARK Flexibility Score: inf
ROOT
ATOM      1  C   UNL A   1      42.589  19.134  25.892  1.00  0.00     0.188 C 
ENDROOT
BRANCH   1   2
ATOM      2  O   UNL A   1      42.257  19.714  27.142  1.00  0.00    -0.376 OA
BRANCH   2   3
ATOM      3  C   UNL A   1      41.047  20.464  27.239  1.00  0.00     0.202 C 
BRANCH   3   4
ATOM      4  C   UNL A   1      40.051  20.295  26.089  1.00  0.00     0.261 C 
BRANCH   4   5
ATOM      5  O   UNL A   1      39.045  21.338  26.055  1.00  0.00    -0.463 OA
BRANCH   5   6
ATOM      6  C   UNL A   1      37.905  21.023  25.393  1.00  0.00     0.310 C 
ATOM      7  O   UNL A   1      37.762  20.009  24.713  1.00  0.00    -0.252 OA
BRANCH   6   8
ATOM      8  C   UNL A   1      36.773  22.038  25.503  1.00  0.00     0.159 C 
BRANCH   8   9
ATOM      9  C   UNL A   1      35.388  21.695  26.085  1.00  0.00    -0.025 C 
ATOM     10  C   UNL A   1      33.745  24.593  24.946  1.00  0.00     0.017 C 
ATOM     11  C   UNL A   1      34.095  23.341  25.267  1.00  0.00    -0.014 C 
ATOM     12  C   UNL A   1      34.596  22.716  26.525  1.00  0.00    -0.039 C 
ATOM     13  C   UNL A   1      33.878  22.214  24.331  1.00  0.00    -0.010 A 
ATOM     14  C   UNL A   1      33.496  22.335  27.521  1.00  0.00     0.045 C 
ATOM     15  C   UNL A   1      34.472  21.148  25.021  1.00  0.00    -0.011 A 
ATOM     16  C   UNL A   1      32.834  22.035  23.425  1.00  0.00     0.012 A 
ATOM     17  C   UNL A   1      33.832  19.924  24.998  1.00  0.00     0.048 A 
ATOM     18  C   UNL A   1      32.299  20.754  23.293  1.00  0.00     0.040 A 
ATOM     19  C   UNL A   1      32.770  19.727  24.112  1.00  0.00     0.123 A 
ATOM     20  F   UNL A   1      32.130  18.550  24.109  1.00  0.00    -0.207 F 
BRANCH  10  21
ATOM     21  C   UNL A   1      33.347  25.725  25.808  1.00  0.00    -0.025 A 
ATOM     22  C   UNL A   1      32.188  28.240  25.755  1.00  0.00     0.007 A 
ATOM     23  C   UNL A   1      31.428  27.139  26.141  1.00  0.00     0.015 A 
ATOM     24  C   UNL A   1      33.574  28.125  25.671  1.00  0.00     0.015 A 
ATOM     25  C   UNL A   1      32.028  25.887  26.225  1.00  0.00     0.009 A 
ATOM     26  C   UNL A   1      34.160  26.862  25.709  1.00  0.00     0.009 A 
BRANCH  22  27
ATOM     27  S   UNL A   1      31.377  29.691  25.116  1.00  0.00    -0.130 SA
ATOM     28  C   UNL A   1      30.695  28.924  23.606  1.00  0.00     0.091 C 
ENDBRANCH  22  27
ENDBRANCH  10  21
ENDBRANCH   8   9
ENDBRANCH   6   8
ENDBRANCH   5   6
ENDBRANCH   4   5
ENDBRANCH   3   4
ENDBRANCH   2   3
ENDBRANCH   1   2
BRANCH   1  29
ATOM     29  C   UNL A   1      43.961  18.470  25.743  1.00  0.00     0.188 C 
BRANCH  29  30
ATOM     30  O   UNL A   1      44.994  19.356  25.351  1.00  0.00    -0.376 OA
BRANCH  30  31
ATOM     31  C   UNL A   1      44.550  20.577  24.768  1.00  0.00     0.202 C 
BRANCH  31  32
ATOM     32  C   UNL A   1      44.823  21.743  25.727  1.00  0.00     0.261 C 
BRANCH  32  33
ATOM     33  O   UNL A   1      43.627  22.460  26.100  1.00  0.00    -0.460 OA
BRANCH  33  34
ATOM     34  C   UNL A   1      43.415  23.610  25.420  1.00  0.00     0.338 C 
ATOM     35  O   UNL A   1      43.525  23.781  24.220  1.00  0.00    -0.246 OA
BRANCH  34  36
ATOM     36  C   UNL A   1      42.805  24.597  26.329  1.00  0.00     0.060 A 
ATOM     37  C   UNL A   1      43.124  25.944  26.149  1.00  0.00     0.016 A 
ATOM     38  C   UNL A   1      42.001  24.212  27.394  1.00  0.00     0.016 A 
ATOM     39  C   UNL A   1      42.727  26.910  27.057  1.00  0.00     0.010 A 
ATOM     40  C   UNL A   1      41.559  25.189  28.293  1.00  0.00     0.010 A 
ATOM     41  C   UNL A   1      41.946  26.537  28.147  1.00  0.00    -0.014 A 
BRANCH  41  42
ATOM     42  C   UNL A   1      41.626  27.536  29.188  1.00  0.00     0.031 A 
ATOM     43  C   UNL A   1      42.463  27.575  30.431  1.00  0.00     0.074 A 
ATOM     44  C   UNL A   1      40.627  28.420  29.013  1.00  0.00     0.049 A 
ATOM     45  N   UNL A   1      42.237  28.185  31.563  1.00  0.00    -0.248 NA
ATOM     46  C   UNL A   1      43.725  26.818  30.391  1.00  0.00     0.031 C 
ATOM     47  C   UNL A   1      39.825  28.571  27.799  1.00  0.00     0.029 A 
ATOM     48  N   UNL A   1      40.110  29.355  29.874  1.00  0.00    -0.354 N 
ATOM     49  C   UNL A   1      43.293  27.837  32.392  1.00  0.00     0.074 A 
ATOM     50  C   UNL A   1      44.172  26.976  31.629  1.00  0.00     0.031 C 
ATOM     51  C   UNL A   1      38.907  29.531  27.998  1.00  0.00     0.029 A 
ATOM     52  C   UNL A   1      39.008  30.002  29.376  1.00  0.00     0.049 A 
ATOM     53  H   UNL A   1      40.493  29.543  30.762  1.00  0.00     0.167 HD
ATOM     54  C   UNL A   1      43.496  28.198  33.679  1.00  0.00     0.037 A 
ATOM     55  C   UNL A   1      38.141  30.833  29.986  1.00  0.00     0.037 A 
ATOM     56  C   UNL A   1      42.638  29.094  34.408  1.00  0.00     0.049 A 
ATOM     57  C   UNL A   1      38.339  31.148  31.445  1.00  0.00     0.074 A 
ATOM     58  C   UNL A   1      42.759  29.536  35.713  1.00  0.00     0.029 A 
ATOM     59  N   UNL A   1      41.501  29.693  33.884  1.00  0.00    -0.354 N 
ATOM     60  N   UNL A   1      39.300  30.769  32.253  1.00  0.00    -0.248 NA
ATOM     61  C   UNL A   1      37.316  31.988  32.084  1.00  0.00     0.031 C 
ATOM     62  C   UNL A   1      41.672  30.370  35.993  1.00  0.00     0.029 A 
ATOM     63  C   UNL A   1      40.900  30.485  34.848  1.00  0.00     0.049 A 
ATOM     64  H   UNL A   1      41.172  29.574  32.964  1.00  0.00     0.167 HD
ATOM     65  C   UNL A   1      39.014  31.345  33.483  1.00  0.00     0.074 A 
ATOM     66  C   UNL A   1      37.795  32.109  33.313  1.00  0.00     0.031 C 
ATOM     67  C   UNL A   1      39.697  31.251  34.650  1.00  0.00     0.037 A 
BRANCH  54  68
ATOM     68  C   UNL A   1      44.656  27.583  34.401  1.00  0.00     0.064 A 
ATOM     69  C   UNL A   1      45.921  28.185  34.429  1.00  0.00     0.173 A 
ATOM     70  C   UNL A   1      44.479  26.385  35.110  1.00  0.00     0.173 A 
ATOM     71  F   UNL A   1      46.145  29.319  33.749  1.00  0.00    -0.203 F 
ATOM     72  C   UNL A   1      46.972  27.601  35.132  1.00  0.00     0.198 A 
ATOM     73  C   UNL A   1      45.524  25.819  35.832  1.00  0.00     0.198 A 
ATOM     74  F   UNL A   1      43.287  25.769  35.111  1.00  0.00    -0.203 F 
ATOM     75  F   UNL A   1      48.184  28.173  35.119  1.00  0.00    -0.200 F 
ATOM     76  C   UNL A   1      46.770  26.424  35.840  1.00  0.00     0.200 A 
ATOM     77  F   UNL A   1      45.324  24.687  36.522  1.00  0.00    -0.200 F 
ATOM     78  F   UNL A   1      47.781  25.871  36.525  1.00  0.00    -0.200 F 
ENDBRANCH  54  68
BRANCH  55  79
ATOM     79  C   UNL A   1      36.971  31.372  29.246  1.00  0.00     0.064 A 
ATOM     80  C   UNL A   1      36.918  32.720  28.868  1.00  0.00     0.173 A 
ATOM     81  C   UNL A   1      35.868  30.563  28.934  1.00  0.00     0.173 A 
ATOM     82  F   UNL A   1      37.934  33.541  29.171  1.00  0.00    -0.203 F 
ATOM     83  C   UNL A   1      35.798  33.243  28.224  1.00  0.00     0.198 A 
ATOM     84  C   UNL A   1      34.762  31.079  28.263  1.00  0.00     0.198 A 
ATOM     85  F   UNL A   1      35.866  29.267  29.280  1.00  0.00    -0.203 F 
ATOM     86  F   UNL A   1      35.750  34.547  27.923  1.00  0.00    -0.200 F 
ATOM     87  C   UNL A   1      34.724  32.421  27.918  1.00  0.00     0.200 A 
ATOM     88  F   UNL A   1      33.731  30.279  27.961  1.00  0.00    -0.200 F 
ATOM     89  F   UNL A   1      33.645  32.925  27.301  1.00  0.00    -0.200 F 
ENDBRANCH  55  79
BRANCH  67  90
ATOM     90  C   UNL A   1      39.172  32.034  35.816  1.00  0.00     0.064 A 
ATOM     91  C   UNL A   1      38.297  31.463  36.752  1.00  0.00     0.173 A 
ATOM     92  C   UNL A   1      39.582  33.361  36.019  1.00  0.00     0.173 A 
ATOM     93  F   UNL A   1      37.865  30.204  36.591  1.00  0.00    -0.203 F 
ATOM     94  C   UNL A   1      37.834  32.202  37.837  1.00  0.00     0.198 A 
ATOM     95  C   UNL A   1      39.138  34.086  37.120  1.00  0.00     0.198 A 
ATOM     96  F   UNL A   1      40.423  33.948  35.154  1.00  0.00    -0.203 F 
ATOM     97  F   UNL A   1      36.963  31.652  38.695  1.00  0.00    -0.200 F 
ATOM     98  C   UNL A   1      38.260  33.509  38.024  1.00  0.00     0.200 A 
ATOM     99  F   UNL A   1      39.561  35.344  37.306  1.00  0.00    -0.200 F 
ATOM    100  F   UNL A   1      37.817  34.215  39.073  1.00  0.00    -0.200 F 
ENDBRANCH  67  90
ENDBRANCH  41  42
ENDBRANCH  34  36
ENDBRANCH  33  34
ENDBRANCH  32  33
ENDBRANCH  31  32
ENDBRANCH  30  31
ENDBRANCH  29  30
ENDBRANCH   1  29
TORSDOF 20
ENDMDL
MODEL 2
REMARK VINA RESULT:     -12.1      5.631     10.898
REMARK SMILES CSc1ccc(/C=C2\C(C)=C(CC(=O)OCCOCCOCCOC(=O)c3ccc(-c4c5nc(c(-c6c(F)c(F)c(F)c(F)c6F)c6ccc([nH]6)c(-c6c(F)c(F)c(F)c(F)c6F)c6nc(c(-c7c(F)c(F)c(F)c(F)c7F)c7ccc4[nH]7)C=C6)C=C5)cc3)c3cc(F)ccc32)cc1
REMARK SMILES IDX 19 1 18 2 17 3 16 4 15 5 13 6 14 7 12 8 11 9 7 10 8 11 9 12
REMARK SMILES IDX 96 13 10 14 90 15 95 16 91 17 94 18 92 19 93 20 6 21 3 22
REMARK SMILES IDX 4 23 98 24 5 25 97 26 2 27 1 28 20 29 21 30 22 31 23 32
REMARK SMILES IDX 24 33 25 34 26 35 27 36 28 37 89 38 29 39 88 40 30 41 31 42
REMARK SMILES IDX 32 43 82 44 33 45 87 46 81 47 83 48 34 49 86 50 80 51 79 52
REMARK SMILES IDX 35 54 67 55 47 56 66 57 48 58 51 59 65 60 84 61 49 62 50 63
REMARK SMILES IDX 64 65 85 66 52 67 36 68 37 69 45 70 38 71 39 72 43 73 46 74
REMARK SMILES IDX 40 75 41 76 44 77 42 78 68 79 69 80 77 81 70 82 71 83 75 84
REMARK SMILES IDX 78 85 72 86 73 87 76 88 74 89 53 90 54 91 62 92 55 93 56 94
REMARK SMILES IDX 60 95 63 96 57 97 58 98 61 99 59 100
REMARK H PARENT 83 53 51 64
REMARK Flexibility Score: inf
ROOT
ATOM      1  C   UNL A   1      33.055  33.434  27.831  1.00  0.00     0.188 C 
ENDROOT
BRANCH   1   2
ATOM      2  O   UNL A   1      31.782  33.262  27.231  1.00  0.00    -0.376 OA
BRANCH   2   3
ATOM      3  C   UNL A   1      31.535  32.063  26.500  1.00  0.00     0.202 C 
BRANCH   3   4
ATOM      4  C   UNL A   1      32.168  30.786  27.059  1.00  0.00     0.261 C 
BRANCH   4   5
ATOM      5  O   UNL A   1      33.573  30.659  26.725  1.00  0.00    -0.463 OA
BRANCH   5   6
ATOM      6  C   UNL A   1      34.127  29.452  26.997  1.00  0.00     0.310 C 
ATOM      7  O   UNL A   1      35.242  29.303  27.494  1.00  0.00    -0.252 OA
BRANCH   6   8
ATOM      8  C   UNL A   1      33.292  28.237  26.610  1.00  0.00     0.159 C 
BRANCH   8   9
ATOM      9  C   UNL A   1      33.089  27.787  25.150  1.00  0.00    -0.025 C 
ATOM     10  C   UNL A   1      32.385  24.412  25.866  1.00  0.00     0.017 C 
ATOM     11  C   UNL A   1      32.393  25.663  25.389  1.00  0.00    -0.014 C 
ATOM     12  C   UNL A   1      33.462  26.521  24.801  1.00  0.00    -0.039 C 
ATOM     13  C   UNL A   1      31.140  26.437  25.228  1.00  0.00    -0.010 A 
ATOM     14  C   UNL A   1      33.716  26.279  23.309  1.00  0.00     0.045 C 
ATOM     15  C   UNL A   1      31.623  27.685  24.813  1.00  0.00    -0.011 A 
ATOM     16  C   UNL A   1      29.875  25.966  24.878  1.00  0.00     0.012 A 
ATOM     17  C   UNL A   1      30.932  28.350  23.818  1.00  0.00     0.048 A 
ATOM     18  C   UNL A   1      29.118  26.730  23.992  1.00  0.00     0.040 A 
ATOM     19  C   UNL A   1      29.671  27.885  23.438  1.00  0.00     0.123 A 
ATOM     20  F   UNL A   1      29.012  28.512  22.454  1.00  0.00    -0.207 F 
BRANCH  10  21
ATOM     21  C   UNL A   1      33.318  23.292  25.625  1.00  0.00    -0.025 A 
ATOM     22  C   UNL A   1      33.428  20.547  25.271  1.00  0.00     0.007 A 
ATOM     23  C   UNL A   1      33.497  21.388  24.163  1.00  0.00     0.015 A 
ATOM     24  C   UNL A   1      33.586  21.077  26.550  1.00  0.00     0.015 A 
ATOM     25  C   UNL A   1      33.503  22.766  24.349  1.00  0.00     0.009 A 
ATOM     26  C   UNL A   1      33.543  22.459  26.728  1.00  0.00     0.009 A 
BRANCH  22  27
ATOM     27  S   UNL A   1      32.874  18.867  25.069  1.00  0.00    -0.130 SA
ATOM     28  C   UNL A   1      34.465  18.169  24.505  1.00  0.00     0.091 C 
ENDBRANCH  22  27
ENDBRANCH  10  21
ENDBRANCH   8   9
ENDBRANCH   6   8
ENDBRANCH   5   6
ENDBRANCH   4   5
ENDBRANCH   3   4
ENDBRANCH   2   3
ENDBRANCH   1   2
BRANCH   1  29
ATOM     29  C   UNL A   1      33.314  34.716  28.628  1.00  0.00     0.188 C 
BRANCH  29  30
ATOM     30  O   UNL A   1      32.986  34.621  30.001  1.00  0.00    -0.376 OA
BRANCH  30  31
ATOM     31  C   UNL A   1      33.580  35.613  30.832  1.00  0.00     0.202 C 
BRANCH  31  32
ATOM     32  C   UNL A   1      34.497  34.948  31.867  1.00  0.00     0.261 C 
BRANCH  32  33
ATOM     33  O   UNL A   1      35.441  34.029  31.277  1.00  0.00    -0.460 OA
BRANCH  33  34
ATOM     34  C   UNL A   1      35.232  32.727  31.575  1.00  0.00     0.338 C 
ATOM     35  O   UNL A   1      34.218  32.234  32.035  1.00  0.00    -0.246 OA
BRANCH  34  36
ATOM     36  C   UNL A   1      36.355  31.930  31.047  1.00  0.00     0.060 A 
ATOM     37  C   UNL A   1      37.165  31.250  31.958  1.00  0.00     0.016 A 
ATOM     38  C   UNL A   1      36.666  31.911  29.694  1.00  0.00     0.016 A 
ATOM     39  C   UNL A   1      38.331  30.619  31.559  1.00  0.00     0.010 A 
ATOM     40  C   UNL A   1      37.819  31.238  29.277  1.00  0.00     0.010 A 
ATOM     41  C   UNL A   1      38.674  30.616  30.210  1.00  0.00    -0.014 A 
BRANCH  41  42
ATOM     42  C   UNL A   1      39.977  30.058  29.794  1.00  0.00     0.031 A 
ATOM     43  C   UNL A   1      41.178  30.955  29.792  1.00  0.00     0.074 A 
ATOM     44  C   UNL A   1      40.097  28.762  29.454  1.00  0.00     0.049 A 
ATOM     45  N   UNL A   1      42.353  30.767  29.252  1.00  0.00    -0.248 NA
ATOM     46  C   UNL A   1      41.032  32.242  30.492  1.00  0.00     0.031 C 
ATOM     47  C   UNL A   1      39.037  27.758  29.537  1.00  0.00     0.029 A 
ATOM     48  N   UNL A   1      41.173  28.071  28.957  1.00  0.00    -0.354 N 
ATOM     49  C   UNL A   1      43.065  31.933  29.492  1.00  0.00     0.074 A 
ATOM     50  C   UNL A   1      42.199  32.818  30.241  1.00  0.00     0.031 C 
ATOM     51  C   UNL A   1      39.511  26.582  29.092  1.00  0.00     0.029 A 
ATOM     52  C   UNL A   1      40.879  26.774  28.621  1.00  0.00     0.049 A 
ATOM     53  H   UNL A   1      42.069  28.467  28.852  1.00  0.00     0.167 HD
ATOM     54  C   UNL A   1      44.325  32.234  29.105  1.00  0.00     0.037 A 
ATOM     55  C   UNL A   1      41.611  25.865  27.949  1.00  0.00     0.037 A 
ATOM     56  C   UNL A   1      45.189  31.323  28.402  1.00  0.00     0.049 A 
ATOM     57  C   UNL A   1      42.977  26.256  27.450  1.00  0.00     0.074 A 
ATOM     58  C   UNL A   1      46.489  31.523  27.973  1.00  0.00     0.029 A 
ATOM     59  N   UNL A   1      44.839  30.032  28.035  1.00  0.00    -0.354 N 
ATOM     60  N   UNL A   1      43.631  27.380  27.617  1.00  0.00    -0.248 NA
ATOM     61  C   UNL A   1      43.698  25.257  26.649  1.00  0.00     0.031 C 
ATOM     62  C   UNL A   1      46.911  30.367  27.309  1.00  0.00     0.029 A 
ATOM     63  C   UNL A   1      45.891  29.431  27.366  1.00  0.00     0.049 A 
ATOM     64  H   UNL A   1      43.971  29.607  28.223  1.00  0.00     0.167 HD
ATOM     65  C   UNL A   1      44.847  27.215  26.967  1.00  0.00     0.074 A 
ATOM     66  C   UNL A   1      44.845  25.877  26.413  1.00  0.00     0.031 C 
ATOM     67  C   UNL A   1      45.873  28.091  26.839  1.00  0.00     0.037 A 
BRANCH  54  68
ATOM     68  C   UNL A   1      44.826  33.618  29.379  1.00  0.00     0.064 A 
ATOM     69  C   UNL A   1      45.519  33.942  30.553  1.00  0.00     0.173 A 
ATOM     70  C   UNL A   1      44.638  34.630  28.424  1.00  0.00     0.173 A 
ATOM     71  F   UNL A   1      45.705  33.016  31.505  1.00  0.00    -0.203 F 
ATOM     72  C   UNL A   1      45.997  35.233  30.766  1.00  0.00     0.198 A 
ATOM     73  C   UNL A   1      45.139  35.911  28.629  1.00  0.00     0.198 A 
ATOM     74  F   UNL A   1      43.979  34.370  27.285  1.00  0.00    -0.203 F 
ATOM     75  F   UNL A   1      46.627  35.532  31.911  1.00  0.00    -0.200 F 
ATOM     76  C   UNL A   1      45.814  36.213  29.801  1.00  0.00     0.200 A 
ATOM     77  F   UNL A   1      44.969  36.853  27.691  1.00  0.00    -0.200 F 
ATOM     78  F   UNL A   1      46.284  37.452  30.004  1.00  0.00    -0.200 F 
ENDBRANCH  54  68
BRANCH  55  79
ATOM     79  C   UNL A   1      41.050  24.523  27.648  1.00  0.00     0.064 A 
ATOM     80  C   UNL A   1      41.567  23.373  28.259  1.00  0.00     0.173 A 
ATOM     81  C   UNL A   1      40.012  24.358  26.718  1.00  0.00     0.173 A 
ATOM     82  F   UNL A   1      42.579  23.477  29.133  1.00  0.00    -0.203 F 
ATOM     83  C   UNL A   1      41.080  22.107  27.937  1.00  0.00     0.198 A 
ATOM     84  C   UNL A   1      39.506  23.095  26.420  1.00  0.00     0.198 A 
ATOM     85  F   UNL A   1      39.487  25.425  26.100  1.00  0.00    -0.203 F 
ATOM     86  F   UNL A   1      41.630  21.021  28.496  1.00  0.00    -0.200 F 
ATOM     87  C   UNL A   1      40.048  21.970  27.022  1.00  0.00     0.200 A 
ATOM     88  F   UNL A   1      38.502  22.968  25.542  1.00  0.00    -0.200 F 
ATOM     89  F   UNL A   1      39.583  20.752  26.710  1.00  0.00    -0.200 F 
ENDBRANCH  55  79
BRANCH  67  90
ATOM     90  C   UNL A   1      47.097  27.611  26.118  1.00  0.00     0.064 A 
ATOM     91  C   UNL A   1      47.210  27.696  24.723  1.00  0.00     0.173 A 
ATOM     92  C   UNL A   1      48.186  27.095  26.839  1.00  0.00     0.173 A 
ATOM     93  F   UNL A   1      46.190  28.167  23.991  1.00  0.00    -0.203 F 
ATOM     94  C   UNL A   1      48.362  27.260  24.074  1.00  0.00     0.198 A 
ATOM     95  C   UNL A   1      49.345  26.687  26.189  1.00  0.00     0.198 A 
ATOM     96  F   UNL A   1      48.126  27.000  28.176  1.00  0.00    -0.203 F 
ATOM     97  F   UNL A   1      48.433  27.308  22.737  1.00  0.00    -0.200 F 
ATOM     98  C   UNL A   1      49.430  26.763  24.807  1.00  0.00     0.200 A 
ATOM     99  F   UNL A   1      50.381  26.219  26.898  1.00  0.00    -0.200 F 
ATOM    100  F   UNL A   1      50.540  26.350  24.179  1.00  0.00    -0.200 F 
ENDBRANCH  67  90
ENDBRANCH  41  42
ENDBRANCH  34  36
ENDBRANCH  33  34
ENDBRANCH  32  33
ENDBRANCH  31  32
ENDBRANCH  30  31
ENDBRANCH  29  30
ENDBRANCH   1  29
TORSDOF 20
ENDMDL
MODEL 3
REMARK VINA RESULT:     -11.5      2.080      3.912
REMARK SMILES CSc1ccc(/C=C2\C(C)=C(CC(=O)OCCOCCOCCOC(=O)c3ccc(-c4c5nc(c(-c6c(F)c(F)c(F)c(F)c6F)c6ccc([nH]6)c(-c6c(F)c(F)c(F)c(F)c6F)c6nc(c(-c7c(F)c(F)c(F)c(F)c7F)c7ccc4[nH]7)C=C6)C=C5)cc3)c3cc(F)ccc32)cc1
REMARK SMILES IDX 19 1 18 2 17 3 16 4 15 5 13 6 14 7 12 8 11 9 7 10 8 11 9 12
REMARK SMILES IDX 96 13 10 14 90 15 95 16 91 17 94 18 92 19 93 20 6 21 3 22
REMARK SMILES IDX 4 23 98 24 5 25 97 26 2 27 1 28 20 29 21 30 22 31 23 32
REMARK SMILES IDX 24 33 25 34 26 35 27 36 28 37 89 38 29 39 88 40 30 41 31 42
REMARK SMILES IDX 32 43 82 44 33 45 87 46 81 47 83 48 34 49 86 50 80 51 79 52
REMARK SMILES IDX 35 54 67 55 47 56 66 57 48 58 51 59 65 60 84 61 49 62 50 63
REMARK SMILES IDX 64 65 85 66 52 67 36 68 37 69 45 70 38 71 39 72 43 73 46 74
REMARK SMILES IDX 40 75 41 76 44 77 42 78 68 79 69 80 77 81 70 82 71 83 75 84
REMARK SMILES IDX 78 85 72 86 73 87 76 88 74 89 53 90 54 91 62 92 55 93 56 94
REMARK SMILES IDX 60 95 63 96 57 97 58 98 61 99 59 100
REMARK H PARENT 83 53 51 64
REMARK Flexibility Score: inf
ROOT
ATOM      1  C   UNL A   1      41.206  20.462  27.681  1.00  0.00     0.188 C 
ENDROOT
BRANCH   1   2
ATOM      2  O   UNL A   1      40.246  21.360  27.148  1.00  0.00    -0.376 OA
BRANCH   2   3
ATOM      3  C   UNL A   1      39.434  20.915  26.063  1.00  0.00     0.202 C 
BRANCH   3   4
ATOM      4  C   UNL A   1      38.195  21.758  25.754  1.00  0.00     0.261 C 
BRANCH   4   5
ATOM      5  O   UNL A   1      38.516  23.126  25.401  1.00  0.00    -0.463 OA
BRANCH   5   6
ATOM      6  C   UNL A   1      38.029  24.072  26.241  1.00  0.00     0.310 C 
ATOM      7  O   UNL A   1      38.731  24.863  26.868  1.00  0.00    -0.252 OA
BRANCH   6   8
ATOM      8  C   UNL A   1      36.514  24.090  26.413  1.00  0.00     0.159 C 
BRANCH   8   9
ATOM      9  C   UNL A   1      35.540  24.390  25.257  1.00  0.00    -0.025 C 
ATOM     10  C   UNL A   1      33.590  21.480  25.610  1.00  0.00     0.017 C 
ATOM     11  C   UNL A   1      34.035  22.732  25.447  1.00  0.00    -0.014 C 
ATOM     12  C   UNL A   1      35.044  23.343  24.535  1.00  0.00    -0.039 C 
ATOM     13  C   UNL A   1      33.405  23.873  26.151  1.00  0.00    -0.010 A 
ATOM     14  C   UNL A   1      34.511  23.679  23.138  1.00  0.00     0.045 C 
ATOM     15  C   UNL A   1      34.235  24.937  25.776  1.00  0.00    -0.011 A 
ATOM     16  C   UNL A   1      32.061  24.047  26.482  1.00  0.00     0.012 A 
ATOM     17  C   UNL A   1      33.641  26.148  25.471  1.00  0.00     0.048 A 
ATOM     18  C   UNL A   1      31.511  25.317  26.321  1.00  0.00     0.040 A 
ATOM     19  C   UNL A   1      32.291  26.338  25.775  1.00  0.00     0.123 A 
ATOM     20  F   UNL A   1      31.706  27.500  25.455  1.00  0.00    -0.207 F 
BRANCH  10  21
ATOM     21  C   UNL A   1      33.639  20.322  24.693  1.00  0.00    -0.025 A 
ATOM     22  C   UNL A   1      33.723  17.554  24.634  1.00  0.00     0.007 A 
ATOM     23  C   UNL A   1      32.517  18.211  24.407  1.00  0.00     0.015 A 
ATOM     24  C   UNL A   1      34.916  18.274  24.611  1.00  0.00     0.015 A 
ATOM     25  C   UNL A   1      32.489  19.602  24.377  1.00  0.00     0.009 A 
ATOM     26  C   UNL A   1      34.875  19.666  24.628  1.00  0.00     0.009 A 
BRANCH  22  27
ATOM     27  S   UNL A   1      33.713  15.871  25.217  1.00  0.00    -0.130 SA
ATOM     28  C   UNL A   1      35.522  15.674  25.373  1.00  0.00     0.091 C 
ENDBRANCH  22  27
ENDBRANCH  10  21
ENDBRANCH   8   9
ENDBRANCH   6   8
ENDBRANCH   5   6
ENDBRANCH   4   5
ENDBRANCH   3   4
ENDBRANCH   2   3
ENDBRANCH   1   2
BRANCH   1  29
ATOM     29  C   UNL A   1      42.268  19.892  26.736  1.00  0.00     0.188 C 
BRANCH  29  30
ATOM     30  O   UNL A   1      42.699  20.796  25.735  1.00  0.00    -0.376 OA
BRANCH  30  31
ATOM     31  C   UNL A   1      43.975  20.507  25.173  1.00  0.00     0.202 C 
BRANCH  31  32
ATOM     32  C   UNL A   1      44.644  21.806  24.704  1.00  0.00     0.261 C 
BRANCH  32  33
ATOM     33  O   UNL A   1      43.827  22.976  24.927  1.00  0.00    -0.460 OA
BRANCH  33  34
ATOM     34  C   UNL A   1      44.505  24.145  24.964  1.00  0.00     0.338 C 
ATOM     35  O   UNL A   1      45.439  24.474  24.256  1.00  0.00    -0.246 OA
BRANCH  34  36
ATOM     36  C   UNL A   1      43.795  25.079  25.858  1.00  0.00     0.060 A 
ATOM     37  C   UNL A   1      44.047  26.445  25.717  1.00  0.00     0.016 A 
ATOM     38  C   UNL A   1      42.961  24.629  26.872  1.00  0.00     0.016 A 
ATOM     39  C   UNL A   1      43.552  27.370  26.621  1.00  0.00     0.010 A 
ATOM     40  C   UNL A   1      42.420  25.561  27.764  1.00  0.00     0.010 A 
ATOM     41  C   UNL A   1      42.739  26.932  27.663  1.00  0.00    -0.014 A 
BRANCH  41  42
ATOM     42  C   UNL A   1      42.312  27.890  28.703  1.00  0.00     0.031 A 
ATOM     43  C   UNL A   1      43.199  28.107  29.891  1.00  0.00     0.074 A 
ATOM     44  C   UNL A   1      41.166  28.585  28.575  1.00  0.00     0.049 A 
ATOM     45  N   UNL A   1      42.936  28.701  31.024  1.00  0.00    -0.248 NA
ATOM     46  C   UNL A   1      44.569  27.577  29.788  1.00  0.00     0.031 C 
ATOM     47  C   UNL A   1      40.282  28.561  27.410  1.00  0.00     0.029 A 
ATOM     48  N   UNL A   1      40.546  29.441  29.449  1.00  0.00    -0.354 N 
ATOM     49  C   UNL A   1      44.083  28.564  31.792  1.00  0.00     0.074 A 
ATOM     50  C   UNL A   1      45.052  27.845  30.993  1.00  0.00     0.031 C 
ATOM     51  C   UNL A   1      39.224  29.355  27.648  1.00  0.00     0.029 A 
ATOM     52  C   UNL A   1      39.322  29.875  29.008  1.00  0.00     0.049 A 
ATOM     53  H   UNL A   1      40.941  29.717  30.307  1.00  0.00     0.167 HD
ATOM     54  C   UNL A   1      44.294  28.990  33.058  1.00  0.00     0.037 A 
ATOM     55  C   UNL A   1      38.361  30.562  29.655  1.00  0.00     0.037 A 
ATOM     56  C   UNL A   1      43.337  29.746  33.822  1.00  0.00     0.049 A 
ATOM     57  C   UNL A   1      38.585  30.947  31.093  1.00  0.00     0.074 A 
ATOM     58  C   UNL A   1      43.456  30.238  35.109  1.00  0.00     0.029 A 
ATOM     59  N   UNL A   1      42.086  30.126  33.359  1.00  0.00    -0.354 N 
ATOM     60  N   UNL A   1      39.642  30.762  31.847  1.00  0.00    -0.248 NA
ATOM     61  C   UNL A   1      37.470  31.618  31.778  1.00  0.00     0.031 C 
ATOM     62  C   UNL A   1      42.259  30.881  35.440  1.00  0.00     0.029 A 
ATOM     63  C   UNL A   1      41.414  30.830  34.343  1.00  0.00     0.049 A 
ATOM     64  H   UNL A   1      41.730  29.926  32.463  1.00  0.00     0.167 HD
ATOM     65  C   UNL A   1      39.332  31.315  33.082  1.00  0.00     0.074 A 
ATOM     66  C   UNL A   1      37.992  31.853  32.973  1.00  0.00     0.031 C 
ATOM     67  C   UNL A   1      40.087  31.372  34.206  1.00  0.00     0.037 A 
BRANCH  54  68
ATOM     68  C   UNL A   1      45.582  28.604  33.718  1.00  0.00     0.064 A 
ATOM     69  C   UNL A   1      46.684  29.468  33.766  1.00  0.00     0.173 A 
ATOM     70  C   UNL A   1      45.696  27.354  34.347  1.00  0.00     0.173 A 
ATOM     71  F   UNL A   1      46.632  30.663  33.161  1.00  0.00    -0.203 F 
ATOM     72  C   UNL A   1      47.859  29.089  34.412  1.00  0.00     0.198 A 
ATOM     73  C   UNL A   1      46.861  26.990  35.013  1.00  0.00     0.198 A 
ATOM     74  F   UNL A   1      44.669  26.491  34.326  1.00  0.00    -0.203 F 
ATOM     75  F   UNL A   1      48.915  29.915  34.417  1.00  0.00    -0.200 F 
ATOM     76  C   UNL A   1      47.943  27.855  35.042  1.00  0.00     0.200 A 
ATOM     77  F   UNL A   1      46.936  25.801  35.628  1.00  0.00    -0.200 F 
ATOM     78  F   UNL A   1      49.072  27.498  35.671  1.00  0.00    -0.200 F 
ENDBRANCH  54  68
BRANCH  55  79
ATOM     79  C   UNL A   1      37.074  30.872  28.979  1.00  0.00     0.064 A 
ATOM     80  C   UNL A   1      36.166  29.854  28.660  1.00  0.00     0.173 A 
ATOM     81  C   UNL A   1      36.743  32.184  28.607  1.00  0.00     0.173 A 
ATOM     82  F   UNL A   1      36.452  28.581  28.968  1.00  0.00    -0.203 F 
ATOM     83  C   UNL A   1      34.984  30.135  27.976  1.00  0.00     0.198 A 
ATOM     84  C   UNL A   1      35.547  32.467  27.951  1.00  0.00     0.198 A 
ATOM     85  F   UNL A   1      37.582  33.193  28.883  1.00  0.00    -0.203 F 
ATOM     86  F   UNL A   1      34.159  29.136  27.635  1.00  0.00    -0.200 F 
ATOM     87  C   UNL A   1      34.674  31.440  27.627  1.00  0.00     0.200 A 
ATOM     88  F   UNL A   1      35.248  33.731  27.624  1.00  0.00    -0.200 F 
ATOM     89  F   UNL A   1      33.539  31.708  26.966  1.00  0.00    -0.200 F 
ENDBRANCH  55  79
BRANCH  67  90
ATOM     90  C   UNL A   1      39.502  32.087  35.388  1.00  0.00     0.064 A 
ATOM     91  C   UNL A   1      39.707  33.459  35.593  1.00  0.00     0.173 A 
ATOM     92  C   UNL A   1      38.694  31.395  36.303  1.00  0.00     0.173 A 
ATOM     93  F   UNL A   1      40.485  34.158  34.753  1.00  0.00    -0.203 F 
ATOM     94  C   UNL A   1      39.142  34.108  36.687  1.00  0.00     0.198 A 
ATOM     95  C   UNL A   1      38.109  32.054  37.380  1.00  0.00     0.198 A 
ATOM     96  F   UNL A   1      38.465  30.083  36.145  1.00  0.00    -0.203 F 
ATOM     97  F   UNL A   1      39.386  35.410  36.890  1.00  0.00    -0.200 F 
ATOM     98  C   UNL A   1      38.338  33.407  37.575  1.00  0.00     0.200 A 
ATOM     99  F   UNL A   1      37.322  31.379  38.228  1.00  0.00    -0.200 F 
ATOM    100  F   UNL A   1      37.789  34.036  38.623  1.00  0.00    -0.200 F 
ENDBRANCH  67  90
ENDBRANCH  41  42
ENDBRANCH  34  36
ENDBRANCH  33  34
ENDBRANCH  32  33
ENDBRANCH  31  32
ENDBRANCH  30  31
ENDBRANCH  29  30
ENDBRANCH   1  29
TORSDOF 20
ENDMDL
