MODEL 1
REMARK VINA RESULT:     -11.6      0.000      0.000
REMARK SMILES CCc1cccc2c3c([nH]c12)[C@](CC)(CC(=O)OCCOCCOCCOC(=O)c1ccc(-c2c4nc(c(-c5c(F)c(F)c(F)c(F)c5F)c5ccc([nH]5)c(-c5c(F)c(F)c(F)c(F)c5F)c5nc(c(-c6c(F)c(F)c(F)c(F)c6F)c6ccc2[nH]6)C=C5)C=C4)cc1)OCC3
REMARK SMILES IDX 22 1 21 2 20 3 19 4 18 5 16 6 17 7 15 8 12 9 3 10 4 11 11 12
REMARK SMILES IDX 5 13 7 14 10 15 6 16 8 17 9 18 95 20 94 21 93 22 2 23 1 24
REMARK SMILES IDX 13 25 14 26 23 27 24 28 25 29 26 30 27 31 28 32 29 33 30 34
REMARK SMILES IDX 31 35 92 36 32 37 91 38 33 39 34 40 35 41 85 42 36 43 90 44
REMARK SMILES IDX 84 45 86 46 37 47 89 48 83 49 82 50 38 52 70 53 50 54 69 55
REMARK SMILES IDX 51 56 54 57 68 58 87 59 52 60 53 61 67 63 88 64 55 65 39 66
REMARK SMILES IDX 40 67 48 68 41 69 42 70 46 71 49 72 43 73 44 74 47 75 45 76
REMARK SMILES IDX 71 77 72 78 80 79 73 80 74 81 78 82 81 83 75 84 76 85 79 86
REMARK SMILES IDX 77 87 56 88 57 89 65 90 58 91 59 92 63 93 66 94 60 95 61 96
REMARK SMILES IDX 64 97 62 98
REMARK H PARENT 10 19 86 51 54 62
REMARK Flexibility Score: inf
ROOT
ATOM      1  C   UNL A   1      41.005  21.060  26.318  1.00  0.00     0.188 C 
ENDROOT
BRANCH   1   2
ATOM      2  O   UNL A   1      40.129  21.821  27.139  1.00  0.00    -0.376 OA
BRANCH   2   3
ATOM      3  C   UNL A   1      39.284  22.790  26.535  1.00  0.00     0.202 C 
BRANCH   3   4
ATOM      4  C   UNL A   1      38.055  22.255  25.784  1.00  0.00     0.261 C 
BRANCH   4   5
ATOM      5  O   UNL A   1      36.901  23.142  25.780  1.00  0.00    -0.463 OA
BRANCH   5   6
ATOM      6  C   UNL A   1      35.854  22.735  25.029  1.00  0.00     0.309 C 
ATOM      7  O   UNL A   1      35.860  21.652  24.450  1.00  0.00    -0.252 OA
BRANCH   6   8
ATOM      8  C   UNL A   1      34.782  23.758  24.705  1.00  0.00     0.164 C 
BRANCH   8   9
ATOM      9  C   UNL A   1      33.305  23.942  25.073  1.00  0.00     0.118 C 
ATOM     10  C   UNL A   1      31.933  28.796  25.884  1.00  0.00    -0.024 A 
ATOM     11  C   UNL A   1      31.211  29.701  25.078  1.00  0.00     0.006 A 
ATOM     12  C   UNL A   1      32.034  27.473  25.364  1.00  0.00     0.049 A 
ATOM     13  C   UNL A   1      30.608  29.321  23.881  1.00  0.00     0.001 A 
ATOM     14  C   UNL A   1      31.467  27.080  24.148  1.00  0.00     0.003 A 
ATOM     15  N   UNL A   1      32.703  26.358  25.847  1.00  0.00    -0.356 N 
ATOM     16  C   UNL A   1      30.713  28.011  23.415  1.00  0.00     0.010 A 
ATOM     17  C   UNL A   1      31.817  25.719  23.938  1.00  0.00    -0.014 A 
ATOM     18  C   UNL A   1      32.700  25.332  24.922  1.00  0.00     0.052 A 
ATOM     19  H   UNL A   1      33.126  26.305  26.734  1.00  0.00     0.166 HD
ATOM     20  C   UNL A   1      31.328  24.754  22.925  1.00  0.00     0.066 C 
ATOM     21  C   UNL A   1      32.124  23.443  23.003  1.00  0.00     0.166 C 
ATOM     22  O   UNL A   1      32.457  23.033  24.342  1.00  0.00    -0.368 OA
BRANCH  10  23
ATOM     23  C   UNL A   1      32.645  29.246  27.146  1.00  0.00     0.034 C 
ATOM     24  C   UNL A   1      34.128  28.898  27.281  1.00  0.00     0.009 C 
ENDBRANCH  10  23
BRANCH   9  25
ATOM     25  C   UNL A   1      33.184  23.562  26.602  1.00  0.00     0.039 C 
ATOM     26  C   UNL A   1      31.832  23.040  27.081  1.00  0.00     0.007 C 
ENDBRANCH   9  25
ENDBRANCH   8   9
ENDBRANCH   6   8
ENDBRANCH   5   6
ENDBRANCH   4   5
ENDBRANCH   3   4
ENDBRANCH   2   3
ENDBRANCH   1   2
BRANCH   1  27
ATOM     27  C   UNL A   1      40.685  19.576  26.066  1.00  0.00     0.188 C 
BRANCH  27  28
ATOM     28  O   UNL A   1      41.788  18.741  25.733  1.00  0.00    -0.376 OA
BRANCH  28  29
ATOM     29  C   UNL A   1      43.070  19.365  25.796  1.00  0.00     0.202 C 
BRANCH  29  30
ATOM     30  C   UNL A   1      44.150  18.722  24.907  1.00  0.00     0.261 C 
BRANCH  30  31
ATOM     31  O   UNL A   1      44.665  19.718  23.995  1.00  0.00    -0.460 OA
BRANCH  31  32
ATOM     32  C   UNL A   1      45.779  20.376  24.413  1.00  0.00     0.338 C 
ATOM     33  O   UNL A   1      46.924  20.085  24.167  1.00  0.00    -0.246 OA
BRANCH  32  34
ATOM     34  C   UNL A   1      45.329  21.714  24.894  1.00  0.00     0.060 A 
ATOM     35  C   UNL A   1      44.681  22.670  24.125  1.00  0.00     0.016 A 
ATOM     36  C   UNL A   1      45.710  22.042  26.193  1.00  0.00     0.016 A 
ATOM     37  C   UNL A   1      44.441  23.945  24.680  1.00  0.00     0.010 A 
ATOM     38  C   UNL A   1      45.495  23.309  26.740  1.00  0.00     0.010 A 
ATOM     39  C   UNL A   1      44.865  24.288  25.986  1.00  0.00    -0.014 A 
BRANCH  39  40
ATOM     40  C   UNL A   1      44.309  25.479  26.658  1.00  0.00     0.031 A 
ATOM     41  C   UNL A   1      45.196  26.646  26.492  1.00  0.00     0.074 A 
ATOM     42  C   UNL A   1      43.162  25.782  27.312  1.00  0.00     0.049 A 
ATOM     43  N   UNL A   1      45.989  27.082  27.408  1.00  0.00    -0.248 NA
ATOM     44  C   UNL A   1      45.270  27.356  25.217  1.00  0.00     0.031 C 
ATOM     45  C   UNL A   1      41.973  24.998  27.568  1.00  0.00     0.029 A 
ATOM     46  N   UNL A   1      42.837  26.974  27.927  1.00  0.00    -0.354 N 
ATOM     47  C   UNL A   1      46.574  28.220  26.898  1.00  0.00     0.074 A 
ATOM     48  C   UNL A   1      46.170  28.300  25.514  1.00  0.00     0.031 C 
ATOM     49  C   UNL A   1      40.977  25.751  28.076  1.00  0.00     0.029 A 
ATOM     50  C   UNL A   1      41.537  27.041  28.404  1.00  0.00     0.049 A 
ATOM     51  H   UNL A   1      43.477  27.716  28.019  1.00  0.00     0.167 HD
ATOM     52  C   UNL A   1      47.211  29.082  27.732  1.00  0.00     0.037 A 
ATOM     53  C   UNL A   1      40.962  27.975  29.196  1.00  0.00     0.037 A 
ATOM     54  C   UNL A   1      47.500  28.478  29.014  1.00  0.00     0.049 A 
ATOM     55  C   UNL A   1      42.049  28.539  30.026  1.00  0.00     0.074 A 
ATOM     56  C   UNL A   1      48.135  27.310  29.406  1.00  0.00     0.029 A 
ATOM     57  N   UNL A   1      46.789  28.876  30.121  1.00  0.00    -0.354 N 
ATOM     58  N   UNL A   1      42.659  27.889  30.980  1.00  0.00    -0.248 NA
ATOM     59  C   UNL A   1      42.709  29.751  29.571  1.00  0.00     0.031 C 
ATOM     60  C   UNL A   1      47.368  26.816  30.505  1.00  0.00     0.029 A 
ATOM     61  C   UNL A   1      46.341  27.731  30.734  1.00  0.00     0.049 A 
ATOM     62  H   UNL A   1      46.633  29.803  30.417  1.00  0.00     0.167 HD
ATOM     63  C   UNL A   1      43.961  28.360  30.941  1.00  0.00     0.074 A 
ATOM     64  C   UNL A   1      43.894  29.589  30.160  1.00  0.00     0.031 C 
ATOM     65  C   UNL A   1      45.021  27.580  31.306  1.00  0.00     0.037 A 
BRANCH  52  66
ATOM     66  C   UNL A   1      47.331  30.550  27.470  1.00  0.00     0.064 A 
ATOM     67  C   UNL A   1      46.174  31.298  27.192  1.00  0.00     0.173 A 
ATOM     68  C   UNL A   1      48.561  31.200  27.241  1.00  0.00     0.173 A 
ATOM     69  F   UNL A   1      44.957  30.751  27.328  1.00  0.00    -0.203 F 
ATOM     70  C   UNL A   1      46.245  32.597  26.690  1.00  0.00     0.198 A 
ATOM     71  C   UNL A   1      48.628  32.517  26.795  1.00  0.00     0.198 A 
ATOM     72  F   UNL A   1      49.730  30.553  27.341  1.00  0.00    -0.203 F 
ATOM     73  F   UNL A   1      45.121  33.236  26.339  1.00  0.00    -0.200 F 
ATOM     74  C   UNL A   1      47.472  33.208  26.497  1.00  0.00     0.200 A 
ATOM     75  F   UNL A   1      49.826  33.083  26.588  1.00  0.00    -0.200 F 
ATOM     76  F   UNL A   1      47.543  34.441  25.978  1.00  0.00    -0.200 F 
ENDBRANCH  52  66
BRANCH  53  77
ATOM     77  C   UNL A   1      39.541  28.377  29.299  1.00  0.00     0.064 A 
ATOM     78  C   UNL A   1      38.851  28.338  30.522  1.00  0.00     0.173 A 
ATOM     79  C   UNL A   1      38.899  29.055  28.243  1.00  0.00     0.173 A 
ATOM     80  F   UNL A   1      39.403  27.752  31.595  1.00  0.00    -0.203 F 
ATOM     81  C   UNL A   1      37.612  28.966  30.687  1.00  0.00     0.198 A 
ATOM     82  C   UNL A   1      37.657  29.672  28.407  1.00  0.00     0.198 A 
ATOM     83  F   UNL A   1      39.500  29.205  27.053  1.00  0.00    -0.203 F 
ATOM     84  F   UNL A   1      37.019  28.963  31.889  1.00  0.00    -0.200 F 
ATOM     85  C   UNL A   1      37.021  29.641  29.633  1.00  0.00     0.200 A 
ATOM     86  F   UNL A   1      37.109  30.347  27.386  1.00  0.00    -0.200 F 
ATOM     87  F   UNL A   1      35.864  30.294  29.809  1.00  0.00    -0.200 F 
ENDBRANCH  53  77
BRANCH  65  88
ATOM     88  C   UNL A   1      44.769  26.324  32.099  1.00  0.00     0.064 A 
ATOM     89  C   UNL A   1      44.607  26.283  33.494  1.00  0.00     0.173 A 
ATOM     90  C   UNL A   1      44.513  25.138  31.390  1.00  0.00     0.173 A 
ATOM     91  F   UNL A   1      44.747  27.387  34.239  1.00  0.00    -0.203 F 
ATOM     92  C   UNL A   1      44.234  25.105  34.146  1.00  0.00     0.198 A 
ATOM     93  C   UNL A   1      44.107  23.974  32.039  1.00  0.00     0.198 A 
ATOM     94  F   UNL A   1      44.608  25.122  30.051  1.00  0.00    -0.203 F 
ATOM     95  F   UNL A   1      44.093  25.090  35.480  1.00  0.00    -0.200 F 
ATOM     96  C   UNL A   1      43.973  23.957  33.418  1.00  0.00     0.200 A 
ATOM     97  F   UNL A   1      43.817  22.878  31.325  1.00  0.00    -0.200 F 
ATOM     98  F   UNL A   1      43.569  22.840  34.039  1.00  0.00    -0.200 F 
ENDBRANCH  65  88
ENDBRANCH  39  40
ENDBRANCH  32  34
ENDBRANCH  31  32
ENDBRANCH  30  31
ENDBRANCH  29  30
ENDBRANCH  28  29
ENDBRANCH  27  28
ENDBRANCH   1  27
TORSDOF 20
ENDMDL
MODEL 2
REMARK VINA RESULT:     -11.6      1.943      6.295
REMARK SMILES CCc1cccc2c3c([nH]c12)[C@](CC)(CC(=O)OCCOCCOCCOC(=O)c1ccc(-c2c4nc(c(-c5c(F)c(F)c(F)c(F)c5F)c5ccc([nH]5)c(-c5c(F)c(F)c(F)c(F)c5F)c5nc(c(-c6c(F)c(F)c(F)c(F)c6F)c6ccc2[nH]6)C=C5)C=C4)cc1)OCC3
REMARK SMILES IDX 22 1 21 2 20 3 19 4 18 5 16 6 17 7 15 8 12 9 3 10 4 11 11 12
REMARK SMILES IDX 5 13 7 14 10 15 6 16 8 17 9 18 95 20 94 21 93 22 2 23 1 24
REMARK SMILES IDX 13 25 14 26 23 27 24 28 25 29 26 30 27 31 28 32 29 33 30 34
REMARK SMILES IDX 31 35 92 36 32 37 91 38 33 39 34 40 35 41 85 42 36 43 90 44
REMARK SMILES IDX 84 45 86 46 37 47 89 48 83 49 82 50 38 52 70 53 50 54 69 55
REMARK SMILES IDX 51 56 54 57 68 58 87 59 52 60 53 61 67 63 88 64 55 65 39 66
REMARK SMILES IDX 40 67 48 68 41 69 42 70 46 71 49 72 43 73 44 74 47 75 45 76
REMARK SMILES IDX 71 77 72 78 80 79 73 80 74 81 78 82 81 83 75 84 76 85 79 86
REMARK SMILES IDX 77 87 56 88 57 89 65 90 58 91 59 92 63 93 66 94 60 95 61 96
REMARK SMILES IDX 64 97 62 98
REMARK H PARENT 10 19 86 51 54 62
REMARK Flexibility Score: inf
ROOT
ATOM      1  C   UNL A   1      41.596  20.558  27.108  1.00  0.00     0.188 C 
ENDROOT
BRANCH   1   2
ATOM      2  O   UNL A   1      40.256  21.024  27.212  1.00  0.00    -0.376 OA
BRANCH   2   3
ATOM      3  C   UNL A   1      39.708  21.791  26.150  1.00  0.00     0.202 C 
BRANCH   3   4
ATOM      4  C   UNL A   1      38.328  21.356  25.631  1.00  0.00     0.261 C 
BRANCH   4   5
ATOM      5  O   UNL A   1      37.594  22.379  24.902  1.00  0.00    -0.463 OA
BRANCH   5   6
ATOM      6  C   UNL A   1      36.837  23.206  25.657  1.00  0.00     0.309 C 
ATOM      7  O   UNL A   1      37.330  24.149  26.269  1.00  0.00    -0.252 OA
BRANCH   6   8
ATOM      8  C   UNL A   1      35.407  22.787  25.939  1.00  0.00     0.164 C 
BRANCH   8   9
ATOM      9  C   UNL A   1      34.021  23.291  25.521  1.00  0.00     0.118 C 
ATOM     10  C   UNL A   1      33.552  28.378  25.521  1.00  0.00    -0.024 A 
ATOM     11  C   UNL A   1      33.534  29.306  24.458  1.00  0.00     0.006 A 
ATOM     12  C   UNL A   1      33.593  27.010  25.125  1.00  0.00     0.049 A 
ATOM     13  C   UNL A   1      33.519  28.915  23.122  1.00  0.00     0.001 A 
ATOM     14  C   UNL A   1      33.615  26.596  23.791  1.00  0.00     0.003 A 
ATOM     15  N   UNL A   1      33.676  25.851  25.882  1.00  0.00    -0.356 N 
ATOM     16  C   UNL A   1      33.541  27.564  22.775  1.00  0.00     0.010 A 
ATOM     17  C   UNL A   1      33.709  25.178  23.788  1.00  0.00    -0.014 A 
ATOM     18  C   UNL A   1      33.892  24.745  25.083  1.00  0.00     0.052 A 
ATOM     19  H   UNL A   1      33.592  25.819  26.863  1.00  0.00     0.166 HD
ATOM     20  C   UNL A   1      33.571  24.215  22.670  1.00  0.00     0.066 C 
ATOM     21  C   UNL A   1      33.914  22.794  23.140  1.00  0.00     0.166 C 
ATOM     22  O   UNL A   1      33.455  22.483  24.469  1.00  0.00    -0.368 OA
BRANCH  10  23
ATOM     23  C   UNL A   1      33.642  28.826  26.968  1.00  0.00     0.034 C 
ATOM     24  C   UNL A   1      33.100  30.215  27.311  1.00  0.00     0.009 C 
ENDBRANCH  10  23
BRANCH   9  25
ATOM     25  C   UNL A   1      33.092  23.119  26.788  1.00  0.00     0.039 C 
ATOM     26  C   UNL A   1      33.603  22.209  27.902  1.00  0.00     0.007 C 
ENDBRANCH   9  25
ENDBRANCH   8   9
ENDBRANCH   6   8
ENDBRANCH   5   6
ENDBRANCH   4   5
ENDBRANCH   3   4
ENDBRANCH   2   3
ENDBRANCH   1   2
BRANCH   1  27
ATOM     27  C   UNL A   1      41.878  19.281  26.298  1.00  0.00     0.188 C 
BRANCH  27  28
ATOM     28  O   UNL A   1      42.620  19.448  25.096  1.00  0.00    -0.376 OA
BRANCH  28  29
ATOM     29  C   UNL A   1      43.918  18.856  25.089  1.00  0.00     0.202 C 
BRANCH  29  30
ATOM     30  C   UNL A   1      44.901  19.458  24.069  1.00  0.00     0.261 C 
BRANCH  30  31
ATOM     31  O   UNL A   1      45.404  20.712  24.581  1.00  0.00    -0.460 OA
BRANCH  31  32
ATOM     32  C   UNL A   1      44.876  21.829  24.015  1.00  0.00     0.338 C 
ATOM     33  O   UNL A   1      44.446  21.936  22.892  1.00  0.00    -0.246 OA
BRANCH  32  34
ATOM     34  C   UNL A   1      44.571  22.771  25.130  1.00  0.00     0.060 A 
ATOM     35  C   UNL A   1      44.381  24.140  25.000  1.00  0.00     0.016 A 
ATOM     36  C   UNL A   1      44.600  22.215  26.407  1.00  0.00     0.016 A 
ATOM     37  C   UNL A   1      44.236  24.923  26.164  1.00  0.00     0.010 A 
ATOM     38  C   UNL A   1      44.480  22.989  27.564  1.00  0.00     0.010 A 
ATOM     39  C   UNL A   1      44.307  24.361  27.461  1.00  0.00    -0.014 A 
BRANCH  39  40
ATOM     40  C   UNL A   1      43.816  25.121  28.628  1.00  0.00     0.031 A 
ATOM     41  C   UNL A   1      42.504  25.734  28.350  1.00  0.00     0.074 A 
ATOM     42  C   UNL A   1      44.231  25.327  29.901  1.00  0.00     0.049 A 
ATOM     43  N   UNL A   1      42.336  26.977  28.064  1.00  0.00    -0.248 NA
ATOM     44  C   UNL A   1      41.288  24.921  28.325  1.00  0.00     0.031 C 
ATOM     45  C   UNL A   1      45.365  24.803  30.631  1.00  0.00     0.029 A 
ATOM     46  N   UNL A   1      43.642  26.130  30.855  1.00  0.00    -0.354 N 
ATOM     47  C   UNL A   1      40.976  27.168  27.959  1.00  0.00     0.074 A 
ATOM     48  C   UNL A   1      40.375  25.856  28.038  1.00  0.00     0.031 C 
ATOM     49  C   UNL A   1      45.293  25.098  31.945  1.00  0.00     0.029 A 
ATOM     50  C   UNL A   1      44.214  26.044  32.115  1.00  0.00     0.049 A 
ATOM     51  H   UNL A   1      42.878  26.718  30.657  1.00  0.00     0.167 HD
ATOM     52  C   UNL A   1      40.467  28.426  27.981  1.00  0.00     0.037 A 
ATOM     53  C   UNL A   1      43.999  26.810  33.209  1.00  0.00     0.037 A 
ATOM     54  C   UNL A   1      41.486  29.424  27.743  1.00  0.00     0.049 A 
ATOM     55  C   UNL A   1      43.595  28.142  32.707  1.00  0.00     0.074 A 
ATOM     56  C   UNL A   1      42.440  29.608  26.753  1.00  0.00     0.029 A 
ATOM     57  N   UNL A   1      41.904  30.221  28.782  1.00  0.00    -0.354 N 
ATOM     58  N   UNL A   1      44.397  28.972  32.098  1.00  0.00    -0.248 NA
ATOM     59  C   UNL A   1      42.178  28.433  32.583  1.00  0.00     0.031 C 
ATOM     60  C   UNL A   1      43.606  30.070  27.437  1.00  0.00     0.029 A 
ATOM     61  C   UNL A   1      43.277  30.171  28.788  1.00  0.00     0.049 A 
ATOM     62  H   UNL A   1      41.330  30.729  29.400  1.00  0.00     0.167 HD
ATOM     63  C   UNL A   1      43.590  29.618  31.176  1.00  0.00     0.074 A 
ATOM     64  C   UNL A   1      42.227  29.349  31.616  1.00  0.00     0.031 C 
ATOM     65  C   UNL A   1      44.081  30.082  29.989  1.00  0.00     0.037 A 
BRANCH  52  66
ATOM     66  C   UNL A   1      39.097  28.755  28.482  1.00  0.00     0.064 A 
ATOM     67  C   UNL A   1      38.237  29.531  27.685  1.00  0.00     0.173 A 
ATOM     68  C   UNL A   1      38.686  28.545  29.814  1.00  0.00     0.173 A 
ATOM     69  F   UNL A   1      38.565  29.830  26.419  1.00  0.00    -0.203 F 
ATOM     70  C   UNL A   1      37.063  30.083  28.196  1.00  0.00     0.198 A 
ATOM     71  C   UNL A   1      37.485  29.049  30.305  1.00  0.00     0.198 A 
ATOM     72  F   UNL A   1      39.477  27.937  30.710  1.00  0.00    -0.203 F 
ATOM     73  F   UNL A   1      36.328  30.902  27.432  1.00  0.00    -0.200 F 
ATOM     74  C   UNL A   1      36.684  29.837  29.504  1.00  0.00     0.200 A 
ATOM     75  F   UNL A   1      37.146  28.823  31.583  1.00  0.00    -0.200 F 
ATOM     76  F   UNL A   1      35.578  30.399  30.007  1.00  0.00    -0.200 F 
ENDBRANCH  52  66
BRANCH  53  77
ATOM     77  C   UNL A   1      44.154  26.471  34.642  1.00  0.00     0.064 A 
ATOM     78  C   UNL A   1      43.082  25.972  35.401  1.00  0.00     0.173 A 
ATOM     79  C   UNL A   1      45.429  26.387  35.236  1.00  0.00     0.173 A 
ATOM     80  F   UNL A   1      41.838  25.972  34.900  1.00  0.00    -0.203 F 
ATOM     81  C   UNL A   1      43.278  25.397  36.660  1.00  0.00     0.198 A 
ATOM     82  C   UNL A   1      45.622  25.821  36.497  1.00  0.00     0.198 A 
ATOM     83  F   UNL A   1      46.527  26.776  34.569  1.00  0.00    -0.203 F 
ATOM     84  F   UNL A   1      42.238  24.872  37.323  1.00  0.00    -0.200 F 
ATOM     85  C   UNL A   1      44.549  25.311  37.203  1.00  0.00     0.200 A 
ATOM     86  F   UNL A   1      46.862  25.720  36.999  1.00  0.00    -0.200 F 
ATOM     87  F   UNL A   1      44.745  24.705  38.382  1.00  0.00    -0.200 F 
ENDBRANCH  53  77
BRANCH  65  88
ATOM     88  C   UNL A   1      45.570  30.225  29.816  1.00  0.00     0.064 A 
ATOM     89  C   UNL A   1      46.432  29.178  29.444  1.00  0.00     0.173 A 
ATOM     90  C   UNL A   1      46.119  31.517  29.866  1.00  0.00     0.173 A 
ATOM     91  F   UNL A   1      45.975  27.929  29.288  1.00  0.00    -0.203 F 
ATOM     92  C   UNL A   1      47.779  29.415  29.163  1.00  0.00     0.198 A 
ATOM     93  C   UNL A   1      47.454  31.755  29.551  1.00  0.00     0.198 A 
ATOM     94  F   UNL A   1      45.338  32.566  30.173  1.00  0.00    -0.203 F 
ATOM     95  F   UNL A   1      48.583  28.398  28.817  1.00  0.00    -0.200 F 
ATOM     96  C   UNL A   1      48.286  30.703  29.205  1.00  0.00     0.200 A 
ATOM     97  F   UNL A   1      47.928  33.009  29.555  1.00  0.00    -0.200 F 
ATOM     98  F   UNL A   1      49.568  30.936  28.890  1.00  0.00    -0.200 F 
ENDBRANCH  65  88
ENDBRANCH  39  40
ENDBRANCH  32  34
ENDBRANCH  31  32
ENDBRANCH  30  31
ENDBRANCH  29  30
ENDBRANCH  28  29
ENDBRANCH  27  28
ENDBRANCH   1  27
TORSDOF 20
ENDMDL
MODEL 3
REMARK VINA RESULT:     -11.0      3.404      9.489
REMARK SMILES CCc1cccc2c3c([nH]c12)[C@](CC)(CC(=O)OCCOCCOCCOC(=O)c1ccc(-c2c4nc(c(-c5c(F)c(F)c(F)c(F)c5F)c5ccc([nH]5)c(-c5c(F)c(F)c(F)c(F)c5F)c5nc(c(-c6c(F)c(F)c(F)c(F)c6F)c6ccc2[nH]6)C=C5)C=C4)cc1)OCC3
REMARK SMILES IDX 22 1 21 2 20 3 19 4 18 5 16 6 17 7 15 8 12 9 3 10 4 11 11 12
REMARK SMILES IDX 5 13 7 14 10 15 6 16 8 17 9 18 95 20 94 21 93 22 2 23 1 24
REMARK SMILES IDX 13 25 14 26 23 27 24 28 25 29 26 30 27 31 28 32 29 33 30 34
REMARK SMILES IDX 31 35 92 36 32 37 91 38 33 39 34 40 35 41 85 42 36 43 90 44
REMARK SMILES IDX 84 45 86 46 37 47 89 48 83 49 82 50 38 52 70 53 50 54 69 55
REMARK SMILES IDX 51 56 54 57 68 58 87 59 52 60 53 61 67 63 88 64 55 65 39 66
REMARK SMILES IDX 40 67 48 68 41 69 42 70 46 71 49 72 43 73 44 74 47 75 45 76
REMARK SMILES IDX 71 77 72 78 80 79 73 80 74 81 78 82 81 83 75 84 76 85 79 86
REMARK SMILES IDX 77 87 56 88 57 89 65 90 58 91 59 92 63 93 66 94 60 95 61 96
REMARK SMILES IDX 64 97 62 98
REMARK H PARENT 10 19 86 51 54 62
REMARK Flexibility Score: inf
ROOT
ATOM      1  C   UNL A   1      31.862  29.293  24.614  1.00  0.00     0.188 C 
ENDROOT
BRANCH   1   2
ATOM      2  O   UNL A   1      30.650  29.154  23.883  1.00  0.00    -0.376 OA
BRANCH   2   3
ATOM      3  C   UNL A   1      30.644  28.366  22.702  1.00  0.00     0.202 C 
BRANCH   3   4
ATOM      4  C   UNL A   1      30.839  26.853  22.885  1.00  0.00     0.261 C 
BRANCH   4   5
ATOM      5  O   UNL A   1      31.525  26.183  21.790  1.00  0.00    -0.463 OA
BRANCH   5   6
ATOM      6  C   UNL A   1      32.409  25.228  22.153  1.00  0.00     0.309 C 
ATOM      7  O   UNL A   1      33.473  25.076  21.559  1.00  0.00    -0.252 OA
BRANCH   6   8
ATOM      8  C   UNL A   1      31.942  24.178  23.143  1.00  0.00     0.164 C 
BRANCH   8   9
ATOM      9  C   UNL A   1      32.397  23.709  24.530  1.00  0.00     0.118 C 
ATOM     10  C   UNL A   1      34.637  19.118  24.561  1.00  0.00    -0.024 A 
ATOM     11  C   UNL A   1      35.995  18.750  24.666  1.00  0.00     0.006 A 
ATOM     12  C   UNL A   1      34.377  20.511  24.698  1.00  0.00     0.049 A 
ATOM     13  C   UNL A   1      37.003  19.676  24.924  1.00  0.00     0.001 A 
ATOM     14  C   UNL A   1      35.377  21.462  24.920  1.00  0.00     0.003 A 
ATOM     15  N   UNL A   1      33.192  21.226  24.596  1.00  0.00    -0.356 N 
ATOM     16  C   UNL A   1      36.706  21.031  25.071  1.00  0.00     0.010 A 
ATOM     17  C   UNL A   1      34.751  22.737  24.949  1.00  0.00    -0.014 A 
ATOM     18  C   UNL A   1      33.426  22.588  24.602  1.00  0.00     0.052 A 
ATOM     19  H   UNL A   1      32.299  20.816  24.528  1.00  0.00     0.166 HD
ATOM     20  C   UNL A   1      35.296  24.059  25.341  1.00  0.00     0.066 C 
ATOM     21  C   UNL A   1      34.275  25.168  25.051  1.00  0.00     0.166 C 
ATOM     22  O   UNL A   1      32.909  24.801  25.321  1.00  0.00    -0.368 OA
BRANCH  10  23
ATOM     23  C   UNL A   1      33.564  18.105  24.207  1.00  0.00     0.034 C 
ATOM     24  C   UNL A   1      33.967  16.937  23.306  1.00  0.00     0.009 C 
ENDBRANCH  10  23
BRANCH   9  25
ATOM     25  C   UNL A   1      31.101  23.177  25.260  1.00  0.00     0.039 C 
ATOM     26  C   UNL A   1      30.539  24.037  26.389  1.00  0.00     0.007 C 
ENDBRANCH   9  25
ENDBRANCH   8   9
ENDBRANCH   6   8
ENDBRANCH   5   6
ENDBRANCH   4   5
ENDBRANCH   3   4
ENDBRANCH   2   3
ENDBRANCH   1   2
BRANCH   1  27
ATOM     27  C   UNL A   1      31.797  29.753  26.081  1.00  0.00     0.188 C 
BRANCH  27  28
ATOM     28  O   UNL A   1      31.401  31.102  26.301  1.00  0.00    -0.376 OA
BRANCH  28  29
ATOM     29  C   UNL A   1      32.378  31.934  26.924  1.00  0.00     0.202 C 
BRANCH  29  30
ATOM     30  C   UNL A   1      33.568  31.184  27.548  1.00  0.00     0.261 C 
BRANCH  30  31
ATOM     31  O   UNL A   1      34.707  32.072  27.611  1.00  0.00    -0.460 OA
BRANCH  31  32
ATOM     32  C   UNL A   1      35.214  32.287  28.853  1.00  0.00     0.338 C 
ATOM     33  O   UNL A   1      34.628  32.743  29.804  1.00  0.00    -0.246 OA
BRANCH  32  34
ATOM     34  C   UNL A   1      36.486  31.511  28.935  1.00  0.00     0.060 A 
ATOM     35  C   UNL A   1      37.632  31.912  29.607  1.00  0.00     0.016 A 
ATOM     36  C   UNL A   1      36.527  30.348  28.170  1.00  0.00     0.016 A 
ATOM     37  C   UNL A   1      38.804  31.137  29.481  1.00  0.00     0.010 A 
ATOM     38  C   UNL A   1      37.691  29.589  28.024  1.00  0.00     0.010 A 
ATOM     39  C   UNL A   1      38.854  29.978  28.670  1.00  0.00    -0.014 A 
BRANCH  39  40
ATOM     40  C   UNL A   1      39.959  29.011  28.825  1.00  0.00     0.031 A 
ATOM     41  C   UNL A   1      40.211  28.715  30.248  1.00  0.00     0.074 A 
ATOM     42  C   UNL A   1      40.734  28.277  27.992  1.00  0.00     0.049 A 
ATOM     43  N   UNL A   1      41.184  29.216  30.925  1.00  0.00    -0.248 NA
ATOM     44  C   UNL A   1      39.305  27.854  31.007  1.00  0.00     0.031 C 
ATOM     45  C   UNL A   1      40.727  28.143  26.551  1.00  0.00     0.029 A 
ATOM     46  N   UNL A   1      41.775  27.439  28.336  1.00  0.00    -0.354 N 
ATOM     47  C   UNL A   1      41.123  28.635  32.173  1.00  0.00     0.074 A 
ATOM     48  C   UNL A   1      39.897  27.872  32.205  1.00  0.00     0.031 C 
ATOM     49  C   UNL A   1      41.533  27.145  26.138  1.00  0.00     0.029 A 
ATOM     50  C   UNL A   1      42.305  26.713  27.280  1.00  0.00     0.049 A 
ATOM     51  H   UNL A   1      42.114  27.363  29.257  1.00  0.00     0.167 HD
ATOM     52  C   UNL A   1      42.192  28.714  33.006  1.00  0.00     0.037 A 
ATOM     53  C   UNL A   1      43.422  25.951  27.239  1.00  0.00     0.037 A 
ATOM     54  C   UNL A   1      43.128  29.735  32.588  1.00  0.00     0.049 A 
ATOM     55  C   UNL A   1      44.351  26.525  28.237  1.00  0.00     0.074 A 
ATOM     56  C   UNL A   1      43.008  31.082  32.282  1.00  0.00     0.029 A 
ATOM     57  N   UNL A   1      44.336  29.361  32.051  1.00  0.00    -0.354 N 
ATOM     58  N   UNL A   1      44.950  27.677  28.107  1.00  0.00    -0.248 NA
ATOM     59  C   UNL A   1      44.365  25.958  29.574  1.00  0.00     0.031 C 
ATOM     60  C   UNL A   1      43.870  31.290  31.162  1.00  0.00     0.029 A 
ATOM     61  C   UNL A   1      44.483  30.069  30.882  1.00  0.00     0.049 A 
ATOM     62  H   UNL A   1      44.972  28.713  32.431  1.00  0.00     0.167 HD
ATOM     63  C   UNL A   1      45.031  28.172  29.398  1.00  0.00     0.074 A 
ATOM     64  C   UNL A   1      44.787  27.021  30.258  1.00  0.00     0.031 C 
ATOM     65  C   UNL A   1      45.017  29.513  29.658  1.00  0.00     0.037 A 
BRANCH  52  66
ATOM     66  C   UNL A   1      42.509  27.685  34.044  1.00  0.00     0.064 A 
ATOM     67  C   UNL A   1      43.188  26.513  33.671  1.00  0.00     0.173 A 
ATOM     68  C   UNL A   1      41.956  27.696  35.342  1.00  0.00     0.173 A 
ATOM     69  F   UNL A   1      43.704  26.386  32.439  1.00  0.00    -0.203 F 
ATOM     70  C   UNL A   1      43.281  25.416  34.526  1.00  0.00     0.198 A 
ATOM     71  C   UNL A   1      42.100  26.620  36.214  1.00  0.00     0.198 A 
ATOM     72  F   UNL A   1      41.174  28.697  35.768  1.00  0.00    -0.203 F 
ATOM     73  F   UNL A   1      43.845  24.281  34.091  1.00  0.00    -0.200 F 
ATOM     74  C   UNL A   1      42.742  25.472  35.799  1.00  0.00     0.200 A 
ATOM     75  F   UNL A   1      41.548  26.682  37.435  1.00  0.00    -0.200 F 
ATOM     76  F   UNL A   1      42.796  24.405  36.607  1.00  0.00    -0.200 F 
ENDBRANCH  52  66
BRANCH  53  77
ATOM     77  C   UNL A   1      43.741  24.793  26.373  1.00  0.00     0.064 A 
ATOM     78  C   UNL A   1      44.807  24.829  25.458  1.00  0.00     0.173 A 
ATOM     79  C   UNL A   1      43.164  23.529  26.607  1.00  0.00     0.173 A 
ATOM     80  F   UNL A   1      45.445  25.980  25.204  1.00  0.00    -0.203 F 
ATOM     81  C   UNL A   1      45.285  23.668  24.841  1.00  0.00     0.198 A 
ATOM     82  C   UNL A   1      43.636  22.373  25.983  1.00  0.00     0.198 A 
ATOM     83  F   UNL A   1      42.183  23.376  27.510  1.00  0.00    -0.203 F 
ATOM     84  F   UNL A   1      46.347  23.736  24.027  1.00  0.00    -0.200 F 
ATOM     85  C   UNL A   1      44.707  22.440  25.113  1.00  0.00     0.200 A 
ATOM     86  F   UNL A   1      43.085  21.186  26.276  1.00  0.00    -0.200 F 
ATOM     87  F   UNL A   1      45.205  21.321  24.569  1.00  0.00    -0.200 F 
ENDBRANCH  53  77
BRANCH  65  88
ATOM     88  C   UNL A   1      45.277  30.481  28.534  1.00  0.00     0.064 A 
ATOM     89  C   UNL A   1      44.305  30.917  27.618  1.00  0.00     0.173 A 
ATOM     90  C   UNL A   1      46.527  31.122  28.492  1.00  0.00     0.173 A 
ATOM     91  F   UNL A   1      43.061  30.421  27.643  1.00  0.00    -0.203 F 
ATOM     92  C   UNL A   1      44.582  31.924  26.691  1.00  0.00     0.198 A 
ATOM     93  C   UNL A   1      46.790  32.150  27.590  1.00  0.00     0.198 A 
ATOM     94  F   UNL A   1      47.486  30.781  29.369  1.00  0.00    -0.203 F 
ATOM     95  F   UNL A   1      43.638  32.317  25.822  1.00  0.00    -0.200 F 
ATOM     96  C   UNL A   1      45.818  32.547  26.686  1.00  0.00     0.200 A 
ATOM     97  F   UNL A   1      47.974  32.776  27.617  1.00  0.00    -0.200 F 
ATOM     98  F   UNL A   1      46.069  33.545  25.827  1.00  0.00    -0.200 F 
ENDBRANCH  65  88
ENDBRANCH  39  40
ENDBRANCH  32  34
ENDBRANCH  31  32
ENDBRANCH  30  31
ENDBRANCH  29  30
ENDBRANCH  28  29
ENDBRANCH  27  28
ENDBRANCH   1  27
TORSDOF 20
ENDMDL
