MODEL 1
REMARK VINA RESULT:     -10.9      0.000      0.000
REMARK SMILES COc1cccc(C(=O)N2CCC(C(=O)N3CC[N@H+](C)[C@@H](C(=O)OCCOCCOCCOC(=O)c4ccc(-c5c6nc(c(-c7c(F)c(F)c(F)c(F)c7F)c7ccc([nH]7)c(-c7c(F)c(F)c(F)c(F)c7F)c7nc(c(-c8c(F)c(F)c(F)c(F)c8F)c8ccc5[nH]8)C=C7)C=C6)cc4)C3)CC2)c1
REMARK SMILES IDX 28 1 27 2 26 3 25 4 24 5 22 6 23 7 21 8 16 9 17 10 99 11
REMARK SMILES IDX 18 12 19 13 20 14 14 16 15 17 13 18 8 19 9 20 10 21 11 22
REMARK SMILES IDX 101 23 12 24 100 25 7 26 3 27 4 28 102 29 5 30 6 31 2 32
REMARK SMILES IDX 1 33 29 34 30 35 31 36 32 37 33 38 34 39 35 40 36 41 37 42
REMARK SMILES IDX 98 43 38 44 97 45 39 46 40 47 41 48 91 49 42 50 96 51 90 52
REMARK SMILES IDX 92 53 43 54 95 55 89 56 88 57 44 59 76 60 56 61 75 62 57 63
REMARK SMILES IDX 60 64 74 65 93 66 58 67 59 68 73 70 94 71 61 72 45 73 46 74
REMARK SMILES IDX 54 75 47 76 48 77 52 78 55 79 49 80 50 81 53 82 51 83 77 84
REMARK SMILES IDX 78 85 86 86 79 87 80 88 84 89 87 90 81 91 82 92 85 93 83 94
REMARK SMILES IDX 62 95 63 96 71 97 64 98 65 99 69 100 72 101 66 102 67 103
REMARK SMILES IDX 70 104 68 105
REMARK H PARENT 19 15 92 58 60 69
REMARK Flexibility Score: inf
ROOT
ATOM      1  C   UNL A   1      35.811  20.951  24.934  1.00  0.00     0.188 C 
ENDROOT
BRANCH   1   2
ATOM      2  O   UNL A   1      36.296  22.146  24.337  1.00  0.00    -0.376 OA
BRANCH   2   3
ATOM      3  C   UNL A   1      36.233  23.363  25.056  1.00  0.00     0.202 C 
BRANCH   3   4
ATOM      4  C   UNL A   1      35.386  23.320  26.340  1.00  0.00     0.261 C 
BRANCH   4   5
ATOM      5  O   UNL A   1      34.177  24.113  26.349  1.00  0.00    -0.459 OA
BRANCH   5   6
ATOM      6  C   UNL A   1      33.039  23.448  26.003  1.00  0.00     0.366 C 
ATOM      7  O   UNL A   1      32.875  22.243  26.184  1.00  0.00    -0.245 OA
BRANCH   6   8
ATOM      8  C   UNL A   1      31.966  24.309  25.273  1.00  0.00     0.314 C 
ATOM      9  N   UNL A   1      32.557  26.743  24.556  1.00  0.00    -0.330 N 
ATOM     10  C   UNL A   1      32.764  26.213  23.204  1.00  0.00     0.181 C 
ATOM     11  C   UNL A   1      31.834  25.859  25.486  1.00  0.00     0.197 C 
ATOM     12  C   UNL A   1      32.966  24.693  23.114  1.00  0.00     0.284 C 
ATOM     13  N   UNL A   1      31.983  23.887  23.852  1.00  0.00    -0.323 N 
ATOM     14  C   UNL A   1      30.652  23.911  23.258  1.00  0.00     0.333 C 
ATOM     15  H   UNL A   1      32.276  22.911  23.795  1.00  0.00     0.348 HD
BRANCH   9  16
ATOM     16  C   UNL A   1      32.604  28.147  24.649  1.00  0.00     0.226 C 
ATOM     17  O   UNL A   1      32.665  28.829  23.619  1.00  0.00    -0.275 OA
BRANCH  16  18
ATOM     18  C   UNL A   1      32.667  28.854  26.022  1.00  0.00     0.082 C 
ATOM     19  C   UNL A   1      34.546  32.282  27.819  1.00  0.00     0.253 C 
ATOM     20  O   UNL A   1      35.732  32.335  27.483  1.00  0.00    -0.269 OA
ATOM     21  N   UNL A   1      33.758  31.176  27.502  1.00  0.00    -0.339 N 
ATOM     22  C   UNL A   1      34.396  29.880  27.579  1.00  0.00     0.120 C 
ATOM     23  C   UNL A   1      32.330  31.156  27.201  1.00  0.00     0.120 C 
ATOM     24  C   UNL A   1      34.144  28.995  26.377  1.00  0.00     0.035 C 
ATOM     25  C   UNL A   1      32.031  30.274  25.971  1.00  0.00     0.035 C 
BRANCH  19  26
ATOM     26  C   UNL A   1      34.055  33.356  28.738  1.00  0.00     0.043 A 
ATOM     27  C   UNL A   1      34.154  34.588  30.829  1.00  0.00     0.119 A 
ATOM     28  C   UNL A   1      33.388  35.612  30.268  1.00  0.00     0.046 A 
ATOM     29  C   UNL A   1      34.490  33.464  30.066  1.00  0.00     0.060 A 
ATOM     30  C   UNL A   1      32.978  35.534  28.939  1.00  0.00     0.005 A 
ATOM     31  C   UNL A   1      33.310  34.411  28.179  1.00  0.00     0.014 A 
BRANCH  27  32
ATOM     32  O   UNL A   1      34.496  34.772  32.141  1.00  0.00    -0.497 OA
ATOM     33  C   UNL A   1      34.997  33.619  32.811  1.00  0.00     0.278 C 
ENDBRANCH  27  32
ENDBRANCH  19  26
ENDBRANCH  16  18
ENDBRANCH   9  16
ENDBRANCH   6   8
ENDBRANCH   5   6
ENDBRANCH   4   5
ENDBRANCH   3   4
ENDBRANCH   2   3
ENDBRANCH   1   2
BRANCH   1  34
ATOM     34  C   UNL A   1      36.610  19.649  24.863  1.00  0.00     0.188 C 
BRANCH  34  35
ATOM     35  O   UNL A   1      38.004  19.632  24.673  1.00  0.00    -0.376 OA
BRANCH  35  36
ATOM     36  C   UNL A   1      38.890  19.148  25.660  1.00  0.00     0.202 C 
BRANCH  36  37
ATOM     37  C   UNL A   1      39.937  20.063  26.303  1.00  0.00     0.261 C 
BRANCH  37  38
ATOM     38  O   UNL A   1      41.025  19.378  26.934  1.00  0.00    -0.460 OA
BRANCH  38  39
ATOM     39  C   UNL A   1      42.259  19.875  26.696  1.00  0.00     0.338 C 
ATOM     40  O   UNL A   1      43.255  19.284  26.294  1.00  0.00    -0.246 OA
BRANCH  39  41
ATOM     41  C   UNL A   1      42.225  21.332  26.840  1.00  0.00     0.060 A 
ATOM     42  C   UNL A   1      41.998  22.140  25.715  1.00  0.00     0.016 A 
ATOM     43  C   UNL A   1      42.496  21.888  28.087  1.00  0.00     0.016 A 
ATOM     44  C   UNL A   1      42.071  23.525  25.836  1.00  0.00     0.010 A 
ATOM     45  C   UNL A   1      42.579  23.270  28.202  1.00  0.00     0.010 A 
ATOM     46  C   UNL A   1      42.399  24.091  27.074  1.00  0.00    -0.014 A 
BRANCH  46  47
ATOM     47  C   UNL A   1      42.701  25.532  27.200  1.00  0.00     0.031 A 
ATOM     48  C   UNL A   1      44.002  26.043  26.653  1.00  0.00     0.074 A 
ATOM     49  C   UNL A   1      41.860  26.348  27.854  1.00  0.00     0.049 A 
ATOM     50  N   UNL A   1      44.561  27.216  26.795  1.00  0.00    -0.248 NA
ATOM     51  C   UNL A   1      44.789  25.092  25.850  1.00  0.00     0.031 C 
ATOM     52  C   UNL A   1      40.562  25.961  28.401  1.00  0.00     0.029 A 
ATOM     53  N   UNL A   1      41.996  27.669  28.197  1.00  0.00    -0.354 N 
ATOM     54  C   UNL A   1      45.771  27.140  26.118  1.00  0.00     0.074 A 
ATOM     55  C   UNL A   1      45.880  25.797  25.590  1.00  0.00     0.031 C 
ATOM     56  C   UNL A   1      40.027  27.018  29.036  1.00  0.00     0.029 A 
ATOM     57  C   UNL A   1      40.966  28.137  28.975  1.00  0.00     0.049 A 
ATOM     58  H   UNL A   1      42.755  28.227  27.912  1.00  0.00     0.167 HD
ATOM     59  C   UNL A   1      46.703  28.107  25.954  1.00  0.00     0.037 A 
ATOM     60  C   UNL A   1      40.824  29.323  29.598  1.00  0.00     0.037 A 
ATOM     61  C   UNL A   1      46.582  29.438  26.491  1.00  0.00     0.049 A 
ATOM     62  C   UNL A   1      41.907  30.361  29.455  1.00  0.00     0.074 A 
ATOM     63  C   UNL A   1      47.455  30.504  26.361  1.00  0.00     0.029 A 
ATOM     64  N   UNL A   1      45.525  29.879  27.274  1.00  0.00    -0.354 N 
ATOM     65  N   UNL A   1      43.035  30.299  28.788  1.00  0.00    -0.248 NA
ATOM     66  C   UNL A   1      41.695  31.637  30.151  1.00  0.00     0.031 C 
ATOM     67  C   UNL A   1      46.956  31.570  27.117  1.00  0.00     0.029 A 
ATOM     68  C   UNL A   1      45.738  31.193  27.659  1.00  0.00     0.049 A 
ATOM     69  H   UNL A   1      44.741  29.338  27.521  1.00  0.00     0.167 HD
ATOM     70  C   UNL A   1      43.647  31.535  28.953  1.00  0.00     0.074 A 
ATOM     71  C   UNL A   1      42.759  32.331  29.775  1.00  0.00     0.031 C 
ATOM     72  C   UNL A   1      44.835  31.974  28.467  1.00  0.00     0.037 A 
BRANCH  59  73
ATOM     73  C   UNL A   1      47.946  27.755  25.187  1.00  0.00     0.064 A 
ATOM     74  C   UNL A   1      49.130  27.369  25.833  1.00  0.00     0.173 A 
ATOM     75  C   UNL A   1      47.942  27.773  23.784  1.00  0.00     0.173 A 
ATOM     76  F   UNL A   1      49.194  27.350  27.173  1.00  0.00    -0.203 F 
ATOM     77  C   UNL A   1      50.270  27.041  25.104  1.00  0.00     0.198 A 
ATOM     78  C   UNL A   1      49.074  27.413  23.058  1.00  0.00     0.198 A 
ATOM     79  F   UNL A   1      46.836  28.134  23.115  1.00  0.00    -0.203 F 
ATOM     80  F   UNL A   1      51.406  26.728  25.744  1.00  0.00    -0.200 F 
ATOM     81  C   UNL A   1      50.239  27.055  23.717  1.00  0.00     0.200 A 
ATOM     82  F   UNL A   1      49.036  27.415  21.718  1.00  0.00    -0.200 F 
ATOM     83  F   UNL A   1      51.335  26.732  23.018  1.00  0.00    -0.200 F 
ENDBRANCH  59  73
BRANCH  60  84
ATOM     84  C   UNL A   1      39.615  29.590  30.421  1.00  0.00     0.064 A 
ATOM     85  C   UNL A   1      39.639  29.415  31.810  1.00  0.00     0.173 A 
ATOM     86  C   UNL A   1      38.410  30.009  29.836  1.00  0.00     0.173 A 
ATOM     87  F   UNL A   1      40.760  28.992  32.413  1.00  0.00    -0.203 F 
ATOM     88  C   UNL A   1      38.498  29.625  32.582  1.00  0.00     0.198 A 
ATOM     89  C   UNL A   1      37.279  30.251  30.613  1.00  0.00     0.198 A 
ATOM     90  F   UNL A   1      38.334  30.193  28.510  1.00  0.00    -0.203 F 
ATOM     91  F   UNL A   1      38.534  29.396  33.902  1.00  0.00    -0.200 F 
ATOM     92  C   UNL A   1      37.321  30.049  31.984  1.00  0.00     0.200 A 
ATOM     93  F   UNL A   1      36.148  30.673  30.032  1.00  0.00    -0.200 F 
ATOM     94  F   UNL A   1      36.225  30.252  32.727  1.00  0.00    -0.200 F 
ENDBRANCH  60  84
BRANCH  72  95
ATOM     95  C   UNL A   1      45.221  33.397  28.763  1.00  0.00     0.064 A 
ATOM     96  C   UNL A   1      46.017  33.737  29.866  1.00  0.00     0.173 A 
ATOM     97  C   UNL A   1      44.821  34.430  27.900  1.00  0.00     0.173 A 
ATOM     98  F   UNL A   1      46.415  32.790  30.729  1.00  0.00    -0.203 F 
ATOM     99  C   UNL A   1      46.372  35.061  30.113  1.00  0.00     0.198 A 
ATOM    100  C   UNL A   1      45.210  35.747  28.129  1.00  0.00     0.198 A 
ATOM    101  F   UNL A   1      44.067  34.160  26.824  1.00  0.00    -0.203 F 
ATOM    102  F   UNL A   1      47.088  35.369  31.204  1.00  0.00    -0.200 F 
ATOM    103  C   UNL A   1      45.977  36.063  29.239  1.00  0.00     0.200 A 
ATOM    104  F   UNL A   1      44.841  36.710  27.273  1.00  0.00    -0.200 F 
ATOM    105  F   UNL A   1      46.329  37.335  29.472  1.00  0.00    -0.200 F 
ENDBRANCH  72  95
ENDBRANCH  46  47
ENDBRANCH  39  41
ENDBRANCH  38  39
ENDBRANCH  37  38
ENDBRANCH  36  37
ENDBRANCH  35  36
ENDBRANCH  34  35
ENDBRANCH   1  34
TORSDOF 21
ENDMDL
MODEL 2
REMARK VINA RESULT:     -10.8      1.657      7.099
REMARK SMILES COc1cccc(C(=O)N2CCC(C(=O)N3CC[N@H+](C)[C@@H](C(=O)OCCOCCOCCOC(=O)c4ccc(-c5c6nc(c(-c7c(F)c(F)c(F)c(F)c7F)c7ccc([nH]7)c(-c7c(F)c(F)c(F)c(F)c7F)c7nc(c(-c8c(F)c(F)c(F)c(F)c8F)c8ccc5[nH]8)C=C7)C=C6)cc4)C3)CC2)c1
REMARK SMILES IDX 28 1 27 2 26 3 25 4 24 5 22 6 23 7 21 8 16 9 17 10 99 11
REMARK SMILES IDX 18 12 19 13 20 14 14 16 15 17 13 18 8 19 9 20 10 21 11 22
REMARK SMILES IDX 101 23 12 24 100 25 7 26 3 27 4 28 102 29 5 30 6 31 2 32
REMARK SMILES IDX 1 33 29 34 30 35 31 36 32 37 33 38 34 39 35 40 36 41 37 42
REMARK SMILES IDX 98 43 38 44 97 45 39 46 40 47 41 48 91 49 42 50 96 51 90 52
REMARK SMILES IDX 92 53 43 54 95 55 89 56 88 57 44 59 76 60 56 61 75 62 57 63
REMARK SMILES IDX 60 64 74 65 93 66 58 67 59 68 73 70 94 71 61 72 45 73 46 74
REMARK SMILES IDX 54 75 47 76 48 77 52 78 55 79 49 80 50 81 53 82 51 83 77 84
REMARK SMILES IDX 78 85 86 86 79 87 80 88 84 89 87 90 81 91 82 92 85 93 83 94
REMARK SMILES IDX 62 95 63 96 71 97 64 98 65 99 69 100 72 101 66 102 67 103
REMARK SMILES IDX 70 104 68 105
REMARK H PARENT 19 15 92 58 60 69
REMARK Flexibility Score: inf
ROOT
ATOM      1  C   UNL A   1      33.252  19.946  25.758  1.00  0.00     0.188 C 
ENDROOT
BRANCH   1   2
ATOM      2  O   UNL A   1      32.048  20.447  25.195  1.00  0.00    -0.376 OA
BRANCH   2   3
ATOM      3  C   UNL A   1      31.744  21.825  25.305  1.00  0.00     0.202 C 
BRANCH   3   4
ATOM      4  C   UNL A   1      32.261  22.507  26.583  1.00  0.00     0.261 C 
BRANCH   4   5
ATOM      5  O   UNL A   1      32.147  23.948  26.644  1.00  0.00    -0.459 OA
BRANCH   5   6
ATOM      6  C   UNL A   1      30.874  24.433  26.641  1.00  0.00     0.366 C 
ATOM      7  O   UNL A   1      29.930  23.869  27.194  1.00  0.00    -0.245 OA
BRANCH   6   8
ATOM      8  C   UNL A   1      30.662  25.731  25.809  1.00  0.00     0.314 C 
ATOM      9  N   UNL A   1      32.709  27.255  25.284  1.00  0.00    -0.330 N 
ATOM     10  C   UNL A   1      32.727  26.641  23.951  1.00  0.00     0.181 C 
ATOM     11  C   UNL A   1      31.480  27.047  26.067  1.00  0.00     0.197 C 
ATOM     12  C   UNL A   1      31.965  25.313  23.825  1.00  0.00     0.284 C 
ATOM     13  N   UNL A   1      30.608  25.316  24.386  1.00  0.00    -0.323 N 
ATOM     14  C   UNL A   1      29.665  26.118  23.617  1.00  0.00     0.333 C 
ATOM     15  H   UNL A   1      30.246  24.364  24.329  1.00  0.00     0.348 HD
BRANCH   9  16
ATOM     16  C   UNL A   1      33.593  28.339  25.441  1.00  0.00     0.226 C 
ATOM     17  O   UNL A   1      34.434  28.579  24.567  1.00  0.00    -0.275 OA
BRANCH  16  18
ATOM     18  C   UNL A   1      33.589  29.190  26.732  1.00  0.00     0.082 C 
ATOM     19  C   UNL A   1      34.842  33.091  28.046  1.00  0.00     0.253 C 
ATOM     20  O   UNL A   1      35.972  33.335  27.618  1.00  0.00    -0.269 OA
ATOM     21  N   UNL A   1      34.274  31.825  27.896  1.00  0.00    -0.339 N 
ATOM     22  C   UNL A   1      35.162  30.693  28.048  1.00  0.00     0.120 C 
ATOM     23  C   UNL A   1      32.865  31.498  27.708  1.00  0.00     0.120 C 
ATOM     24  C   UNL A   1      35.026  29.652  26.958  1.00  0.00     0.035 C 
ATOM     25  C   UNL A   1      32.680  30.447  26.594  1.00  0.00     0.035 C 
BRANCH  19  26
ATOM     26  C   UNL A   1      34.198  34.143  28.893  1.00  0.00     0.043 A 
ATOM     27  C   UNL A   1      33.708  35.143  31.052  1.00  0.00     0.119 A 
ATOM     28  C   UNL A   1      33.324  36.328  30.421  1.00  0.00     0.046 A 
ATOM     29  C   UNL A   1      34.147  34.053  30.290  1.00  0.00     0.060 A 
ATOM     30  C   UNL A   1      33.401  36.443  29.036  1.00  0.00     0.005 A 
ATOM     31  C   UNL A   1      33.836  35.355  28.276  1.00  0.00     0.014 A 
BRANCH  27  32
ATOM     32  O   UNL A   1      33.585  35.144  32.415  1.00  0.00    -0.497 OA
ATOM     33  C   UNL A   1      33.893  33.912  33.059  1.00  0.00     0.278 C 
ENDBRANCH  27  32
ENDBRANCH  19  26
ENDBRANCH  16  18
ENDBRANCH   9  16
ENDBRANCH   6   8
ENDBRANCH   5   6
ENDBRANCH   4   5
ENDBRANCH   3   4
ENDBRANCH   2   3
ENDBRANCH   1   2
BRANCH   1  34
ATOM     34  C   UNL A   1      34.541  19.872  24.937  1.00  0.00     0.188 C 
BRANCH  34  35
ATOM     35  O   UNL A   1      35.069  20.990  24.265  1.00  0.00    -0.376 OA
BRANCH  35  36
ATOM     36  C   UNL A   1      35.906  21.926  24.910  1.00  0.00     0.202 C 
BRANCH  36  37
ATOM     37  C   UNL A   1      37.431  21.783  24.871  1.00  0.00     0.261 C 
BRANCH  37  38
ATOM     38  O   UNL A   1      38.145  22.793  25.595  1.00  0.00    -0.460 OA
BRANCH  38  39
ATOM     39  C   UNL A   1      39.135  22.355  26.405  1.00  0.00     0.338 C 
ATOM     40  O   UNL A   1      39.536  21.208  26.569  1.00  0.00    -0.246 OA
BRANCH  39  41
ATOM     41  C   UNL A   1      39.821  23.509  26.991  1.00  0.00     0.060 A 
ATOM     42  C   UNL A   1      39.375  24.808  26.698  1.00  0.00     0.016 A 
ATOM     43  C   UNL A   1      40.953  23.291  27.770  1.00  0.00     0.016 A 
ATOM     44  C   UNL A   1      40.092  25.904  27.171  1.00  0.00     0.010 A 
ATOM     45  C   UNL A   1      41.672  24.387  28.231  1.00  0.00     0.010 A 
ATOM     46  C   UNL A   1      41.263  25.694  27.908  1.00  0.00    -0.014 A 
BRANCH  46  47
ATOM     47  C   UNL A   1      42.169  26.814  28.240  1.00  0.00     0.031 A 
ATOM     48  C   UNL A   1      41.640  27.941  29.078  1.00  0.00     0.074 A 
ATOM     49  C   UNL A   1      43.414  26.852  27.740  1.00  0.00     0.049 A 
ATOM     50  N   UNL A   1      42.180  29.099  29.352  1.00  0.00    -0.248 NA
ATOM     51  C   UNL A   1      40.309  27.740  29.673  1.00  0.00     0.031 C 
ATOM     52  C   UNL A   1      44.035  25.801  26.937  1.00  0.00     0.029 A 
ATOM     53  N   UNL A   1      44.366  27.836  27.809  1.00  0.00    -0.354 N 
ATOM     54  C   UNL A   1      41.250  29.772  30.134  1.00  0.00     0.074 A 
ATOM     55  C   UNL A   1      40.100  28.905  30.267  1.00  0.00     0.031 C 
ATOM     56  C   UNL A   1      45.261  26.207  26.566  1.00  0.00     0.029 A 
ATOM     57  C   UNL A   1      45.488  27.561  27.066  1.00  0.00     0.049 A 
ATOM     58  H   UNL A   1      44.257  28.659  28.339  1.00  0.00     0.167 HD
ATOM     59  C   UNL A   1      41.354  31.001  30.690  1.00  0.00     0.037 A 
ATOM     60  C   UNL A   1      46.555  28.336  26.795  1.00  0.00     0.037 A 
ATOM     61  C   UNL A   1      42.505  31.854  30.543  1.00  0.00     0.049 A 
ATOM     62  C   UNL A   1      46.618  29.727  27.371  1.00  0.00     0.074 A 
ATOM     63  C   UNL A   1      42.727  33.107  31.086  1.00  0.00     0.029 A 
ATOM     64  N   UNL A   1      43.625  31.544  29.785  1.00  0.00    -0.354 N 
ATOM     65  N   UNL A   1      45.753  30.350  28.136  1.00  0.00    -0.248 NA
ATOM     66  C   UNL A   1      47.809  30.524  27.045  1.00  0.00     0.031 C 
ATOM     67  C   UNL A   1      43.952  33.580  30.607  1.00  0.00     0.029 A 
ATOM     68  C   UNL A   1      44.529  32.594  29.823  1.00  0.00     0.049 A 
ATOM     69  H   UNL A   1      43.759  30.702  29.292  1.00  0.00     0.167 HD
ATOM     70  C   UNL A   1      46.310  31.592  28.414  1.00  0.00     0.074 A 
ATOM     71  C   UNL A   1      47.593  31.631  27.742  1.00  0.00     0.031 C 
ATOM     72  C   UNL A   1      45.808  32.609  29.158  1.00  0.00     0.037 A 
BRANCH  59  73
ATOM     73  C   UNL A   1      40.184  31.509  31.482  1.00  0.00     0.064 A 
ATOM     74  C   UNL A   1      40.057  31.261  32.857  1.00  0.00     0.173 A 
ATOM     75  C   UNL A   1      39.191  32.284  30.862  1.00  0.00     0.173 A 
ATOM     76  F   UNL A   1      40.969  30.513  33.496  1.00  0.00    -0.203 F 
ATOM     77  C   UNL A   1      38.966  31.746  33.575  1.00  0.00     0.198 A 
ATOM     78  C   UNL A   1      38.120  32.794  31.590  1.00  0.00     0.198 A 
ATOM     79  F   UNL A   1      39.263  32.552  29.549  1.00  0.00    -0.203 F 
ATOM     80  F   UNL A   1      38.838  31.450  34.877  1.00  0.00    -0.200 F 
ATOM     81  C   UNL A   1      38.003  32.519  32.944  1.00  0.00     0.200 A 
ATOM     82  F   UNL A   1      37.198  33.551  30.980  1.00  0.00    -0.200 F 
ATOM     83  F   UNL A   1      36.959  32.990  33.638  1.00  0.00    -0.200 F 
ENDBRANCH  59  73
BRANCH  60  84
ATOM     84  C   UNL A   1      47.647  27.819  25.929  1.00  0.00     0.064 A 
ATOM     85  C   UNL A   1      48.830  27.316  26.487  1.00  0.00     0.173 A 
ATOM     86  C   UNL A   1      47.539  27.831  24.530  1.00  0.00     0.173 A 
ATOM     87  F   UNL A   1      48.990  27.306  27.819  1.00  0.00    -0.203 F 
ATOM     88  C   UNL A   1      49.873  26.868  25.679  1.00  0.00     0.198 A 
ATOM     89  C   UNL A   1      48.570  27.351  23.724  1.00  0.00     0.198 A 
ATOM     90  F   UNL A   1      46.428  28.301  23.944  1.00  0.00    -0.203 F 
ATOM     91  F   UNL A   1      51.014  26.444  26.239  1.00  0.00    -0.200 F 
ATOM     92  C   UNL A   1      49.740  26.880  24.299  1.00  0.00     0.200 A 
ATOM     93  F   UNL A   1      48.432  27.353  22.391  1.00  0.00    -0.200 F 
ATOM     94  F   UNL A   1      50.744  26.447  23.524  1.00  0.00    -0.200 F 
ENDBRANCH  60  84
BRANCH  72  95
ATOM     95  C   UNL A   1      46.668  33.828  29.334  1.00  0.00     0.064 A 
ATOM     96  C   UNL A   1      46.581  34.931  28.471  1.00  0.00     0.173 A 
ATOM     97  C   UNL A   1      47.564  33.910  30.413  1.00  0.00     0.173 A 
ATOM     98  F   UNL A   1      45.751  34.899  27.418  1.00  0.00    -0.203 F 
ATOM     99  C   UNL A   1      47.380  36.055  28.663  1.00  0.00     0.198 A 
ATOM    100  C   UNL A   1      48.334  35.051  30.622  1.00  0.00     0.198 A 
ATOM    101  F   UNL A   1      47.681  32.888  31.275  1.00  0.00    -0.203 F 
ATOM    102  F   UNL A   1      47.319  37.074  27.794  1.00  0.00    -0.200 F 
ATOM    103  C   UNL A   1      48.248  36.118  29.742  1.00  0.00     0.200 A 
ATOM    104  F   UNL A   1      49.158  35.116  31.677  1.00  0.00    -0.200 F 
ATOM    105  F   UNL A   1      49.008  37.206  29.931  1.00  0.00    -0.200 F 
ENDBRANCH  72  95
ENDBRANCH  46  47
ENDBRANCH  39  41
ENDBRANCH  38  39
ENDBRANCH  37  38
ENDBRANCH  36  37
ENDBRANCH  35  36
ENDBRANCH  34  35
ENDBRANCH   1  34
TORSDOF 21
ENDMDL
MODEL 3
REMARK VINA RESULT:     -10.6      3.882      7.541
REMARK SMILES COc1cccc(C(=O)N2CCC(C(=O)N3CC[N@H+](C)[C@@H](C(=O)OCCOCCOCCOC(=O)c4ccc(-c5c6nc(c(-c7c(F)c(F)c(F)c(F)c7F)c7ccc([nH]7)c(-c7c(F)c(F)c(F)c(F)c7F)c7nc(c(-c8c(F)c(F)c(F)c(F)c8F)c8ccc5[nH]8)C=C7)C=C6)cc4)C3)CC2)c1
REMARK SMILES IDX 28 1 27 2 26 3 25 4 24 5 22 6 23 7 21 8 16 9 17 10 99 11
REMARK SMILES IDX 18 12 19 13 20 14 14 16 15 17 13 18 8 19 9 20 10 21 11 22
REMARK SMILES IDX 101 23 12 24 100 25 7 26 3 27 4 28 102 29 5 30 6 31 2 32
REMARK SMILES IDX 1 33 29 34 30 35 31 36 32 37 33 38 34 39 35 40 36 41 37 42
REMARK SMILES IDX 98 43 38 44 97 45 39 46 40 47 41 48 91 49 42 50 96 51 90 52
REMARK SMILES IDX 92 53 43 54 95 55 89 56 88 57 44 59 76 60 56 61 75 62 57 63
REMARK SMILES IDX 60 64 74 65 93 66 58 67 59 68 73 70 94 71 61 72 45 73 46 74
REMARK SMILES IDX 54 75 47 76 48 77 52 78 55 79 49 80 50 81 53 82 51 83 77 84
REMARK SMILES IDX 78 85 86 86 79 87 80 88 84 89 87 90 81 91 82 92 85 93 83 94
REMARK SMILES IDX 62 95 63 96 71 97 64 98 65 99 69 100 72 101 66 102 67 103
REMARK SMILES IDX 70 104 68 105
REMARK H PARENT 19 15 92 58 60 69
REMARK Flexibility Score: inf
ROOT
ATOM      1  C   UNL A   1      33.497  20.082  25.659  1.00  0.00     0.188 C 
ENDROOT
BRANCH   1   2
ATOM      2  O   UNL A   1      32.282  20.485  25.041  1.00  0.00    -0.376 OA
BRANCH   2   3
ATOM      3  C   UNL A   1      31.840  21.822  25.175  1.00  0.00     0.202 C 
BRANCH   3   4
ATOM      4  C   UNL A   1      32.225  22.509  26.497  1.00  0.00     0.261 C 
BRANCH   4   5
ATOM      5  O   UNL A   1      31.957  23.927  26.596  1.00  0.00    -0.459 OA
BRANCH   5   6
ATOM      6  C   UNL A   1      30.641  24.276  26.558  1.00  0.00     0.366 C 
ATOM      7  O   UNL A   1      29.732  23.543  26.945  1.00  0.00    -0.245 OA
BRANCH   6   8
ATOM      8  C   UNL A   1      30.343  25.657  25.905  1.00  0.00     0.314 C 
ATOM      9  N   UNL A   1      32.327  27.222  25.269  1.00  0.00    -0.330 N 
ATOM     10  C   UNL A   1      32.152  26.755  23.889  1.00  0.00     0.181 C 
ATOM     11  C   UNL A   1      31.212  26.935  26.188  1.00  0.00     0.197 C 
ATOM     12  C   UNL A   1      31.356  25.451  23.728  1.00  0.00     0.284 C 
ATOM     13  N   UNL A   1      30.088  25.398  24.467  1.00  0.00    -0.323 N 
ATOM     14  C   UNL A   1      29.064  26.282  23.924  1.00  0.00     0.333 C 
ATOM     15  H   UNL A   1      29.704  24.459  24.359  1.00  0.00     0.348 HD
BRANCH   9  16
ATOM     16  C   UNL A   1      33.243  28.279  25.418  1.00  0.00     0.226 C 
ATOM     17  O   UNL A   1      34.081  28.496  24.536  1.00  0.00    -0.275 OA
BRANCH  16  18
ATOM     18  C   UNL A   1      33.278  29.128  26.710  1.00  0.00     0.082 C 
ATOM     19  C   UNL A   1      34.718  32.962  28.032  1.00  0.00     0.253 C 
ATOM     20  O   UNL A   1      35.861  33.149  27.607  1.00  0.00    -0.269 OA
ATOM     21  N   UNL A   1      34.089  31.726  27.879  1.00  0.00    -0.339 N 
ATOM     22  C   UNL A   1      34.919  30.551  28.033  1.00  0.00     0.120 C 
ATOM     23  C   UNL A   1      32.665  31.469  27.686  1.00  0.00     0.120 C 
ATOM     24  C   UNL A   1      34.735  29.518  26.942  1.00  0.00     0.035 C 
ATOM     25  C   UNL A   1      32.433  30.429  26.570  1.00  0.00     0.035 C 
BRANCH  19  26
ATOM     26  C   UNL A   1      34.124  34.044  28.878  1.00  0.00     0.043 A 
ATOM     27  C   UNL A   1      33.836  35.172  31.008  1.00  0.00     0.119 A 
ATOM     28  C   UNL A   1      33.326  36.294  30.351  1.00  0.00     0.046 A 
ATOM     29  C   UNL A   1      34.237  34.051  30.274  1.00  0.00     0.060 A 
ATOM     30  C   UNL A   1      33.239  36.313  28.962  1.00  0.00     0.005 A 
ATOM     31  C   UNL A   1      33.637  35.193  28.229  1.00  0.00     0.014 A 
BRANCH  27  32
ATOM     32  O   UNL A   1      33.869  35.265  32.374  1.00  0.00    -0.497 OA
ATOM     33  C   UNL A   1      34.243  34.075  33.059  1.00  0.00     0.278 C 
ENDBRANCH  27  32
ENDBRANCH  19  26
ENDBRANCH  16  18
ENDBRANCH   9  16
ENDBRANCH   6   8
ENDBRANCH   5   6
ENDBRANCH   4   5
ENDBRANCH   3   4
ENDBRANCH   2   3
ENDBRANCH   1   2
BRANCH   1  34
ATOM     34  C   UNL A   1      34.841  20.242  24.944  1.00  0.00     0.188 C 
BRANCH  34  35
ATOM     35  O   UNL A   1      35.449  21.498  24.761  1.00  0.00    -0.376 OA
BRANCH  35  36
ATOM     36  C   UNL A   1      36.489  21.957  25.598  1.00  0.00     0.202 C 
BRANCH  36  37
ATOM     37  C   UNL A   1      37.956  21.856  25.167  1.00  0.00     0.261 C 
BRANCH  37  38
ATOM     38  O   UNL A   1      38.905  22.157  26.197  1.00  0.00    -0.460 OA
BRANCH  38  39
ATOM     39  C   UNL A   1      39.900  21.258  26.370  1.00  0.00     0.338 C 
ATOM     40  O   UNL A   1      39.970  20.108  25.951  1.00  0.00    -0.246 OA
BRANCH  39  41
ATOM     41  C   UNL A   1      41.029  21.914  27.032  1.00  0.00     0.060 A 
ATOM     42  C   UNL A   1      40.836  23.139  27.691  1.00  0.00     0.016 A 
ATOM     43  C   UNL A   1      42.293  21.342  26.928  1.00  0.00     0.016 A 
ATOM     44  C   UNL A   1      41.930  23.812  28.229  1.00  0.00     0.010 A 
ATOM     45  C   UNL A   1      43.385  22.021  27.455  1.00  0.00     0.010 A 
ATOM     46  C   UNL A   1      43.212  23.270  28.078  1.00  0.00    -0.014 A 
BRANCH  46  47
ATOM     47  C   UNL A   1      44.417  24.048  28.435  1.00  0.00     0.031 A 
ATOM     48  C   UNL A   1      44.701  24.307  29.886  1.00  0.00     0.074 A 
ATOM     49  C   UNL A   1      45.198  24.570  27.475  1.00  0.00     0.049 A 
ATOM     50  N   UNL A   1      45.587  25.098  30.431  1.00  0.00    -0.248 NA
ATOM     51  C   UNL A   1      43.856  23.588  30.852  1.00  0.00     0.031 C 
ATOM     52  C   UNL A   1      45.026  24.360  26.039  1.00  0.00     0.029 A 
ATOM     53  N   UNL A   1      46.272  25.416  27.571  1.00  0.00    -0.354 N 
ATOM     54  C   UNL A   1      45.395  24.987  31.802  1.00  0.00     0.074 A 
ATOM     55  C   UNL A   1      44.290  24.076  32.005  1.00  0.00     0.031 C 
ATOM     56  C   UNL A   1      45.951  25.081  25.383  1.00  0.00     0.029 A 
ATOM     57  C   UNL A   1      46.746  25.834  26.352  1.00  0.00     0.049 A 
ATOM     58  H   UNL A   1      46.666  25.696  28.429  1.00  0.00     0.167 HD
ATOM     59  C   UNL A   1      46.083  25.593  32.798  1.00  0.00     0.037 A 
ATOM     60  C   UNL A   1      47.688  26.750  26.059  1.00  0.00     0.037 A 
ATOM     61  C   UNL A   1      47.178  26.503  32.578  1.00  0.00     0.049 A 
ATOM     62  C   UNL A   1      48.396  27.461  27.185  1.00  0.00     0.074 A 
ATOM     63  C   UNL A   1      47.963  27.151  33.516  1.00  0.00     0.029 A 
ATOM     64  N   UNL A   1      47.634  26.902  31.330  1.00  0.00    -0.354 N 
ATOM     65  N   UNL A   1      48.235  27.332  28.480  1.00  0.00    -0.248 NA
ATOM     66  C   UNL A   1      49.418  28.446  26.805  1.00  0.00     0.031 C 
ATOM     67  C   UNL A   1      48.851  27.990  32.836  1.00  0.00     0.029 A 
ATOM     68  C   UNL A   1      48.670  27.811  31.473  1.00  0.00     0.049 A 
ATOM     69  H   UNL A   1      47.273  26.588  30.470  1.00  0.00     0.167 HD
ATOM     70  C   UNL A   1      49.158  28.187  29.069  1.00  0.00     0.074 A 
ATOM     71  C   UNL A   1      49.882  28.823  27.987  1.00  0.00     0.031 C 
ATOM     72  C   UNL A   1      49.388  28.425  30.384  1.00  0.00     0.037 A 
BRANCH  59  73
ATOM     73  C   UNL A   1      45.656  25.315  34.210  1.00  0.00     0.064 A 
ATOM     74  C   UNL A   1      46.222  24.277  34.965  1.00  0.00     0.173 A 
ATOM     75  C   UNL A   1      44.687  26.121  34.829  1.00  0.00     0.173 A 
ATOM     76  F   UNL A   1      47.140  23.466  34.417  1.00  0.00    -0.203 F 
ATOM     77  C   UNL A   1      45.815  24.039  36.276  1.00  0.00     0.198 A 
ATOM     78  C   UNL A   1      44.308  25.901  36.150  1.00  0.00     0.198 A 
ATOM     79  F   UNL A   1      44.113  27.129  34.154  1.00  0.00    -0.203 F 
ATOM     80  F   UNL A   1      46.331  23.007  36.958  1.00  0.00    -0.200 F 
ATOM     81  C   UNL A   1      44.865  24.856  36.870  1.00  0.00     0.200 A 
ATOM     82  F   UNL A   1      43.399  26.700  36.725  1.00  0.00    -0.200 F 
ATOM     83  F   UNL A   1      44.481  24.630  38.133  1.00  0.00    -0.200 F 
ENDBRANCH  59  73
BRANCH  60  84
ATOM     84  C   UNL A   1      48.012  27.056  24.641  1.00  0.00     0.064 A 
ATOM     85  C   UNL A   1      49.210  26.612  24.065  1.00  0.00     0.173 A 
ATOM     86  C   UNL A   1      47.142  27.809  23.838  1.00  0.00     0.173 A 
ATOM     87  F   UNL A   1      50.085  25.909  24.800  1.00  0.00    -0.203 F 
ATOM     88  C   UNL A   1      49.537  26.930  22.749  1.00  0.00     0.198 A 
ATOM     89  C   UNL A   1      47.455  28.098  22.511  1.00  0.00     0.198 A 
ATOM     90  F   UNL A   1      45.982  28.258  24.339  1.00  0.00    -0.203 F 
ATOM     91  F   UNL A   1      50.715  26.539  22.242  1.00  0.00    -0.200 F 
ATOM     92  C   UNL A   1      48.658  27.667  21.971  1.00  0.00     0.200 A 
ATOM     93  F   UNL A   1      46.596  28.799  21.759  1.00  0.00    -0.200 F 
ATOM     94  F   UNL A   1      48.973  27.971  20.705  1.00  0.00    -0.200 F 
ENDBRANCH  60  84
BRANCH  72  95
ATOM     95  C   UNL A   1      50.504  29.370  30.732  1.00  0.00     0.064 A 
ATOM     96  C   UNL A   1      50.284  30.742  30.920  1.00  0.00     0.173 A 
ATOM     97  C   UNL A   1      51.807  28.883  30.924  1.00  0.00     0.173 A 
ATOM     98  F   UNL A   1      49.060  31.261  30.736  1.00  0.00    -0.203 F 
ATOM     99  C   UNL A   1      51.331  31.597  31.254  1.00  0.00     0.198 A 
ATOM    100  C   UNL A   1      52.844  29.734  31.295  1.00  0.00     0.198 A 
ATOM    101  F   UNL A   1      52.072  27.577  30.767  1.00  0.00    -0.203 F 
ATOM    102  F   UNL A   1      51.107  32.913  31.375  1.00  0.00    -0.200 F 
ATOM    103  C   UNL A   1      52.608  31.091  31.451  1.00  0.00     0.200 A 
ATOM    104  F   UNL A   1      54.072  29.240  31.502  1.00  0.00    -0.200 F 
ATOM    105  F   UNL A   1      53.612  31.914  31.784  1.00  0.00    -0.200 F 
ENDBRANCH  72  95
ENDBRANCH  46  47
ENDBRANCH  39  41
ENDBRANCH  38  39
ENDBRANCH  37  38
ENDBRANCH  36  37
ENDBRANCH  35  36
ENDBRANCH  34  35
ENDBRANCH   1  34
TORSDOF 21
ENDMDL
