MODEL 1
REMARK VINA RESULT:     -11.0      0.000      0.000
REMARK SMILES Cc1cc(C)cc(S(=O)(=O)N2CSC[C@H]2C(=O)OCCOCCOCCOC(=O)c2ccc(-c3c4nc(c(-c5c(F)c(F)c(F)c(F)c5F)c5ccc([nH]5)c(-c5c(F)c(F)c(F)c(F)c5F)c5nc(c(-c6c(F)c(F)c(F)c(F)c6F)c6ccc3[nH]6)C=C5)C=C4)cc2)c1
REMARK SMILES IDX 22 1 21 2 20 3 19 4 18 5 16 6 17 7 15 8 11 9 12 10 13 11
REMARK SMILES IDX 14 12 8 13 9 14 10 15 7 16 1 17 2 18 3 19 93 20 4 21 5 22
REMARK SMILES IDX 6 23 23 24 24 25 25 26 26 27 27 28 28 29 29 30 30 31 31 32
REMARK SMILES IDX 92 33 32 34 91 35 33 36 34 37 35 38 85 39 36 40 90 41 84 42
REMARK SMILES IDX 86 43 37 44 89 45 83 46 82 47 38 49 70 50 50 51 69 52 51 53
REMARK SMILES IDX 54 54 68 55 87 56 52 57 53 58 67 60 88 61 55 62 39 63 40 64
REMARK SMILES IDX 48 65 41 66 42 67 46 68 49 69 43 70 44 71 47 72 45 73 71 74
REMARK SMILES IDX 72 75 80 76 73 77 74 78 78 79 81 80 75 81 76 82 79 83 77 84
REMARK SMILES IDX 56 85 57 86 65 87 58 88 59 89 63 90 66 91 60 92 61 93 64 94
REMARK SMILES IDX 62 95
REMARK H PARENT 86 48 54 59
REMARK Flexibility Score: inf
ROOT
ATOM      1  C   UNL A   1      32.577  25.777  26.315  1.00  0.00     0.188 C 
ENDROOT
BRANCH   1   2
ATOM      2  O   UNL A   1      31.399  25.220  26.893  1.00  0.00    -0.376 OA
BRANCH   2   3
ATOM      3  C   UNL A   1      30.577  24.362  26.120  1.00  0.00     0.202 C 
BRANCH   3   4
ATOM      4  C   UNL A   1      30.474  22.913  26.590  1.00  0.00     0.261 C 
BRANCH   4   5
ATOM      5  O   UNL A   1      31.283  21.988  25.843  1.00  0.00    -0.462 OA
BRANCH   5   6
ATOM      6  C   UNL A   1      32.615  21.998  26.124  1.00  0.00     0.325 C 
ATOM      7  O   UNL A   1      33.093  22.208  27.234  1.00  0.00    -0.250 OA
BRANCH   6   8
ATOM      8  C   UNL A   1      33.483  21.889  24.886  1.00  0.00     0.194 C 
ATOM      9  N   UNL A   1      33.741  23.124  24.112  1.00  0.00    -0.173 NA
ATOM     10  C   UNL A   1      35.032  23.753  24.352  1.00  0.00     0.172 C 
ATOM     11  S   UNL A   1      36.011  22.642  25.384  1.00  0.00    -0.143 SA
ATOM     12  C   UNL A   1      34.816  21.287  25.325  1.00  0.00     0.103 C 
BRANCH   9  13
ATOM     13  S   UNL A   1      32.939  23.437  22.678  1.00  0.00     0.244 S 
ATOM     14  O   UNL A   1      31.740  22.630  22.667  1.00  0.00    -0.207 OA
ATOM     15  O   UNL A   1      33.922  23.321  21.621  1.00  0.00    -0.207 OA
BRANCH  13  16
ATOM     16  C   UNL A   1      32.416  25.142  22.699  1.00  0.00     0.083 A 
ATOM     17  C   UNL A   1      29.356  27.244  23.513  1.00  0.00     0.044 C 
ATOM     18  C   UNL A   1      30.751  26.855  23.121  1.00  0.00    -0.050 A 
ATOM     19  C   UNL A   1      31.731  27.837  22.940  1.00  0.00     0.007 A 
ATOM     20  C   UNL A   1      31.096  25.509  22.958  1.00  0.00     0.025 A 
ATOM     21  C   UNL A   1      33.048  27.487  22.611  1.00  0.00    -0.050 A 
ATOM     22  C   UNL A   1      34.066  28.571  22.408  1.00  0.00     0.044 C 
ATOM     23  C   UNL A   1      33.392  26.131  22.512  1.00  0.00     0.025 A 
ENDBRANCH  13  16
ENDBRANCH   9  13
ENDBRANCH   6   8
ENDBRANCH   5   6
ENDBRANCH   4   5
ENDBRANCH   3   4
ENDBRANCH   2   3
ENDBRANCH   1   2
BRANCH   1  24
ATOM     24  C   UNL A   1      32.785  27.303  26.279  1.00  0.00     0.188 C 
BRANCH  24  25
ATOM     25  O   UNL A   1      32.297  27.971  27.435  1.00  0.00    -0.376 OA
BRANCH  25  26
ATOM     26  C   UNL A   1      31.462  29.091  27.184  1.00  0.00     0.202 C 
BRANCH  26  27
ATOM     27  C   UNL A   1      31.948  29.908  25.985  1.00  0.00     0.261 C 
BRANCH  27  28
ATOM     28  O   UNL A   1      33.296  30.392  26.115  1.00  0.00    -0.460 OA
BRANCH  28  29
ATOM     29  C   UNL A   1      33.510  31.347  27.047  1.00  0.00     0.338 C 
ATOM     30  O   UNL A   1      32.757  32.247  27.368  1.00  0.00    -0.246 OA
BRANCH  29  31
ATOM     31  C   UNL A   1      34.784  31.031  27.722  1.00  0.00     0.060 A 
ATOM     32  C   UNL A   1      35.060  29.707  28.079  1.00  0.00     0.016 A 
ATOM     33  C   UNL A   1      35.708  32.044  27.990  1.00  0.00     0.016 A 
ATOM     34  C   UNL A   1      36.266  29.392  28.714  1.00  0.00     0.010 A 
ATOM     35  C   UNL A   1      36.902  31.730  28.645  1.00  0.00     0.010 A 
ATOM     36  C   UNL A   1      37.182  30.406  29.026  1.00  0.00    -0.014 A 
BRANCH  36  37
ATOM     37  C   UNL A   1      38.372  30.127  29.868  1.00  0.00     0.031 A 
ATOM     38  C   UNL A   1      39.425  29.192  29.345  1.00  0.00     0.074 A 
ATOM     39  C   UNL A   1      38.507  30.669  31.091  1.00  0.00     0.049 A 
ATOM     40  N   UNL A   1      40.472  28.692  29.951  1.00  0.00    -0.248 NA
ATOM     41  C   UNL A   1      39.275  28.763  27.947  1.00  0.00     0.031 C 
ATOM     42  C   UNL A   1      37.592  31.631  31.697  1.00  0.00     0.029 A 
ATOM     43  N   UNL A   1      39.468  30.465  32.053  1.00  0.00    -0.354 N 
ATOM     44  C   UNL A   1      41.097  27.880  29.014  1.00  0.00     0.074 A 
ATOM     45  C   UNL A   1      40.304  27.942  27.804  1.00  0.00     0.031 C 
ATOM     46  C   UNL A   1      38.021  31.919  32.938  1.00  0.00     0.029 A 
ATOM     47  C   UNL A   1      39.217  31.128  33.229  1.00  0.00     0.049 A 
ATOM     48  H   UNL A   1      40.261  29.897  31.913  1.00  0.00     0.167 HD
ATOM     49  C   UNL A   1      42.228  27.149  29.150  1.00  0.00     0.037 A 
ATOM     50  C   UNL A   1      39.857  31.072  34.415  1.00  0.00     0.037 A 
ATOM     51  C   UNL A   1      43.017  27.084  30.352  1.00  0.00     0.049 A 
ATOM     52  C   UNL A   1      41.058  30.174  34.573  1.00  0.00     0.074 A 
ATOM     53  C   UNL A   1      44.190  26.386  30.578  1.00  0.00     0.029 A 
ATOM     54  N   UNL A   1      42.705  27.736  31.535  1.00  0.00    -0.354 N 
ATOM     55  N   UNL A   1      41.649  29.415  33.683  1.00  0.00    -0.248 NA
ATOM     56  C   UNL A   1      41.675  30.117  35.907  1.00  0.00     0.031 C 
ATOM     57  C   UNL A   1      44.562  26.575  31.913  1.00  0.00     0.029 A 
ATOM     58  C   UNL A   1      43.646  27.430  32.506  1.00  0.00     0.049 A 
ATOM     59  H   UNL A   1      41.929  28.328  31.667  1.00  0.00     0.167 HD
ATOM     60  C   UNL A   1      42.713  28.809  34.340  1.00  0.00     0.074 A 
ATOM     61  C   UNL A   1      42.696  29.298  35.702  1.00  0.00     0.031 C 
ATOM     62  C   UNL A   1      43.621  27.924  33.858  1.00  0.00     0.037 A 
BRANCH  49  63
ATOM     63  C   UNL A   1      42.663  26.328  27.973  1.00  0.00     0.064 A 
ATOM     64  C   UNL A   1      43.543  26.834  27.006  1.00  0.00     0.173 A 
ATOM     65  C   UNL A   1      42.214  25.007  27.828  1.00  0.00     0.173 A 
ATOM     66  F   UNL A   1      43.989  28.097  27.094  1.00  0.00    -0.203 F 
ATOM     67  C   UNL A   1      43.939  26.055  25.922  1.00  0.00     0.198 A 
ATOM     68  C   UNL A   1      42.633  24.222  26.759  1.00  0.00     0.198 A 
ATOM     69  F   UNL A   1      41.374  24.475  28.730  1.00  0.00    -0.203 F 
ATOM     70  F   UNL A   1      44.747  26.572  24.987  1.00  0.00    -0.200 F 
ATOM     71  C   UNL A   1      43.489  24.748  25.803  1.00  0.00     0.200 A 
ATOM     72  F   UNL A   1      42.205  22.956  26.650  1.00  0.00    -0.200 F 
ATOM     73  F   UNL A   1      43.875  23.997  24.763  1.00  0.00    -0.200 F 
ENDBRANCH  49  63
BRANCH  50  74
ATOM     74  C   UNL A   1      39.352  31.861  35.569  1.00  0.00     0.064 A 
ATOM     75  C   UNL A   1      39.819  33.159  35.818  1.00  0.00     0.173 A 
ATOM     76  C   UNL A   1      38.416  31.322  36.465  1.00  0.00     0.173 A 
ATOM     77  F   UNL A   1      40.742  33.703  35.011  1.00  0.00    -0.203 F 
ATOM     78  C   UNL A   1      39.378  33.883  36.923  1.00  0.00     0.198 A 
ATOM     79  C   UNL A   1      37.955  32.057  37.554  1.00  0.00     0.198 A 
ATOM     80  F   UNL A   1      37.950  30.079  36.281  1.00  0.00    -0.203 F 
ATOM     81  F   UNL A   1      39.876  35.104  37.164  1.00  0.00    -0.200 F 
ATOM     82  C   UNL A   1      38.441  33.335  37.787  1.00  0.00     0.200 A 
ATOM     83  F   UNL A   1      37.049  31.524  38.385  1.00  0.00    -0.200 F 
ATOM     84  F   UNL A   1      38.019  34.032  38.850  1.00  0.00    -0.200 F 
ENDBRANCH  50  74
BRANCH  62  85
ATOM     85  C   UNL A   1      44.689  27.442  34.796  1.00  0.00     0.064 A 
ATOM     86  C   UNL A   1      45.891  28.145  34.960  1.00  0.00     0.173 A 
ATOM     87  C   UNL A   1      44.484  26.298  35.582  1.00  0.00     0.173 A 
ATOM     88  F   UNL A   1      46.142  29.236  34.222  1.00  0.00    -0.203 F 
ATOM     89  C   UNL A   1      46.857  27.710  35.867  1.00  0.00     0.198 A 
ATOM     90  C   UNL A   1      45.439  25.881  36.505  1.00  0.00     0.198 A 
ATOM     91  F   UNL A   1      43.348  25.594  35.468  1.00  0.00    -0.203 F 
ATOM     92  F   UNL A   1      48.013  28.377  35.982  1.00  0.00    -0.200 F 
ATOM     93  C   UNL A   1      46.626  26.584  36.644  1.00  0.00     0.200 A 
ATOM     94  F   UNL A   1      45.209  24.801  37.264  1.00  0.00    -0.200 F 
ATOM     95  F   UNL A   1      47.551  26.175  37.523  1.00  0.00    -0.200 F 
ENDBRANCH  62  85
ENDBRANCH  36  37
ENDBRANCH  29  31
ENDBRANCH  28  29
ENDBRANCH  27  28
ENDBRANCH  26  27
ENDBRANCH  25  26
ENDBRANCH  24  25
ENDBRANCH   1  24
TORSDOF 19
ENDMDL
MODEL 2
REMARK VINA RESULT:     -11.0      1.352      3.246
REMARK SMILES Cc1cc(C)cc(S(=O)(=O)N2CSC[C@H]2C(=O)OCCOCCOCCOC(=O)c2ccc(-c3c4nc(c(-c5c(F)c(F)c(F)c(F)c5F)c5ccc([nH]5)c(-c5c(F)c(F)c(F)c(F)c5F)c5nc(c(-c6c(F)c(F)c(F)c(F)c6F)c6ccc3[nH]6)C=C5)C=C4)cc2)c1
REMARK SMILES IDX 22 1 21 2 20 3 19 4 18 5 16 6 17 7 15 8 11 9 12 10 13 11
REMARK SMILES IDX 14 12 8 13 9 14 10 15 7 16 1 17 2 18 3 19 93 20 4 21 5 22
REMARK SMILES IDX 6 23 23 24 24 25 25 26 26 27 27 28 28 29 29 30 30 31 31 32
REMARK SMILES IDX 92 33 32 34 91 35 33 36 34 37 35 38 85 39 36 40 90 41 84 42
REMARK SMILES IDX 86 43 37 44 89 45 83 46 82 47 38 49 70 50 50 51 69 52 51 53
REMARK SMILES IDX 54 54 68 55 87 56 52 57 53 58 67 60 88 61 55 62 39 63 40 64
REMARK SMILES IDX 48 65 41 66 42 67 46 68 49 69 43 70 44 71 47 72 45 73 71 74
REMARK SMILES IDX 72 75 80 76 73 77 74 78 78 79 81 80 75 81 76 82 79 83 77 84
REMARK SMILES IDX 56 85 57 86 65 87 58 88 59 89 63 90 66 91 60 92 61 93 64 94
REMARK SMILES IDX 62 95
REMARK H PARENT 86 48 54 59
REMARK Flexibility Score: inf
ROOT
ATOM      1  C   UNL A   1      32.517  25.886  26.033  1.00  0.00     0.188 C 
ENDROOT
BRANCH   1   2
ATOM      2  O   UNL A   1      31.307  25.520  26.694  1.00  0.00    -0.376 OA
BRANCH   2   3
ATOM      3  C   UNL A   1      30.460  24.544  26.113  1.00  0.00     0.202 C 
BRANCH   3   4
ATOM      4  C   UNL A   1      30.511  23.146  26.725  1.00  0.00     0.261 C 
BRANCH   4   5
ATOM      5  O   UNL A   1      31.266  22.190  25.962  1.00  0.00    -0.462 OA
BRANCH   5   6
ATOM      6  C   UNL A   1      32.617  22.233  26.120  1.00  0.00     0.325 C 
ATOM      7  O   UNL A   1      33.190  22.610  27.138  1.00  0.00    -0.250 OA
BRANCH   6   8
ATOM      8  C   UNL A   1      33.375  21.923  24.844  1.00  0.00     0.194 C 
ATOM      9  N   UNL A   1      34.843  21.757  24.936  1.00  0.00    -0.173 NA
ATOM     10  C   UNL A   1      35.314  20.379  24.959  1.00  0.00     0.172 C 
ATOM     11  S   UNL A   1      33.907  19.301  24.624  1.00  0.00    -0.143 SA
ATOM     12  C   UNL A   1      32.763  20.652  24.257  1.00  0.00     0.103 C 
BRANCH   9  13
ATOM     13  S   UNL A   1      35.890  22.965  24.445  1.00  0.00     0.244 S 
ATOM     14  O   UNL A   1      35.234  24.231  24.688  1.00  0.00    -0.207 OA
ATOM     15  O   UNL A   1      36.342  22.606  23.117  1.00  0.00    -0.207 OA
BRANCH  13  16
ATOM     16  C   UNL A   1      37.326  22.914  25.501  1.00  0.00     0.083 A 
ATOM     17  C   UNL A   1      40.328  20.703  26.240  1.00  0.00     0.044 C 
ATOM     18  C   UNL A   1      39.367  21.856  26.274  1.00  0.00    -0.050 A 
ATOM     19  C   UNL A   1      39.675  23.008  27.005  1.00  0.00     0.007 A 
ATOM     20  C   UNL A   1      38.167  21.805  25.556  1.00  0.00     0.025 A 
ATOM     21  C   UNL A   1      38.806  24.107  27.015  1.00  0.00    -0.050 A 
ATOM     22  C   UNL A   1      39.164  25.319  27.826  1.00  0.00     0.044 C 
ATOM     23  C   UNL A   1      37.638  24.064  26.241  1.00  0.00     0.025 A 
ENDBRANCH  13  16
ENDBRANCH   9  13
ENDBRANCH   6   8
ENDBRANCH   5   6
ENDBRANCH   4   5
ENDBRANCH   3   4
ENDBRANCH   2   3
ENDBRANCH   1   2
BRANCH   1  24
ATOM     24  C   UNL A   1      33.004  27.348  26.048  1.00  0.00     0.188 C 
BRANCH  24  25
ATOM     25  O   UNL A   1      32.773  28.012  27.284  1.00  0.00    -0.376 OA
BRANCH  25  26
ATOM     26  C   UNL A   1      31.745  28.990  27.268  1.00  0.00     0.202 C 
BRANCH  26  27
ATOM     27  C   UNL A   1      32.054  30.127  26.291  1.00  0.00     0.261 C 
BRANCH  27  28
ATOM     28  O   UNL A   1      33.402  30.619  26.376  1.00  0.00    -0.460 OA
BRANCH  28  29
ATOM     29  C   UNL A   1      33.635  31.599  27.277  1.00  0.00     0.338 C 
ATOM     30  O   UNL A   1      32.890  32.511  27.585  1.00  0.00    -0.246 OA
BRANCH  29  31
ATOM     31  C   UNL A   1      34.919  31.298  27.940  1.00  0.00     0.060 A 
ATOM     32  C   UNL A   1      35.156  30.005  28.418  1.00  0.00     0.016 A 
ATOM     33  C   UNL A   1      35.890  32.293  28.076  1.00  0.00     0.016 A 
ATOM     34  C   UNL A   1      36.371  29.703  29.043  1.00  0.00     0.010 A 
ATOM     35  C   UNL A   1      37.093  31.995  28.721  1.00  0.00     0.010 A 
ATOM     36  C   UNL A   1      37.335  30.704  29.223  1.00  0.00    -0.014 A 
BRANCH  36  37
ATOM     37  C   UNL A   1      38.543  30.460  30.052  1.00  0.00     0.031 A 
ATOM     38  C   UNL A   1      39.636  29.591  29.498  1.00  0.00     0.074 A 
ATOM     39  C   UNL A   1      38.660  30.974  31.288  1.00  0.00     0.049 A 
ATOM     40  N   UNL A   1      40.709  29.125  30.085  1.00  0.00    -0.248 NA
ATOM     41  C   UNL A   1      39.497  29.192  28.089  1.00  0.00     0.031 C 
ATOM     42  C   UNL A   1      37.704  31.875  31.925  1.00  0.00     0.029 A 
ATOM     43  N   UNL A   1      39.635  30.790  32.239  1.00  0.00    -0.354 N 
ATOM     44  C   UNL A   1      41.365  28.369  29.122  1.00  0.00     0.074 A 
ATOM     45  C   UNL A   1      40.563  28.426  27.919  1.00  0.00     0.031 C 
ATOM     46  C   UNL A   1      38.127  32.150  33.171  1.00  0.00     0.029 A 
ATOM     47  C   UNL A   1      39.361  31.409  33.434  1.00  0.00     0.049 A 
ATOM     48  H   UNL A   1      40.453  30.265  32.079  1.00  0.00     0.167 HD
ATOM     49  C   UNL A   1      42.531  27.689  29.233  1.00  0.00     0.037 A 
ATOM     50  C   UNL A   1      40.010  31.351  34.615  1.00  0.00     0.037 A 
ATOM     51  C   UNL A   1      43.330  27.630  30.428  1.00  0.00     0.049 A 
ATOM     52  C   UNL A   1      41.254  30.508  34.742  1.00  0.00     0.074 A 
ATOM     53  C   UNL A   1      44.537  26.982  30.629  1.00  0.00     0.029 A 
ATOM     54  N   UNL A   1      42.995  28.234  31.630  1.00  0.00    -0.354 N 
ATOM     55  N   UNL A   1      41.875  29.802  33.828  1.00  0.00    -0.248 NA
ATOM     56  C   UNL A   1      41.881  30.445  36.071  1.00  0.00     0.031 C 
ATOM     57  C   UNL A   1      44.907  27.153  31.967  1.00  0.00     0.029 A 
ATOM     58  C   UNL A   1      43.956  27.947  32.587  1.00  0.00     0.049 A 
ATOM     59  H   UNL A   1      42.193  28.784  31.783  1.00  0.00     0.167 HD
ATOM     60  C   UNL A   1      42.970  29.230  34.463  1.00  0.00     0.074 A 
ATOM     61  C   UNL A   1      42.939  29.681  35.838  1.00  0.00     0.031 C 
ATOM     62  C   UNL A   1      43.916  28.403  33.953  1.00  0.00     0.037 A 
BRANCH  49  63
ATOM     63  C   UNL A   1      42.997  26.922  28.032  1.00  0.00     0.064 A 
ATOM     64  C   UNL A   1      42.754  25.548  27.894  1.00  0.00     0.173 A 
ATOM     65  C   UNL A   1      43.672  27.579  26.992  1.00  0.00     0.173 A 
ATOM     66  F   UNL A   1      42.125  24.873  28.868  1.00  0.00    -0.203 F 
ATOM     67  C   UNL A   1      43.191  24.854  26.769  1.00  0.00     0.198 A 
ATOM     68  C   UNL A   1      44.084  26.888  25.857  1.00  0.00     0.198 A 
ATOM     69  F   UNL A   1      43.924  28.895  27.074  1.00  0.00    -0.203 F 
ATOM     70  F   UNL A   1      42.987  23.533  26.677  1.00  0.00    -0.200 F 
ATOM     71  C   UNL A   1      43.850  25.526  25.749  1.00  0.00     0.200 A 
ATOM     72  F   UNL A   1      44.711  27.540  24.868  1.00  0.00    -0.200 F 
ATOM     73  F   UNL A   1      44.266  24.857  24.664  1.00  0.00    -0.200 F 
ENDBRANCH  49  63
BRANCH  50  74
ATOM     74  C   UNL A   1      39.476  32.084  35.793  1.00  0.00     0.064 A 
ATOM     75  C   UNL A   1      39.956  33.357  36.131  1.00  0.00     0.173 A 
ATOM     76  C   UNL A   1      38.499  31.514  36.622  1.00  0.00     0.173 A 
ATOM     77  F   UNL A   1      40.917  33.928  35.390  1.00  0.00    -0.203 F 
ATOM     78  C   UNL A   1      39.486  34.027  37.259  1.00  0.00     0.198 A 
ATOM     79  C   UNL A   1      38.010  32.196  37.734  1.00  0.00     0.198 A 
ATOM     80  F   UNL A   1      38.019  30.292  36.351  1.00  0.00    -0.203 F 
ATOM     81  F   UNL A   1      39.995  35.222  37.586  1.00  0.00    -0.200 F 
ATOM     82  C   UNL A   1      38.508  33.449  38.056  1.00  0.00     0.200 A 
ATOM     83  F   UNL A   1      37.065  31.634  38.500  1.00  0.00    -0.200 F 
ATOM     84  F   UNL A   1      38.058  34.093  39.141  1.00  0.00    -0.200 F 
ENDBRANCH  50  74
BRANCH  62  85
ATOM     85  C   UNL A   1      45.012  27.947  34.871  1.00  0.00     0.064 A 
ATOM     86  C   UNL A   1      44.912  26.748  35.593  1.00  0.00     0.173 A 
ATOM     87  C   UNL A   1      46.198  28.686  34.988  1.00  0.00     0.173 A 
ATOM     88  F   UNL A   1      43.792  26.012  35.529  1.00  0.00    -0.203 F 
ATOM     89  C   UNL A   1      45.955  26.315  36.409  1.00  0.00     0.198 A 
ATOM     90  C   UNL A   1      47.249  28.238  35.783  1.00  0.00     0.198 A 
ATOM     91  F   UNL A   1      46.347  29.836  34.313  1.00  0.00    -0.203 F 
ATOM     92  F   UNL A   1      45.825  25.184  37.116  1.00  0.00    -0.200 F 
ATOM     93  C   UNL A   1      47.126  27.055  36.496  1.00  0.00     0.200 A 
ATOM     94  F   UNL A   1      48.384  28.947  35.856  1.00  0.00    -0.200 F 
ATOM     95  F   UNL A   1      48.132  26.630  37.272  1.00  0.00    -0.200 F 
ENDBRANCH  62  85
ENDBRANCH  36  37
ENDBRANCH  29  31
ENDBRANCH  28  29
ENDBRANCH  27  28
ENDBRANCH  26  27
ENDBRANCH  25  26
ENDBRANCH  24  25
ENDBRANCH   1  24
TORSDOF 19
ENDMDL
MODEL 3
REMARK VINA RESULT:     -10.9      3.044      7.930
REMARK SMILES Cc1cc(C)cc(S(=O)(=O)N2CSC[C@H]2C(=O)OCCOCCOCCOC(=O)c2ccc(-c3c4nc(c(-c5c(F)c(F)c(F)c(F)c5F)c5ccc([nH]5)c(-c5c(F)c(F)c(F)c(F)c5F)c5nc(c(-c6c(F)c(F)c(F)c(F)c6F)c6ccc3[nH]6)C=C5)C=C4)cc2)c1
REMARK SMILES IDX 22 1 21 2 20 3 19 4 18 5 16 6 17 7 15 8 11 9 12 10 13 11
REMARK SMILES IDX 14 12 8 13 9 14 10 15 7 16 1 17 2 18 3 19 93 20 4 21 5 22
REMARK SMILES IDX 6 23 23 24 24 25 25 26 26 27 27 28 28 29 29 30 30 31 31 32
REMARK SMILES IDX 92 33 32 34 91 35 33 36 34 37 35 38 85 39 36 40 90 41 84 42
REMARK SMILES IDX 86 43 37 44 89 45 83 46 82 47 38 49 70 50 50 51 69 52 51 53
REMARK SMILES IDX 54 54 68 55 87 56 52 57 53 58 67 60 88 61 55 62 39 63 40 64
REMARK SMILES IDX 48 65 41 66 42 67 46 68 49 69 43 70 44 71 47 72 45 73 71 74
REMARK SMILES IDX 72 75 80 76 73 77 74 78 78 79 81 80 75 81 76 82 79 83 77 84
REMARK SMILES IDX 56 85 57 86 65 87 58 88 59 89 63 90 66 91 60 92 61 93 64 94
REMARK SMILES IDX 62 95
REMARK H PARENT 86 48 54 59
REMARK Flexibility Score: inf
ROOT
ATOM      1  C   UNL A   1      39.938  21.445  25.823  1.00  0.00     0.188 C 
ENDROOT
BRANCH   1   2
ATOM      2  O   UNL A   1      38.561  21.721  25.575  1.00  0.00    -0.376 OA
BRANCH   2   3
ATOM      3  C   UNL A   1      37.971  22.889  26.121  1.00  0.00     0.202 C 
BRANCH   3   4
ATOM      4  C   UNL A   1      36.584  23.258  25.600  1.00  0.00     0.261 C 
BRANCH   4   5
ATOM      5  O   UNL A   1      35.980  22.260  24.760  1.00  0.00    -0.462 OA
BRANCH   5   6
ATOM      6  C   UNL A   1      34.999  22.698  23.924  1.00  0.00     0.325 C 
ATOM      7  O   UNL A   1      35.195  23.306  22.876  1.00  0.00    -0.250 OA
BRANCH   6   8
ATOM      8  C   UNL A   1      33.606  22.511  24.492  1.00  0.00     0.194 C 
ATOM      9  N   UNL A   1      32.593  23.547  24.193  1.00  0.00    -0.173 NA
ATOM     10  C   UNL A   1      31.660  23.217  23.125  1.00  0.00     0.172 C 
ATOM     11  S   UNL A   1      31.923  21.492  22.666  1.00  0.00    -0.143 SA
ATOM     12  C   UNL A   1      33.099  21.158  23.998  1.00  0.00     0.103 C 
BRANCH   9  13
ATOM     13  S   UNL A   1      32.153  24.692  25.330  1.00  0.00     0.244 S 
ATOM     14  O   UNL A   1      33.267  24.848  26.240  1.00  0.00    -0.207 OA
ATOM     15  O   UNL A   1      30.845  24.309  25.818  1.00  0.00    -0.207 OA
BRANCH  13  16
ATOM     16  C   UNL A   1      31.947  26.253  24.492  1.00  0.00     0.083 A 
ATOM     17  C   UNL A   1      34.012  28.921  22.742  1.00  0.00     0.044 C 
ATOM     18  C   UNL A   1      32.839  28.158  23.286  1.00  0.00    -0.050 A 
ATOM     19  C   UNL A   1      31.535  28.566  22.987  1.00  0.00     0.007 A 
ATOM     20  C   UNL A   1      33.033  27.020  24.076  1.00  0.00     0.025 A 
ATOM     21  C   UNL A   1      30.430  27.843  23.456  1.00  0.00    -0.050 A 
ATOM     22  C   UNL A   1      29.045  28.323  23.127  1.00  0.00     0.044 C 
ATOM     23  C   UNL A   1      30.642  26.670  24.193  1.00  0.00     0.025 A 
ENDBRANCH  13  16
ENDBRANCH   9  13
ENDBRANCH   6   8
ENDBRANCH   5   6
ENDBRANCH   4   5
ENDBRANCH   3   4
ENDBRANCH   2   3
ENDBRANCH   1   2
BRANCH   1  24
ATOM     24  C   UNL A   1      40.365  20.108  26.460  1.00  0.00     0.188 C 
BRANCH  24  25
ATOM     25  O   UNL A   1      41.360  19.417  25.717  1.00  0.00    -0.376 OA
BRANCH  25  26
ATOM     26  C   UNL A   1      42.675  19.489  26.245  1.00  0.00     0.202 C 
BRANCH  26  27
ATOM     27  C   UNL A   1      43.494  20.602  25.587  1.00  0.00     0.261 C 
BRANCH  27  28
ATOM     28  O   UNL A   1      43.429  21.861  26.277  1.00  0.00    -0.460 OA
BRANCH  28  29
ATOM     29  C   UNL A   1      43.241  22.962  25.516  1.00  0.00     0.338 C 
ATOM     30  O   UNL A   1      43.313  23.042  24.303  1.00  0.00    -0.246 OA
BRANCH  29  31
ATOM     31  C   UNL A   1      42.791  24.049  26.408  1.00  0.00     0.060 A 
ATOM     32  C   UNL A   1      43.324  25.332  26.244  1.00  0.00     0.016 A 
ATOM     33  C   UNL A   1      41.837  23.798  27.395  1.00  0.00     0.016 A 
ATOM     34  C   UNL A   1      42.903  26.374  27.078  1.00  0.00     0.010 A 
ATOM     35  C   UNL A   1      41.435  24.835  28.242  1.00  0.00     0.010 A 
ATOM     36  C   UNL A   1      41.976  26.124  28.100  1.00  0.00    -0.014 A 
BRANCH  36  37
ATOM     37  C   UNL A   1      41.663  27.161  29.115  1.00  0.00     0.031 A 
ATOM     38  C   UNL A   1      42.477  27.207  30.377  1.00  0.00     0.074 A 
ATOM     39  C   UNL A   1      40.654  28.032  28.939  1.00  0.00     0.049 A 
ATOM     40  N   UNL A   1      42.301  27.924  31.459  1.00  0.00    -0.248 NA
ATOM     41  C   UNL A   1      43.650  26.320  30.425  1.00  0.00     0.031 C 
ATOM     42  C   UNL A   1      39.823  28.135  27.743  1.00  0.00     0.029 A 
ATOM     43  N   UNL A   1      40.147  28.989  29.786  1.00  0.00    -0.354 N 
ATOM     44  C   UNL A   1      43.331  27.566  32.318  1.00  0.00     0.074 A 
ATOM     45  C   UNL A   1      44.119  26.558  31.641  1.00  0.00     0.031 C 
ATOM     46  C   UNL A   1      38.893  29.086  27.940  1.00  0.00     0.029 A 
ATOM     47  C   UNL A   1      39.037  29.628  29.292  1.00  0.00     0.049 A 
ATOM     48  H   UNL A   1      40.542  29.196  30.665  1.00  0.00     0.167 HD
ATOM     49  C   UNL A   1      43.595  28.035  33.560  1.00  0.00     0.037 A 
ATOM     50  C   UNL A   1      38.210  30.517  29.877  1.00  0.00     0.037 A 
ATOM     51  C   UNL A   1      42.813  29.036  34.237  1.00  0.00     0.049 A 
ATOM     52  C   UNL A   1      38.467  30.952  31.298  1.00  0.00     0.074 A 
ATOM     53  C   UNL A   1      43.015  29.588  35.490  1.00  0.00     0.029 A 
ATOM     54  N   UNL A   1      41.670  29.626  33.719  1.00  0.00    -0.354 N 
ATOM     55  N   UNL A   1      39.445  30.618  32.104  1.00  0.00    -0.248 NA
ATOM     56  C   UNL A   1      37.495  31.882  31.895  1.00  0.00     0.031 C 
ATOM     57  C   UNL A   1      41.967  30.477  35.750  1.00  0.00     0.029 A 
ATOM     58  C   UNL A   1      41.138  30.514  34.641  1.00  0.00     0.049 A 
ATOM     59  H   UNL A   1      41.292  29.441  32.829  1.00  0.00     0.167 HD
ATOM     60  C   UNL A   1      39.219  31.307  33.289  1.00  0.00     0.074 A 
ATOM     61  C   UNL A   1      38.018  32.091  33.095  1.00  0.00     0.031 C 
ATOM     62  C   UNL A   1      39.942  31.290  34.436  1.00  0.00     0.037 A 
BRANCH  49  63
ATOM     63  C   UNL A   1      44.766  27.442  34.286  1.00  0.00     0.064 A 
ATOM     64  C   UNL A   1      44.633  26.306  35.097  1.00  0.00     0.173 A 
ATOM     65  C   UNL A   1      46.043  28.005  34.144  1.00  0.00     0.173 A 
ATOM     66  F   UNL A   1      43.429  25.742  35.276  1.00  0.00    -0.203 F 
ATOM     67  C   UNL A   1      45.733  25.768  35.759  1.00  0.00     0.198 A 
ATOM     68  C   UNL A   1      47.146  27.448  34.785  1.00  0.00     0.198 A 
ATOM     69  F   UNL A   1      46.223  29.089  33.374  1.00  0.00    -0.203 F 
ATOM     70  F   UNL A   1      45.576  24.708  36.563  1.00  0.00    -0.200 F 
ATOM     71  C   UNL A   1      46.989  26.336  35.598  1.00  0.00     0.200 A 
ATOM     72  F   UNL A   1      48.360  27.991  34.620  1.00  0.00    -0.200 F 
ATOM     73  F   UNL A   1      48.048  25.813  36.231  1.00  0.00    -0.200 F 
ENDBRANCH  49  63
BRANCH  50  74
ATOM     74  C   UNL A   1      37.029  31.033  29.136  1.00  0.00     0.064 A 
ATOM     75  C   UNL A   1      36.985  32.356  28.675  1.00  0.00     0.173 A 
ATOM     76  C   UNL A   1      35.908  30.223  28.901  1.00  0.00     0.173 A 
ATOM     77  F   UNL A   1      38.017  33.180  28.908  1.00  0.00    -0.203 F 
ATOM     78  C   UNL A   1      35.861  32.852  28.018  1.00  0.00     0.198 A 
ATOM     79  C   UNL A   1      34.795  30.711  28.219  1.00  0.00     0.198 A 
ATOM     80  F   UNL A   1      35.893  28.954  29.335  1.00  0.00    -0.203 F 
ATOM     81  F   UNL A   1      35.826  34.134  27.629  1.00  0.00    -0.200 F 
ATOM     82  C   UNL A   1      34.769  32.028  27.784  1.00  0.00     0.200 A 
ATOM     83  F   UNL A   1      33.744  29.912  27.995  1.00  0.00    -0.200 F 
ATOM     84  F   UNL A   1      33.689  32.506  27.153  1.00  0.00    -0.200 F 
ENDBRANCH  50  74
BRANCH  62  85
ATOM     85  C   UNL A   1      39.474  32.159  35.567  1.00  0.00     0.064 A 
ATOM     86  C   UNL A   1      38.579  31.682  36.536  1.00  0.00     0.173 A 
ATOM     87  C   UNL A   1      39.970  33.463  35.716  1.00  0.00     0.173 A 
ATOM     88  F   UNL A   1      38.064  30.448  36.431  1.00  0.00    -0.203 F 
ATOM     89  C   UNL A   1      38.187  32.486  37.605  1.00  0.00     0.198 A 
ATOM     90  C   UNL A   1      39.596  34.254  36.799  1.00  0.00     0.198 A 
ATOM     91  F   UNL A   1      40.833  33.964  34.820  1.00  0.00    -0.203 F 
ATOM     92  F   UNL A   1      37.304  32.022  38.500  1.00  0.00    -0.200 F 
ATOM     93  C   UNL A   1      38.702  33.767  37.741  1.00  0.00     0.200 A 
ATOM     94  F   UNL A   1      40.105  35.486  36.935  1.00  0.00    -0.200 F 
ATOM     95  F   UNL A   1      38.332  34.533  38.775  1.00  0.00    -0.200 F 
ENDBRANCH  62  85
ENDBRANCH  36  37
ENDBRANCH  29  31
ENDBRANCH  28  29
ENDBRANCH  27  28
ENDBRANCH  26  27
ENDBRANCH  25  26
ENDBRANCH  24  25
ENDBRANCH   1  24
TORSDOF 19
ENDMDL
