MODEL 1
REMARK VINA RESULT:     -11.2      0.000      0.000
REMARK SMILES O=C(OCCOCCOCCOC(=O)[C@@H]1CC2(CC[NH2+]CC2)C[N@@H+]1Cc1cccc2nonc12)c1ccc(-c2c3nc(c(-c4c(F)c(F)c(F)c(F)c4F)c4ccc([nH]4)c(-c4c(F)c(F)c(F)c(F)c4F)c4nc(c(-c5c(F)c(F)c(F)c(F)c5F)c5ccc2[nH]5)C=C4)C=C3)cc1
REMARK SMILES IDX 7 1 6 2 5 3 4 4 3 5 2 6 1 7 35 8 36 9 97 10 37 11 96 12
REMARK SMILES IDX 38 13 39 14 40 15 90 16 41 17 95 18 89 19 91 20 42 21 94 22
REMARK SMILES IDX 88 23 87 24 43 26 75 27 55 28 74 29 56 30 59 31 73 32 92 33
REMARK SMILES IDX 57 34 58 35 72 37 93 38 60 39 44 40 45 41 53 42 46 43 47 44
REMARK SMILES IDX 51 45 54 46 48 47 49 48 52 49 50 50 76 51 77 52 85 53 78 54
REMARK SMILES IDX 79 55 83 56 86 57 80 58 81 59 84 60 82 61 61 62 62 63 70 64
REMARK SMILES IDX 63 65 64 66 68 67 71 68 65 69 66 70 69 71 67 72 8 73 9 74
REMARK SMILES IDX 10 75 11 76 12 77 13 78 14 79 15 80 16 81 24 82 17 83 23 84
REMARK SMILES IDX 18 86 22 87 19 88 21 89 20 90 25 93 26 94 27 95 34 96 28 97
REMARK SMILES IDX 30 98 33 99 29 100 31 101 32 102
REMARK H PARENT 91 25 59 36 24 85 20 91 20 92
REMARK Flexibility Score: inf
ROOT
ATOM      1  C   UNL A   1      33.964  21.328  24.363  1.00  0.00     0.188 C 
ENDROOT
BRANCH   1   2
ATOM      2  O   UNL A   1      34.268  20.079  24.976  1.00  0.00    -0.376 OA
BRANCH   2   3
ATOM      3  C   UNL A   1      35.667  19.777  25.023  1.00  0.00     0.202 C 
BRANCH   3   4
ATOM      4  C   UNL A   1      36.525  20.940  24.533  1.00  0.00     0.261 C 
BRANCH   4   5
ATOM      5  O   UNL A   1      37.425  21.292  25.593  1.00  0.00    -0.460 OA
BRANCH   5   6
ATOM      6  C   UNL A   1      37.204  22.498  26.179  1.00  0.00     0.338 C 
ATOM      7  O   UNL A   1      36.126  22.965  26.497  1.00  0.00    -0.246 OA
BRANCH   6   8
ATOM      8  C   UNL A   1      38.497  23.223  26.291  1.00  0.00     0.060 A 
ATOM      9  C   UNL A   1      39.717  22.542  26.213  1.00  0.00     0.016 A 
ATOM     10  C   UNL A   1      38.500  24.585  26.577  1.00  0.00     0.016 A 
ATOM     11  C   UNL A   1      40.936  23.237  26.363  1.00  0.00     0.010 A 
ATOM     12  C   UNL A   1      39.705  25.262  26.743  1.00  0.00     0.010 A 
ATOM     13  C   UNL A   1      40.953  24.620  26.625  1.00  0.00    -0.014 A 
BRANCH  13  14
ATOM     14  C   UNL A   1      42.247  25.406  26.721  1.00  0.00     0.031 A 
ATOM     15  C   UNL A   1      42.038  26.765  27.365  1.00  0.00     0.074 A 
ATOM     16  C   UNL A   1      43.370  24.806  27.190  1.00  0.00     0.049 A 
ATOM     17  N   UNL A   1      42.054  27.021  28.644  1.00  0.00    -0.248 NA
ATOM     18  C   UNL A   1      41.491  27.849  26.544  1.00  0.00     0.031 C 
ATOM     19  C   UNL A   1      43.395  24.297  28.553  1.00  0.00     0.029 A 
ATOM     20  N   UNL A   1      44.717  25.016  26.894  1.00  0.00    -0.354 N 
ATOM     21  C   UNL A   1      41.462  28.262  28.811  1.00  0.00     0.074 A 
ATOM     22  C   UNL A   1      41.122  28.730  27.481  1.00  0.00     0.031 C 
ATOM     23  C   UNL A   1      44.650  24.264  29.015  1.00  0.00     0.029 A 
ATOM     24  C   UNL A   1      45.536  24.823  28.006  1.00  0.00     0.049 A 
ATOM     25  H   UNL A   1      45.050  25.271  26.005  1.00  0.00     0.167 HD
ATOM     26  C   UNL A   1      41.246  28.864  30.011  1.00  0.00     0.037 A 
ATOM     27  C   UNL A   1      46.746  25.375  28.288  1.00  0.00     0.037 A 
ATOM     28  C   UNL A   1      41.744  28.281  31.242  1.00  0.00     0.049 A 
ATOM     29  C   UNL A   1      46.466  26.268  29.468  1.00  0.00     0.074 A 
ATOM     30  C   UNL A   1      41.529  28.496  32.593  1.00  0.00     0.029 A 
ATOM     31  N   UNL A   1      42.734  27.329  31.196  1.00  0.00    -0.354 N 
ATOM     32  N   UNL A   1      46.430  25.959  30.739  1.00  0.00    -0.248 NA
ATOM     33  C   UNL A   1      45.869  27.574  29.127  1.00  0.00     0.031 C 
ATOM     34  C   UNL A   1      42.610  27.884  33.310  1.00  0.00     0.029 A 
ATOM     35  C   UNL A   1      43.462  27.319  32.378  1.00  0.00     0.049 A 
ATOM     36  H   UNL A   1      42.904  26.735  30.430  1.00  0.00     0.167 HD
ATOM     37  C   UNL A   1      45.557  26.896  31.281  1.00  0.00     0.074 A 
ATOM     38  C   UNL A   1      45.362  27.937  30.295  1.00  0.00     0.031 C 
ATOM     39  C   UNL A   1      44.760  26.676  32.360  1.00  0.00     0.037 A 
BRANCH  26  40
ATOM     40  C   UNL A   1      40.716  30.253  30.055  1.00  0.00     0.064 A 
ATOM     41  C   UNL A   1      41.643  31.305  30.127  1.00  0.00     0.173 A 
ATOM     42  C   UNL A   1      39.355  30.569  30.123  1.00  0.00     0.173 A 
ATOM     43  F   UNL A   1      42.958  31.047  30.033  1.00  0.00    -0.203 F 
ATOM     44  C   UNL A   1      41.230  32.620  30.299  1.00  0.00     0.198 A 
ATOM     45  C   UNL A   1      38.942  31.893  30.289  1.00  0.00     0.198 A 
ATOM     46  F   UNL A   1      38.429  29.603  30.037  1.00  0.00    -0.203 F 
ATOM     47  F   UNL A   1      42.140  33.600  30.384  1.00  0.00    -0.200 F 
ATOM     48  C   UNL A   1      39.879  32.915  30.389  1.00  0.00     0.200 A 
ATOM     49  F   UNL A   1      37.635  32.184  30.360  1.00  0.00    -0.200 F 
ATOM     50  F   UNL A   1      39.481  34.182  30.567  1.00  0.00    -0.200 F 
ENDBRANCH  26  40
BRANCH  27  51
ATOM     51  C   UNL A   1      47.726  25.709  27.225  1.00  0.00     0.064 A 
ATOM     52  C   UNL A   1      49.037  25.204  27.325  1.00  0.00     0.173 A 
ATOM     53  C   UNL A   1      47.465  26.546  26.131  1.00  0.00     0.173 A 
ATOM     54  F   UNL A   1      49.405  24.491  28.401  1.00  0.00    -0.203 F 
ATOM     55  C   UNL A   1      49.989  25.430  26.330  1.00  0.00     0.198 A 
ATOM     56  C   UNL A   1      48.408  26.750  25.123  1.00  0.00     0.198 A 
ATOM     57  F   UNL A   1      46.293  27.180  26.004  1.00  0.00    -0.203 F 
ATOM     58  F   UNL A   1      51.218  24.909  26.451  1.00  0.00    -0.200 F 
ATOM     59  C   UNL A   1      49.663  26.178  25.214  1.00  0.00     0.200 A 
ATOM     60  F   UNL A   1      48.084  27.493  24.055  1.00  0.00    -0.200 F 
ATOM     61  F   UNL A   1      50.556  26.352  24.230  1.00  0.00    -0.200 F 
ENDBRANCH  27  51
BRANCH  39  62
ATOM     62  C   UNL A   1      45.247  25.727  33.397  1.00  0.00     0.064 A 
ATOM     63  C   UNL A   1      44.936  24.365  33.313  1.00  0.00     0.173 A 
ATOM     64  C   UNL A   1      46.027  26.115  34.487  1.00  0.00     0.173 A 
ATOM     65  F   UNL A   1      44.157  23.912  32.320  1.00  0.00    -0.203 F 
ATOM     66  C   UNL A   1      45.425  23.450  34.250  1.00  0.00     0.198 A 
ATOM     67  C   UNL A   1      46.572  25.205  35.387  1.00  0.00     0.198 A 
ATOM     68  F   UNL A   1      46.207  27.400  34.757  1.00  0.00    -0.203 F 
ATOM     69  F   UNL A   1      45.081  22.158  34.163  1.00  0.00    -0.200 F 
ATOM     70  C   UNL A   1      46.266  23.867  35.269  1.00  0.00     0.200 A 
ATOM     71  F   UNL A   1      47.369  25.640  36.374  1.00  0.00    -0.200 F 
ATOM     72  F   UNL A   1      46.763  22.987  36.149  1.00  0.00    -0.200 F 
ENDBRANCH  39  62
ENDBRANCH  13  14
ENDBRANCH   6   8
ENDBRANCH   5   6
ENDBRANCH   4   5
ENDBRANCH   3   4
ENDBRANCH   2   3
ENDBRANCH   1   2
BRANCH   1  73
ATOM     73  C   UNL A   1      32.528  21.791  24.603  1.00  0.00     0.188 C 
BRANCH  73  74
ATOM     74  O   UNL A   1      31.985  21.770  25.920  1.00  0.00    -0.376 OA
BRANCH  74  75
ATOM     75  C   UNL A   1      30.661  22.223  26.166  1.00  0.00     0.202 C 
BRANCH  75  76
ATOM     76  C   UNL A   1      30.380  23.702  26.454  1.00  0.00     0.261 C 
BRANCH  76  77
ATOM     77  O   UNL A   1      31.337  24.434  27.214  1.00  0.00    -0.459 OA
BRANCH  77  78
ATOM     78  C   UNL A   1      32.294  25.035  26.460  1.00  0.00     0.365 C 
ATOM     79  O   UNL A   1      33.480  24.735  26.471  1.00  0.00    -0.245 OA
BRANCH  78  80
ATOM     80  C   UNL A   1      31.714  26.201  25.681  1.00  0.00     0.296 C 
ATOM     81  C   UNL A   1      31.478  25.885  24.205  1.00  0.00     0.091 C 
ATOM     82  N   UNL A   1      32.639  27.332  25.669  1.00  0.00    -0.319 N 
ATOM     83  C   UNL A   1      32.729  26.364  23.440  1.00  0.00     0.036 C 
ATOM     84  C   UNL A   1      33.406  27.344  24.432  1.00  0.00     0.270 C 
ATOM     85  H   UNL A   1      32.151  28.224  25.590  1.00  0.00     0.349 HD
ATOM     86  C   UNL A   1      32.389  27.061  22.095  1.00  0.00     0.074 C 
ATOM     87  C   UNL A   1      33.666  25.188  23.089  1.00  0.00     0.074 C 
ATOM     88  C   UNL A   1      31.855  26.104  21.033  1.00  0.00     0.261 C 
ATOM     89  C   UNL A   1      33.082  24.277  22.008  1.00  0.00     0.261 C 
ATOM     90  N   UNL A   1      32.789  25.012  20.776  1.00  0.00    -0.346 N 
ATOM     91  H   UNL A   1      33.656  25.396  20.403  1.00  0.00     0.346 HD
ATOM     92  H   UNL A   1      32.365  24.370  20.106  1.00  0.00     0.346 HD
BRANCH  82  93
ATOM     93  C   UNL A   1      33.190  27.739  26.973  1.00  0.00     0.302 C 
BRANCH  93  94
ATOM     94  C   UNL A   1      33.822  29.097  27.150  1.00  0.00     0.038 A 
ATOM     95  C   UNL A   1      35.178  29.317  27.501  1.00  0.00     0.012 A 
ATOM     96  C   UNL A   1      33.101  30.314  27.048  1.00  0.00     0.144 A 
ATOM     97  C   UNL A   1      35.701  30.558  27.956  1.00  0.00     0.003 A 
ATOM     98  C   UNL A   1      33.652  31.600  27.472  1.00  0.00     0.135 A 
ATOM     99  N   UNL A   1      31.841  30.526  26.638  1.00  0.00    -0.049 NA
ATOM    100  C   UNL A   1      34.947  31.738  27.995  1.00  0.00     0.034 A 
ATOM    101  N   UNL A   1      32.708  32.536  27.314  1.00  0.00    -0.050 NA
ATOM    102  O   UNL A   1      31.614  31.882  26.777  1.00  0.00    -0.243 OA
ENDBRANCH  93  94
ENDBRANCH  82  93
ENDBRANCH  78  80
ENDBRANCH  77  78
ENDBRANCH  76  77
ENDBRANCH  75  76
ENDBRANCH  74  75
ENDBRANCH  73  74
ENDBRANCH   1  73
TORSDOF 19
ENDMDL
MODEL 2
REMARK VINA RESULT:     -11.0      5.555     10.474
REMARK SMILES O=C(OCCOCCOCCOC(=O)[C@@H]1CC2(CC[NH2+]CC2)C[N@@H+]1Cc1cccc2nonc12)c1ccc(-c2c3nc(c(-c4c(F)c(F)c(F)c(F)c4F)c4ccc([nH]4)c(-c4c(F)c(F)c(F)c(F)c4F)c4nc(c(-c5c(F)c(F)c(F)c(F)c5F)c5ccc2[nH]5)C=C4)C=C3)cc1
REMARK SMILES IDX 7 1 6 2 5 3 4 4 3 5 2 6 1 7 35 8 36 9 97 10 37 11 96 12
REMARK SMILES IDX 38 13 39 14 40 15 90 16 41 17 95 18 89 19 91 20 42 21 94 22
REMARK SMILES IDX 88 23 87 24 43 26 75 27 55 28 74 29 56 30 59 31 73 32 92 33
REMARK SMILES IDX 57 34 58 35 72 37 93 38 60 39 44 40 45 41 53 42 46 43 47 44
REMARK SMILES IDX 51 45 54 46 48 47 49 48 52 49 50 50 76 51 77 52 85 53 78 54
REMARK SMILES IDX 79 55 83 56 86 57 80 58 81 59 84 60 82 61 61 62 62 63 70 64
REMARK SMILES IDX 63 65 64 66 68 67 71 68 65 69 66 70 69 71 67 72 8 73 9 74
REMARK SMILES IDX 10 75 11 76 12 77 13 78 14 79 15 80 16 81 24 82 17 83 23 84
REMARK SMILES IDX 18 86 22 87 19 88 21 89 20 90 25 93 26 94 27 95 34 96 28 97
REMARK SMILES IDX 30 98 33 99 29 100 31 101 32 102
REMARK H PARENT 91 25 59 36 24 85 20 91 20 92
REMARK Flexibility Score: inf
ROOT
ATOM      1  C   UNL A   1      43.110  26.007  35.789  1.00  0.00     0.188 C 
ENDROOT
BRANCH   1   2
ATOM      2  O   UNL A   1      43.276  24.992  36.774  1.00  0.00    -0.376 OA
BRANCH   2   3
ATOM      3  C   UNL A   1      44.485  25.109  37.533  1.00  0.00     0.202 C 
BRANCH   3   4
ATOM      4  C   UNL A   1      45.389  23.889  37.368  1.00  0.00     0.261 C 
BRANCH   4   5
ATOM      5  O   UNL A   1      44.909  23.143  36.241  1.00  0.00    -0.460 OA
BRANCH   5   6
ATOM      6  C   UNL A   1      45.857  22.739  35.354  1.00  0.00     0.338 C 
ATOM      7  O   UNL A   1      46.620  21.800  35.483  1.00  0.00    -0.246 OA
BRANCH   6   8
ATOM      8  C   UNL A   1      45.889  23.696  34.217  1.00  0.00     0.060 A 
ATOM      9  C   UNL A   1      46.898  24.660  34.110  1.00  0.00     0.016 A 
ATOM     10  C   UNL A   1      44.847  23.703  33.294  1.00  0.00     0.016 A 
ATOM     11  C   UNL A   1      46.891  25.589  33.048  1.00  0.00     0.010 A 
ATOM     12  C   UNL A   1      44.835  24.634  32.258  1.00  0.00     0.010 A 
ATOM     13  C   UNL A   1      45.858  25.589  32.092  1.00  0.00    -0.014 A 
BRANCH  13  14
ATOM     14  C   UNL A   1      45.861  26.528  30.901  1.00  0.00     0.031 A 
ATOM     15  C   UNL A   1      45.499  25.811  29.613  1.00  0.00     0.074 A 
ATOM     16  C   UNL A   1      45.239  27.731  30.986  1.00  0.00     0.049 A 
ATOM     17  N   UNL A   1      44.293  25.606  29.158  1.00  0.00    -0.248 NA
ATOM     18  C   UNL A   1      46.535  25.023  28.939  1.00  0.00     0.031 C 
ATOM     19  C   UNL A   1      43.804  27.782  31.221  1.00  0.00     0.029 A 
ATOM     20  N   UNL A   1      45.514  28.954  30.373  1.00  0.00    -0.354 N 
ATOM     21  C   UNL A   1      44.393  24.620  28.190  1.00  0.00     0.074 A 
ATOM     22  C   UNL A   1      45.801  24.285  28.098  1.00  0.00     0.031 C 
ATOM     23  C   UNL A   1      43.293  28.920  30.738  1.00  0.00     0.029 A 
ATOM     24  C   UNL A   1      44.354  29.669  30.082  1.00  0.00     0.049 A 
ATOM     25  H   UNL A   1      46.422  29.275  30.170  1.00  0.00     0.167 HD
ATOM     26  C   UNL A   1      43.340  24.091  27.511  1.00  0.00     0.037 A 
ATOM     27  C   UNL A   1      44.133  30.589  29.105  1.00  0.00     0.037 A 
ATOM     28  C   UNL A   1      42.001  24.623  27.671  1.00  0.00     0.049 A 
ATOM     29  C   UNL A   1      43.158  29.904  28.183  1.00  0.00     0.074 A 
ATOM     30  C   UNL A   1      40.726  24.208  27.323  1.00  0.00     0.029 A 
ATOM     31  N   UNL A   1      41.822  25.874  28.213  1.00  0.00    -0.354 N 
ATOM     32  N   UNL A   1      41.855  29.841  28.270  1.00  0.00    -0.248 NA
ATOM     33  C   UNL A   1      43.768  28.945  27.241  1.00  0.00     0.031 C 
ATOM     34  C   UNL A   1      39.862  25.350  27.394  1.00  0.00     0.029 A 
ATOM     35  C   UNL A   1      40.631  26.434  27.773  1.00  0.00     0.049 A 
ATOM     36  H   UNL A   1      42.453  26.311  28.830  1.00  0.00     0.167 HD
ATOM     37  C   UNL A   1      41.539  28.653  27.618  1.00  0.00     0.074 A 
ATOM     38  C   UNL A   1      42.714  28.226  26.889  1.00  0.00     0.031 C 
ATOM     39  C   UNL A   1      40.472  27.867  27.918  1.00  0.00     0.037 A 
BRANCH  26  40
ATOM     40  C   UNL A   1      43.586  23.126  26.406  1.00  0.00     0.064 A 
ATOM     41  C   UNL A   1      43.318  21.770  26.650  1.00  0.00     0.173 A 
ATOM     42  C   UNL A   1      44.155  23.474  25.176  1.00  0.00     0.173 A 
ATOM     43  F   UNL A   1      42.744  21.399  27.806  1.00  0.00    -0.203 F 
ATOM     44  C   UNL A   1      43.640  20.792  25.718  1.00  0.00     0.198 A 
ATOM     45  C   UNL A   1      44.471  22.489  24.237  1.00  0.00     0.198 A 
ATOM     46  F   UNL A   1      44.410  24.758  24.885  1.00  0.00    -0.203 F 
ATOM     47  F   UNL A   1      43.389  19.503  25.989  1.00  0.00    -0.200 F 
ATOM     48  C   UNL A   1      44.224  21.149  24.514  1.00  0.00     0.200 A 
ATOM     49  F   UNL A   1      45.022  22.832  23.064  1.00  0.00    -0.200 F 
ATOM     50  F   UNL A   1      44.545  20.204  23.620  1.00  0.00    -0.200 F 
ENDBRANCH  26  40
BRANCH  27  51
ATOM     51  C   UNL A   1      45.199  31.507  28.634  1.00  0.00     0.064 A 
ATOM     52  C   UNL A   1      45.013  32.895  28.777  1.00  0.00     0.173 A 
ATOM     53  C   UNL A   1      46.380  31.100  27.996  1.00  0.00     0.173 A 
ATOM     54  F   UNL A   1      43.861  33.375  29.269  1.00  0.00    -0.203 F 
ATOM     55  C   UNL A   1      46.001  33.810  28.409  1.00  0.00     0.198 A 
ATOM     56  C   UNL A   1      47.378  32.012  27.653  1.00  0.00     0.198 A 
ATOM     57  F   UNL A   1      46.601  29.815  27.696  1.00  0.00    -0.203 F 
ATOM     58  F   UNL A   1      45.796  35.123  28.586  1.00  0.00    -0.200 F 
ATOM     59  C   UNL A   1      47.197  33.365  27.876  1.00  0.00     0.200 A 
ATOM     60  F   UNL A   1      48.526  31.568  27.120  1.00  0.00    -0.200 F 
ATOM     61  F   UNL A   1      48.170  34.234  27.572  1.00  0.00    -0.200 F 
ENDBRANCH  27  51
BRANCH  39  62
ATOM     62  C   UNL A   1      39.253  28.531  28.453  1.00  0.00     0.064 A 
ATOM     63  C   UNL A   1      38.514  29.409  27.652  1.00  0.00     0.173 A 
ATOM     64  C   UNL A   1      38.774  28.328  29.748  1.00  0.00     0.173 A 
ATOM     65  F   UNL A   1      38.928  29.693  26.407  1.00  0.00    -0.203 F 
ATOM     66  C   UNL A   1      37.340  30.005  28.119  1.00  0.00     0.198 A 
ATOM     67  C   UNL A   1      37.572  28.864  30.200  1.00  0.00     0.198 A 
ATOM     68  F   UNL A   1      39.506  27.673  30.638  1.00  0.00    -0.203 F 
ATOM     69  F   UNL A   1      36.674  30.868  27.340  1.00  0.00    -0.200 F 
ATOM     70  C   UNL A   1      36.854  29.709  29.383  1.00  0.00     0.200 A 
ATOM     71  F   UNL A   1      37.136  28.573  31.435  1.00  0.00    -0.200 F 
ATOM     72  F   UNL A   1      35.711  30.253  29.821  1.00  0.00    -0.200 F 
ENDBRANCH  39  62
ENDBRANCH  13  14
ENDBRANCH   6   8
ENDBRANCH   5   6
ENDBRANCH   4   5
ENDBRANCH   3   4
ENDBRANCH   2   3
ENDBRANCH   1   2
BRANCH   1  73
ATOM     73  C   UNL A   1      41.691  26.081  35.225  1.00  0.00     0.188 C 
BRANCH  73  74
ATOM     74  O   UNL A   1      41.098  27.348  34.955  1.00  0.00    -0.376 OA
BRANCH  74  75
ATOM     75  C   UNL A   1      41.040  27.853  33.628  1.00  0.00     0.202 C 
BRANCH  75  76
ATOM     76  C   UNL A   1      40.611  29.300  33.359  1.00  0.00     0.261 C 
BRANCH  76  77
ATOM     77  O   UNL A   1      39.219  29.607  33.392  1.00  0.00    -0.459 OA
BRANCH  77  78
ATOM     78  C   UNL A   1      38.930  30.887  33.043  1.00  0.00     0.365 C 
ATOM     79  O   UNL A   1      39.696  31.639  32.456  1.00  0.00    -0.245 OA
BRANCH  78  80
ATOM     80  C   UNL A   1      37.568  31.296  33.572  1.00  0.00     0.296 C 
ATOM     81  C   UNL A   1      36.619  31.791  32.481  1.00  0.00     0.091 C 
ATOM     82  N   UNL A   1      37.683  32.423  34.494  1.00  0.00    -0.319 N 
ATOM     83  C   UNL A   1      36.749  33.327  32.439  1.00  0.00     0.036 C 
ATOM     84  C   UNL A   1      37.399  33.672  33.803  1.00  0.00     0.270 C 
ATOM     85  H   UNL A   1      36.937  32.425  35.190  1.00  0.00     0.349 HD
ATOM     86  C   UNL A   1      35.385  34.048  32.260  1.00  0.00     0.074 C 
ATOM     87  C   UNL A   1      37.637  33.791  31.264  1.00  0.00     0.074 C 
ATOM     88  C   UNL A   1      34.775  33.857  30.874  1.00  0.00     0.261 C 
ATOM     89  C   UNL A   1      36.962  33.590  29.906  1.00  0.00     0.261 C 
ATOM     90  N   UNL A   1      35.685  34.299  29.822  1.00  0.00    -0.346 N 
ATOM     91  H   UNL A   1      35.852  35.300  29.924  1.00  0.00     0.346 HD
ATOM     92  H   UNL A   1      35.259  34.099  28.917  1.00  0.00     0.346 HD
BRANCH  82  93
ATOM     93  C   UNL A   1      38.690  32.293  35.561  1.00  0.00     0.302 C 
BRANCH  93  94
ATOM     94  C   UNL A   1      38.414  32.822  36.947  1.00  0.00     0.038 A 
ATOM     95  C   UNL A   1      38.722  34.136  37.385  1.00  0.00     0.012 A 
ATOM     96  C   UNL A   1      37.872  32.032  37.991  1.00  0.00     0.144 A 
ATOM     97  C   UNL A   1      38.742  34.545  38.746  1.00  0.00     0.003 A 
ATOM     98  C   UNL A   1      37.849  32.469  39.387  1.00  0.00     0.135 A 
ATOM     99  N   UNL A   1      37.365  30.790  37.946  1.00  0.00    -0.049 NA
ATOM    100  C   UNL A   1      38.344  33.715  39.801  1.00  0.00     0.034 A 
ATOM    101  N   UNL A   1      37.343  31.478  40.131  1.00  0.00    -0.050 NA
ATOM    102  O   UNL A   1      37.021  30.467  39.245  1.00  0.00    -0.243 OA
ENDBRANCH  93  94
ENDBRANCH  82  93
ENDBRANCH  78  80
ENDBRANCH  77  78
ENDBRANCH  76  77
ENDBRANCH  75  76
ENDBRANCH  74  75
ENDBRANCH  73  74
ENDBRANCH   1  73
TORSDOF 19
ENDMDL
MODEL 3
REMARK VINA RESULT:     -10.9      1.317      2.446
REMARK SMILES O=C(OCCOCCOCCOC(=O)[C@@H]1CC2(CC[NH2+]CC2)C[N@@H+]1Cc1cccc2nonc12)c1ccc(-c2c3nc(c(-c4c(F)c(F)c(F)c(F)c4F)c4ccc([nH]4)c(-c4c(F)c(F)c(F)c(F)c4F)c4nc(c(-c5c(F)c(F)c(F)c(F)c5F)c5ccc2[nH]5)C=C4)C=C3)cc1
REMARK SMILES IDX 7 1 6 2 5 3 4 4 3 5 2 6 1 7 35 8 36 9 97 10 37 11 96 12
REMARK SMILES IDX 38 13 39 14 40 15 90 16 41 17 95 18 89 19 91 20 42 21 94 22
REMARK SMILES IDX 88 23 87 24 43 26 75 27 55 28 74 29 56 30 59 31 73 32 92 33
REMARK SMILES IDX 57 34 58 35 72 37 93 38 60 39 44 40 45 41 53 42 46 43 47 44
REMARK SMILES IDX 51 45 54 46 48 47 49 48 52 49 50 50 76 51 77 52 85 53 78 54
REMARK SMILES IDX 79 55 83 56 86 57 80 58 81 59 84 60 82 61 61 62 62 63 70 64
REMARK SMILES IDX 63 65 64 66 68 67 71 68 65 69 66 70 69 71 67 72 8 73 9 74
REMARK SMILES IDX 10 75 11 76 12 77 13 78 14 79 15 80 16 81 24 82 17 83 23 84
REMARK SMILES IDX 18 86 22 87 19 88 21 89 20 90 25 93 26 94 27 95 34 96 28 97
REMARK SMILES IDX 30 98 33 99 29 100 31 101 32 102
REMARK H PARENT 91 25 59 36 24 85 20 91 20 92
REMARK Flexibility Score: inf
ROOT
ATOM      1  C   UNL A   1      33.277  23.539  22.240  1.00  0.00     0.188 C 
ENDROOT
BRANCH   1   2
ATOM      2  O   UNL A   1      34.682  23.331  22.343  1.00  0.00    -0.376 OA
BRANCH   2   3
ATOM      3  C   UNL A   1      35.119  22.942  23.650  1.00  0.00     0.202 C 
BRANCH   3   4
ATOM      4  C   UNL A   1      36.631  22.740  23.717  1.00  0.00     0.261 C 
BRANCH   4   5
ATOM      5  O   UNL A   1      36.898  21.813  24.778  1.00  0.00    -0.460 OA
BRANCH   5   6
ATOM      6  C   UNL A   1      36.957  22.347  26.027  1.00  0.00     0.338 C 
ATOM      7  O   UNL A   1      36.088  22.305  26.877  1.00  0.00    -0.246 OA
BRANCH   6   8
ATOM      8  C   UNL A   1      38.236  23.090  26.172  1.00  0.00     0.060 A 
ATOM      9  C   UNL A   1      39.468  22.428  26.128  1.00  0.00     0.016 A 
ATOM     10  C   UNL A   1      38.211  24.453  26.456  1.00  0.00     0.016 A 
ATOM     11  C   UNL A   1      40.672  23.142  26.310  1.00  0.00     0.010 A 
ATOM     12  C   UNL A   1      39.401  25.149  26.653  1.00  0.00     0.010 A 
ATOM     13  C   UNL A   1      40.661  24.525  26.569  1.00  0.00    -0.014 A 
BRANCH  13  14
ATOM     14  C   UNL A   1      41.941  25.330  26.699  1.00  0.00     0.031 A 
ATOM     15  C   UNL A   1      41.694  26.686  27.335  1.00  0.00     0.074 A 
ATOM     16  C   UNL A   1      43.060  24.748  27.198  1.00  0.00     0.049 A 
ATOM     17  N   UNL A   1      41.672  26.944  28.614  1.00  0.00    -0.248 NA
ATOM     18  C   UNL A   1      41.152  27.761  26.498  1.00  0.00     0.031 C 
ATOM     19  C   UNL A   1      43.056  24.241  28.562  1.00  0.00     0.029 A 
ATOM     20  N   UNL A   1      44.411  24.978  26.938  1.00  0.00    -0.354 N 
ATOM     21  C   UNL A   1      41.058  28.177  28.764  1.00  0.00     0.074 A 
ATOM     22  C   UNL A   1      40.746  28.638  27.424  1.00  0.00     0.031 C 
ATOM     23  C   UNL A   1      44.299  24.227  29.058  1.00  0.00     0.029 A 
ATOM     24  C   UNL A   1      45.202  24.798  28.071  1.00  0.00     0.049 A 
ATOM     25  H   UNL A   1      44.764  25.237  26.057  1.00  0.00     0.167 HD
ATOM     26  C   UNL A   1      40.801  28.776  29.957  1.00  0.00     0.037 A 
ATOM     27  C   UNL A   1      46.396  25.369  28.385  1.00  0.00     0.037 A 
ATOM     28  C   UNL A   1      41.274  28.202  31.201  1.00  0.00     0.049 A 
ATOM     29  C   UNL A   1      46.071  26.258  29.556  1.00  0.00     0.074 A 
ATOM     30  C   UNL A   1      41.020  28.414  32.546  1.00  0.00     0.029 A 
ATOM     31  N   UNL A   1      42.280  27.265  31.183  1.00  0.00    -0.354 N 
ATOM     32  N   UNL A   1      46.006  25.950  30.825  1.00  0.00    -0.248 NA
ATOM     33  C   UNL A   1      45.464  27.555  29.198  1.00  0.00     0.031 C 
ATOM     34  C   UNL A   1      42.091  27.819  33.291  1.00  0.00     0.029 A 
ATOM     35  C   UNL A   1      42.976  27.267  32.384  1.00  0.00     0.049 A 
ATOM     36  H   UNL A   1      42.478  26.672  30.422  1.00  0.00     0.167 HD
ATOM     37  C   UNL A   1      45.105  26.874  31.343  1.00  0.00     0.074 A 
ATOM     38  C   UNL A   1      44.921  27.911  30.351  1.00  0.00     0.031 C 
ATOM     39  C   UNL A   1      44.283  26.643  32.401  1.00  0.00     0.037 A 
BRANCH  26  40
ATOM     40  C   UNL A   1      40.249  30.157  29.985  1.00  0.00     0.064 A 
ATOM     41  C   UNL A   1      41.157  31.222  30.086  1.00  0.00     0.173 A 
ATOM     42  C   UNL A   1      38.882  30.452  30.011  1.00  0.00     0.173 A 
ATOM     43  F   UNL A   1      42.478  30.984  30.034  1.00  0.00    -0.203 F 
ATOM     44  C   UNL A   1      40.719  32.531  30.246  1.00  0.00     0.198 A 
ATOM     45  C   UNL A   1      38.444  31.770  30.164  1.00  0.00     0.198 A 
ATOM     46  F   UNL A   1      37.974  29.473  29.895  1.00  0.00    -0.203 F 
ATOM     47  F   UNL A   1      41.612  33.524  30.360  1.00  0.00    -0.200 F 
ATOM     48  C   UNL A   1      39.362  32.805  30.294  1.00  0.00     0.200 A 
ATOM     49  F   UNL A   1      37.132  32.042  30.194  1.00  0.00    -0.200 F 
ATOM     50  F   UNL A   1      38.940  34.066  30.460  1.00  0.00    -0.200 F 
ENDBRANCH  26  40
BRANCH  27  51
ATOM     51  C   UNL A   1      47.399  25.716  27.348  1.00  0.00     0.064 A 
ATOM     52  C   UNL A   1      48.704  25.201  27.464  1.00  0.00     0.173 A 
ATOM     53  C   UNL A   1      47.164  26.576  26.265  1.00  0.00     0.173 A 
ATOM     54  F   UNL A   1      49.047  24.465  28.533  1.00  0.00    -0.203 F 
ATOM     55  C   UNL A   1      49.678  25.440  26.492  1.00  0.00     0.198 A 
ATOM     56  C   UNL A   1      48.128  26.793  25.280  1.00  0.00     0.198 A 
ATOM     57  F   UNL A   1      45.999  27.219  26.127  1.00  0.00    -0.203 F 
ATOM     58  F   UNL A   1      50.901  24.908  26.627  1.00  0.00    -0.200 F 
ATOM     59  C   UNL A   1      49.378  26.211  25.384  1.00  0.00     0.200 A 
ATOM     60  F   UNL A   1      47.830  27.557  24.220  1.00  0.00    -0.200 F 
ATOM     61  F   UNL A   1      50.291  26.398  24.421  1.00  0.00    -0.200 F 
ENDBRANCH  27  51
BRANCH  39  62
ATOM     62  C   UNL A   1      44.757  25.702  33.452  1.00  0.00     0.064 A 
ATOM     63  C   UNL A   1      45.519  26.167  34.529  1.00  0.00     0.173 A 
ATOM     64  C   UNL A   1      44.478  24.335  33.439  1.00  0.00     0.173 A 
ATOM     65  F   UNL A   1      45.867  27.461  34.598  1.00  0.00    -0.203 F 
ATOM     66  C   UNL A   1      45.931  25.308  35.551  1.00  0.00     0.198 A 
ATOM     67  C   UNL A   1      44.827  23.484  34.482  1.00  0.00     0.198 A 
ATOM     68  F   UNL A   1      43.935  23.772  32.368  1.00  0.00    -0.203 F 
ATOM     69  F   UNL A   1      46.690  25.777  36.552  1.00  0.00    -0.200 F 
ATOM     70  C   UNL A   1      45.560  23.973  35.542  1.00  0.00     0.200 A 
ATOM     71  F   UNL A   1      44.469  22.192  34.437  1.00  0.00    -0.200 F 
ATOM     72  F   UNL A   1      45.926  23.154  36.537  1.00  0.00    -0.200 F 
ENDBRANCH  39  62
ENDBRANCH  13  14
ENDBRANCH   6   8
ENDBRANCH   5   6
ENDBRANCH   4   5
ENDBRANCH   3   4
ENDBRANCH   2   3
ENDBRANCH   1   2
BRANCH   1  73
ATOM     73  C   UNL A   1      32.904  24.904  21.663  1.00  0.00     0.188 C 
BRANCH  73  74
ATOM     74  O   UNL A   1      33.858  25.963  21.668  1.00  0.00    -0.376 OA
BRANCH  74  75
ATOM     75  C   UNL A   1      33.437  27.319  21.623  1.00  0.00     0.202 C 
BRANCH  75  76
ATOM     76  C   UNL A   1      33.129  28.087  22.913  1.00  0.00     0.261 C 
BRANCH  76  77
ATOM     77  O   UNL A   1      31.765  28.243  23.295  1.00  0.00    -0.459 OA
BRANCH  77  78
ATOM     78  C   UNL A   1      31.346  27.339  24.217  1.00  0.00     0.365 C 
ATOM     79  O   UNL A   1      30.183  26.992  24.376  1.00  0.00    -0.245 OA
BRANCH  78  80
ATOM     80  C   UNL A   1      32.498  26.893  25.098  1.00  0.00     0.296 C 
ATOM     81  C   UNL A   1      32.663  25.375  25.158  1.00  0.00     0.091 C 
ATOM     82  N   UNL A   1      32.278  27.291  26.487  1.00  0.00    -0.319 N 
ATOM     83  C   UNL A   1      31.894  24.891  26.405  1.00  0.00     0.036 C 
ATOM     84  C   UNL A   1      31.727  26.180  27.250  1.00  0.00     0.270 C 
ATOM     85  H   UNL A   1      33.156  27.438  26.986  1.00  0.00     0.349 HD
ATOM     86  C   UNL A   1      32.649  23.788  27.194  1.00  0.00     0.074 C 
ATOM     87  C   UNL A   1      30.523  24.288  26.030  1.00  0.00     0.074 C 
ATOM     88  C   UNL A   1      32.711  22.450  26.461  1.00  0.00     0.261 C 
ATOM     89  C   UNL A   1      30.652  22.941  25.315  1.00  0.00     0.261 C 
ATOM     90  N   UNL A   1      31.378  21.962  26.125  1.00  0.00    -0.346 N 
ATOM     91  H   UNL A   1      30.858  21.791  26.986  1.00  0.00     0.346 HD
ATOM     92  H   UNL A   1      31.471  21.099  25.589  1.00  0.00     0.346 HD
BRANCH  82  93
ATOM     93  C   UNL A   1      31.904  28.698  26.711  1.00  0.00     0.302 C 
BRANCH  93  94
ATOM     94  C   UNL A   1      32.960  29.740  26.982  1.00  0.00     0.038 A 
ATOM     95  C   UNL A   1      34.333  29.460  27.202  1.00  0.00     0.012 A 
ATOM     96  C   UNL A   1      32.677  31.123  27.113  1.00  0.00     0.144 A 
ATOM     97  C   UNL A   1      35.266  30.386  27.744  1.00  0.00     0.003 A 
ATOM     98  C   UNL A   1      33.650  32.087  27.627  1.00  0.00     0.135 A 
ATOM     99  N   UNL A   1      31.534  31.785  26.877  1.00  0.00    -0.049 NA
ATOM    100  C   UNL A   1      34.949  31.723  28.013  1.00  0.00     0.034 A 
ATOM    101  N   UNL A   1      33.060  33.287  27.694  1.00  0.00    -0.050 NA
ATOM    102  O   UNL A   1      31.779  33.105  27.207  1.00  0.00    -0.243 OA
ENDBRANCH  93  94
ENDBRANCH  82  93
ENDBRANCH  78  80
ENDBRANCH  77  78
ENDBRANCH  76  77
ENDBRANCH  75  76
ENDBRANCH  74  75
ENDBRANCH  73  74
ENDBRANCH   1  73
TORSDOF 19
ENDMDL
