MODEL 1
REMARK VINA RESULT:     -11.0      0.000      0.000
REMARK SMILES O=C(CC[C@]12C[C@H]3C[C@H](C[C@H](C3)C1)C2)OCCOCCOCCOC(=O)c1ccc(-c2c3nc(c(-c4c(F)c(F)c(F)c(F)c4F)c4ccc([nH]4)c(-c4c(F)c(F)c(F)c(F)c4F)c4nc(c(-c5c(F)c(F)c(F)c(F)c5F)c5ccc2[nH]5)C=C4)C=C3)cc1
REMARK SMILES IDX 19 1 18 2 17 3 16 4 15 5 2 6 1 7 3 8 4 9 5 10 6 11 13 12
REMARK SMILES IDX 14 13 7 14 11 15 9 16 8 17 12 18 10 19 20 20 21 21 22 22
REMARK SMILES IDX 23 23 24 24 25 25 26 26 27 27 28 28 89 29 29 30 88 31 30 32
REMARK SMILES IDX 31 33 32 34 82 35 33 36 87 37 81 38 83 39 34 40 86 41 80 42
REMARK SMILES IDX 79 43 35 45 67 46 47 47 66 48 48 49 51 50 65 51 84 52 49 53
REMARK SMILES IDX 50 54 64 56 85 57 52 58 36 59 37 60 45 61 38 62 39 63 43 64
REMARK SMILES IDX 46 65 40 66 41 67 44 68 42 69 68 70 69 71 77 72 70 73 71 74
REMARK SMILES IDX 75 75 78 76 72 77 73 78 76 79 74 80 53 81 54 82 62 83 55 84
REMARK SMILES IDX 56 85 60 86 63 87 57 88 58 89 61 90 59 91
REMARK H PARENT 83 44 51 55
REMARK Flexibility Score: inf
ROOT
ATOM      1  C   UNL A   1      42.570  18.491  26.161  1.00  0.00     0.188 C 
ENDROOT
BRANCH   1   2
ATOM      2  O   UNL A   1      42.111  19.292  27.223  1.00  0.00    -0.376 OA
BRANCH   2   3
ATOM      3  C   UNL A   1      40.859  19.923  27.071  1.00  0.00     0.202 C 
BRANCH   3   4
ATOM      4  C   UNL A   1      40.802  21.292  26.427  1.00  0.00     0.261 C 
BRANCH   4   5
ATOM      5  O   UNL A   1      39.725  22.202  26.788  1.00  0.00    -0.463 OA
BRANCH   5   6
ATOM      6  C   UNL A   1      38.644  22.721  26.176  1.00  0.00     0.305 C 
ATOM      7  O   UNL A   1      38.490  23.944  26.201  1.00  0.00    -0.252 OA
BRANCH   6   8
ATOM      8  C   UNL A   1      37.551  21.857  25.583  1.00  0.00     0.123 C 
BRANCH   8   9
ATOM      9  C   UNL A   1      36.872  22.398  24.304  1.00  0.00     0.019 C 
BRANCH   9  10
ATOM     10  C   UNL A   1      35.371  22.775  24.429  1.00  0.00    -0.028 C 
ATOM     11  C   UNL A   1      35.154  23.576  25.726  1.00  0.00     0.010 C 
ATOM     12  C   UNL A   1      34.445  21.533  24.561  1.00  0.00     0.010 C 
ATOM     13  C   UNL A   1      34.871  23.516  23.159  1.00  0.00     0.010 C 
ATOM     14  C   UNL A   1      33.723  24.085  25.862  1.00  0.00    -0.010 C 
ATOM     15  C   UNL A   1      32.965  21.981  24.731  1.00  0.00    -0.010 C 
ATOM     16  C   UNL A   1      33.438  24.033  23.354  1.00  0.00    -0.010 C 
ATOM     17  C   UNL A   1      33.318  24.896  24.621  1.00  0.00     0.007 C 
ATOM     18  C   UNL A   1      32.819  22.858  25.990  1.00  0.00     0.007 C 
ATOM     19  C   UNL A   1      32.520  22.813  23.512  1.00  0.00     0.007 C 
ENDBRANCH   9  10
ENDBRANCH   8   9
ENDBRANCH   6   8
ENDBRANCH   5   6
ENDBRANCH   4   5
ENDBRANCH   3   4
ENDBRANCH   2   3
ENDBRANCH   1   2
BRANCH   1  20
ATOM     20  C   UNL A   1      43.769  19.002  25.356  1.00  0.00     0.188 C 
BRANCH  20  21
ATOM     21  O   UNL A   1      43.821  20.368  24.973  1.00  0.00    -0.376 OA
BRANCH  21  22
ATOM     22  C   UNL A   1      45.024  21.118  25.117  1.00  0.00     0.202 C 
BRANCH  22  23
ATOM     23  C   UNL A   1      45.087  22.198  26.193  1.00  0.00     0.261 C 
BRANCH  23  24
ATOM     24  O   UNL A   1      43.865  22.943  26.287  1.00  0.00    -0.460 OA
BRANCH  24  25
ATOM     25  C   UNL A   1      43.804  24.066  25.535  1.00  0.00     0.338 C 
ATOM     26  O   UNL A   1      44.236  24.240  24.413  1.00  0.00    -0.246 OA
BRANCH  25  27
ATOM     27  C   UNL A   1      42.975  25.057  26.239  1.00  0.00     0.060 A 
ATOM     28  C   UNL A   1      43.139  26.418  25.932  1.00  0.00     0.016 A 
ATOM     29  C   UNL A   1      42.086  24.642  27.229  1.00  0.00     0.016 A 
ATOM     30  C   UNL A   1      42.452  27.381  26.663  1.00  0.00     0.010 A 
ATOM     31  C   UNL A   1      41.430  25.605  27.986  1.00  0.00     0.010 A 
ATOM     32  C   UNL A   1      41.659  26.971  27.740  1.00  0.00    -0.014 A 
BRANCH  32  33
ATOM     33  C   UNL A   1      41.331  27.925  28.817  1.00  0.00     0.031 A 
ATOM     34  C   UNL A   1      42.121  27.810  30.089  1.00  0.00     0.074 A 
ATOM     35  C   UNL A   1      40.319  28.794  28.699  1.00  0.00     0.049 A 
ATOM     36  N   UNL A   1      41.910  28.355  31.256  1.00  0.00    -0.248 NA
ATOM     37  C   UNL A   1      43.302  26.930  30.039  1.00  0.00     0.031 C 
ATOM     38  C   UNL A   1      39.527  29.008  27.491  1.00  0.00     0.029 A 
ATOM     39  N   UNL A   1      39.761  29.628  29.630  1.00  0.00    -0.354 N 
ATOM     40  C   UNL A   1      42.913  27.865  32.081  1.00  0.00     0.074 A 
ATOM     41  C   UNL A   1      43.718  26.961  31.293  1.00  0.00     0.031 C 
ATOM     42  C   UNL A   1      38.552  29.890  27.768  1.00  0.00     0.029 A 
ATOM     43  C   UNL A   1      38.630  30.261  29.181  1.00  0.00     0.049 A 
ATOM     44  H   UNL A   1      40.134  29.761  30.531  1.00  0.00     0.167 HD
ATOM     45  C   UNL A   1      43.134  28.142  33.387  1.00  0.00     0.037 A 
ATOM     46  C   UNL A   1      37.740  31.011  29.858  1.00  0.00     0.037 A 
ATOM     47  C   UNL A   1      42.305  29.030  34.156  1.00  0.00     0.049 A 
ATOM     48  C   UNL A   1      37.964  31.260  31.327  1.00  0.00     0.074 A 
ATOM     49  C   UNL A   1      42.436  29.405  35.478  1.00  0.00     0.029 A 
ATOM     50  N   UNL A   1      41.173  29.667  33.663  1.00  0.00    -0.354 N 
ATOM     51  N   UNL A   1      38.921  30.815  32.107  1.00  0.00    -0.248 NA
ATOM     52  C   UNL A   1      36.985  32.115  32.012  1.00  0.00     0.031 C 
ATOM     53  C   UNL A   1      41.346  30.219  35.806  1.00  0.00     0.029 A 
ATOM     54  C   UNL A   1      40.579  30.414  34.666  1.00  0.00     0.049 A 
ATOM     55  H   UNL A   1      40.843  29.598  32.739  1.00  0.00     0.167 HD
ATOM     56  C   UNL A   1      38.684  31.366  33.361  1.00  0.00     0.074 A 
ATOM     57  C   UNL A   1      37.488  32.174  33.238  1.00  0.00     0.031 C 
ATOM     58  C   UNL A   1      39.396  31.224  34.508  1.00  0.00     0.037 A 
BRANCH  45  59
ATOM     59  C   UNL A   1      44.276  27.435  34.059  1.00  0.00     0.064 A 
ATOM     60  C   UNL A   1      45.570  27.976  34.093  1.00  0.00     0.173 A 
ATOM     61  C   UNL A   1      44.075  26.183  34.659  1.00  0.00     0.173 A 
ATOM     62  F   UNL A   1      45.824  29.161  33.517  1.00  0.00    -0.203 F 
ATOM     63  C   UNL A   1      46.628  27.272  34.664  1.00  0.00     0.198 A 
ATOM     64  C   UNL A   1      45.127  25.499  35.263  1.00  0.00     0.198 A 
ATOM     65  F   UNL A   1      42.860  25.616  34.654  1.00  0.00    -0.203 F 
ATOM     66  F   UNL A   1      47.868  27.778  34.620  1.00  0.00    -0.200 F 
ATOM     67  C   UNL A   1      46.405  26.038  35.254  1.00  0.00     0.200 A 
ATOM     68  F   UNL A   1      44.906  24.312  35.843  1.00  0.00    -0.200 F 
ATOM     69  F   UNL A   1      47.422  25.360  35.801  1.00  0.00    -0.200 F 
ENDBRANCH  45  59
BRANCH  46  70
ATOM     70  C   UNL A   1      36.562  31.568  29.145  1.00  0.00     0.064 A 
ATOM     71  C   UNL A   1      35.493  30.743  28.769  1.00  0.00     0.173 A 
ATOM     72  C   UNL A   1      36.464  32.937  28.853  1.00  0.00     0.173 A 
ATOM     73  F   UNL A   1      35.550  29.425  29.007  1.00  0.00    -0.203 F 
ATOM     74  C   UNL A   1      34.374  31.266  28.123  1.00  0.00     0.198 A 
ATOM     75  C   UNL A   1      35.334  33.462  28.232  1.00  0.00     0.198 A 
ATOM     76  F   UNL A   1      37.460  33.769  29.194  1.00  0.00    -0.203 F 
ATOM     77  F   UNL A   1      33.381  30.451  27.744  1.00  0.00    -0.200 F 
ATOM     78  C   UNL A   1      34.291  32.626  27.863  1.00  0.00     0.200 A 
ATOM     79  F   UNL A   1      35.252  34.779  27.997  1.00  0.00    -0.200 F 
ATOM     80  F   UNL A   1      33.209  33.129  27.254  1.00  0.00    -0.200 F 
ENDBRANCH  46  70
BRANCH  58  81
ATOM     81  C   UNL A   1      38.947  32.008  35.707  1.00  0.00     0.064 A 
ATOM     82  C   UNL A   1      38.203  31.426  36.742  1.00  0.00     0.173 A 
ATOM     83  C   UNL A   1      39.342  33.348  35.854  1.00  0.00     0.173 A 
ATOM     84  F   UNL A   1      37.793  30.152  36.644  1.00  0.00    -0.203 F 
ATOM     85  C   UNL A   1      37.858  32.159  37.874  1.00  0.00     0.198 A 
ATOM     86  C   UNL A   1      39.024  34.068  37.001  1.00  0.00     0.198 A 
ATOM     87  F   UNL A   1      40.063  33.950  34.895  1.00  0.00    -0.203 F 
ATOM     88  F   UNL A   1      37.115  31.595  38.835  1.00  0.00    -0.200 F 
ATOM     89  C   UNL A   1      38.278  33.475  38.008  1.00  0.00     0.200 A 
ATOM     90  F   UNL A   1      39.449  35.332  37.136  1.00  0.00    -0.200 F 
ATOM     91  F   UNL A   1      37.962  34.173  39.107  1.00  0.00    -0.200 F 
ENDBRANCH  58  81
ENDBRANCH  32  33
ENDBRANCH  25  27
ENDBRANCH  24  25
ENDBRANCH  23  24
ENDBRANCH  22  23
ENDBRANCH  21  22
ENDBRANCH  20  21
ENDBRANCH   1  20
TORSDOF 19
ENDMDL
MODEL 2
REMARK VINA RESULT:     -10.9      4.728      9.277
REMARK SMILES O=C(CC[C@]12C[C@H]3C[C@H](C[C@H](C3)C1)C2)OCCOCCOCCOC(=O)c1ccc(-c2c3nc(c(-c4c(F)c(F)c(F)c(F)c4F)c4ccc([nH]4)c(-c4c(F)c(F)c(F)c(F)c4F)c4nc(c(-c5c(F)c(F)c(F)c(F)c5F)c5ccc2[nH]5)C=C4)C=C3)cc1
REMARK SMILES IDX 19 1 18 2 17 3 16 4 15 5 2 6 1 7 3 8 4 9 5 10 6 11 13 12
REMARK SMILES IDX 14 13 7 14 11 15 9 16 8 17 12 18 10 19 20 20 21 21 22 22
REMARK SMILES IDX 23 23 24 24 25 25 26 26 27 27 28 28 89 29 29 30 88 31 30 32
REMARK SMILES IDX 31 33 32 34 82 35 33 36 87 37 81 38 83 39 34 40 86 41 80 42
REMARK SMILES IDX 79 43 35 45 67 46 47 47 66 48 48 49 51 50 65 51 84 52 49 53
REMARK SMILES IDX 50 54 64 56 85 57 52 58 36 59 37 60 45 61 38 62 39 63 43 64
REMARK SMILES IDX 46 65 40 66 41 67 44 68 42 69 68 70 69 71 77 72 70 73 71 74
REMARK SMILES IDX 75 75 78 76 72 77 73 78 76 79 74 80 53 81 54 82 62 83 55 84
REMARK SMILES IDX 56 85 60 86 63 87 57 88 58 89 61 90 59 91
REMARK H PARENT 83 44 51 55
REMARK Flexibility Score: inf
ROOT
ATOM      1  C   UNL A   1      32.609  21.333  24.867  1.00  0.00     0.188 C 
ENDROOT
BRANCH   1   2
ATOM      2  O   UNL A   1      32.743  21.150  23.477  1.00  0.00    -0.376 OA
BRANCH   2   3
ATOM      3  C   UNL A   1      32.351  22.214  22.638  1.00  0.00     0.202 C 
BRANCH   3   4
ATOM      4  C   UNL A   1      32.681  23.632  23.050  1.00  0.00     0.261 C 
BRANCH   4   5
ATOM      5  O   UNL A   1      32.272  24.734  22.191  1.00  0.00    -0.463 OA
BRANCH   5   6
ATOM      6  C   UNL A   1      32.887  25.614  21.379  1.00  0.00     0.305 C 
ATOM      7  O   UNL A   1      33.131  25.269  20.221  1.00  0.00    -0.252 OA
BRANCH   6   8
ATOM      8  C   UNL A   1      33.407  26.948  21.870  1.00  0.00     0.123 C 
BRANCH   8   9
ATOM      9  C   UNL A   1      32.393  27.843  22.620  1.00  0.00     0.019 C 
BRANCH   9  10
ATOM     10  C   UNL A   1      32.570  27.940  24.160  1.00  0.00    -0.028 C 
ATOM     11  C   UNL A   1      31.212  27.702  24.844  1.00  0.00     0.010 C 
ATOM     12  C   UNL A   1      33.016  29.354  24.629  1.00  0.00     0.010 C 
ATOM     13  C   UNL A   1      33.686  26.982  24.657  1.00  0.00     0.010 C 
ATOM     14  C   UNL A   1      31.326  27.664  26.364  1.00  0.00    -0.010 C 
ATOM     15  C   UNL A   1      33.128  29.397  26.180  1.00  0.00    -0.010 C 
ATOM     16  C   UNL A   1      33.743  26.957  26.192  1.00  0.00    -0.010 C 
ATOM     17  C   UNL A   1      32.371  26.626  26.802  1.00  0.00     0.007 C 
ATOM     18  C   UNL A   1      31.766  29.057  26.817  1.00  0.00     0.007 C 
ATOM     19  C   UNL A   1      34.157  28.357  26.665  1.00  0.00     0.007 C 
ENDBRANCH   9  10
ENDBRANCH   8   9
ENDBRANCH   6   8
ENDBRANCH   5   6
ENDBRANCH   4   5
ENDBRANCH   3   4
ENDBRANCH   2   3
ENDBRANCH   1   2
BRANCH   1  20
ATOM     20  C   UNL A   1      33.737  20.811  25.762  1.00  0.00     0.188 C 
BRANCH  20  21
ATOM     21  O   UNL A   1      35.073  21.221  25.511  1.00  0.00    -0.376 OA
BRANCH  21  22
ATOM     22  C   UNL A   1      36.041  20.290  25.035  1.00  0.00     0.202 C 
BRANCH  22  23
ATOM     23  C   UNL A   1      37.433  20.803  24.676  1.00  0.00     0.261 C 
BRANCH  23  24
ATOM     24  O   UNL A   1      37.925  21.754  25.629  1.00  0.00    -0.460 OA
BRANCH  24  25
ATOM     25  C   UNL A   1      39.184  21.539  26.076  1.00  0.00     0.338 C 
ATOM     26  O   UNL A   1      39.920  20.608  25.820  1.00  0.00    -0.246 OA
BRANCH  25  27
ATOM     27  C   UNL A   1      39.618  22.719  26.841  1.00  0.00     0.060 A 
ATOM     28  C   UNL A   1      39.030  23.963  26.559  1.00  0.00     0.016 A 
ATOM     29  C   UNL A   1      40.636  22.598  27.785  1.00  0.00     0.016 A 
ATOM     30  C   UNL A   1      39.503  25.111  27.186  1.00  0.00     0.010 A 
ATOM     31  C   UNL A   1      41.136  23.749  28.381  1.00  0.00     0.010 A 
ATOM     32  C   UNL A   1      40.608  25.007  28.036  1.00  0.00    -0.014 A 
BRANCH  32  33
ATOM     33  C   UNL A   1      41.437  26.196  28.314  1.00  0.00     0.031 A 
ATOM     34  C   UNL A   1      40.765  27.344  29.011  1.00  0.00     0.074 A 
ATOM     35  C   UNL A   1      42.704  26.282  27.887  1.00  0.00     0.049 A 
ATOM     36  N   UNL A   1      41.173  28.571  29.185  1.00  0.00    -0.248 NA
ATOM     37  C   UNL A   1      39.427  27.069  29.565  1.00  0.00     0.031 C 
ATOM     38  C   UNL A   1      43.453  25.207  27.244  1.00  0.00     0.029 A 
ATOM     39  N   UNL A   1      43.566  27.346  27.898  1.00  0.00    -0.354 N 
ATOM     40  C   UNL A   1      40.135  29.218  29.842  1.00  0.00     0.074 A 
ATOM     41  C   UNL A   1      39.070  28.259  30.016  1.00  0.00     0.031 C 
ATOM     42  C   UNL A   1      44.657  25.681  26.881  1.00  0.00     0.029 A 
ATOM     43  C   UNL A   1      44.737  27.100  27.227  1.00  0.00     0.049 A 
ATOM     44  H   UNL A   1      43.366  28.201  28.343  1.00  0.00     0.167 HD
ATOM     45  C   UNL A   1      40.079  30.505  30.257  1.00  0.00     0.037 A 
ATOM     46  C   UNL A   1      45.730  27.946  26.896  1.00  0.00     0.037 A 
ATOM     47  C   UNL A   1      41.145  31.446  30.053  1.00  0.00     0.049 A 
ATOM     48  C   UNL A   1      45.625  29.392  27.307  1.00  0.00     0.074 A 
ATOM     49  C   UNL A   1      41.216  32.770  30.441  1.00  0.00     0.029 A 
ATOM     50  N   UNL A   1      42.327  31.157  29.382  1.00  0.00    -0.354 N 
ATOM     51  N   UNL A   1      44.655  30.004  27.947  1.00  0.00    -0.248 NA
ATOM     52  C   UNL A   1      46.751  30.266  26.953  1.00  0.00     0.031 C 
ATOM     53  C   UNL A   1      42.412  33.301  29.949  1.00  0.00     0.029 A 
ATOM     54  C   UNL A   1      43.123  32.288  29.321  1.00  0.00     0.049 A 
ATOM     55  H   UNL A   1      42.563  30.279  29.005  1.00  0.00     0.167 HD
ATOM     56  C   UNL A   1      45.069  31.320  28.107  1.00  0.00     0.074 A 
ATOM     57  C   UNL A   1      46.377  31.419  27.492  1.00  0.00     0.031 C 
ATOM     58  C   UNL A   1      44.431  32.352  28.715  1.00  0.00     0.037 A 
BRANCH  45  59
ATOM     59  C   UNL A   1      38.808  30.963  30.912  1.00  0.00     0.064 A 
ATOM     60  C   UNL A   1      38.643  30.955  32.306  1.00  0.00     0.173 A 
ATOM     61  C   UNL A   1      37.727  31.398  30.130  1.00  0.00     0.173 A 
ATOM     62  F   UNL A   1      39.637  30.529  33.102  1.00  0.00    -0.203 F 
ATOM     63  C   UNL A   1      37.433  31.321  32.889  1.00  0.00     0.198 A 
ATOM     64  C   UNL A   1      36.531  31.802  30.717  1.00  0.00     0.198 A 
ATOM     65  F   UNL A   1      37.826  31.425  28.793  1.00  0.00    -0.203 F 
ATOM     66  F   UNL A   1      37.277  31.235  34.217  1.00  0.00    -0.200 F 
ATOM     67  C   UNL A   1      36.380  31.750  32.095  1.00  0.00     0.200 A 
ATOM     68  F   UNL A   1      35.520  32.227  29.949  1.00  0.00    -0.200 F 
ATOM     69  F   UNL A   1      35.216  32.102  32.656  1.00  0.00    -0.200 F 
ENDBRANCH  45  59
BRANCH  46  70
ATOM     70  C   UNL A   1      46.896  27.439  26.129  1.00  0.00     0.064 A 
ATOM     71  C   UNL A   1      46.966  27.595  24.738  1.00  0.00     0.173 A 
ATOM     72  C   UNL A   1      47.978  26.816  26.771  1.00  0.00     0.173 A 
ATOM     73  F   UNL A   1      45.948  28.164  24.077  1.00  0.00    -0.203 F 
ATOM     74  C   UNL A   1      48.070  27.143  24.018  1.00  0.00     0.198 A 
ATOM     75  C   UNL A   1      49.093  26.390  26.053  1.00  0.00     0.198 A 
ATOM     76  F   UNL A   1      47.961  26.644  28.101  1.00  0.00    -0.203 F 
ATOM     77  F   UNL A   1      48.097  27.275  22.685  1.00  0.00    -0.200 F 
ATOM     78  C   UNL A   1      49.137  26.549  24.677  1.00  0.00     0.200 A 
ATOM     79  F   UNL A   1      50.127  25.830  26.696  1.00  0.00    -0.200 F 
ATOM     80  F   UNL A   1      50.204  26.128  23.985  1.00  0.00    -0.200 F 
ENDBRANCH  46  70
BRANCH  58  81
ATOM     81  C   UNL A   1      45.159  33.661  28.810  1.00  0.00     0.064 A 
ATOM     82  C   UNL A   1      46.050  33.944  29.853  1.00  0.00     0.173 A 
ATOM     83  C   UNL A   1      45.017  34.615  27.789  1.00  0.00     0.173 A 
ATOM     84  F   UNL A   1      46.213  33.071  30.858  1.00  0.00    -0.203 F 
ATOM     85  C   UNL A   1      46.763  35.140  29.879  1.00  0.00     0.198 A 
ATOM     86  C   UNL A   1      45.755  35.794  27.800  1.00  0.00     0.198 A 
ATOM     87  F   UNL A   1      44.183  34.388  26.762  1.00  0.00    -0.203 F 
ATOM     88  F   UNL A   1      47.582  35.408  30.905  1.00  0.00    -0.200 F 
ATOM     89  C   UNL A   1      46.624  36.059  28.848  1.00  0.00     0.200 A 
ATOM     90  F   UNL A   1      45.634  36.669  26.792  1.00  0.00    -0.200 F 
ATOM     91  F   UNL A   1      47.326  37.200  28.865  1.00  0.00    -0.200 F 
ENDBRANCH  58  81
ENDBRANCH  32  33
ENDBRANCH  25  27
ENDBRANCH  24  25
ENDBRANCH  23  24
ENDBRANCH  22  23
ENDBRANCH  21  22
ENDBRANCH  20  21
ENDBRANCH   1  20
TORSDOF 19
ENDMDL
MODEL 3
REMARK VINA RESULT:     -10.7      4.675      9.141
REMARK SMILES O=C(CC[C@]12C[C@H]3C[C@H](C[C@H](C3)C1)C2)OCCOCCOCCOC(=O)c1ccc(-c2c3nc(c(-c4c(F)c(F)c(F)c(F)c4F)c4ccc([nH]4)c(-c4c(F)c(F)c(F)c(F)c4F)c4nc(c(-c5c(F)c(F)c(F)c(F)c5F)c5ccc2[nH]5)C=C4)C=C3)cc1
REMARK SMILES IDX 19 1 18 2 17 3 16 4 15 5 2 6 1 7 3 8 4 9 5 10 6 11 13 12
REMARK SMILES IDX 14 13 7 14 11 15 9 16 8 17 12 18 10 19 20 20 21 21 22 22
REMARK SMILES IDX 23 23 24 24 25 25 26 26 27 27 28 28 89 29 29 30 88 31 30 32
REMARK SMILES IDX 31 33 32 34 82 35 33 36 87 37 81 38 83 39 34 40 86 41 80 42
REMARK SMILES IDX 79 43 35 45 67 46 47 47 66 48 48 49 51 50 65 51 84 52 49 53
REMARK SMILES IDX 50 54 64 56 85 57 52 58 36 59 37 60 45 61 38 62 39 63 43 64
REMARK SMILES IDX 46 65 40 66 41 67 44 68 42 69 68 70 69 71 77 72 70 73 71 74
REMARK SMILES IDX 75 75 78 76 72 77 73 78 76 79 74 80 53 81 54 82 62 83 55 84
REMARK SMILES IDX 56 85 60 86 63 87 57 88 58 89 61 90 59 91
REMARK H PARENT 83 44 51 55
REMARK Flexibility Score: inf
ROOT
ATOM      1  C   UNL A   1      32.786  21.417  24.844  1.00  0.00     0.188 C 
ENDROOT
BRANCH   1   2
ATOM      2  O   UNL A   1      32.842  21.263  23.446  1.00  0.00    -0.376 OA
BRANCH   2   3
ATOM      3  C   UNL A   1      32.734  22.426  22.656  1.00  0.00     0.202 C 
BRANCH   3   4
ATOM      4  C   UNL A   1      33.897  23.394  22.615  1.00  0.00     0.261 C 
BRANCH   4   5
ATOM      5  O   UNL A   1      33.629  24.826  22.620  1.00  0.00    -0.463 OA
BRANCH   5   6
ATOM      6  C   UNL A   1      33.277  25.752  21.709  1.00  0.00     0.305 C 
ATOM      7  O   UNL A   1      33.057  25.381  20.554  1.00  0.00    -0.252 OA
BRANCH   6   8
ATOM      8  C   UNL A   1      33.273  27.234  22.014  1.00  0.00     0.123 C 
BRANCH   8   9
ATOM      9  C   UNL A   1      32.049  27.768  22.794  1.00  0.00     0.019 C 
BRANCH   9  10
ATOM     10  C   UNL A   1      32.286  28.121  24.287  1.00  0.00    -0.028 C 
ATOM     11  C   UNL A   1      33.754  28.541  24.484  1.00  0.00     0.010 C 
ATOM     12  C   UNL A   1      32.082  26.905  25.235  1.00  0.00     0.010 C 
ATOM     13  C   UNL A   1      31.270  29.187  24.779  1.00  0.00     0.010 C 
ATOM     14  C   UNL A   1      34.035  29.017  25.905  1.00  0.00    -0.010 C 
ATOM     15  C   UNL A   1      32.380  27.313  26.706  1.00  0.00    -0.010 C 
ATOM     16  C   UNL A   1      31.611  29.655  26.201  1.00  0.00    -0.010 C 
ATOM     17  C   UNL A   1      33.066  30.142  26.301  1.00  0.00     0.007 C 
ATOM     18  C   UNL A   1      33.832  27.817  26.831  1.00  0.00     0.007 C 
ATOM     19  C   UNL A   1      31.439  28.454  27.141  1.00  0.00     0.007 C 
ENDBRANCH   9  10
ENDBRANCH   8   9
ENDBRANCH   6   8
ENDBRANCH   5   6
ENDBRANCH   4   5
ENDBRANCH   3   4
ENDBRANCH   2   3
ENDBRANCH   1   2
BRANCH   1  20
ATOM     20  C   UNL A   1      33.835  20.679  25.681  1.00  0.00     0.188 C 
BRANCH  20  21
ATOM     21  O   UNL A   1      35.189  21.108  25.640  1.00  0.00    -0.376 OA
BRANCH  21  22
ATOM     22  C   UNL A   1      36.191  20.292  25.042  1.00  0.00     0.202 C 
BRANCH  22  23
ATOM     23  C   UNL A   1      37.546  20.916  24.722  1.00  0.00     0.261 C 
BRANCH  23  24
ATOM     24  O   UNL A   1      37.992  21.805  25.755  1.00  0.00    -0.460 OA
BRANCH  24  25
ATOM     25  C   UNL A   1      39.289  21.678  26.120  1.00  0.00     0.338 C 
ATOM     26  O   UNL A   1      40.079  20.817  25.787  1.00  0.00    -0.246 OA
BRANCH  25  27
ATOM     27  C   UNL A   1      39.675  22.863  26.902  1.00  0.00     0.060 A 
ATOM     28  C   UNL A   1      39.025  24.083  26.650  1.00  0.00     0.016 A 
ATOM     29  C   UNL A   1      40.708  22.773  27.834  1.00  0.00     0.016 A 
ATOM     30  C   UNL A   1      39.451  25.240  27.293  1.00  0.00     0.010 A 
ATOM     31  C   UNL A   1      41.160  23.936  28.445  1.00  0.00     0.010 A 
ATOM     32  C   UNL A   1      40.569  25.174  28.129  1.00  0.00    -0.014 A 
BRANCH  32  33
ATOM     33  C   UNL A   1      41.343  26.396  28.421  1.00  0.00     0.031 A 
ATOM     34  C   UNL A   1      40.611  27.517  29.100  1.00  0.00     0.074 A 
ATOM     35  C   UNL A   1      42.614  26.532  28.021  1.00  0.00     0.049 A 
ATOM     36  N   UNL A   1      40.966  28.760  29.278  1.00  0.00    -0.248 NA
ATOM     37  C   UNL A   1      39.274  27.190  29.626  1.00  0.00     0.031 C 
ATOM     38  C   UNL A   1      43.420  25.486  27.397  1.00  0.00     0.029 A 
ATOM     39  N   UNL A   1      43.433  27.629  28.047  1.00  0.00    -0.354 N 
ATOM     40  C   UNL A   1      39.889  29.367  29.911  1.00  0.00     0.074 A 
ATOM     41  C   UNL A   1      38.860  28.366  30.065  1.00  0.00     0.031 C 
ATOM     42  C   UNL A   1      44.612  26.007  27.058  1.00  0.00     0.029 A 
ATOM     43  C   UNL A   1      44.627  27.428  27.402  1.00  0.00     0.049 A 
ATOM     44  H   UNL A   1      43.190  28.476  28.484  1.00  0.00     0.167 HD
ATOM     45  C   UNL A   1      39.773  30.651  30.319  1.00  0.00     0.037 A 
ATOM     46  C   UNL A   1      45.592  28.312  27.088  1.00  0.00     0.037 A 
ATOM     47  C   UNL A   1      40.805  31.634  30.135  1.00  0.00     0.049 A 
ATOM     48  C   UNL A   1      45.421  29.754  27.493  1.00  0.00     0.074 A 
ATOM     49  C   UNL A   1      40.814  32.960  30.521  1.00  0.00     0.029 A 
ATOM     50  N   UNL A   1      42.011  31.391  29.490  1.00  0.00    -0.354 N 
ATOM     51  N   UNL A   1      44.414  30.328  28.109  1.00  0.00    -0.248 NA
ATOM     52  C   UNL A   1      46.518  30.672  27.160  1.00  0.00     0.031 C 
ATOM     53  C   UNL A   1      41.998  33.538  30.052  1.00  0.00     0.029 A 
ATOM     54  C   UNL A   1      42.763  32.553  29.443  1.00  0.00     0.049 A 
ATOM     55  H   UNL A   1      42.290  30.522  29.122  1.00  0.00     0.167 HD
ATOM     56  C   UNL A   1      44.771  31.660  28.274  1.00  0.00     0.074 A 
ATOM     57  C   UNL A   1      46.087  31.811  27.687  1.00  0.00     0.031 C 
ATOM     58  C   UNL A   1      44.079  32.667  28.865  1.00  0.00     0.037 A 
BRANCH  45  59
ATOM     59  C   UNL A   1      38.471  31.060  30.946  1.00  0.00     0.064 A 
ATOM     60  C   UNL A   1      37.353  31.419  30.177  1.00  0.00     0.173 A 
ATOM     61  C   UNL A   1      38.346  31.115  32.343  1.00  0.00     0.173 A 
ATOM     62  F   UNL A   1      37.423  31.404  28.836  1.00  0.00    -0.203 F 
ATOM     63  C   UNL A   1      36.177  31.858  30.779  1.00  0.00     0.198 A 
ATOM     64  C   UNL A   1      37.156  31.516  32.943  1.00  0.00     0.198 A 
ATOM     65  F   UNL A   1      39.381  30.785  33.129  1.00  0.00    -0.203 F 
ATOM     66  F   UNL A   1      35.149  32.264  30.021  1.00  0.00    -0.200 F 
ATOM     67  C   UNL A   1      36.077  31.901  32.161  1.00  0.00     0.200 A 
ATOM     68  F   UNL A   1      37.058  31.546  34.279  1.00  0.00    -0.200 F 
ATOM     69  F   UNL A   1      34.946  32.324  32.740  1.00  0.00    -0.200 F 
ENDBRANCH  45  59
BRANCH  46  70
ATOM     70  C   UNL A   1      46.794  27.851  26.348  1.00  0.00     0.064 A 
ATOM     71  C   UNL A   1      47.947  27.440  27.032  1.00  0.00     0.173 A 
ATOM     72  C   UNL A   1      46.807  27.781  24.947  1.00  0.00     0.173 A 
ATOM     73  F   UNL A   1      47.990  27.508  28.370  1.00  0.00    -0.203 F 
ATOM     74  C   UNL A   1      49.067  26.982  26.342  1.00  0.00     0.198 A 
ATOM     75  C   UNL A   1      47.918  27.298  24.260  1.00  0.00     0.198 A 
ATOM     76  F   UNL A   1      45.729  28.161  24.245  1.00  0.00    -0.203 F 
ATOM     77  F   UNL A   1      50.168  26.626  27.018  1.00  0.00    -0.200 F 
ATOM     78  C   UNL A   1      49.049  26.903  24.957  1.00  0.00     0.200 A 
ATOM     79  F   UNL A   1      47.890  27.209  22.923  1.00  0.00    -0.200 F 
ATOM     80  F   UNL A   1      50.122  26.449  24.296  1.00  0.00    -0.200 F 
ENDBRANCH  46  70
BRANCH  58  81
ATOM     81  C   UNL A   1      44.752  34.005  28.971  1.00  0.00     0.064 A 
ATOM     82  C   UNL A   1      44.561  35.013  28.016  1.00  0.00     0.173 A 
ATOM     83  C   UNL A   1      45.537  34.306  30.096  1.00  0.00     0.173 A 
ATOM     84  F   UNL A   1      43.828  34.771  26.918  1.00  0.00    -0.203 F 
ATOM     85  C   UNL A   1      45.143  36.267  28.175  1.00  0.00     0.198 A 
ATOM     86  C   UNL A   1      46.089  35.571  30.268  1.00  0.00     0.198 A 
ATOM     87  F   UNL A   1      45.743  33.379  31.045  1.00  0.00    -0.203 F 
ATOM     88  F   UNL A   1      44.979  37.204  27.232  1.00  0.00    -0.200 F 
ATOM     89  C   UNL A   1      45.897  36.549  29.305  1.00  0.00     0.200 A 
ATOM     90  F   UNL A   1      46.799  35.846  31.371  1.00  0.00    -0.200 F 
ATOM     91  F   UNL A   1      46.439  37.764  29.466  1.00  0.00    -0.200 F 
ENDBRANCH  58  81
ENDBRANCH  32  33
ENDBRANCH  25  27
ENDBRANCH  24  25
ENDBRANCH  23  24
ENDBRANCH  22  23
ENDBRANCH  21  22
ENDBRANCH  20  21
ENDBRANCH   1  20
TORSDOF 19
ENDMDL
