MODEL 1
REMARK VINA RESULT:     -12.3      0.000      0.000
REMARK SMILES O=C(OCCOCCOCCOC(=O)[C@H]1[C@H]2CC[C@H](CC2)[C@H]1C(=O)Nc1ccc(C(=O)N2CCCC2)cc1)c1ccc(-c2c3nc(c(-c4c(F)c(F)c(F)c(F)c4F)c4ccc([nH]4)c(-c4c(F)c(F)c(F)c(F)c4F)c4nc(c(-c5c(F)c(F)c(F)c(F)c5F)c5ccc2[nH]5)C=C4)C=C3)cc1
REMARK SMILES IDX 8 1 7 2 6 3 5 4 4 5 3 6 2 7 1 8 39 9 40 10 101 11 41 12
REMARK SMILES IDX 100 13 42 14 43 15 44 16 94 17 45 18 99 19 93 20 95 21 46 22
REMARK SMILES IDX 98 23 92 24 91 25 47 27 79 28 59 29 78 30 60 31 63 32 77 33
REMARK SMILES IDX 96 34 61 35 62 36 76 38 97 39 64 40 48 41 49 42 57 43 50 44
REMARK SMILES IDX 51 45 55 46 58 47 52 48 53 49 56 50 54 51 80 52 81 53 89 54
REMARK SMILES IDX 82 55 83 56 87 57 90 58 84 59 85 60 88 61 86 62 65 63 66 64
REMARK SMILES IDX 74 65 67 66 68 67 72 68 75 69 69 70 70 71 73 72 71 73 9 74
REMARK SMILES IDX 10 75 11 76 12 77 13 78 14 79 15 80 16 81 22 82 21 83 17 84
REMARK SMILES IDX 19 85 20 86 18 87 23 88 24 89 25 90 26 92 27 93 38 94 28 95
REMARK SMILES IDX 37 96 29 97 30 98 31 99 32 100 33 101 36 102 34 103 35 104
REMARK H PARENT 95 26 63 37 25 91
REMARK Flexibility Score: inf
ROOT
ATOM      1  C   UNL A   1      39.161  21.704  25.848  1.00  0.00     0.188 C 
ENDROOT
BRANCH   1   2
ATOM      2  C   UNL A   1      40.297  20.719  26.138  1.00  0.00     0.188 C 
BRANCH   2   3
ATOM      3  O   UNL A   1      41.558  21.197  26.582  1.00  0.00    -0.376 OA
BRANCH   3   4
ATOM      4  C   UNL A   1      42.750  20.679  25.994  1.00  0.00     0.202 C 
BRANCH   4   5
ATOM      5  C   UNL A   1      43.671  21.615  25.176  1.00  0.00     0.261 C 
BRANCH   5   6
ATOM      6  O   UNL A   1      44.134  22.805  25.838  1.00  0.00    -0.460 OA
BRANCH   6   7
ATOM      7  C   UNL A   1      43.950  24.115  25.511  1.00  0.00     0.338 C 
ATOM      8  O   UNL A   1      44.536  24.567  24.542  1.00  0.00    -0.246 OA
BRANCH   7   9
ATOM      9  C   UNL A   1      43.123  25.064  26.331  1.00  0.00     0.060 A 
ATOM     10  C   UNL A   1      43.408  26.408  26.507  1.00  0.00     0.016 A 
ATOM     11  C   UNL A   1      41.945  24.582  26.932  1.00  0.00     0.016 A 
ATOM     12  C   UNL A   1      42.645  27.225  27.324  1.00  0.00     0.010 A 
ATOM     13  C   UNL A   1      41.167  25.401  27.774  1.00  0.00     0.010 A 
ATOM     14  C   UNL A   1      41.566  26.716  28.038  1.00  0.00    -0.014 A 
BRANCH  14  15
ATOM     15  C   UNL A   1      41.112  27.485  29.230  1.00  0.00     0.031 A 
ATOM     16  C   UNL A   1      42.019  27.524  30.427  1.00  0.00     0.074 A 
ATOM     17  C   UNL A   1      40.085  28.356  29.183  1.00  0.00     0.049 A 
ATOM     18  N   UNL A   1      41.880  28.179  31.550  1.00  0.00    -0.248 NA
ATOM     19  C   UNL A   1      43.276  26.767  30.324  1.00  0.00     0.031 C 
ATOM     20  C   UNL A   1      39.298  28.628  27.991  1.00  0.00     0.029 A 
ATOM     21  N   UNL A   1      39.583  29.234  30.115  1.00  0.00    -0.354 N 
ATOM     22  C   UNL A   1      43.002  27.870  32.303  1.00  0.00     0.074 A 
ATOM     23  C   UNL A   1      43.823  26.985  31.508  1.00  0.00     0.031 C 
ATOM     24  C   UNL A   1      38.463  29.645  28.243  1.00  0.00     0.029 A 
ATOM     25  C   UNL A   1      38.568  30.027  29.635  1.00  0.00     0.049 A 
ATOM     26  H   UNL A   1      39.920  29.291  31.038  1.00  0.00     0.167 HD
ATOM     27  C   UNL A   1      43.310  28.277  33.554  1.00  0.00     0.037 A 
ATOM     28  C   UNL A   1      37.785  30.955  30.217  1.00  0.00     0.037 A 
ATOM     29  C   UNL A   1      42.501  29.176  34.331  1.00  0.00     0.049 A 
ATOM     30  C   UNL A   1      38.057  31.284  31.649  1.00  0.00     0.074 A 
ATOM     31  C   UNL A   1      42.676  29.575  35.643  1.00  0.00     0.029 A 
ATOM     32  N   UNL A   1      41.364  29.821  33.862  1.00  0.00    -0.354 N 
ATOM     33  N   UNL A   1      39.055  30.891  32.398  1.00  0.00    -0.248 NA
ATOM     34  C   UNL A   1      37.108  32.182  32.317  1.00  0.00     0.031 C 
ATOM     35  C   UNL A   1      41.609  30.411  35.989  1.00  0.00     0.029 A 
ATOM     36  C   UNL A   1      40.808  30.590  34.873  1.00  0.00     0.049 A 
ATOM     37  H   UNL A   1      41.008  29.745  32.949  1.00  0.00     0.167 HD
ATOM     38  C   UNL A   1      38.875  31.514  33.620  1.00  0.00     0.074 A 
ATOM     39  C   UNL A   1      37.687  32.336  33.499  1.00  0.00     0.031 C 
ATOM     40  C   UNL A   1      39.627  31.405  34.741  1.00  0.00     0.037 A 
BRANCH  27  41
ATOM     41  C   UNL A   1      44.506  27.633  34.189  1.00  0.00     0.064 A 
ATOM     42  C   UNL A   1      45.806  28.140  34.045  1.00  0.00     0.173 A 
ATOM     43  C   UNL A   1      44.340  26.439  34.908  1.00  0.00     0.173 A 
ATOM     44  F   UNL A   1      46.022  29.253  33.328  1.00  0.00    -0.203 F 
ATOM     45  C   UNL A   1      46.900  27.454  34.569  1.00  0.00     0.198 A 
ATOM     46  C   UNL A   1      45.431  25.776  35.458  1.00  0.00     0.198 A 
ATOM     47  F   UNL A   1      43.119  25.906  35.059  1.00  0.00    -0.203 F 
ATOM     48  F   UNL A   1      48.141  27.914  34.356  1.00  0.00    -0.200 F 
ATOM     49  C   UNL A   1      46.711  26.276  35.279  1.00  0.00     0.200 A 
ATOM     50  F   UNL A   1      45.244  24.639  36.144  1.00  0.00    -0.200 F 
ATOM     51  F   UNL A   1      47.765  25.614  35.773  1.00  0.00    -0.200 F 
ENDBRANCH  27  41
BRANCH  28  52
ATOM     52  C   UNL A   1      36.680  31.619  29.461  1.00  0.00     0.064 A 
ATOM     53  C   UNL A   1      36.704  32.995  29.194  1.00  0.00     0.173 A 
ATOM     54  C   UNL A   1      35.566  30.894  29.003  1.00  0.00     0.173 A 
ATOM     55  F   UNL A   1      37.731  33.741  29.627  1.00  0.00    -0.203 F 
ATOM     56  C   UNL A   1      35.651  33.621  28.524  1.00  0.00     0.198 A 
ATOM     57  C   UNL A   1      34.534  31.514  28.299  1.00  0.00     0.198 A 
ATOM     58  F   UNL A   1      35.484  29.574  29.227  1.00  0.00    -0.203 F 
ATOM     59  F   UNL A   1      35.672  34.948  28.339  1.00  0.00    -0.200 F 
ATOM     60  C   UNL A   1      34.571  32.879  28.070  1.00  0.00     0.200 A 
ATOM     61  F   UNL A   1      33.502  30.786  27.849  1.00  0.00    -0.200 F 
ATOM     62  F   UNL A   1      33.562  33.480  27.426  1.00  0.00    -0.200 F 
ENDBRANCH  28  52
BRANCH  40  63
ATOM     63  C   UNL A   1      39.198  32.224  35.919  1.00  0.00     0.064 A 
ATOM     64  C   UNL A   1      38.306  31.724  36.878  1.00  0.00     0.173 A 
ATOM     65  C   UNL A   1      39.696  33.523  36.093  1.00  0.00     0.173 A 
ATOM     66  F   UNL A   1      37.787  30.493  36.743  1.00  0.00    -0.203 F 
ATOM     67  C   UNL A   1      37.898  32.510  37.951  1.00  0.00     0.198 A 
ATOM     68  C   UNL A   1      39.317  34.292  37.188  1.00  0.00     0.198 A 
ATOM     69  F   UNL A   1      40.555  34.044  35.204  1.00  0.00    -0.203 F 
ATOM     70  F   UNL A   1      36.994  32.036  38.819  1.00  0.00    -0.200 F 
ATOM     71  C   UNL A   1      38.409  33.790  38.109  1.00  0.00     0.200 A 
ATOM     72  F   UNL A   1      39.822  35.522  37.347  1.00  0.00    -0.200 F 
ATOM     73  F   UNL A   1      38.020  34.544  39.145  1.00  0.00    -0.200 F 
ENDBRANCH  40  63
ENDBRANCH  14  15
ENDBRANCH   7   9
ENDBRANCH   6   7
ENDBRANCH   5   6
ENDBRANCH   4   5
ENDBRANCH   3   4
ENDBRANCH   2   3
ENDBRANCH   1   2
BRANCH   1  74
ATOM     74  O   UNL A   1      37.888  21.198  25.506  1.00  0.00    -0.376 OA
BRANCH  74  75
ATOM     75  C   UNL A   1      37.079  21.970  24.630  1.00  0.00     0.202 C 
BRANCH  75  76
ATOM     76  C   UNL A   1      36.767  23.425  24.989  1.00  0.00     0.261 C 
BRANCH  76  77
ATOM     77  O   UNL A   1      35.666  23.597  25.914  1.00  0.00    -0.463 OA
BRANCH  77  78
ATOM     78  C   UNL A   1      34.746  24.517  25.571  1.00  0.00     0.310 C 
ATOM     79  O   UNL A   1      35.043  25.686  25.328  1.00  0.00    -0.252 OA
BRANCH  78  80
ATOM     80  C   UNL A   1      33.262  24.106  25.603  1.00  0.00     0.115 C 
ATOM     81  C   UNL A   1      31.904  24.804  25.967  1.00  0.00     0.004 C 
ATOM     82  C   UNL A   1      33.014  23.230  24.389  1.00  0.00     0.096 C 
ATOM     83  C   UNL A   1      30.873  25.105  24.813  1.00  0.00     0.005 C 
ATOM     84  C   UNL A   1      31.112  23.689  26.718  1.00  0.00     0.005 C 
ATOM     85  C   UNL A   1      31.520  22.819  24.313  1.00  0.00     0.002 C 
ATOM     86  C   UNL A   1      30.740  24.001  23.777  1.00  0.00     0.005 C 
ATOM     87  C   UNL A   1      30.935  22.499  25.735  1.00  0.00     0.005 C 
BRANCH  82  88
ATOM     88  C   UNL A   1      33.672  23.718  23.075  1.00  0.00     0.228 C 
ATOM     89  O   UNL A   1      34.324  22.867  22.442  1.00  0.00    -0.274 OA
ATOM     90  N   UNL A   1      33.569  24.911  22.418  1.00  0.00    -0.326 N 
ATOM     91  H   UNL A   1      34.059  24.855  21.567  1.00  0.00     0.169 HD
BRANCH  90  92
ATOM     92  C   UNL A   1      32.999  26.202  22.543  1.00  0.00     0.041 A 
ATOM     93  C   UNL A   1      31.717  26.371  22.011  1.00  0.00     0.027 A 
ATOM     94  C   UNL A   1      33.534  27.313  23.172  1.00  0.00     0.027 A 
ATOM     95  C   UNL A   1      30.944  27.512  22.320  1.00  0.00     0.016 A 
ATOM     96  C   UNL A   1      32.786  28.463  23.479  1.00  0.00     0.016 A 
ATOM     97  C   UNL A   1      31.452  28.543  23.126  1.00  0.00     0.040 A 
BRANCH  97  98
ATOM     98  C   UNL A   1      30.490  29.437  23.849  1.00  0.00     0.253 C 
ATOM     99  O   UNL A   1      30.775  29.727  25.012  1.00  0.00    -0.269 OA
ATOM    100  N   UNL A   1      29.455  30.085  23.192  1.00  0.00    -0.339 N 
ATOM    101  C   UNL A   1      28.571  29.643  22.124  1.00  0.00     0.120 C 
ATOM    102  C   UNL A   1      29.052  31.411  23.653  1.00  0.00     0.120 C 
ATOM    103  C   UNL A   1      28.128  30.954  21.497  1.00  0.00     0.023 C 
ATOM    104  C   UNL A   1      27.946  31.861  22.704  1.00  0.00     0.023 C 
ENDBRANCH  97  98
ENDBRANCH  90  92
ENDBRANCH  82  88
ENDBRANCH  78  80
ENDBRANCH  77  78
ENDBRANCH  76  77
ENDBRANCH  75  76
ENDBRANCH  74  75
ENDBRANCH   1  74
TORSDOF 20
ENDMDL
MODEL 2
REMARK VINA RESULT:     -11.7      4.535      6.869
REMARK SMILES O=C(OCCOCCOCCOC(=O)[C@H]1[C@H]2CC[C@H](CC2)[C@H]1C(=O)Nc1ccc(C(=O)N2CCCC2)cc1)c1ccc(-c2c3nc(c(-c4c(F)c(F)c(F)c(F)c4F)c4ccc([nH]4)c(-c4c(F)c(F)c(F)c(F)c4F)c4nc(c(-c5c(F)c(F)c(F)c(F)c5F)c5ccc2[nH]5)C=C4)C=C3)cc1
REMARK SMILES IDX 8 1 7 2 6 3 5 4 4 5 3 6 2 7 1 8 39 9 40 10 101 11 41 12
REMARK SMILES IDX 100 13 42 14 43 15 44 16 94 17 45 18 99 19 93 20 95 21 46 22
REMARK SMILES IDX 98 23 92 24 91 25 47 27 79 28 59 29 78 30 60 31 63 32 77 33
REMARK SMILES IDX 96 34 61 35 62 36 76 38 97 39 64 40 48 41 49 42 57 43 50 44
REMARK SMILES IDX 51 45 55 46 58 47 52 48 53 49 56 50 54 51 80 52 81 53 89 54
REMARK SMILES IDX 82 55 83 56 87 57 90 58 84 59 85 60 88 61 86 62 65 63 66 64
REMARK SMILES IDX 74 65 67 66 68 67 72 68 75 69 69 70 70 71 73 72 71 73 9 74
REMARK SMILES IDX 10 75 11 76 12 77 13 78 14 79 15 80 16 81 22 82 21 83 17 84
REMARK SMILES IDX 19 85 20 86 18 87 23 88 24 89 25 90 26 92 27 93 38 94 28 95
REMARK SMILES IDX 37 96 29 97 30 98 31 99 32 100 33 101 36 102 34 103 35 104
REMARK H PARENT 95 26 63 37 25 91
REMARK Flexibility Score: inf
ROOT
ATOM      1  C   UNL A   1      38.153  23.431  26.482  1.00  0.00     0.188 C 
ENDROOT
BRANCH   1   2
ATOM      2  C   UNL A   1      39.007  22.388  25.758  1.00  0.00     0.188 C 
BRANCH   2   3
ATOM      3  O   UNL A   1      39.446  21.224  26.445  1.00  0.00    -0.376 OA
BRANCH   3   4
ATOM      4  C   UNL A   1      39.713  20.034  25.706  1.00  0.00     0.202 C 
BRANCH   4   5
ATOM      5  C   UNL A   1      40.692  18.980  26.276  1.00  0.00     0.261 C 
BRANCH   5   6
ATOM      6  O   UNL A   1      42.005  18.936  25.693  1.00  0.00    -0.460 OA
BRANCH   6   7
ATOM      7  C   UNL A   1      43.020  19.843  25.755  1.00  0.00     0.338 C 
ATOM      8  O   UNL A   1      44.153  19.476  25.492  1.00  0.00    -0.246 OA
BRANCH   7   9
ATOM      9  C   UNL A   1      42.836  21.261  26.214  1.00  0.00     0.060 A 
ATOM     10  C   UNL A   1      42.641  22.343  25.371  1.00  0.00     0.016 A 
ATOM     11  C   UNL A   1      42.808  21.522  27.597  1.00  0.00     0.016 A 
ATOM     12  C   UNL A   1      42.537  23.640  25.846  1.00  0.00     0.010 A 
ATOM     13  C   UNL A   1      42.713  22.838  28.090  1.00  0.00     0.010 A 
ATOM     14  C   UNL A   1      42.658  23.918  27.202  1.00  0.00    -0.014 A 
BRANCH  14  15
ATOM     15  C   UNL A   1      43.024  25.311  27.583  1.00  0.00     0.031 A 
ATOM     16  C   UNL A   1      44.291  25.884  27.017  1.00  0.00     0.074 A 
ATOM     17  C   UNL A   1      42.152  26.155  28.169  1.00  0.00     0.049 A 
ATOM     18  N   UNL A   1      44.785  27.088  27.143  1.00  0.00    -0.248 NA
ATOM     19  C   UNL A   1      45.083  24.998  26.148  1.00  0.00     0.031 C 
ATOM     20  C   UNL A   1      40.783  25.807  28.513  1.00  0.00     0.029 A 
ATOM     21  N   UNL A   1      42.244  27.488  28.495  1.00  0.00    -0.354 N 
ATOM     22  C   UNL A   1      45.965  27.085  26.415  1.00  0.00     0.074 A 
ATOM     23  C   UNL A   1      46.109  25.770  25.835  1.00  0.00     0.031 C 
ATOM     24  C   UNL A   1      40.147  26.908  28.936  1.00  0.00     0.029 A 
ATOM     25  C   UNL A   1      41.079  28.012  29.005  1.00  0.00     0.049 A 
ATOM     26  H   UNL A   1      43.065  28.017  28.375  1.00  0.00     0.167 HD
ATOM     27  C   UNL A   1      46.857  28.089  26.261  1.00  0.00     0.037 A 
ATOM     28  C   UNL A   1      40.764  29.228  29.488  1.00  0.00     0.037 A 
ATOM     29  C   UNL A   1      46.696  29.403  26.821  1.00  0.00     0.049 A 
ATOM     30  C   UNL A   1      41.819  30.285  29.435  1.00  0.00     0.074 A 
ATOM     31  C   UNL A   1      47.586  30.461  26.803  1.00  0.00     0.029 A 
ATOM     32  N   UNL A   1      45.565  29.840  27.498  1.00  0.00    -0.354 N 
ATOM     33  N   UNL A   1      42.989  30.236  28.850  1.00  0.00    -0.248 NA
ATOM     34  C   UNL A   1      41.520  31.559  30.097  1.00  0.00     0.031 C 
ATOM     35  C   UNL A   1      47.021  31.518  27.525  1.00  0.00     0.029 A 
ATOM     36  C   UNL A   1      45.750  31.144  27.932  1.00  0.00     0.049 A 
ATOM     37  H   UNL A   1      44.753  29.305  27.646  1.00  0.00     0.167 HD
ATOM     38  C   UNL A   1      43.558  31.482  29.047  1.00  0.00     0.074 A 
ATOM     39  C   UNL A   1      42.589  32.273  29.780  1.00  0.00     0.031 C 
ATOM     40  C   UNL A   1      44.778  31.922  28.658  1.00  0.00     0.037 A 
BRANCH  27  41
ATOM     41  C   UNL A   1      48.139  27.740  25.567  1.00  0.00     0.064 A 
ATOM     42  C   UNL A   1      48.253  27.675  24.171  1.00  0.00     0.173 A 
ATOM     43  C   UNL A   1      49.264  27.403  26.336  1.00  0.00     0.173 A 
ATOM     44  F   UNL A   1      47.193  27.944  23.393  1.00  0.00    -0.203 F 
ATOM     45  C   UNL A   1      49.437  27.250  23.572  1.00  0.00     0.198 A 
ATOM     46  C   UNL A   1      50.454  27.011  25.734  1.00  0.00     0.198 A 
ATOM     47  F   UNL A   1      49.200  27.434  27.675  1.00  0.00    -0.203 F 
ATOM     48  F   UNL A   1      49.502  27.121  22.239  1.00  0.00    -0.200 F 
ATOM     49  C   UNL A   1      50.537  26.923  24.353  1.00  0.00     0.200 A 
ATOM     50  F   UNL A   1      51.514  26.698  26.492  1.00  0.00    -0.200 F 
ATOM     51  F   UNL A   1      51.671  26.506  23.775  1.00  0.00    -0.200 F 
ENDBRANCH  27  41
BRANCH  28  52
ATOM     52  C   UNL A   1      39.413  29.505  30.065  1.00  0.00     0.064 A 
ATOM     53  C   UNL A   1      38.370  30.004  29.273  1.00  0.00     0.173 A 
ATOM     54  C   UNL A   1      39.141  29.292  31.428  1.00  0.00     0.173 A 
ATOM     55  F   UNL A   1      38.579  30.250  27.971  1.00  0.00    -0.203 F 
ATOM     56  C   UNL A   1      37.121  30.302  29.823  1.00  0.00     0.198 A 
ATOM     57  C   UNL A   1      37.882  29.551  31.967  1.00  0.00     0.198 A 
ATOM     58  F   UNL A   1      40.097  28.815  32.238  1.00  0.00    -0.203 F 
ATOM     59  F   UNL A   1      36.164  30.838  29.054  1.00  0.00    -0.200 F 
ATOM     60  C   UNL A   1      36.876  30.067  31.167  1.00  0.00     0.200 A 
ATOM     61  F   UNL A   1      37.647  29.305  33.264  1.00  0.00    -0.200 F 
ATOM     62  F   UNL A   1      35.678  30.351  31.694  1.00  0.00    -0.200 F 
ENDBRANCH  28  52
BRANCH  40  63
ATOM     63  C   UNL A   1      45.119  33.341  28.996  1.00  0.00     0.064 A 
ATOM     64  C   UNL A   1      44.788  34.401  28.141  1.00  0.00     0.173 A 
ATOM     65  C   UNL A   1      45.779  33.640  30.196  1.00  0.00     0.173 A 
ATOM     66  F   UNL A   1      44.174  34.162  26.971  1.00  0.00    -0.203 F 
ATOM     67  C   UNL A   1      45.137  35.710  28.459  1.00  0.00     0.198 A 
ATOM     68  C   UNL A   1      46.092  34.953  30.529  1.00  0.00     0.198 A 
ATOM     69  F   UNL A   1      46.114  32.660  31.048  1.00  0.00    -0.203 F 
ATOM     70  F   UNL A   1      44.869  36.700  27.597  1.00  0.00    -0.200 F 
ATOM     71  C   UNL A   1      45.783  35.985  29.656  1.00  0.00     0.200 A 
ATOM     72  F   UNL A   1      46.702  35.220  31.692  1.00  0.00    -0.200 F 
ATOM     73  F   UNL A   1      46.115  37.246  29.963  1.00  0.00    -0.200 F 
ENDBRANCH  40  63
ENDBRANCH  14  15
ENDBRANCH   7   9
ENDBRANCH   6   7
ENDBRANCH   5   6
ENDBRANCH   4   5
ENDBRANCH   3   4
ENDBRANCH   2   3
ENDBRANCH   1   2
BRANCH   1  74
ATOM     74  O   UNL A   1      36.749  23.387  26.335  1.00  0.00    -0.376 OA
BRANCH  74  75
ATOM     75  C   UNL A   1      36.201  23.745  25.074  1.00  0.00     0.202 C 
BRANCH  75  76
ATOM     76  C   UNL A   1      36.001  22.661  24.012  1.00  0.00     0.261 C 
BRANCH  76  77
ATOM     77  O   UNL A   1      34.952  21.709  24.310  1.00  0.00    -0.463 OA
BRANCH  77  78
ATOM     78  C   UNL A   1      35.357  20.495  24.723  1.00  0.00     0.310 C 
ATOM     79  O   UNL A   1      36.401  20.329  25.353  1.00  0.00    -0.252 OA
BRANCH  78  80
ATOM     80  C   UNL A   1      34.537  19.268  24.284  1.00  0.00     0.115 C 
ATOM     81  C   UNL A   1      34.687  17.709  24.396  1.00  0.00     0.004 C 
ATOM     82  C   UNL A   1      33.074  19.603  24.510  1.00  0.00     0.096 C 
ATOM     83  C   UNL A   1      33.698  16.918  25.335  1.00  0.00     0.005 C 
ATOM     84  C   UNL A   1      34.176  17.194  23.015  1.00  0.00     0.005 C 
ATOM     85  C   UNL A   1      32.177  18.390  24.146  1.00  0.00     0.002 C 
ATOM     86  C   UNL A   1      32.256  17.396  25.285  1.00  0.00     0.005 C 
ATOM     87  C   UNL A   1      32.699  17.649  22.862  1.00  0.00     0.005 C 
BRANCH  82  88
ATOM     88  C   UNL A   1      32.759  20.330  25.840  1.00  0.00     0.228 C 
ATOM     89  O   UNL A   1      33.220  19.804  26.871  1.00  0.00    -0.274 OA
ATOM     90  N   UNL A   1      32.147  21.527  26.077  1.00  0.00    -0.326 N 
ATOM     91  H   UNL A   1      32.182  21.723  27.041  1.00  0.00     0.169 HD
BRANCH  90  92
ATOM     92  C   UNL A   1      31.478  22.582  25.411  1.00  0.00     0.041 A 
ATOM     93  C   UNL A   1      30.788  23.491  26.219  1.00  0.00     0.027 A 
ATOM     94  C   UNL A   1      31.460  22.859  24.054  1.00  0.00     0.027 A 
ATOM     95  C   UNL A   1      30.328  24.723  25.704  1.00  0.00     0.016 A 
ATOM     96  C   UNL A   1      30.997  24.075  23.519  1.00  0.00     0.016 A 
ATOM     97  C   UNL A   1      30.498  25.059  24.351  1.00  0.00     0.040 A 
BRANCH  97  98
ATOM     98  C   UNL A   1      30.493  26.505  23.959  1.00  0.00     0.253 C 
ATOM     99  O   UNL A   1      29.397  26.999  23.687  1.00  0.00    -0.269 OA
ATOM    100  N   UNL A   1      31.614  27.309  24.104  1.00  0.00    -0.339 N 
ATOM    101  C   UNL A   1      33.026  27.035  23.884  1.00  0.00     0.120 C 
ATOM    102  C   UNL A   1      31.428  28.718  24.442  1.00  0.00     0.120 C 
ATOM    103  C   UNL A   1      33.705  28.069  24.766  1.00  0.00     0.023 C 
ATOM    104  C   UNL A   1      32.832  29.300  24.579  1.00  0.00     0.023 C 
ENDBRANCH  97  98
ENDBRANCH  90  92
ENDBRANCH  82  88
ENDBRANCH  78  80
ENDBRANCH  77  78
ENDBRANCH  76  77
ENDBRANCH  75  76
ENDBRANCH  74  75
ENDBRANCH   1  74
TORSDOF 20
ENDMDL
MODEL 3
REMARK VINA RESULT:     -11.6      3.363      9.115
REMARK SMILES O=C(OCCOCCOCCOC(=O)[C@H]1[C@H]2CC[C@H](CC2)[C@H]1C(=O)Nc1ccc(C(=O)N2CCCC2)cc1)c1ccc(-c2c3nc(c(-c4c(F)c(F)c(F)c(F)c4F)c4ccc([nH]4)c(-c4c(F)c(F)c(F)c(F)c4F)c4nc(c(-c5c(F)c(F)c(F)c(F)c5F)c5ccc2[nH]5)C=C4)C=C3)cc1
REMARK SMILES IDX 8 1 7 2 6 3 5 4 4 5 3 6 2 7 1 8 39 9 40 10 101 11 41 12
REMARK SMILES IDX 100 13 42 14 43 15 44 16 94 17 45 18 99 19 93 20 95 21 46 22
REMARK SMILES IDX 98 23 92 24 91 25 47 27 79 28 59 29 78 30 60 31 63 32 77 33
REMARK SMILES IDX 96 34 61 35 62 36 76 38 97 39 64 40 48 41 49 42 57 43 50 44
REMARK SMILES IDX 51 45 55 46 58 47 52 48 53 49 56 50 54 51 80 52 81 53 89 54
REMARK SMILES IDX 82 55 83 56 87 57 90 58 84 59 85 60 88 61 86 62 65 63 66 64
REMARK SMILES IDX 74 65 67 66 68 67 72 68 75 69 69 70 70 71 73 72 71 73 9 74
REMARK SMILES IDX 10 75 11 76 12 77 13 78 14 79 15 80 16 81 22 82 21 83 17 84
REMARK SMILES IDX 19 85 20 86 18 87 23 88 24 89 25 90 26 92 27 93 38 94 28 95
REMARK SMILES IDX 37 96 29 97 30 98 31 99 32 100 33 101 36 102 34 103 35 104
REMARK H PARENT 95 26 63 37 25 91
REMARK Flexibility Score: inf
ROOT
ATOM      1  C   UNL A   1      34.838  30.925  27.852  1.00  0.00     0.188 C 
ENDROOT
BRANCH   1   2
ATOM      2  C   UNL A   1      34.946  32.232  28.642  1.00  0.00     0.188 C 
BRANCH   2   3
ATOM      3  O   UNL A   1      34.727  33.476  27.994  1.00  0.00    -0.376 OA
BRANCH   3   4
ATOM      4  C   UNL A   1      33.452  34.107  28.103  1.00  0.00     0.202 C 
BRANCH   4   5
ATOM      5  C   UNL A   1      33.267  35.302  29.068  1.00  0.00     0.261 C 
BRANCH   5   6
ATOM      6  O   UNL A   1      32.473  35.066  30.244  1.00  0.00    -0.460 OA
BRANCH   6   7
ATOM      7  C   UNL A   1      32.725  35.378  31.546  1.00  0.00     0.338 C 
ATOM      8  O   UNL A   1      31.965  36.132  32.127  1.00  0.00    -0.246 OA
BRANCH   7   9
ATOM      9  C   UNL A   1      33.943  34.906  32.289  1.00  0.00     0.060 A 
ATOM     10  C   UNL A   1      35.114  35.632  32.424  1.00  0.00     0.016 A 
ATOM     11  C   UNL A   1      33.891  33.660  32.942  1.00  0.00     0.016 A 
ATOM     12  C   UNL A   1      36.229  35.123  33.069  1.00  0.00     0.010 A 
ATOM     13  C   UNL A   1      35.021  33.128  33.592  1.00  0.00     0.010 A 
ATOM     14  C   UNL A   1      36.230  33.832  33.586  1.00  0.00    -0.014 A 
BRANCH  14  15
ATOM     15  C   UNL A   1      37.554  33.188  33.812  1.00  0.00     0.031 A 
ATOM     16  C   UNL A   1      38.181  33.329  35.169  1.00  0.00     0.074 A 
ATOM     17  C   UNL A   1      38.069  32.274  32.966  1.00  0.00     0.049 A 
ATOM     18  N   UNL A   1      39.287  32.804  35.629  1.00  0.00    -0.248 NA
ATOM     19  C   UNL A   1      37.436  34.123  36.159  1.00  0.00     0.031 C 
ATOM     20  C   UNL A   1      37.416  31.831  31.745  1.00  0.00     0.029 A 
ATOM     21  N   UNL A   1      39.197  31.489  33.039  1.00  0.00    -0.354 N 
ATOM     22  C   UNL A   1      39.394  33.247  36.938  1.00  0.00     0.074 A 
ATOM     23  C   UNL A   1      38.236  34.068  37.210  1.00  0.00     0.031 C 
ATOM     24  C   UNL A   1      38.115  30.814  31.221  1.00  0.00     0.029 A 
ATOM     25  C   UNL A   1      39.319  30.603  31.995  1.00  0.00     0.049 A 
ATOM     26  H   UNL A   1      39.853  31.556  33.768  1.00  0.00     0.167 HD
ATOM     27  C   UNL A   1      40.381  33.003  37.828  1.00  0.00     0.037 A 
ATOM     28  C   UNL A   1      40.275  29.716  31.662  1.00  0.00     0.037 A 
ATOM     29  C   UNL A   1      41.519  32.167  37.560  1.00  0.00     0.049 A 
ATOM     30  C   UNL A   1      41.432  29.568  32.596  1.00  0.00     0.074 A 
ATOM     31  C   UNL A   1      42.621  31.931  38.360  1.00  0.00     0.029 A 
ATOM     32  N   UNL A   1      41.696  31.422  36.401  1.00  0.00    -0.354 N 
ATOM     33  N   UNL A   1      41.587  30.089  33.787  1.00  0.00    -0.248 NA
ATOM     34  C   UNL A   1      42.539  28.714  32.155  1.00  0.00     0.031 C 
ATOM     35  C   UNL A   1      43.498  31.096  37.658  1.00  0.00     0.029 A 
ATOM     36  C   UNL A   1      42.910  30.753  36.451  1.00  0.00     0.049 A 
ATOM     37  H   UNL A   1      41.056  31.376  35.656  1.00  0.00     0.167 HD
ATOM     38  C   UNL A   1      42.796  29.606  34.253  1.00  0.00     0.074 A 
ATOM     39  C   UNL A   1      43.317  28.724  33.227  1.00  0.00     0.031 C 
ATOM     40  C   UNL A   1      43.417  29.877  35.426  1.00  0.00     0.037 A 
BRANCH  27  41
ATOM     41  C   UNL A   1      40.322  33.768  39.116  1.00  0.00     0.064 A 
ATOM     42  C   UNL A   1      41.068  34.935  39.340  1.00  0.00     0.173 A 
ATOM     43  C   UNL A   1      39.540  33.274  40.171  1.00  0.00     0.173 A 
ATOM     44  F   UNL A   1      41.867  35.422  38.378  1.00  0.00    -0.203 F 
ATOM     45  C   UNL A   1      41.059  35.558  40.587  1.00  0.00     0.198 A 
ATOM     46  C   UNL A   1      39.507  33.917  41.403  1.00  0.00     0.198 A 
ATOM     47  F   UNL A   1      38.822  32.152  40.011  1.00  0.00    -0.203 F 
ATOM     48  F   UNL A   1      41.837  36.627  40.804  1.00  0.00    -0.200 F 
ATOM     49  C   UNL A   1      40.275  35.051  41.614  1.00  0.00     0.200 A 
ATOM     50  F   UNL A   1      38.749  33.425  42.393  1.00  0.00    -0.200 F 
ATOM     51  F   UNL A   1      40.276  35.646  42.815  1.00  0.00    -0.200 F 
ENDBRANCH  27  41
BRANCH  28  52
ATOM     52  C   UNL A   1      40.187  28.920  30.400  1.00  0.00     0.064 A 
ATOM     53  C   UNL A   1      40.713  29.404  29.194  1.00  0.00     0.173 A 
ATOM     54  C   UNL A   1      39.557  27.663  30.369  1.00  0.00     0.173 A 
ATOM     55  F   UNL A   1      41.304  30.608  29.159  1.00  0.00    -0.203 F 
ATOM     56  C   UNL A   1      40.593  28.678  28.008  1.00  0.00     0.198 A 
ATOM     57  C   UNL A   1      39.473  26.921  29.192  1.00  0.00     0.198 A 
ATOM     58  F   UNL A   1      39.034  27.146  31.490  1.00  0.00    -0.203 F 
ATOM     59  F   UNL A   1      41.049  29.194  26.859  1.00  0.00    -0.200 F 
ATOM     60  C   UNL A   1      39.980  27.434  28.009  1.00  0.00     0.200 A 
ATOM     61  F   UNL A   1      38.894  25.712  29.205  1.00  0.00    -0.200 F 
ATOM     62  F   UNL A   1      39.865  26.737  26.871  1.00  0.00    -0.200 F 
ENDBRANCH  28  52
BRANCH  40  63
ATOM     63  C   UNL A   1      44.721  29.184  35.671  1.00  0.00     0.064 A 
ATOM     64  C   UNL A   1      45.947  29.786  35.355  1.00  0.00     0.173 A 
ATOM     65  C   UNL A   1      44.742  27.902  36.238  1.00  0.00     0.173 A 
ATOM     66  F   UNL A   1      45.977  31.004  34.791  1.00  0.00    -0.203 F 
ATOM     67  C   UNL A   1      47.147  29.115  35.565  1.00  0.00     0.198 A 
ATOM     68  C   UNL A   1      45.945  27.249  36.483  1.00  0.00     0.198 A 
ATOM     69  F   UNL A   1      43.595  27.285  36.561  1.00  0.00    -0.203 F 
ATOM     70  F   UNL A   1      48.303  29.683  35.195  1.00  0.00    -0.200 F 
ATOM     71  C   UNL A   1      47.145  27.850  36.136  1.00  0.00     0.200 A 
ATOM     72  F   UNL A   1      45.943  26.034  37.048  1.00  0.00    -0.200 F 
ATOM     73  F   UNL A   1      48.302  27.206  36.342  1.00  0.00    -0.200 F 
ENDBRANCH  40  63
ENDBRANCH  14  15
ENDBRANCH   7   9
ENDBRANCH   6   7
ENDBRANCH   5   6
ENDBRANCH   4   5
ENDBRANCH   3   4
ENDBRANCH   2   3
ENDBRANCH   1   2
BRANCH   1  74
ATOM     74  O   UNL A   1      33.563  30.360  27.635  1.00  0.00    -0.376 OA
BRANCH  74  75
ATOM     75  C   UNL A   1      32.839  30.774  26.485  1.00  0.00     0.202 C 
BRANCH  75  76
ATOM     76  C   UNL A   1      31.828  29.814  25.853  1.00  0.00     0.261 C 
BRANCH  76  77
ATOM     77  O   UNL A   1      31.310  28.804  26.752  1.00  0.00    -0.463 OA
BRANCH  77  78
ATOM     78  C   UNL A   1      31.555  27.527  26.409  1.00  0.00     0.310 C 
ATOM     79  O   UNL A   1      31.330  26.586  27.170  1.00  0.00    -0.252 OA
BRANCH  78  80
ATOM     80  C   UNL A   1      32.249  27.258  25.061  1.00  0.00     0.115 C 
ATOM     81  C   UNL A   1      33.502  26.446  24.578  1.00  0.00     0.004 C 
ATOM     82  C   UNL A   1      31.158  27.074  24.024  1.00  0.00     0.096 C 
ATOM     83  C   UNL A   1      33.277  25.154  23.702  1.00  0.00     0.005 C 
ATOM     84  C   UNL A   1      34.138  27.368  23.491  1.00  0.00     0.005 C 
ATOM     85  C   UNL A   1      31.774  26.738  22.640  1.00  0.00     0.002 C 
ATOM     86  C   UNL A   1      32.182  25.280  22.655  1.00  0.00     0.005 C 
ATOM     87  C   UNL A   1      33.080  27.570  22.372  1.00  0.00     0.005 C 
BRANCH  82  88
ATOM     88  C   UNL A   1      29.952  26.214  24.477  1.00  0.00     0.228 C 
ATOM     89  O   UNL A   1      28.825  26.689  24.244  1.00  0.00    -0.274 OA
ATOM     90  N   UNL A   1      29.905  24.953  24.999  1.00  0.00    -0.326 N 
ATOM     91  H   UNL A   1      28.965  24.680  25.101  1.00  0.00     0.169 HD
BRANCH  90  92
ATOM     92  C   UNL A   1      30.745  23.903  25.444  1.00  0.00     0.041 A 
ATOM     93  C   UNL A   1      30.906  22.822  24.572  1.00  0.00     0.027 A 
ATOM     94  C   UNL A   1      31.471  23.833  26.621  1.00  0.00     0.027 A 
ATOM     95  C   UNL A   1      31.925  21.865  24.778  1.00  0.00     0.016 A 
ATOM     96  C   UNL A   1      32.481  22.882  26.851  1.00  0.00     0.016 A 
ATOM     97  C   UNL A   1      32.777  21.932  25.892  1.00  0.00     0.040 A 
BRANCH  97  98
ATOM     98  C   UNL A   1      34.117  21.267  25.818  1.00  0.00     0.253 C 
ATOM     99  O   UNL A   1      34.120  20.035  25.761  1.00  0.00    -0.269 OA
ATOM    100  N   UNL A   1      35.283  21.985  25.601  1.00  0.00    -0.339 N 
ATOM    101  C   UNL A   1      35.717  23.281  26.101  1.00  0.00     0.120 C 
ATOM    102  C   UNL A   1      36.355  21.369  24.824  1.00  0.00     0.120 C 
ATOM    103  C   UNL A   1      36.729  23.717  25.055  1.00  0.00     0.023 C 
ATOM    104  C   UNL A   1      37.454  22.422  24.725  1.00  0.00     0.023 C 
ENDBRANCH  97  98
ENDBRANCH  90  92
ENDBRANCH  82  88
ENDBRANCH  78  80
ENDBRANCH  77  78
ENDBRANCH  76  77
ENDBRANCH  75  76
ENDBRANCH  74  75
ENDBRANCH   1  74
TORSDOF 20
ENDMDL
