MODEL 1
REMARK VINA RESULT:      -6.7      0.000      0.000
REMARK SMILES CC[C@@](C)([NH2+]CCC(=O)NC(C)C)C(=O)OCCOCCOCCOC(=O)c1ccc(-c2c3nc(c(-c4c(F)c(F)c(F)c(F)c4F)c4ccc([nH]4)c(-c4c(F)c(F)c(F)c(F)c4F)c4nc(c(-c5c(F)c(F)c(F)c(F)c5F)c5ccc2[nH]5)C=C4)C=C3)cc1
REMARK SMILES IDX 19 1 18 2 17 3 16 4 14 5 15 6 3 7 4 8 2 9 1 10 5 11 6 14
REMARK SMILES IDX 7 15 8 16 9 17 10 18 11 20 12 21 13 22 20 23 21 24 22 25
REMARK SMILES IDX 23 26 24 27 25 28 26 29 27 30 28 31 29 32 90 33 30 34 89 35
REMARK SMILES IDX 31 36 32 37 33 38 83 39 34 40 88 41 82 42 84 43 35 44 87 45
REMARK SMILES IDX 81 46 80 47 36 49 68 50 48 51 67 52 49 53 52 54 66 55 85 56
REMARK SMILES IDX 50 57 51 58 65 60 86 61 53 62 37 63 38 64 46 65 39 66 40 67
REMARK SMILES IDX 44 68 47 69 41 70 42 71 45 72 43 73 69 74 70 75 78 76 71 77
REMARK SMILES IDX 72 78 76 79 79 80 73 81 74 82 77 83 75 84 54 85 55 86 63 87
REMARK SMILES IDX 56 88 57 89 61 90 64 91 58 92 59 93 62 94 60 95
REMARK H PARENT 5 12 5 13 10 19 84 48 52 59
REMARK Flexibility Score: inf
ROOT
ATOM      1  O   UNL A   1      36.102  33.302  35.730  1.00  0.00    -0.376 OA
ENDROOT
BRANCH   1   2
ATOM      2  C   UNL A   1      36.574  33.691  37.012  1.00  0.00     0.202 C 
BRANCH   2   3
ATOM      3  C   UNL A   1      38.028  33.523  37.506  1.00  0.00     0.261 C 
BRANCH   3   4
ATOM      4  O   UNL A   1      39.045  33.336  36.519  1.00  0.00    -0.459 OA
BRANCH   4   5
ATOM      5  C   UNL A   1      39.910  32.306  36.710  1.00  0.00     0.367 C 
ATOM      6  O   UNL A   1      40.641  32.210  37.693  1.00  0.00    -0.245 OA
BRANCH   5   7
ATOM      7  C   UNL A   1      39.869  31.236  35.580  1.00  0.00     0.191 C 
ATOM      8  C   UNL A   1      39.213  29.999  36.202  1.00  0.00     0.092 C 
BRANCH   7   9
ATOM      9  C   UNL A   1      39.042  31.809  34.379  1.00  0.00     0.077 C 
ATOM     10  C   UNL A   1      38.309  30.835  33.469  1.00  0.00     0.011 C 
ENDBRANCH   7   9
BRANCH   7  11
ATOM     11  N   UNL A   1      41.193  30.962  34.979  1.00  0.00    -0.332 N 
ATOM     12  H   UNL A   1      41.783  31.733  35.288  1.00  0.00     0.347 HD
ATOM     13  H   UNL A   1      40.900  30.815  34.013  1.00  0.00     0.347 HD
BRANCH  11  14
ATOM     14  C   UNL A   1      42.011  29.780  35.146  1.00  0.00     0.271 C 
BRANCH  14  15
ATOM     15  C   UNL A   1      42.836  29.594  36.418  1.00  0.00     0.161 C 
BRANCH  15  16
ATOM     16  C   UNL A   1      43.868  28.476  36.550  1.00  0.00     0.225 C 
ATOM     17  O   UNL A   1      45.046  28.760  36.794  1.00  0.00    -0.275 OA
ATOM     18  N   UNL A   1      43.558  27.149  36.549  1.00  0.00    -0.354 N 
ATOM     19  H   UNL A   1      44.263  26.564  36.908  1.00  0.00     0.163 HD
BRANCH  18  20
ATOM     20  C   UNL A   1      42.367  26.456  36.109  1.00  0.00     0.075 C 
ATOM     21  C   UNL A   1      42.739  25.221  35.296  1.00  0.00     0.030 C 
ATOM     22  C   UNL A   1      41.402  26.125  37.236  1.00  0.00     0.030 C 
ENDBRANCH  18  20
ENDBRANCH  15  16
ENDBRANCH  14  15
ENDBRANCH  11  14
ENDBRANCH   7  11
ENDBRANCH   5   7
ENDBRANCH   4   5
ENDBRANCH   3   4
ENDBRANCH   2   3
ENDBRANCH   1   2
BRANCH   1  23
ATOM     23  C   UNL A   1      36.251  34.195  34.649  1.00  0.00     0.188 C 
BRANCH  23  24
ATOM     24  C   UNL A   1      34.919  34.598  33.997  1.00  0.00     0.188 C 
BRANCH  24  25
ATOM     25  O   UNL A   1      34.568  35.959  33.848  1.00  0.00    -0.376 OA
BRANCH  25  26
ATOM     26  C   UNL A   1      34.398  36.466  32.532  1.00  0.00     0.202 C 
BRANCH  26  27
ATOM     27  C   UNL A   1      33.078  36.287  31.748  1.00  0.00     0.261 C 
BRANCH  27  28
ATOM     28  O   UNL A   1      32.835  35.000  31.150  1.00  0.00    -0.460 OA
BRANCH  28  29
ATOM     29  C   UNL A   1      33.254  34.861  29.868  1.00  0.00     0.338 C 
ATOM     30  O   UNL A   1      32.793  35.411  28.875  1.00  0.00    -0.246 OA
BRANCH  29  31
ATOM     31  C   UNL A   1      34.528  34.110  29.829  1.00  0.00     0.060 A 
ATOM     32  C   UNL A   1      34.776  33.158  30.832  1.00  0.00     0.016 A 
ATOM     33  C   UNL A   1      35.497  34.381  28.864  1.00  0.00     0.016 A 
ATOM     34  C   UNL A   1      36.005  32.502  30.897  1.00  0.00     0.010 A 
ATOM     35  C   UNL A   1      36.742  33.745  28.949  1.00  0.00     0.010 A 
ATOM     36  C   UNL A   1      37.016  32.835  29.989  1.00  0.00    -0.014 A 
BRANCH  36  37
ATOM     37  C   UNL A   1      38.416  32.421  30.268  1.00  0.00     0.031 A 
ATOM     38  C   UNL A   1      38.894  31.111  29.704  1.00  0.00     0.074 A 
ATOM     39  C   UNL A   1      39.257  33.191  30.980  1.00  0.00     0.049 A 
ATOM     40  N   UNL A   1      40.045  30.505  29.854  1.00  0.00    -0.248 NA
ATOM     41  C   UNL A   1      37.937  30.383  28.854  1.00  0.00     0.031 C 
ATOM     42  C   UNL A   1      38.942  34.505  31.532  1.00  0.00     0.029 A 
ATOM     43  N   UNL A   1      40.556  32.965  31.366  1.00  0.00    -0.354 N 
ATOM     44  C   UNL A   1      39.943  29.320  29.134  1.00  0.00     0.074 A 
ATOM     45  C   UNL A   1      38.611  29.278  28.572  1.00  0.00     0.031 C 
ATOM     46  C   UNL A   1      40.016  34.965  32.200  1.00  0.00     0.029 A 
ATOM     47  C   UNL A   1      41.080  33.962  32.150  1.00  0.00     0.049 A 
ATOM     48  H   UNL A   1      41.063  32.162  31.105  1.00  0.00     0.167 HD
ATOM     49  C   UNL A   1      40.877  28.356  28.951  1.00  0.00     0.037 A 
ATOM     50  C   UNL A   1      42.273  34.041  32.773  1.00  0.00     0.037 A 
ATOM     51  C   UNL A   1      42.202  28.395  29.513  1.00  0.00     0.049 A 
ATOM     52  C   UNL A   1      43.265  32.912  32.628  1.00  0.00     0.074 A 
ATOM     53  C   UNL A   1      43.227  27.476  29.371  1.00  0.00     0.029 A 
ATOM     54  N   UNL A   1      42.681  29.403  30.336  1.00  0.00    -0.354 N 
ATOM     55  N   UNL A   1      43.174  31.808  31.926  1.00  0.00    -0.248 NA
ATOM     56  C   UNL A   1      44.530  33.045  33.365  1.00  0.00     0.031 C 
ATOM     57  C   UNL A   1      44.303  27.895  30.159  1.00  0.00     0.029 A 
ATOM     58  C   UNL A   1      43.977  29.113  30.735  1.00  0.00     0.049 A 
ATOM     59  H   UNL A   1      42.176  30.206  30.598  1.00  0.00     0.167 HD
ATOM     60  C   UNL A   1      44.381  31.139  32.102  1.00  0.00     0.074 A 
ATOM     61  C   UNL A   1      45.191  31.967  32.970  1.00  0.00     0.031 C 
ATOM     62  C   UNL A   1      44.782  29.950  31.588  1.00  0.00     0.037 A 
BRANCH  49  63
ATOM     63  C   UNL A   1      40.480  27.154  28.142  1.00  0.00     0.064 A 
ATOM     64  C   UNL A   1      39.580  26.194  28.631  1.00  0.00     0.173 A 
ATOM     65  C   UNL A   1      40.999  26.967  26.853  1.00  0.00     0.173 A 
ATOM     66  F   UNL A   1      39.065  26.316  29.864  1.00  0.00    -0.203 F 
ATOM     67  C   UNL A   1      39.244  25.075  27.872  1.00  0.00     0.198 A 
ATOM     68  C   UNL A   1      40.632  25.866  26.083  1.00  0.00     0.198 A 
ATOM     69  F   UNL A   1      41.860  27.856  26.334  1.00  0.00    -0.203 F 
ATOM     70  F   UNL A   1      38.430  24.141  28.384  1.00  0.00    -0.200 F 
ATOM     71  C   UNL A   1      39.765  24.916  26.597  1.00  0.00     0.200 A 
ATOM     72  F   UNL A   1      41.125  25.723  24.845  1.00  0.00    -0.200 F 
ATOM     73  F   UNL A   1      39.437  23.841  25.867  1.00  0.00    -0.200 F 
ENDBRANCH  49  63
BRANCH  50  74
ATOM     74  C   UNL A   1      42.608  35.232  33.600  1.00  0.00     0.064 A 
ATOM     75  C   UNL A   1      43.152  36.385  33.015  1.00  0.00     0.173 A 
ATOM     76  C   UNL A   1      42.431  35.229  34.991  1.00  0.00     0.173 A 
ATOM     77  F   UNL A   1      43.369  36.427  31.693  1.00  0.00    -0.203 F 
ATOM     78  C   UNL A   1      43.525  37.480  33.793  1.00  0.00     0.198 A 
ATOM     79  C   UNL A   1      42.775  36.338  35.763  1.00  0.00     0.198 A 
ATOM     80  F   UNL A   1      41.921  34.150  35.601  1.00  0.00    -0.203 F 
ATOM     81  F   UNL A   1      44.095  38.546  33.214  1.00  0.00    -0.200 F 
ATOM     82  C   UNL A   1      43.331  37.457  35.165  1.00  0.00     0.200 A 
ATOM     83  F   UNL A   1      42.575  36.315  37.088  1.00  0.00    -0.200 F 
ATOM     84  F   UNL A   1      43.690  38.511  35.912  1.00  0.00    -0.200 F 
ENDBRANCH  50  74
BRANCH  62  85
ATOM     85  C   UNL A   1      46.183  29.495  31.897  1.00  0.00     0.064 A 
ATOM     86  C   UNL A   1      46.469  28.642  32.974  1.00  0.00     0.173 A 
ATOM     87  C   UNL A   1      47.253  29.896  31.081  1.00  0.00     0.173 A 
ATOM     88  F   UNL A   1      45.487  28.237  33.794  1.00  0.00    -0.203 F 
ATOM     89  C   UNL A   1      47.775  28.238  33.242  1.00  0.00     0.198 A 
ATOM     90  C   UNL A   1      48.551  29.460  31.329  1.00  0.00     0.198 A 
ATOM     91  F   UNL A   1      47.037  30.703  30.031  1.00  0.00    -0.203 F 
ATOM     92  F   UNL A   1      48.031  27.472  34.312  1.00  0.00    -0.200 F 
ATOM     93  C   UNL A   1      48.813  28.642  32.416  1.00  0.00     0.200 A 
ATOM     94  F   UNL A   1      49.549  29.837  30.518  1.00  0.00    -0.200 F 
ATOM     95  F   UNL A   1      50.068  28.247  32.673  1.00  0.00    -0.200 F 
ENDBRANCH  62  85
ENDBRANCH  36  37
ENDBRANCH  29  31
ENDBRANCH  28  29
ENDBRANCH  27  28
ENDBRANCH  26  27
ENDBRANCH  25  26
ENDBRANCH  24  25
ENDBRANCH  23  24
ENDBRANCH   1  23
TORSDOF 23
ENDMDL
MODEL 2
REMARK VINA RESULT:      -6.6      5.605     12.155
REMARK SMILES CC[C@@](C)([NH2+]CCC(=O)NC(C)C)C(=O)OCCOCCOCCOC(=O)c1ccc(-c2c3nc(c(-c4c(F)c(F)c(F)c(F)c4F)c4ccc([nH]4)c(-c4c(F)c(F)c(F)c(F)c4F)c4nc(c(-c5c(F)c(F)c(F)c(F)c5F)c5ccc2[nH]5)C=C4)C=C3)cc1
REMARK SMILES IDX 19 1 18 2 17 3 16 4 14 5 15 6 3 7 4 8 2 9 1 10 5 11 6 14
REMARK SMILES IDX 7 15 8 16 9 17 10 18 11 20 12 21 13 22 20 23 21 24 22 25
REMARK SMILES IDX 23 26 24 27 25 28 26 29 27 30 28 31 29 32 90 33 30 34 89 35
REMARK SMILES IDX 31 36 32 37 33 38 83 39 34 40 88 41 82 42 84 43 35 44 87 45
REMARK SMILES IDX 81 46 80 47 36 49 68 50 48 51 67 52 49 53 52 54 66 55 85 56
REMARK SMILES IDX 50 57 51 58 65 60 86 61 53 62 37 63 38 64 46 65 39 66 40 67
REMARK SMILES IDX 44 68 47 69 41 70 42 71 45 72 43 73 69 74 70 75 78 76 71 77
REMARK SMILES IDX 72 78 76 79 79 80 73 81 74 82 77 83 75 84 54 85 55 86 63 87
REMARK SMILES IDX 56 88 57 89 61 90 64 91 58 92 59 93 62 94 60 95
REMARK H PARENT 5 12 5 13 10 19 84 48 52 59
REMARK Flexibility Score: inf
ROOT
ATOM      1  O   UNL A   1      46.773  26.152  24.323  1.00  0.00    -0.376 OA
ENDROOT
BRANCH   1   2
ATOM      2  C   UNL A   1      46.094  27.363  24.628  1.00  0.00     0.202 C 
BRANCH   2   3
ATOM      3  C   UNL A   1      44.933  27.495  25.638  1.00  0.00     0.261 C 
BRANCH   3   4
ATOM      4  O   UNL A   1      44.633  26.359  26.452  1.00  0.00    -0.459 OA
BRANCH   4   5
ATOM      5  C   UNL A   1      43.527  25.641  26.128  1.00  0.00     0.367 C 
ATOM      6  O   UNL A   1      43.466  24.895  25.154  1.00  0.00    -0.245 OA
BRANCH   5   7
ATOM      7  C   UNL A   1      42.347  25.823  27.127  1.00  0.00     0.191 C 
ATOM      8  C   UNL A   1      42.911  26.640  28.294  1.00  0.00     0.092 C 
BRANCH   7   9
ATOM      9  C   UNL A   1      41.179  26.566  26.390  1.00  0.00     0.077 C 
ATOM     10  C   UNL A   1      40.777  27.950  26.874  1.00  0.00     0.011 C 
ENDBRANCH   7   9
BRANCH   7  11
ATOM     11  N   UNL A   1      41.725  24.548  27.545  1.00  0.00    -0.332 N 
ATOM     12  H   UNL A   1      41.422  24.109  26.676  1.00  0.00     0.347 HD
ATOM     13  H   UNL A   1      41.090  24.908  28.259  1.00  0.00     0.347 HD
BRANCH  11  14
ATOM     14  C   UNL A   1      42.333  23.478  28.307  1.00  0.00     0.271 C 
BRANCH  14  15
ATOM     15  C   UNL A   1      42.622  22.133  27.642  1.00  0.00     0.161 C 
BRANCH  15  16
ATOM     16  C   UNL A   1      42.310  21.881  26.169  1.00  0.00     0.225 C 
ATOM     17  O   UNL A   1      41.166  22.080  25.746  1.00  0.00    -0.275 OA
ATOM     18  N   UNL A   1      43.252  21.573  25.233  1.00  0.00    -0.354 N 
ATOM     19  H   UNL A   1      42.961  21.706  24.302  1.00  0.00     0.163 HD
BRANCH  18  20
ATOM     20  C   UNL A   1      44.605  21.084  25.378  1.00  0.00     0.075 C 
ATOM     21  C   UNL A   1      44.915  20.045  24.305  1.00  0.00     0.030 C 
ATOM     22  C   UNL A   1      45.651  22.188  25.418  1.00  0.00     0.030 C 
ENDBRANCH  18  20
ENDBRANCH  15  16
ENDBRANCH  14  15
ENDBRANCH  11  14
ENDBRANCH   7  11
ENDBRANCH   5   7
ENDBRANCH   4   5
ENDBRANCH   3   4
ENDBRANCH   2   3
ENDBRANCH   1   2
BRANCH   1  23
ATOM     23  C   UNL A   1      48.180  26.161  24.245  1.00  0.00     0.188 C 
BRANCH  23  24
ATOM     24  C   UNL A   1      48.810  27.500  24.661  1.00  0.00     0.188 C 
BRANCH  24  25
ATOM     25  O   UNL A   1      49.849  28.080  23.898  1.00  0.00    -0.376 OA
BRANCH  25  26
ATOM     26  C   UNL A   1      50.787  27.213  23.277  1.00  0.00     0.202 C 
BRANCH  26  27
ATOM     27  C   UNL A   1      52.049  26.706  24.013  1.00  0.00     0.261 C 
BRANCH  27  28
ATOM     28  O   UNL A   1      52.423  27.387  25.225  1.00  0.00    -0.460 OA
BRANCH  28  29
ATOM     29  C   UNL A   1      52.666  26.589  26.295  1.00  0.00     0.338 C 
ATOM     30  O   UNL A   1      53.696  25.973  26.539  1.00  0.00    -0.246 OA
BRANCH  29  31
ATOM     31  C   UNL A   1      51.580  26.729  27.289  1.00  0.00     0.060 A 
ATOM     32  C   UNL A   1      50.484  25.852  27.212  1.00  0.00     0.016 A 
ATOM     33  C   UNL A   1      51.599  27.747  28.241  1.00  0.00     0.016 A 
ATOM     34  C   UNL A   1      49.389  26.012  28.061  1.00  0.00     0.010 A 
ATOM     35  C   UNL A   1      50.485  27.926  29.071  1.00  0.00     0.010 A 
ATOM     36  C   UNL A   1      49.359  27.086  28.956  1.00  0.00    -0.014 A 
BRANCH  36  37
ATOM     37  C   UNL A   1      48.073  27.474  29.591  1.00  0.00     0.031 A 
ATOM     38  C   UNL A   1      47.332  28.657  29.028  1.00  0.00     0.074 A 
ATOM     39  C   UNL A   1      47.553  26.788  30.624  1.00  0.00     0.049 A 
ATOM     40  N   UNL A   1      46.227  29.226  29.440  1.00  0.00    -0.248 NA
ATOM     41  C   UNL A   1      47.924  29.286  27.836  1.00  0.00     0.031 C 
ATOM     42  C   UNL A   1      48.136  25.593  31.226  1.00  0.00     0.029 A 
ATOM     43  N   UNL A   1      46.412  27.014  31.355  1.00  0.00    -0.354 N 
ATOM     44  C   UNL A   1      46.003  30.287  28.569  1.00  0.00     0.074 A 
ATOM     45  C   UNL A   1      47.100  30.300  27.626  1.00  0.00     0.031 C 
ATOM     46  C   UNL A   1      47.354  25.196  32.247  1.00  0.00     0.029 A 
ATOM     47  C   UNL A   1      46.236  26.129  32.389  1.00  0.00     0.049 A 
ATOM     48  H   UNL A   1      45.780  27.742  31.155  1.00  0.00     0.167 HD
ATOM     49  C   UNL A   1      44.974  31.167  28.552  1.00  0.00     0.037 A 
ATOM     50  C   UNL A   1      45.294  26.094  33.352  1.00  0.00     0.037 A 
ATOM     51  C   UNL A   1      43.884  31.156  29.492  1.00  0.00     0.049 A 
ATOM     52  C   UNL A   1      44.205  27.141  33.367  1.00  0.00     0.074 A 
ATOM     53  C   UNL A   1      42.783  31.994  29.547  1.00  0.00     0.029 A 
ATOM     54  N   UNL A   1      43.763  30.269  30.551  1.00  0.00    -0.354 N 
ATOM     55  N   UNL A   1      43.983  28.124  32.528  1.00  0.00    -0.248 NA
ATOM     56  C   UNL A   1      43.232  27.068  34.466  1.00  0.00     0.031 C 
ATOM     57  C   UNL A   1      42.031  31.656  30.677  1.00  0.00     0.029 A 
ATOM     58  C   UNL A   1      42.623  30.560  31.285  1.00  0.00     0.049 A 
ATOM     59  H   UNL A   1      44.393  29.541  30.752  1.00  0.00     0.167 HD
ATOM     60  C   UNL A   1      42.827  28.757  32.972  1.00  0.00     0.074 A 
ATOM     61  C   UNL A   1      42.388  28.039  34.150  1.00  0.00     0.031 C 
ATOM     62  C   UNL A   1      42.185  29.831  32.448  1.00  0.00     0.037 A 
BRANCH  49  63
ATOM     63  C   UNL A   1      45.003  32.244  27.505  1.00  0.00     0.064 A 
ATOM     64  C   UNL A   1      44.208  32.178  26.350  1.00  0.00     0.173 A 
ATOM     65  C   UNL A   1      45.830  33.365  27.667  1.00  0.00     0.173 A 
ATOM     66  F   UNL A   1      43.410  31.120  26.137  1.00  0.00    -0.203 F 
ATOM     67  C   UNL A   1      44.269  33.177  25.381  1.00  0.00     0.198 A 
ATOM     68  C   UNL A   1      45.861  34.380  26.713  1.00  0.00     0.198 A 
ATOM     69  F   UNL A   1      46.608  33.482  28.754  1.00  0.00    -0.203 F 
ATOM     70  F   UNL A   1      43.547  33.063  24.258  1.00  0.00    -0.200 F 
ATOM     71  C   UNL A   1      45.089  34.279  25.567  1.00  0.00     0.200 A 
ATOM     72  F   UNL A   1      46.643  35.450  26.903  1.00  0.00    -0.200 F 
ATOM     73  F   UNL A   1      45.144  35.242  24.635  1.00  0.00    -0.200 F 
ENDBRANCH  49  63
BRANCH  50  74
ATOM     74  C   UNL A   1      45.328  25.035  34.396  1.00  0.00     0.064 A 
ATOM     75  C   UNL A   1      44.767  23.771  34.158  1.00  0.00     0.173 A 
ATOM     76  C   UNL A   1      45.882  25.272  35.661  1.00  0.00     0.173 A 
ATOM     77  F   UNL A   1      44.197  23.503  32.974  1.00  0.00    -0.203 F 
ATOM     78  C   UNL A   1      44.741  22.794  35.152  1.00  0.00     0.198 A 
ATOM     79  C   UNL A   1      45.884  24.284  36.645  1.00  0.00     0.198 A 
ATOM     80  F   UNL A   1      46.425  26.465  35.944  1.00  0.00    -0.203 F 
ATOM     81  F   UNL A   1      44.149  21.616  34.915  1.00  0.00    -0.200 F 
ATOM     82  C   UNL A   1      45.305  23.050  36.393  1.00  0.00     0.200 A 
ATOM     83  F   UNL A   1      46.440  24.531  37.838  1.00  0.00    -0.200 F 
ATOM     84  F   UNL A   1      45.280  22.111  37.349  1.00  0.00    -0.200 F 
ENDBRANCH  50  74
BRANCH  62  85
ATOM     85  C   UNL A   1      40.903  30.265  33.107  1.00  0.00     0.064 A 
ATOM     86  C   UNL A   1      40.866  31.295  34.059  1.00  0.00     0.173 A 
ATOM     87  C   UNL A   1      39.687  29.658  32.755  1.00  0.00     0.173 A 
ATOM     88  F   UNL A   1      42.000  31.902  34.442  1.00  0.00    -0.203 F 
ATOM     89  C   UNL A   1      39.667  31.676  34.657  1.00  0.00     0.198 A 
ATOM     90  C   UNL A   1      38.486  30.066  33.327  1.00  0.00     0.198 A 
ATOM     91  F   UNL A   1      39.661  28.674  31.844  1.00  0.00    -0.203 F 
ATOM     92  F   UNL A   1      39.666  32.622  35.607  1.00  0.00    -0.200 F 
ATOM     93  C   UNL A   1      38.478  31.066  34.286  1.00  0.00     0.200 A 
ATOM     94  F   UNL A   1      37.337  29.488  32.953  1.00  0.00    -0.200 F 
ATOM     95  F   UNL A   1      37.325  31.439  34.860  1.00  0.00    -0.200 F 
ENDBRANCH  62  85
ENDBRANCH  36  37
ENDBRANCH  29  31
ENDBRANCH  28  29
ENDBRANCH  27  28
ENDBRANCH  26  27
ENDBRANCH  25  26
ENDBRANCH  24  25
ENDBRANCH  23  24
ENDBRANCH   1  23
TORSDOF 23
ENDMDL
MODEL 3
REMARK VINA RESULT:      -6.5      5.194     11.163
REMARK SMILES CC[C@@](C)([NH2+]CCC(=O)NC(C)C)C(=O)OCCOCCOCCOC(=O)c1ccc(-c2c3nc(c(-c4c(F)c(F)c(F)c(F)c4F)c4ccc([nH]4)c(-c4c(F)c(F)c(F)c(F)c4F)c4nc(c(-c5c(F)c(F)c(F)c(F)c5F)c5ccc2[nH]5)C=C4)C=C3)cc1
REMARK SMILES IDX 19 1 18 2 17 3 16 4 14 5 15 6 3 7 4 8 2 9 1 10 5 11 6 14
REMARK SMILES IDX 7 15 8 16 9 17 10 18 11 20 12 21 13 22 20 23 21 24 22 25
REMARK SMILES IDX 23 26 24 27 25 28 26 29 27 30 28 31 29 32 90 33 30 34 89 35
REMARK SMILES IDX 31 36 32 37 33 38 83 39 34 40 88 41 82 42 84 43 35 44 87 45
REMARK SMILES IDX 81 46 80 47 36 49 68 50 48 51 67 52 49 53 52 54 66 55 85 56
REMARK SMILES IDX 50 57 51 58 65 60 86 61 53 62 37 63 38 64 46 65 39 66 40 67
REMARK SMILES IDX 44 68 47 69 41 70 42 71 45 72 43 73 69 74 70 75 78 76 71 77
REMARK SMILES IDX 72 78 76 79 79 80 73 81 74 82 77 83 75 84 54 85 55 86 63 87
REMARK SMILES IDX 56 88 57 89 61 90 64 91 58 92 59 93 62 94 60 95
REMARK H PARENT 5 12 5 13 10 19 84 48 52 59
REMARK Flexibility Score: inf
ROOT
ATOM      1  O   UNL A   1      49.000  27.014  25.233  1.00  0.00    -0.376 OA
ENDROOT
BRANCH   1   2
ATOM      2  C   UNL A   1      48.159  26.326  24.317  1.00  0.00     0.202 C 
BRANCH   2   3
ATOM      3  C   UNL A   1      47.766  24.836  24.426  1.00  0.00     0.261 C 
BRANCH   3   4
ATOM      4  O   UNL A   1      46.373  24.523  24.488  1.00  0.00    -0.459 OA
BRANCH   4   5
ATOM      5  C   UNL A   1      45.958  23.752  25.526  1.00  0.00     0.367 C 
ATOM      6  O   UNL A   1      46.601  23.611  26.564  1.00  0.00    -0.245 OA
BRANCH   5   7
ATOM      7  C   UNL A   1      44.569  23.086  25.297  1.00  0.00     0.191 C 
ATOM      8  C   UNL A   1      44.398  22.994  23.777  1.00  0.00     0.092 C 
BRANCH   7   9
ATOM      9  C   UNL A   1      44.572  21.677  25.983  1.00  0.00     0.077 C 
ATOM     10  C   UNL A   1      45.497  20.602  25.433  1.00  0.00     0.011 C 
ENDBRANCH   7   9
BRANCH   7  11
ATOM     11  N   UNL A   1      43.458  23.790  25.974  1.00  0.00    -0.332 N 
ATOM     12  H   UNL A   1      43.870  24.165  26.827  1.00  0.00     0.347 HD
ATOM     13  H   UNL A   1      42.763  23.043  25.952  1.00  0.00     0.347 HD
BRANCH  11  14
ATOM     14  C   UNL A   1      42.646  24.866  25.450  1.00  0.00     0.271 C 
BRANCH  14  15
ATOM     15  C   UNL A   1      41.246  25.112  26.010  1.00  0.00     0.161 C 
BRANCH  15  16
ATOM     16  C   UNL A   1      41.023  25.544  27.457  1.00  0.00     0.225 C 
ATOM     17  O   UNL A   1      40.996  24.689  28.350  1.00  0.00    -0.275 OA
ATOM     18  N   UNL A   1      40.983  26.842  27.867  1.00  0.00    -0.354 N 
ATOM     19  H   UNL A   1      41.107  26.970  28.836  1.00  0.00     0.163 HD
BRANCH  18  20
ATOM     20  C   UNL A   1      40.790  28.065  27.119  1.00  0.00     0.075 C 
ATOM     21  C   UNL A   1      39.544  28.798  27.608  1.00  0.00     0.030 C 
ATOM     22  C   UNL A   1      42.011  28.971  27.103  1.00  0.00     0.030 C 
ENDBRANCH  18  20
ENDBRANCH  15  16
ENDBRANCH  14  15
ENDBRANCH  11  14
ENDBRANCH   7  11
ENDBRANCH   5   7
ENDBRANCH   4   5
ENDBRANCH   3   4
ENDBRANCH   2   3
ENDBRANCH   1   2
BRANCH   1  23
ATOM     23  C   UNL A   1      50.094  27.749  24.734  1.00  0.00     0.188 C 
BRANCH  23  24
ATOM     24  C   UNL A   1      51.452  27.269  25.269  1.00  0.00     0.188 C 
BRANCH  24  25
ATOM     25  O   UNL A   1      51.541  26.561  26.490  1.00  0.00    -0.376 OA
BRANCH  25  26
ATOM     26  C   UNL A   1      51.684  27.309  27.689  1.00  0.00     0.202 C 
BRANCH  26  27
ATOM     27  C   UNL A   1      52.819  28.341  27.880  1.00  0.00     0.261 C 
BRANCH  27  28
ATOM     28  O   UNL A   1      52.507  29.535  28.622  1.00  0.00    -0.460 OA
BRANCH  28  29
ATOM     29  C   UNL A   1      52.317  30.654  27.880  1.00  0.00     0.338 C 
ATOM     30  O   UNL A   1      53.063  31.108  27.021  1.00  0.00    -0.246 OA
BRANCH  29  31
ATOM     31  C   UNL A   1      50.942  31.164  28.074  1.00  0.00     0.060 A 
ATOM     32  C   UNL A   1      50.587  31.669  29.337  1.00  0.00     0.016 A 
ATOM     33  C   UNL A   1      49.992  31.087  27.057  1.00  0.00     0.016 A 
ATOM     34  C   UNL A   1      49.275  32.063  29.597  1.00  0.00     0.010 A 
ATOM     35  C   UNL A   1      48.669  31.453  27.329  1.00  0.00     0.010 A 
ATOM     36  C   UNL A   1      48.295  31.903  28.612  1.00  0.00    -0.014 A 
BRANCH  36  37
ATOM     37  C   UNL A   1      46.860  31.973  28.988  1.00  0.00     0.031 A 
ATOM     38  C   UNL A   1      46.189  30.713  29.466  1.00  0.00     0.074 A 
ATOM     39  C   UNL A   1      46.165  33.122  28.935  1.00  0.00     0.049 A 
ATOM     40  N   UNL A   1      44.939  30.502  29.795  1.00  0.00    -0.248 NA
ATOM     41  C   UNL A   1      47.051  29.526  29.587  1.00  0.00     0.031 C 
ATOM     42  C   UNL A   1      46.705  34.423  28.548  1.00  0.00     0.029 A 
ATOM     43  N   UNL A   1      44.841  33.373  29.204  1.00  0.00    -0.354 N 
ATOM     44  C   UNL A   1      44.863  29.158  30.143  1.00  0.00     0.074 A 
ATOM     45  C   UNL A   1      46.184  28.597  29.959  1.00  0.00     0.031 C 
ATOM     46  C   UNL A   1      45.716  35.334  28.591  1.00  0.00     0.029 A 
ATOM     47  C   UNL A   1      44.468  34.674  28.976  1.00  0.00     0.049 A 
ATOM     48  H   UNL A   1      44.219  32.683  29.530  1.00  0.00     0.167 HD
ATOM     49  C   UNL A   1      43.792  28.456  30.583  1.00  0.00     0.037 A 
ATOM     50  C   UNL A   1      43.254  35.255  29.046  1.00  0.00     0.037 A 
ATOM     51  C   UNL A   1      42.477  29.014  30.763  1.00  0.00     0.049 A 
ATOM     52  C   UNL A   1      42.056  34.430  29.452  1.00  0.00     0.074 A 
ATOM     53  C   UNL A   1      41.330  28.388  31.222  1.00  0.00     0.029 A 
ATOM     54  N   UNL A   1      42.130  30.326  30.481  1.00  0.00    -0.354 N 
ATOM     55  N   UNL A   1      41.994  33.169  29.805  1.00  0.00    -0.248 NA
ATOM     56  C   UNL A   1      40.756  35.117  29.471  1.00  0.00     0.031 C 
ATOM     57  C   UNL A   1      40.276  29.304  31.156  1.00  0.00     0.029 A 
ATOM     58  C   UNL A   1      40.779  30.522  30.725  1.00  0.00     0.049 A 
ATOM     59  H   UNL A   1      42.751  31.017  30.156  1.00  0.00     0.167 HD
ATOM     60  C   UNL A   1      40.664  32.924  30.128  1.00  0.00     0.074 A 
ATOM     61  C   UNL A   1      39.954  34.171  29.937  1.00  0.00     0.031 C 
ATOM     62  C   UNL A   1      40.084  31.771  30.548  1.00  0.00     0.037 A 
BRANCH  49  63
ATOM     63  C   UNL A   1      43.992  26.993  30.859  1.00  0.00     0.064 A 
ATOM     64  C   UNL A   1      44.128  26.495  32.164  1.00  0.00     0.173 A 
ATOM     65  C   UNL A   1      44.035  26.074  29.800  1.00  0.00     0.173 A 
ATOM     66  F   UNL A   1      44.110  27.332  33.212  1.00  0.00    -0.203 F 
ATOM     67  C   UNL A   1      44.335  25.137  32.394  1.00  0.00     0.198 A 
ATOM     68  C   UNL A   1      44.205  24.712  30.036  1.00  0.00     0.198 A 
ATOM     69  F   UNL A   1      43.905  26.494  28.532  1.00  0.00    -0.203 F 
ATOM     70  F   UNL A   1      44.523  24.692  33.644  1.00  0.00    -0.200 F 
ATOM     71  C   UNL A   1      44.367  24.247  31.332  1.00  0.00     0.200 A 
ATOM     72  F   UNL A   1      44.220  23.852  29.009  1.00  0.00    -0.200 F 
ATOM     73  F   UNL A   1      44.562  22.939  31.555  1.00  0.00    -0.200 F 
ENDBRANCH  49  63
BRANCH  50  74
ATOM     74  C   UNL A   1      43.095  36.698  28.722  1.00  0.00     0.064 A 
ATOM     75  C   UNL A   1      43.450  37.688  29.650  1.00  0.00     0.173 A 
ATOM     76  C   UNL A   1      42.549  37.118  27.501  1.00  0.00     0.173 A 
ATOM     77  F   UNL A   1      43.949  37.338  30.845  1.00  0.00    -0.203 F 
ATOM     78  C   UNL A   1      43.246  39.040  29.377  1.00  0.00     0.198 A 
ATOM     79  C   UNL A   1      42.375  38.472  27.216  1.00  0.00     0.198 A 
ATOM     80  F   UNL A   1      42.186  36.213  26.580  1.00  0.00    -0.203 F 
ATOM     81  F   UNL A   1      43.543  39.960  30.304  1.00  0.00    -0.200 F 
ATOM     82  C   UNL A   1      42.714  39.430  28.157  1.00  0.00     0.200 A 
ATOM     83  F   UNL A   1      41.871  38.845  26.032  1.00  0.00    -0.200 F 
ATOM     84  F   UNL A   1      42.518  40.730  27.895  1.00  0.00    -0.200 F 
ENDBRANCH  50  74
BRANCH  62  85
ATOM     85  C   UNL A   1      38.619  31.814  30.891  1.00  0.00     0.064 A 
ATOM     86  C   UNL A   1      38.167  32.014  32.203  1.00  0.00     0.173 A 
ATOM     87  C   UNL A   1      37.653  31.683  29.880  1.00  0.00     0.173 A 
ATOM     88  F   UNL A   1      39.046  32.134  33.210  1.00  0.00    -0.203 F 
ATOM     89  C   UNL A   1      36.805  32.046  32.496  1.00  0.00     0.198 A 
ATOM     90  C   UNL A   1      36.294  31.753  30.170  1.00  0.00     0.198 A 
ATOM     91  F   UNL A   1      38.028  31.499  28.606  1.00  0.00    -0.203 F 
ATOM     92  F   UNL A   1      36.398  32.179  33.766  1.00  0.00    -0.200 F 
ATOM     93  C   UNL A   1      35.870  31.922  31.479  1.00  0.00     0.200 A 
ATOM     94  F   UNL A   1      35.393  31.651  29.183  1.00  0.00    -0.200 F 
ATOM     95  F   UNL A   1      34.561  31.959  31.762  1.00  0.00    -0.200 F 
ENDBRANCH  62  85
ENDBRANCH  36  37
ENDBRANCH  29  31
ENDBRANCH  28  29
ENDBRANCH  27  28
ENDBRANCH  26  27
ENDBRANCH  25  26
ENDBRANCH  24  25
ENDBRANCH  23  24
ENDBRANCH   1  23
TORSDOF 23
ENDMDL
