MODEL 1
REMARK VINA RESULT:     -10.5      0.000      0.000
REMARK SMILES O=C(OCCOCCOCCOC(=O)[C@H]1C[C@@H](O)CN1C(=O)CCc1ccc(Cl)cc1Cl)c1ccc(-c2c3nc(c(-c4c(F)c(F)c(F)c(F)c4F)c4ccc([nH]4)c(-c4c(F)c(F)c(F)c(F)c4F)c4nc(c(-c5c(F)c(F)c(F)c(F)c5F)c5ccc2[nH]5)C=C4)C=C3)cc1
REMARK SMILES IDX 8 1 7 2 6 3 5 4 4 5 3 6 2 7 1 8 33 9 34 10 95 11 35 12 94 13
REMARK SMILES IDX 36 14 37 15 38 16 88 17 39 18 93 19 87 20 89 21 40 22 92 23
REMARK SMILES IDX 86 24 85 25 41 27 73 28 53 29 72 30 54 31 57 32 71 33 90 34
REMARK SMILES IDX 55 35 56 36 70 38 91 39 58 40 42 41 43 42 51 43 44 44 45 45
REMARK SMILES IDX 49 46 52 47 46 48 47 49 50 50 48 51 74 52 75 53 83 54 76 55
REMARK SMILES IDX 77 56 81 57 84 58 78 59 79 60 82 61 80 62 59 63 60 64 68 65
REMARK SMILES IDX 61 66 62 67 66 68 69 69 63 70 64 71 67 72 65 73 9 74 10 75
REMARK SMILES IDX 11 76 12 77 13 78 14 79 15 80 16 81 20 82 17 83 19 84 21 85
REMARK SMILES IDX 22 86 23 87 24 88 25 89 26 90 31 91 27 92 30 93 32 94 28 95
REMARK SMILES IDX 29 96 18 97
REMARK H PARENT 89 26 57 37 18 98
REMARK Flexibility Score: inf
ROOT
ATOM      1  C   UNL A   1      34.731  31.643  28.343  1.00  0.00     0.188 C 
ENDROOT
BRANCH   1   2
ATOM      2  C   UNL A   1      34.485  32.847  29.254  1.00  0.00     0.188 C 
BRANCH   2   3
ATOM      3  O   UNL A   1      33.452  33.721  28.791  1.00  0.00    -0.376 OA
BRANCH   3   4
ATOM      4  C   UNL A   1      33.821  35.105  28.790  1.00  0.00     0.202 C 
BRANCH   4   5
ATOM      5  C   UNL A   1      32.833  36.059  29.485  1.00  0.00     0.261 C 
BRANCH   5   6
ATOM      6  O   UNL A   1      32.240  35.508  30.672  1.00  0.00    -0.460 OA
BRANCH   6   7
ATOM      7  C   UNL A   1      32.740  35.496  31.936  1.00  0.00     0.338 C 
ATOM      8  O   UNL A   1      32.126  36.092  32.812  1.00  0.00    -0.246 OA
BRANCH   7   9
ATOM      9  C   UNL A   1      34.033  34.840  32.315  1.00  0.00     0.060 A 
ATOM     10  C   UNL A   1      35.289  35.436  32.233  1.00  0.00     0.016 A 
ATOM     11  C   UNL A   1      33.959  33.558  32.894  1.00  0.00     0.016 A 
ATOM     12  C   UNL A   1      36.439  34.784  32.644  1.00  0.00     0.010 A 
ATOM     13  C   UNL A   1      35.108  32.913  33.369  1.00  0.00     0.010 A 
ATOM     14  C   UNL A   1      36.360  33.519  33.214  1.00  0.00    -0.014 A 
BRANCH  14  15
ATOM     15  C   UNL A   1      37.631  32.807  33.452  1.00  0.00     0.031 A 
ATOM     16  C   UNL A   1      38.330  33.063  34.751  1.00  0.00     0.074 A 
ATOM     17  C   UNL A   1      38.033  31.829  32.618  1.00  0.00     0.049 A 
ATOM     18  N   UNL A   1      39.426  32.533  35.220  1.00  0.00    -0.248 NA
ATOM     19  C   UNL A   1      37.686  34.024  35.665  1.00  0.00     0.031 C 
ATOM     20  C   UNL A   1      37.326  31.417  31.407  1.00  0.00     0.029 A 
ATOM     21  N   UNL A   1      39.110  30.984  32.668  1.00  0.00    -0.354 N 
ATOM     22  C   UNL A   1      39.602  33.098  36.475  1.00  0.00     0.074 A 
ATOM     23  C   UNL A   1      38.526  34.037  36.685  1.00  0.00     0.031 C 
ATOM     24  C   UNL A   1      37.989  30.411  30.817  1.00  0.00     0.029 A 
ATOM     25  C   UNL A   1      39.186  30.128  31.595  1.00  0.00     0.049 A 
ATOM     26  H   UNL A   1      39.765  30.989  33.403  1.00  0.00     0.167 HD
ATOM     27  C   UNL A   1      40.573  32.834  37.376  1.00  0.00     0.037 A 
ATOM     28  C   UNL A   1      40.136  29.232  31.274  1.00  0.00     0.037 A 
ATOM     29  C   UNL A   1      41.632  31.895  37.138  1.00  0.00     0.049 A 
ATOM     30  C   UNL A   1      41.278  29.059  32.238  1.00  0.00     0.074 A 
ATOM     31  C   UNL A   1      42.715  31.590  37.937  1.00  0.00     0.029 A 
ATOM     32  N   UNL A   1      41.732  31.105  35.998  1.00  0.00    -0.354 N 
ATOM     33  N   UNL A   1      41.467  29.628  33.405  1.00  0.00    -0.248 NA
ATOM     34  C   UNL A   1      42.334  28.118  31.850  1.00  0.00     0.031 C 
ATOM     35  C   UNL A   1      43.499  30.651  37.258  1.00  0.00     0.029 A 
ATOM     36  C   UNL A   1      42.873  30.326  36.063  1.00  0.00     0.049 A 
ATOM     37  H   UNL A   1      41.087  31.102  35.254  1.00  0.00     0.167 HD
ATOM     38  C   UNL A   1      42.645  29.097  33.904  1.00  0.00     0.074 A 
ATOM     39  C   UNL A   1      43.113  28.137  32.922  1.00  0.00     0.031 C 
ATOM     40  C   UNL A   1      43.292  29.377  35.063  1.00  0.00     0.037 A 
BRANCH  27  41
ATOM     41  C   UNL A   1      40.546  33.616  38.655  1.00  0.00     0.064 A 
ATOM     42  C   UNL A   1      39.719  33.254  39.729  1.00  0.00     0.173 A 
ATOM     43  C   UNL A   1      41.334  34.768  38.792  1.00  0.00     0.173 A 
ATOM     44  F   UNL A   1      38.919  32.181  39.634  1.00  0.00    -0.203 F 
ATOM     45  C   UNL A   1      39.663  34.031  40.884  1.00  0.00     0.198 A 
ATOM     46  C   UNL A   1      41.296  35.528  39.958  1.00  0.00     0.198 A 
ATOM     47  F   UNL A   1      42.130  35.166  37.788  1.00  0.00    -0.203 F 
ATOM     48  F   UNL A   1      38.820  33.701  41.872  1.00  0.00    -0.200 F 
ATOM     49  C   UNL A   1      40.455  35.164  40.999  1.00  0.00     0.200 A 
ATOM     50  F   UNL A   1      42.062  36.621  40.068  1.00  0.00    -0.200 F 
ATOM     51  F   UNL A   1      40.396  35.914  42.108  1.00  0.00    -0.200 F 
ENDBRANCH  27  41
BRANCH  28  52
ATOM     52  C   UNL A   1      40.075  28.472  29.994  1.00  0.00     0.064 A 
ATOM     53  C   UNL A   1      39.447  27.221  29.912  1.00  0.00     0.173 A 
ATOM     54  C   UNL A   1      40.696  28.958  28.832  1.00  0.00     0.173 A 
ATOM     55  F   UNL A   1      38.848  26.700  30.993  1.00  0.00    -0.203 F 
ATOM     56  C   UNL A   1      39.479  26.470  28.736  1.00  0.00     0.198 A 
ATOM     57  C   UNL A   1      40.697  28.224  27.647  1.00  0.00     0.198 A 
ATOM     58  F   UNL A   1      41.310  30.151  28.845  1.00  0.00    -0.203 F 
ATOM     59  F   UNL A   1      38.930  25.248  28.708  1.00  0.00    -0.200 F 
ATOM     60  C   UNL A   1      40.103  26.973  27.605  1.00  0.00     0.200 A 
ATOM     61  F   UNL A   1      41.287  28.723  26.552  1.00  0.00    -0.200 F 
ATOM     62  F   UNL A   1      40.143  26.247  26.479  1.00  0.00    -0.200 F 
ENDBRANCH  28  52
BRANCH  40  63
ATOM     63  C   UNL A   1      44.549  28.607  35.332  1.00  0.00     0.064 A 
ATOM     64  C   UNL A   1      45.804  29.086  34.933  1.00  0.00     0.173 A 
ATOM     65  C   UNL A   1      44.495  27.392  36.032  1.00  0.00     0.173 A 
ATOM     66  F   UNL A   1      45.902  30.235  34.246  1.00  0.00    -0.203 F 
ATOM     67  C   UNL A   1      46.960  28.358  35.194  1.00  0.00     0.198 A 
ATOM     68  C   UNL A   1      45.656  26.687  36.325  1.00  0.00     0.198 A 
ATOM     69  F   UNL A   1      43.317  26.898  36.441  1.00  0.00    -0.203 F 
ATOM     70  F   UNL A   1      48.143  28.803  34.751  1.00  0.00    -0.200 F 
ATOM     71  C   UNL A   1      46.885  27.164  35.897  1.00  0.00     0.200 A 
ATOM     72  F   UNL A   1      45.585  25.544  37.020  1.00  0.00    -0.200 F 
ATOM     73  F   UNL A   1      48.002  26.469  36.157  1.00  0.00    -0.200 F 
ENDBRANCH  40  63
ENDBRANCH  14  15
ENDBRANCH   7   9
ENDBRANCH   6   7
ENDBRANCH   5   6
ENDBRANCH   4   5
ENDBRANCH   3   4
ENDBRANCH   2   3
ENDBRANCH   1   2
BRANCH   1  74
ATOM     74  O   UNL A   1      33.628  31.075  27.649  1.00  0.00    -0.376 OA
BRANCH  74  75
ATOM     75  C   UNL A   1      33.886  29.998  26.759  1.00  0.00     0.202 C 
BRANCH  75  76
ATOM     76  C   UNL A   1      33.698  28.545  27.243  1.00  0.00     0.261 C 
BRANCH  76  77
ATOM     77  O   UNL A   1      33.422  27.550  26.236  1.00  0.00    -0.462 OA
BRANCH  77  78
ATOM     78  C   UNL A   1      32.099  27.288  26.077  1.00  0.00     0.329 C 
ATOM     79  O   UNL A   1      31.268  27.480  26.964  1.00  0.00    -0.250 OA
BRANCH  78  80
ATOM     80  C   UNL A   1      31.711  26.780  24.664  1.00  0.00     0.197 C 
ATOM     81  C   UNL A   1      30.436  27.544  24.248  1.00  0.00     0.070 C 
ATOM     82  N   UNL A   1      32.645  27.141  23.579  1.00  0.00    -0.326 N 
ATOM     83  C   UNL A   1      30.981  28.865  23.690  1.00  0.00     0.136 C 
ATOM     84  C   UNL A   1      32.312  28.458  23.073  1.00  0.00     0.152 C 
BRANCH  82  85
ATOM     85  C   UNL A   1      33.201  26.215  22.699  1.00  0.00     0.223 C 
ATOM     86  O   UNL A   1      33.923  26.555  21.766  1.00  0.00    -0.275 OA
BRANCH  85  87
ATOM     87  C   UNL A   1      32.840  24.739  22.912  1.00  0.00     0.105 C 
BRANCH  87  88
ATOM     88  C   UNL A   1      33.975  23.700  22.820  1.00  0.00     0.047 C 
BRANCH  88  89
ATOM     89  C   UNL A   1      33.724  22.427  23.603  1.00  0.00    -0.029 A 
ATOM     90  C   UNL A   1      32.591  21.658  23.277  1.00  0.00     0.007 A 
ATOM     91  C   UNL A   1      34.658  21.895  24.515  1.00  0.00     0.045 A 
ATOM     92  C   UNL A   1      32.477  20.340  23.724  1.00  0.00     0.021 A 
ATOM     93  C   UNL A   1      34.555  20.567  24.940  1.00  0.00     0.041 A 
ATOM     94  Cl  UNL A   1      36.027  22.797  25.061  1.00  0.00    -0.084 Cl
ATOM     95  C   UNL A   1      33.483  19.787  24.513  1.00  0.00     0.042 A 
ATOM     96  Cl  UNL A   1      33.439  18.112  24.900  1.00  0.00    -0.084 Cl
ENDBRANCH  88  89
ENDBRANCH  87  88
ENDBRANCH  85  87
ENDBRANCH  82  85
BRANCH  83  97
ATOM     97  O   UNL A   1      31.166  29.899  24.643  1.00  0.00    -0.391 OA
ATOM     98  H   UNL A   1      30.584  29.745  25.405  1.00  0.00     0.211 HD
ENDBRANCH  83  97
ENDBRANCH  78  80
ENDBRANCH  77  78
ENDBRANCH  76  77
ENDBRANCH  75  76
ENDBRANCH  74  75
ENDBRANCH   1  74
TORSDOF 22
ENDMDL
MODEL 2
REMARK VINA RESULT:     -10.5      4.975      7.280
REMARK SMILES O=C(OCCOCCOCCOC(=O)[C@H]1C[C@@H](O)CN1C(=O)CCc1ccc(Cl)cc1Cl)c1ccc(-c2c3nc(c(-c4c(F)c(F)c(F)c(F)c4F)c4ccc([nH]4)c(-c4c(F)c(F)c(F)c(F)c4F)c4nc(c(-c5c(F)c(F)c(F)c(F)c5F)c5ccc2[nH]5)C=C4)C=C3)cc1
REMARK SMILES IDX 8 1 7 2 6 3 5 4 4 5 3 6 2 7 1 8 33 9 34 10 95 11 35 12 94 13
REMARK SMILES IDX 36 14 37 15 38 16 88 17 39 18 93 19 87 20 89 21 40 22 92 23
REMARK SMILES IDX 86 24 85 25 41 27 73 28 53 29 72 30 54 31 57 32 71 33 90 34
REMARK SMILES IDX 55 35 56 36 70 38 91 39 58 40 42 41 43 42 51 43 44 44 45 45
REMARK SMILES IDX 49 46 52 47 46 48 47 49 50 50 48 51 74 52 75 53 83 54 76 55
REMARK SMILES IDX 77 56 81 57 84 58 78 59 79 60 82 61 80 62 59 63 60 64 68 65
REMARK SMILES IDX 61 66 62 67 66 68 69 69 63 70 64 71 67 72 65 73 9 74 10 75
REMARK SMILES IDX 11 76 12 77 13 78 14 79 15 80 16 81 20 82 17 83 19 84 21 85
REMARK SMILES IDX 22 86 23 87 24 88 25 89 26 90 31 91 27 92 30 93 32 94 28 95
REMARK SMILES IDX 29 96 18 97
REMARK H PARENT 89 26 57 37 18 98
REMARK Flexibility Score: inf
ROOT
ATOM      1  C   UNL A   1      34.687  32.176  27.964  1.00  0.00     0.188 C 
ENDROOT
BRANCH   1   2
ATOM      2  C   UNL A   1      34.049  33.467  28.482  1.00  0.00     0.188 C 
BRANCH   2   3
ATOM      3  O   UNL A   1      34.807  34.115  29.507  1.00  0.00    -0.376 OA
BRANCH   3   4
ATOM      4  C   UNL A   1      34.016  34.574  30.609  1.00  0.00     0.202 C 
BRANCH   4   5
ATOM      5  C   UNL A   1      34.561  34.237  32.008  1.00  0.00     0.261 C 
BRANCH   5   6
ATOM      6  O   UNL A   1      34.857  32.842  32.188  1.00  0.00    -0.460 OA
BRANCH   6   7
ATOM      7  C   UNL A   1      35.942  32.282  32.783  1.00  0.00     0.338 C 
ATOM      8  O   UNL A   1      36.028  32.328  34.004  1.00  0.00    -0.246 OA
BRANCH   7   9
ATOM      9  C   UNL A   1      37.075  31.653  32.029  1.00  0.00     0.060 A 
ATOM     10  C   UNL A   1      38.167  31.013  32.608  1.00  0.00     0.016 A 
ATOM     11  C   UNL A   1      36.974  31.621  30.625  1.00  0.00     0.016 A 
ATOM     12  C   UNL A   1      39.156  30.413  31.847  1.00  0.00     0.010 A 
ATOM     13  C   UNL A   1      37.937  30.967  29.845  1.00  0.00     0.010 A 
ATOM     14  C   UNL A   1      39.051  30.386  30.462  1.00  0.00    -0.014 A 
BRANCH  14  15
ATOM     15  C   UNL A   1      40.225  29.905  29.707  1.00  0.00     0.031 A 
ATOM     16  C   UNL A   1      41.391  30.836  29.581  1.00  0.00     0.074 A 
ATOM     17  C   UNL A   1      40.308  28.617  29.320  1.00  0.00     0.049 A 
ATOM     18  N   UNL A   1      42.550  30.640  29.014  1.00  0.00    -0.248 NA
ATOM     19  C   UNL A   1      41.245  32.160  30.211  1.00  0.00     0.031 C 
ATOM     20  C   UNL A   1      39.274  27.608  29.540  1.00  0.00     0.029 A 
ATOM     21  N   UNL A   1      41.309  27.925  28.692  1.00  0.00    -0.354 N 
ATOM     22  C   UNL A   1      43.263  31.812  29.217  1.00  0.00     0.074 A 
ATOM     23  C   UNL A   1      42.402  32.730  29.924  1.00  0.00     0.031 C 
ATOM     24  C   UNL A   1      39.680  26.430  29.043  1.00  0.00     0.029 A 
ATOM     25  C   UNL A   1      40.994  26.610  28.443  1.00  0.00     0.049 A 
ATOM     26  H   UNL A   1      42.171  28.330  28.444  1.00  0.00     0.167 HD
ATOM     27  C   UNL A   1      44.536  32.083  28.855  1.00  0.00     0.037 A 
ATOM     28  C   UNL A   1      41.690  25.668  27.783  1.00  0.00     0.037 A 
ATOM     29  C   UNL A   1      45.368  31.150  28.150  1.00  0.00     0.049 A 
ATOM     30  C   UNL A   1      43.054  26.045  27.273  1.00  0.00     0.074 A 
ATOM     31  C   UNL A   1      46.647  31.326  27.664  1.00  0.00     0.029 A 
ATOM     32  N   UNL A   1      44.987  29.851  27.832  1.00  0.00    -0.354 N 
ATOM     33  N   UNL A   1      43.711  27.171  27.427  1.00  0.00    -0.248 NA
ATOM     34  C   UNL A   1      43.780  25.026  26.508  1.00  0.00     0.031 C 
ATOM     35  C   UNL A   1      47.023  30.150  27.006  1.00  0.00     0.029 A 
ATOM     36  C   UNL A   1      46.001  29.220  27.135  1.00  0.00     0.049 A 
ATOM     37  H   UNL A   1      44.123  29.442  28.068  1.00  0.00     0.167 HD
ATOM     38  C   UNL A   1      44.934  26.990  26.803  1.00  0.00     0.074 A 
ATOM     39  C   UNL A   1      44.939  25.632  26.293  1.00  0.00     0.031 C 
ATOM     40  C   UNL A   1      45.962  27.862  26.655  1.00  0.00     0.037 A 
BRANCH  27  41
ATOM     41  C   UNL A   1      45.057  33.453  29.172  1.00  0.00     0.064 A 
ATOM     42  C   UNL A   1      44.909  34.527  28.281  1.00  0.00     0.173 A 
ATOM     43  C   UNL A   1      45.748  33.682  30.370  1.00  0.00     0.173 A 
ATOM     44  F   UNL A   1      44.288  34.350  27.106  1.00  0.00    -0.203 F 
ATOM     45  C   UNL A   1      45.457  35.775  28.569  1.00  0.00     0.198 A 
ATOM     46  C   UNL A   1      46.270  34.939  30.667  1.00  0.00     0.198 A 
ATOM     47  F   UNL A   1      45.931  32.685  31.248  1.00  0.00    -0.203 F 
ATOM     48  F   UNL A   1      45.357  36.770  27.677  1.00  0.00    -0.200 F 
ATOM     49  C   UNL A   1      46.131  35.981  29.763  1.00  0.00     0.200 A 
ATOM     50  F   UNL A   1      46.921  35.136  31.821  1.00  0.00    -0.200 F 
ATOM     51  F   UNL A   1      46.662  37.181  30.036  1.00  0.00    -0.200 F 
ENDBRANCH  27  41
BRANCH  28  52
ATOM     52  C   UNL A   1      41.111  24.318  27.532  1.00  0.00     0.064 A 
ATOM     53  C   UNL A   1      41.636  23.170  28.143  1.00  0.00     0.173 A 
ATOM     54  C   UNL A   1      40.050  24.140  26.629  1.00  0.00     0.173 A 
ATOM     55  F   UNL A   1      42.658  23.277  29.004  1.00  0.00    -0.203 F 
ATOM     56  C   UNL A   1      41.154  21.898  27.829  1.00  0.00     0.198 A 
ATOM     57  C   UNL A   1      39.545  22.872  26.344  1.00  0.00     0.198 A 
ATOM     58  F   UNL A   1      39.502  25.199  26.017  1.00  0.00    -0.203 F 
ATOM     59  F   UNL A   1      41.722  20.815  28.376  1.00  0.00    -0.200 F 
ATOM     60  C   UNL A   1      40.108  21.751  26.931  1.00  0.00     0.200 A 
ATOM     61  F   UNL A   1      38.523  22.739  25.487  1.00  0.00    -0.200 F 
ATOM     62  F   UNL A   1      39.653  20.529  26.621  1.00  0.00    -0.200 F 
ENDBRANCH  28  52
BRANCH  40  63
ATOM     63  C   UNL A   1      47.178  27.351  25.943  1.00  0.00     0.064 A 
ATOM     64  C   UNL A   1      47.355  27.537  24.565  1.00  0.00     0.173 A 
ATOM     65  C   UNL A   1      48.193  26.700  26.659  1.00  0.00     0.173 A 
ATOM     66  F   UNL A   1      46.402  28.140  23.837  1.00  0.00    -0.203 F 
ATOM     67  C   UNL A   1      48.491  27.058  23.922  1.00  0.00     0.198 A 
ATOM     68  C   UNL A   1      49.344  26.257  26.020  1.00  0.00     0.198 A 
ATOM     69  F   UNL A   1      48.071  26.506  27.981  1.00  0.00    -0.203 F 
ATOM     70  F   UNL A   1      48.613  27.193  22.595  1.00  0.00    -0.200 F 
ATOM     71  C   UNL A   1      49.488  26.426  24.651  1.00  0.00     0.200 A 
ATOM     72  F   UNL A   1      50.315  25.664  26.728  1.00  0.00    -0.200 F 
ATOM     73  F   UNL A   1      50.587  25.975  24.031  1.00  0.00    -0.200 F 
ENDBRANCH  40  63
ENDBRANCH  14  15
ENDBRANCH   7   9
ENDBRANCH   6   7
ENDBRANCH   5   6
ENDBRANCH   4   5
ENDBRANCH   3   4
ENDBRANCH   2   3
ENDBRANCH   1   2
BRANCH   1  74
ATOM     74  O   UNL A   1      33.928  30.975  28.006  1.00  0.00    -0.376 OA
BRANCH  74  75
ATOM     75  C   UNL A   1      34.301  29.924  27.126  1.00  0.00     0.202 C 
BRANCH  75  76
ATOM     76  C   UNL A   1      33.253  28.875  26.700  1.00  0.00     0.261 C 
BRANCH  76  77
ATOM     77  O   UNL A   1      33.724  27.530  26.481  1.00  0.00    -0.462 OA
BRANCH  77  78
ATOM     78  C   UNL A   1      33.617  27.118  25.190  1.00  0.00     0.329 C 
ATOM     79  O   UNL A   1      33.532  27.901  24.244  1.00  0.00    -0.250 OA
BRANCH  78  80
ATOM     80  C   UNL A   1      33.668  25.580  25.002  1.00  0.00     0.197 C 
ATOM     81  C   UNL A   1      33.068  24.953  26.277  1.00  0.00     0.070 C 
ATOM     82  N   UNL A   1      32.781  25.037  23.954  1.00  0.00    -0.326 N 
ATOM     83  C   UNL A   1      31.556  24.996  26.016  1.00  0.00     0.136 C 
ATOM     84  C   UNL A   1      31.461  24.811  24.508  1.00  0.00     0.152 C 
BRANCH  82  85
ATOM     85  C   UNL A   1      33.220  24.203  22.928  1.00  0.00     0.223 C 
ATOM     86  O   UNL A   1      33.396  24.614  21.784  1.00  0.00    -0.275 OA
BRANCH  85  87
ATOM     87  C   UNL A   1      33.437  22.723  23.268  1.00  0.00     0.105 C 
BRANCH  87  88
ATOM     88  C   UNL A   1      32.219  21.780  23.191  1.00  0.00     0.047 C 
BRANCH  88  89
ATOM     89  C   UNL A   1      32.529  20.330  23.500  1.00  0.00    -0.029 A 
ATOM     90  C   UNL A   1      32.152  19.354  22.558  1.00  0.00     0.007 A 
ATOM     91  C   UNL A   1      33.324  19.936  24.596  1.00  0.00     0.045 A 
ATOM     92  C   UNL A   1      32.684  18.063  22.624  1.00  0.00     0.021 A 
ATOM     93  C   UNL A   1      33.875  18.651  24.645  1.00  0.00     0.041 A 
ATOM     94  Cl  UNL A   1      33.755  21.030  25.861  1.00  0.00    -0.084 Cl
ATOM     95  C   UNL A   1      33.579  17.735  23.639  1.00  0.00     0.042 A 
ATOM     96  Cl  UNL A   1      34.380  16.214  23.609  1.00  0.00    -0.084 Cl
ENDBRANCH  88  89
ENDBRANCH  87  88
ENDBRANCH  85  87
ENDBRANCH  82  85
BRANCH  83  97
ATOM     97  O   UNL A   1      30.902  26.188  26.417  1.00  0.00    -0.391 OA
ATOM     98  H   UNL A   1      30.218  26.416  25.768  1.00  0.00     0.211 HD
ENDBRANCH  83  97
ENDBRANCH  78  80
ENDBRANCH  77  78
ENDBRANCH  76  77
ENDBRANCH  75  76
ENDBRANCH  74  75
ENDBRANCH   1  74
TORSDOF 22
ENDMDL
MODEL 3
REMARK VINA RESULT:     -10.5      3.790      9.352
REMARK SMILES O=C(OCCOCCOCCOC(=O)[C@H]1C[C@@H](O)CN1C(=O)CCc1ccc(Cl)cc1Cl)c1ccc(-c2c3nc(c(-c4c(F)c(F)c(F)c(F)c4F)c4ccc([nH]4)c(-c4c(F)c(F)c(F)c(F)c4F)c4nc(c(-c5c(F)c(F)c(F)c(F)c5F)c5ccc2[nH]5)C=C4)C=C3)cc1
REMARK SMILES IDX 8 1 7 2 6 3 5 4 4 5 3 6 2 7 1 8 33 9 34 10 95 11 35 12 94 13
REMARK SMILES IDX 36 14 37 15 38 16 88 17 39 18 93 19 87 20 89 21 40 22 92 23
REMARK SMILES IDX 86 24 85 25 41 27 73 28 53 29 72 30 54 31 57 32 71 33 90 34
REMARK SMILES IDX 55 35 56 36 70 38 91 39 58 40 42 41 43 42 51 43 44 44 45 45
REMARK SMILES IDX 49 46 52 47 46 48 47 49 50 50 48 51 74 52 75 53 83 54 76 55
REMARK SMILES IDX 77 56 81 57 84 58 78 59 79 60 82 61 80 62 59 63 60 64 68 65
REMARK SMILES IDX 61 66 62 67 66 68 69 69 63 70 64 71 67 72 65 73 9 74 10 75
REMARK SMILES IDX 11 76 12 77 13 78 14 79 15 80 16 81 20 82 17 83 19 84 21 85
REMARK SMILES IDX 22 86 23 87 24 88 25 89 26 90 31 91 27 92 30 93 32 94 28 95
REMARK SMILES IDX 29 96 18 97
REMARK H PARENT 89 26 57 37 18 98
REMARK Flexibility Score: inf
ROOT
ATOM      1  C   UNL A   1      39.798  21.885  26.686  1.00  0.00     0.188 C 
ENDROOT
BRANCH   1   2
ATOM      2  C   UNL A   1      40.061  20.490  26.116  1.00  0.00     0.188 C 
BRANCH   2   3
ATOM      3  O   UNL A   1      41.433  20.246  25.796  1.00  0.00    -0.376 OA
BRANCH   3   4
ATOM      4  C   UNL A   1      42.328  21.259  26.272  1.00  0.00     0.202 C 
BRANCH   4   5
ATOM      5  C   UNL A   1      43.380  21.749  25.261  1.00  0.00     0.261 C 
BRANCH   5   6
ATOM      6  O   UNL A   1      43.094  23.048  24.719  1.00  0.00    -0.460 OA
BRANCH   6   7
ATOM      7  C   UNL A   1      43.656  24.241  25.048  1.00  0.00     0.338 C 
ATOM      8  O   UNL A   1      44.693  24.572  24.487  1.00  0.00    -0.246 OA
BRANCH   7   9
ATOM      9  C   UNL A   1      43.110  25.157  26.101  1.00  0.00     0.060 A 
ATOM     10  C   UNL A   1      43.550  26.456  26.340  1.00  0.00     0.016 A 
ATOM     11  C   UNL A   1      41.999  24.702  26.837  1.00  0.00     0.016 A 
ATOM     12  C   UNL A   1      42.967  27.263  27.302  1.00  0.00     0.010 A 
ATOM     13  C   UNL A   1      41.363  25.529  27.771  1.00  0.00     0.010 A 
ATOM     14  C   UNL A   1      41.871  26.809  28.026  1.00  0.00    -0.014 A 
BRANCH  14  15
ATOM     15  C   UNL A   1      41.422  27.639  29.161  1.00  0.00     0.031 A 
ATOM     16  C   UNL A   1      42.270  27.634  30.395  1.00  0.00     0.074 A 
ATOM     17  C   UNL A   1      40.401  28.505  29.012  1.00  0.00     0.049 A 
ATOM     18  N   UNL A   1      42.122  28.306  31.504  1.00  0.00    -0.248 NA
ATOM     19  C   UNL A   1      43.470  26.778  30.364  1.00  0.00     0.031 C 
ATOM     20  C   UNL A   1      39.620  28.677  27.789  1.00  0.00     0.029 A 
ATOM     21  N   UNL A   1      39.862  29.423  29.873  1.00  0.00    -0.354 N 
ATOM     22  C   UNL A   1      43.204  27.952  32.297  1.00  0.00     0.074 A 
ATOM     23  C   UNL A   1      43.982  26.980  31.565  1.00  0.00     0.031 C 
ATOM     24  C   UNL A   1      38.691  29.626  27.977  1.00  0.00     0.029 A 
ATOM     25  C   UNL A   1      38.794  30.110  29.345  1.00  0.00     0.049 A 
ATOM     26  H   UNL A   1      40.208  29.577  30.782  1.00  0.00     0.167 HD
ATOM     27  C   UNL A   1      43.522  28.419  33.524  1.00  0.00     0.037 A 
ATOM     28  C   UNL A   1      37.982  31.013  29.922  1.00  0.00     0.037 A 
ATOM     29  C   UNL A   1      42.727  29.385  34.227  1.00  0.00     0.049 A 
ATOM     30  C   UNL A   1      38.285  31.412  31.340  1.00  0.00     0.074 A 
ATOM     31  C   UNL A   1      42.901  29.885  35.502  1.00  0.00     0.029 A 
ATOM     32  N   UNL A   1      41.597  29.998  33.699  1.00  0.00    -0.354 N 
ATOM     33  N   UNL A   1      39.285  31.042  32.106  1.00  0.00    -0.248 NA
ATOM     34  C   UNL A   1      37.360  32.357  31.974  1.00  0.00     0.031 C 
ATOM     35  C   UNL A   1      41.845  30.764  35.765  1.00  0.00     0.029 A 
ATOM     36  C   UNL A   1      41.048  30.858  34.634  1.00  0.00     0.049 A 
ATOM     37  H   UNL A   1      41.240  29.842  32.796  1.00  0.00     0.167 HD
ATOM     38  C   UNL A   1      39.126  31.725  33.301  1.00  0.00     0.074 A 
ATOM     39  C   UNL A   1      37.947  32.557  33.145  1.00  0.00     0.031 C 
ATOM     40  C   UNL A   1      39.876  31.672  34.429  1.00  0.00     0.037 A 
BRANCH  27  41
ATOM     41  C   UNL A   1      44.741  27.840  34.178  1.00  0.00     0.064 A 
ATOM     42  C   UNL A   1      46.010  28.419  34.025  1.00  0.00     0.173 A 
ATOM     43  C   UNL A   1      44.641  26.665  34.937  1.00  0.00     0.173 A 
ATOM     44  F   UNL A   1      46.165  29.522  33.278  1.00  0.00    -0.203 F 
ATOM     45  C   UNL A   1      47.139  27.828  34.590  1.00  0.00     0.198 A 
ATOM     46  C   UNL A   1      45.767  26.093  35.523  1.00  0.00     0.198 A 
ATOM     47  F   UNL A   1      43.453  26.064  35.099  1.00  0.00    -0.203 F 
ATOM     48  F   UNL A   1      48.349  28.363  34.381  1.00  0.00    -0.200 F 
ATOM     49  C   UNL A   1      47.015  26.669  35.341  1.00  0.00     0.200 A 
ATOM     50  F   UNL A   1      45.645  24.974  36.249  1.00  0.00    -0.200 F 
ATOM     51  F   UNL A   1      48.102  26.099  35.879  1.00  0.00    -0.200 F 
ENDBRANCH  27  41
BRANCH  28  52
ATOM     52  C   UNL A   1      36.805  31.564  29.193  1.00  0.00     0.064 A 
ATOM     53  C   UNL A   1      36.739  32.914  28.818  1.00  0.00     0.173 A 
ATOM     54  C   UNL A   1      35.690  30.760  28.903  1.00  0.00     0.173 A 
ATOM     55  F   UNL A   1      37.768  33.733  29.081  1.00  0.00    -0.203 F 
ATOM     56  C   UNL A   1      35.593  33.445  28.224  1.00  0.00     0.198 A 
ATOM     57  C   UNL A   1      34.560  31.284  28.277  1.00  0.00     0.198 A 
ATOM     58  F   UNL A   1      35.694  29.460  29.231  1.00  0.00    -0.203 F 
ATOM     59  F   UNL A   1      35.534  34.753  27.941  1.00  0.00    -0.200 F 
ATOM     60  C   UNL A   1      34.506  32.630  27.953  1.00  0.00     0.200 A 
ATOM     61  F   UNL A   1      33.519  30.485  28.002  1.00  0.00    -0.200 F 
ATOM     62  F   UNL A   1      33.402  33.143  27.394  1.00  0.00    -0.200 F 
ENDBRANCH  28  52
BRANCH  40  63
ATOM     63  C   UNL A   1      39.455  32.563  35.558  1.00  0.00     0.064 A 
ATOM     64  C   UNL A   1      38.584  32.115  36.561  1.00  0.00     0.173 A 
ATOM     65  C   UNL A   1      39.960  33.868  35.652  1.00  0.00     0.173 A 
ATOM     66  F   UNL A   1      38.063  30.880  36.502  1.00  0.00    -0.203 F 
ATOM     67  C   UNL A   1      38.206  32.956  37.602  1.00  0.00     0.198 A 
ATOM     68  C   UNL A   1      39.610  34.692  36.715  1.00  0.00     0.198 A 
ATOM     69  F   UNL A   1      40.802  34.337  34.720  1.00  0.00    -0.203 F 
ATOM     70  F   UNL A   1      37.326  32.530  38.517  1.00  0.00    -0.200 F 
ATOM     71  C   UNL A   1      38.726  34.240  37.683  1.00  0.00     0.200 A 
ATOM     72  F   UNL A   1      40.128  35.925  36.803  1.00  0.00    -0.200 F 
ATOM     73  F   UNL A   1      38.368  35.045  38.693  1.00  0.00    -0.200 F 
ENDBRANCH  40  63
ENDBRANCH  14  15
ENDBRANCH   7   9
ENDBRANCH   6   7
ENDBRANCH   5   6
ENDBRANCH   4   5
ENDBRANCH   3   4
ENDBRANCH   2   3
ENDBRANCH   1   2
BRANCH   1  74
ATOM     74  O   UNL A   1      38.788  22.687  26.089  1.00  0.00    -0.376 OA
BRANCH  74  75
ATOM     75  C   UNL A   1      37.780  22.032  25.332  1.00  0.00     0.202 C 
BRANCH  75  76
ATOM     76  C   UNL A   1      36.379  21.821  25.944  1.00  0.00     0.261 C 
BRANCH  76  77
ATOM     77  O   UNL A   1      35.406  22.863  25.725  1.00  0.00    -0.462 OA
BRANCH  77  78
ATOM     78  C   UNL A   1      34.665  22.689  24.599  1.00  0.00     0.329 C 
ATOM     79  O   UNL A   1      34.853  21.761  23.812  1.00  0.00    -0.250 OA
BRANCH  78  80
ATOM     80  C   UNL A   1      33.526  23.725  24.416  1.00  0.00     0.197 C 
ATOM     81  C   UNL A   1      32.197  22.941  24.466  1.00  0.00     0.070 C 
ATOM     82  N   UNL A   1      33.351  24.682  25.525  1.00  0.00    -0.326 N 
ATOM     83  C   UNL A   1      31.920  22.810  25.970  1.00  0.00     0.136 C 
ATOM     84  C   UNL A   1      32.501  24.095  26.542  1.00  0.00     0.152 C 
BRANCH  82  85
ATOM     85  C   UNL A   1      33.320  26.064  25.354  1.00  0.00     0.223 C 
ATOM     86  O   UNL A   1      33.958  26.825  26.075  1.00  0.00    -0.275 OA
BRANCH  85  87
ATOM     87  C   UNL A   1      32.413  26.615  24.246  1.00  0.00     0.105 C 
BRANCH  87  88
ATOM     88  C   UNL A   1      30.925  26.844  24.579  1.00  0.00     0.047 C 
BRANCH  88  89
ATOM     89  C   UNL A   1      30.324  28.081  23.943  1.00  0.00    -0.029 A 
ATOM     90  C   UNL A   1      29.190  27.924  23.124  1.00  0.00     0.007 A 
ATOM     91  C   UNL A   1      30.741  29.387  24.271  1.00  0.00     0.045 A 
ATOM     92  C   UNL A   1      28.408  29.028  22.776  1.00  0.00     0.021 A 
ATOM     93  C   UNL A   1      29.943  30.488  23.944  1.00  0.00     0.041 A 
ATOM     94  Cl  UNL A   1      32.177  29.694  25.182  1.00  0.00    -0.084 Cl
ATOM     95  C   UNL A   1      28.763  30.297  23.229  1.00  0.00     0.042 A 
ATOM     96  Cl  UNL A   1      27.700  31.622  22.967  1.00  0.00    -0.084 Cl
ENDBRANCH  88  89
ENDBRANCH  87  88
ENDBRANCH  85  87
ENDBRANCH  82  85
BRANCH  83  97
ATOM     97  O   UNL A   1      32.494  21.677  26.599  1.00  0.00    -0.391 OA
ATOM     98  H   UNL A   1      33.438  21.628  26.380  1.00  0.00     0.211 HD
ENDBRANCH  83  97
ENDBRANCH  78  80
ENDBRANCH  77  78
ENDBRANCH  76  77
ENDBRANCH  75  76
ENDBRANCH  74  75
ENDBRANCH   1  74
TORSDOF 22
ENDMDL
