MODEL 1
REMARK VINA RESULT:      -9.9      0.000      0.000
REMARK SMILES O=C(OCCOCCOCCOC(=O)c1cccc2c(Br)ccnc12)c1ccc(-c2c3nc(c(-c4c(F)c(F)c(F)c(F)c4F)c4ccc([nH]4)c(-c4c(F)c(F)c(F)c(F)c4F)c4nc(c(-c5c(F)c(F)c(F)c(F)c5F)c5ccc2[nH]5)C=C4)C=C3)cc1
REMARK SMILES IDX 7 1 6 2 5 3 4 4 3 5 2 6 1 7 26 8 27 9 88 10 28 11 87 12
REMARK SMILES IDX 29 13 30 14 31 15 81 16 32 17 86 18 80 19 82 20 33 21 85 22
REMARK SMILES IDX 79 23 78 24 34 26 66 27 46 28 65 29 47 30 50 31 64 32 83 33
REMARK SMILES IDX 48 34 49 35 63 37 84 38 51 39 35 40 36 41 44 42 37 43 38 44
REMARK SMILES IDX 42 45 45 46 39 47 40 48 43 49 41 50 67 51 68 52 76 53 69 54
REMARK SMILES IDX 70 55 74 56 77 57 71 58 72 59 75 60 73 61 52 62 53 63 61 64
REMARK SMILES IDX 54 65 55 66 59 67 62 68 56 69 57 70 60 71 58 72 8 73 9 74
REMARK SMILES IDX 10 75 11 76 12 77 13 78 14 79 15 80 16 81 25 82 17 83 19 84
REMARK SMILES IDX 24 85 18 86 20 87 23 88 21 89 22 90
REMARK H PARENT 82 25 50 36
REMARK Flexibility Score: inf
ROOT
ATOM      1  C   UNL A   1      43.145  18.231  26.259  1.00  0.00     0.188 C 
ENDROOT
BRANCH   1   2
ATOM      2  O   UNL A   1      41.744  18.494  26.091  1.00  0.00    -0.376 OA
BRANCH   2   3
ATOM      3  C   UNL A   1      41.281  19.584  26.890  1.00  0.00     0.202 C 
BRANCH   3   4
ATOM      4  C   UNL A   1      40.493  20.640  26.109  1.00  0.00     0.261 C 
BRANCH   4   5
ATOM      5  O   UNL A   1      39.972  21.688  26.940  1.00  0.00    -0.460 OA
BRANCH   5   6
ATOM      6  C   UNL A   1      39.246  22.777  26.595  1.00  0.00     0.338 C 
ATOM      7  O   UNL A   1      38.204  22.583  25.965  1.00  0.00    -0.246 OA
BRANCH   6   8
ATOM      8  C   UNL A   1      39.593  24.208  26.914  1.00  0.00     0.060 A 
ATOM      9  C   UNL A   1      39.312  24.633  28.229  1.00  0.00     0.016 A 
ATOM     10  C   UNL A   1      40.149  25.152  26.048  1.00  0.00     0.016 A 
ATOM     11  C   UNL A   1      39.591  25.935  28.661  1.00  0.00     0.010 A 
ATOM     12  C   UNL A   1      40.467  26.443  26.480  1.00  0.00     0.010 A 
ATOM     13  C   UNL A   1      40.198  26.840  27.789  1.00  0.00    -0.014 A 
BRANCH  13  14
ATOM     14  C   UNL A   1      40.707  28.141  28.265  1.00  0.00     0.031 A 
ATOM     15  C   UNL A   1      42.167  28.388  28.475  1.00  0.00     0.074 A 
ATOM     16  C   UNL A   1      39.803  29.071  28.620  1.00  0.00     0.049 A 
ATOM     17  N   UNL A   1      42.767  29.500  28.814  1.00  0.00    -0.248 NA
ATOM     18  C   UNL A   1      43.071  27.243  28.303  1.00  0.00     0.031 C 
ATOM     19  C   UNL A   1      38.351  28.893  28.559  1.00  0.00     0.029 A 
ATOM     20  N   UNL A   1      39.967  30.328  29.137  1.00  0.00    -0.354 N 
ATOM     21  C   UNL A   1      44.121  29.206  28.830  1.00  0.00     0.074 A 
ATOM     22  C   UNL A   1      44.250  27.792  28.563  1.00  0.00     0.031 C 
ATOM     23  C   UNL A   1      37.755  29.995  29.037  1.00  0.00     0.029 A 
ATOM     24  C   UNL A   1      38.783  30.952  29.435  1.00  0.00     0.049 A 
ATOM     25  H   UNL A   1      40.847  30.743  29.281  1.00  0.00     0.167 HD
ATOM     26  C   UNL A   1      45.157  30.058  29.012  1.00  0.00     0.037 A 
ATOM     27  C   UNL A   1      38.552  32.166  29.968  1.00  0.00     0.037 A 
ATOM     28  C   UNL A   1      45.009  31.445  29.358  1.00  0.00     0.049 A 
ATOM     29  C   UNL A   1      39.716  33.067  30.255  1.00  0.00     0.074 A 
ATOM     30  C   UNL A   1      45.987  32.411  29.503  1.00  0.00     0.029 A 
ATOM     31  N   UNL A   1      43.797  32.051  29.658  1.00  0.00    -0.354 N 
ATOM     32  N   UNL A   1      40.994  32.839  30.080  1.00  0.00    -0.248 NA
ATOM     33  C   UNL A   1      39.407  34.398  30.791  1.00  0.00     0.031 C 
ATOM     34  C   UNL A   1      45.373  33.587  29.948  1.00  0.00     0.029 A 
ATOM     35  C   UNL A   1      44.008  33.364  30.039  1.00  0.00     0.049 A 
ATOM     36  H   UNL A   1      42.918  31.610  29.606  1.00  0.00     0.167 HD
ATOM     37  C   UNL A   1      41.644  34.005  30.458  1.00  0.00     0.074 A 
ATOM     38  C   UNL A   1      40.616  34.940  30.868  1.00  0.00     0.031 C 
ATOM     39  C   UNL A   1      42.973  34.275  30.457  1.00  0.00     0.037 A 
BRANCH  26  40
ATOM     40  C   UNL A   1      46.542  29.532  28.792  1.00  0.00     0.064 A 
ATOM     41  C   UNL A   1      47.267  28.978  29.858  1.00  0.00     0.173 A 
ATOM     42  C   UNL A   1      47.116  29.493  27.514  1.00  0.00     0.173 A 
ATOM     43  F   UNL A   1      46.766  29.001  31.102  1.00  0.00    -0.203 F 
ATOM     44  C   UNL A   1      48.524  28.415  29.654  1.00  0.00     0.198 A 
ATOM     45  C   UNL A   1      48.368  28.915  27.312  1.00  0.00     0.198 A 
ATOM     46  F   UNL A   1      46.458  30.002  26.463  1.00  0.00    -0.203 F 
ATOM     47  F   UNL A   1      49.212  27.926  30.694  1.00  0.00    -0.200 F 
ATOM     48  C   UNL A   1      49.071  28.380  28.381  1.00  0.00     0.200 A 
ATOM     49  F   UNL A   1      48.895  28.876  26.081  1.00  0.00    -0.200 F 
ATOM     50  F   UNL A   1      50.281  27.836  28.187  1.00  0.00    -0.200 F 
ENDBRANCH  26  40
BRANCH  27  51
ATOM     51  C   UNL A   1      37.150  32.592  30.190  1.00  0.00     0.064 A 
ATOM     52  C   UNL A   1      36.541  32.417  31.439  1.00  0.00     0.173 A 
ATOM     53  C   UNL A   1      36.428  33.266  29.195  1.00  0.00     0.173 A 
ATOM     54  F   UNL A   1      37.195  31.771  32.415  1.00  0.00    -0.203 F 
ATOM     55  C   UNL A   1      35.261  32.903  31.686  1.00  0.00     0.198 A 
ATOM     56  C   UNL A   1      35.154  33.769  29.449  1.00  0.00     0.198 A 
ATOM     57  F   UNL A   1      36.977  33.470  27.988  1.00  0.00    -0.203 F 
ATOM     58  F   UNL A   1      34.696  32.717  32.886  1.00  0.00    -0.200 F 
ATOM     59  C   UNL A   1      34.572  33.588  30.694  1.00  0.00     0.200 A 
ATOM     60  F   UNL A   1      34.500  34.446  28.496  1.00  0.00    -0.200 F 
ATOM     61  F   UNL A   1      33.350  34.077  30.942  1.00  0.00    -0.200 F 
ENDBRANCH  27  51
BRANCH  39  62
ATOM     62  C   UNL A   1      43.397  35.635  30.920  1.00  0.00     0.064 A 
ATOM     63  C   UNL A   1      43.584  36.685  30.011  1.00  0.00     0.173 A 
ATOM     64  C   UNL A   1      43.550  35.907  32.287  1.00  0.00     0.173 A 
ATOM     65  F   UNL A   1      43.461  36.466  28.693  1.00  0.00    -0.203 F 
ATOM     66  C   UNL A   1      43.920  37.961  30.455  1.00  0.00     0.198 A 
ATOM     67  C   UNL A   1      43.861  37.189  32.728  1.00  0.00     0.198 A 
ATOM     68  F   UNL A   1      43.374  34.935  33.195  1.00  0.00    -0.203 F 
ATOM     69  F   UNL A   1      44.123  38.943  29.567  1.00  0.00    -0.200 F 
ATOM     70  C   UNL A   1      44.050  38.214  31.812  1.00  0.00     0.200 A 
ATOM     71  F   UNL A   1      43.972  37.436  34.041  1.00  0.00    -0.200 F 
ATOM     72  F   UNL A   1      44.358  39.445  32.239  1.00  0.00    -0.200 F 
ENDBRANCH  39  62
ENDBRANCH  13  14
ENDBRANCH   6   8
ENDBRANCH   5   6
ENDBRANCH   4   5
ENDBRANCH   3   4
ENDBRANCH   2   3
ENDBRANCH   1   2
BRANCH   1  73
ATOM     73  C   UNL A   1      44.002  18.949  25.213  1.00  0.00     0.188 C 
BRANCH  73  74
ATOM     74  O   UNL A   1      45.347  18.488  25.090  1.00  0.00    -0.376 OA
BRANCH  74  75
ATOM     75  C   UNL A   1      46.371  19.474  25.150  1.00  0.00     0.202 C 
BRANCH  75  76
ATOM     76  C   UNL A   1      46.035  20.891  24.664  1.00  0.00     0.261 C 
BRANCH  76  77
ATOM     77  O   UNL A   1      46.236  21.954  25.617  1.00  0.00    -0.460 OA
BRANCH  77  78
ATOM     78  C   UNL A   1      45.384  23.001  25.469  1.00  0.00     0.340 C 
ATOM     79  O   UNL A   1      45.298  23.748  24.508  1.00  0.00    -0.246 OA
BRANCH  78  80
ATOM     80  C   UNL A   1      44.707  23.320  26.735  1.00  0.00     0.086 A 
ATOM     81  C   UNL A   1      43.452  22.713  26.897  1.00  0.00     0.018 A 
ATOM     82  C   UNL A   1      45.347  24.025  27.764  1.00  0.00     0.086 A 
ATOM     83  C   UNL A   1      42.803  22.804  28.112  1.00  0.00     0.002 A 
ATOM     84  C   UNL A   1      44.670  24.121  29.005  1.00  0.00     0.015 A 
ATOM     85  N   UNL A   1      46.573  24.569  27.593  1.00  0.00    -0.255 NA
ATOM     86  C   UNL A   1      43.398  23.513  29.151  1.00  0.00     0.011 A 
ATOM     87  C   UNL A   1      45.336  24.803  30.050  1.00  0.00     0.028 A 
ATOM     88  C   UNL A   1      47.175  25.198  28.625  1.00  0.00     0.113 A 
ATOM     89  Br  UNL A   1      44.576  25.024  31.783  1.00  0.00    -0.050 Br
ATOM     90  C   UNL A   1      46.603  25.338  29.866  1.00  0.00     0.036 A 
ENDBRANCH  78  80
ENDBRANCH  77  78
ENDBRANCH  76  77
ENDBRANCH  75  76
ENDBRANCH  74  75
ENDBRANCH  73  74
ENDBRANCH   1  73
TORSDOF 17
ENDMDL
MODEL 2
REMARK VINA RESULT:      -9.7      4.116      6.248
REMARK SMILES O=C(OCCOCCOCCOC(=O)c1cccc2c(Br)ccnc12)c1ccc(-c2c3nc(c(-c4c(F)c(F)c(F)c(F)c4F)c4ccc([nH]4)c(-c4c(F)c(F)c(F)c(F)c4F)c4nc(c(-c5c(F)c(F)c(F)c(F)c5F)c5ccc2[nH]5)C=C4)C=C3)cc1
REMARK SMILES IDX 7 1 6 2 5 3 4 4 3 5 2 6 1 7 26 8 27 9 88 10 28 11 87 12
REMARK SMILES IDX 29 13 30 14 31 15 81 16 32 17 86 18 80 19 82 20 33 21 85 22
REMARK SMILES IDX 79 23 78 24 34 26 66 27 46 28 65 29 47 30 50 31 64 32 83 33
REMARK SMILES IDX 48 34 49 35 63 37 84 38 51 39 35 40 36 41 44 42 37 43 38 44
REMARK SMILES IDX 42 45 45 46 39 47 40 48 43 49 41 50 67 51 68 52 76 53 69 54
REMARK SMILES IDX 70 55 74 56 77 57 71 58 72 59 75 60 73 61 52 62 53 63 61 64
REMARK SMILES IDX 54 65 55 66 59 67 62 68 56 69 57 70 60 71 58 72 8 73 9 74
REMARK SMILES IDX 10 75 11 76 12 77 13 78 14 79 15 80 16 81 25 82 17 83 19 84
REMARK SMILES IDX 24 85 18 86 20 87 23 88 21 89 22 90
REMARK H PARENT 82 25 50 36
REMARK Flexibility Score: inf
ROOT
ATOM      1  C   UNL A   1      46.349  20.121  24.862  1.00  0.00     0.188 C 
ENDROOT
BRANCH   1   2
ATOM      2  O   UNL A   1      46.203  21.549  24.846  1.00  0.00    -0.376 OA
BRANCH   2   3
ATOM      3  C   UNL A   1      45.082  22.004  25.607  1.00  0.00     0.202 C 
BRANCH   3   4
ATOM      4  C   UNL A   1      44.010  22.715  24.776  1.00  0.00     0.261 C 
BRANCH   4   5
ATOM      5  O   UNL A   1      44.405  24.023  24.340  1.00  0.00    -0.460 OA
BRANCH   5   6
ATOM      6  C   UNL A   1      44.992  25.022  25.042  1.00  0.00     0.338 C 
ATOM      7  O   UNL A   1      46.180  25.253  24.806  1.00  0.00    -0.246 OA
BRANCH   6   8
ATOM      8  C   UNL A   1      44.325  25.880  26.084  1.00  0.00     0.060 A 
ATOM      9  C   UNL A   1      43.399  25.223  26.923  1.00  0.00     0.016 A 
ATOM     10  C   UNL A   1      44.515  27.246  26.298  1.00  0.00     0.016 A 
ATOM     11  C   UNL A   1      42.713  25.900  27.938  1.00  0.00     0.010 A 
ATOM     12  C   UNL A   1      43.863  27.923  27.334  1.00  0.00     0.010 A 
ATOM     13  C   UNL A   1      42.966  27.253  28.165  1.00  0.00    -0.014 A 
BRANCH  13  14
ATOM     14  C   UNL A   1      42.434  27.945  29.355  1.00  0.00     0.031 A 
ATOM     15  C   UNL A   1      43.033  27.754  30.711  1.00  0.00     0.074 A 
ATOM     16  C   UNL A   1      41.311  28.670  29.204  1.00  0.00     0.049 A 
ATOM     17  N   UNL A   1      42.723  28.353  31.834  1.00  0.00    -0.248 NA
ATOM     18  C   UNL A   1      44.101  26.754  30.836  1.00  0.00     0.031 C 
ATOM     19  C   UNL A   1      40.583  28.833  27.944  1.00  0.00     0.029 A 
ATOM     20  N   UNL A   1      40.567  29.369  30.116  1.00  0.00    -0.354 N 
ATOM     21  C   UNL A   1      43.601  27.852  32.781  1.00  0.00     0.074 A 
ATOM     22  C   UNL A   1      44.390  26.831  32.130  1.00  0.00     0.031 C 
ATOM     23  C   UNL A   1      39.486  29.570  28.165  1.00  0.00     0.029 A 
ATOM     24  C   UNL A   1      39.436  29.930  29.580  1.00  0.00     0.049 A 
ATOM     25  H   UNL A   1      40.817  29.459  31.063  1.00  0.00     0.167 HD
ATOM     26  C   UNL A   1      43.753  28.245  34.067  1.00  0.00     0.037 A 
ATOM     27  C   UNL A   1      38.469  30.659  30.164  1.00  0.00     0.037 A 
ATOM     28  C   UNL A   1      42.904  29.202  34.723  1.00  0.00     0.049 A 
ATOM     29  C   UNL A   1      38.600  31.010  31.616  1.00  0.00     0.074 A 
ATOM     30  C   UNL A   1      43.008  29.719  36.001  1.00  0.00     0.029 A 
ATOM     31  N   UNL A   1      41.764  29.753  34.156  1.00  0.00    -0.354 N 
ATOM     32  N   UNL A   1      39.549  30.682  32.458  1.00  0.00    -0.248 NA
ATOM     33  C   UNL A   1      37.541  31.846  32.194  1.00  0.00     0.031 C 
ATOM     34  C   UNL A   1      41.896  30.539  36.228  1.00  0.00     0.029 A 
ATOM     35  C   UNL A   1      41.124  30.564  35.078  1.00  0.00     0.049 A 
ATOM     36  H   UNL A   1      41.456  29.591  33.235  1.00  0.00     0.167 HD
ATOM     37  C   UNL A   1      39.220  31.293  33.660  1.00  0.00     0.074 A 
ATOM     38  C   UNL A   1      37.983  32.014  33.434  1.00  0.00     0.031 C 
ATOM     39  C   UNL A   1      39.887  31.263  34.839  1.00  0.00     0.037 A 
BRANCH  26  40
ATOM     40  C   UNL A   1      44.906  27.682  34.839  1.00  0.00     0.064 A 
ATOM     41  C   UNL A   1      46.148  28.333  34.833  1.00  0.00     0.173 A 
ATOM     42  C   UNL A   1      44.759  26.552  35.654  1.00  0.00     0.173 A 
ATOM     43  F   UNL A   1      46.343  29.413  34.060  1.00  0.00    -0.203 F 
ATOM     44  C   UNL A   1      47.207  27.866  35.607  1.00  0.00     0.198 A 
ATOM     45  C   UNL A   1      45.817  26.095  36.438  1.00  0.00     0.198 A 
ATOM     46  F   UNL A   1      43.589  25.900  35.700  1.00  0.00    -0.203 F 
ATOM     47  F   UNL A   1      48.394  28.484  35.554  1.00  0.00    -0.200 F 
ATOM     48  C   UNL A   1      47.040  26.750  36.412  1.00  0.00     0.200 A 
ATOM     49  F   UNL A   1      45.654  25.020  37.221  1.00  0.00    -0.200 F 
ATOM     50  F   UNL A   1      48.060  26.302  37.156  1.00  0.00    -0.200 F 
ENDBRANCH  26  40
BRANCH  27  51
ATOM     51  C   UNL A   1      37.340  31.143  29.334  1.00  0.00     0.064 A 
ATOM     52  C   UNL A   1      36.289  30.285  28.990  1.00  0.00     0.173 A 
ATOM     53  C   UNL A   1      37.244  32.489  28.951  1.00  0.00     0.173 A 
ATOM     54  F   UNL A   1      36.345  28.990  29.330  1.00  0.00    -0.203 F 
ATOM     55  C   UNL A   1      35.178  30.757  28.295  1.00  0.00     0.198 A 
ATOM     56  C   UNL A   1      36.124  32.963  28.273  1.00  0.00     0.198 A 
ATOM     57  F   UNL A   1      38.221  33.350  29.272  1.00  0.00    -0.203 F 
ATOM     58  F   UNL A   1      34.188  29.915  27.970  1.00  0.00    -0.200 F 
ATOM     59  C   UNL A   1      35.092  32.097  27.946  1.00  0.00     0.200 A 
ATOM     60  F   UNL A   1      36.035  34.262  27.954  1.00  0.00    -0.200 F 
ATOM     61  F   UNL A   1      34.011  32.554  27.299  1.00  0.00    -0.200 F 
ENDBRANCH  27  51
BRANCH  39  62
ATOM     62  C   UNL A   1      39.295  32.026  35.983  1.00  0.00     0.064 A 
ATOM     63  C   UNL A   1      39.610  33.375  36.196  1.00  0.00     0.173 A 
ATOM     64  C   UNL A   1      38.353  31.424  36.830  1.00  0.00     0.173 A 
ATOM     65  F   UNL A   1      40.515  33.987  35.419  1.00  0.00    -0.203 F 
ATOM     66  C   UNL A   1      39.009  34.093  37.227  1.00  0.00     0.198 A 
ATOM     67  C   UNL A   1      37.736  32.151  37.843  1.00  0.00     0.198 A 
ATOM     68  F   UNL A   1      38.014  30.136  36.660  1.00  0.00    -0.203 F 
ATOM     69  F   UNL A   1      39.346  35.373  37.432  1.00  0.00    -0.200 F 
ATOM     70  C   UNL A   1      38.067  33.484  38.043  1.00  0.00     0.200 A 
ATOM     71  F   UNL A   1      36.815  31.566  38.621  1.00  0.00    -0.200 F 
ATOM     72  F   UNL A   1      37.478  34.180  39.023  1.00  0.00    -0.200 F 
ENDBRANCH  39  62
ENDBRANCH  13  14
ENDBRANCH   6   8
ENDBRANCH   5   6
ENDBRANCH   4   5
ENDBRANCH   3   4
ENDBRANCH   2   3
ENDBRANCH   1   2
BRANCH   1  73
ATOM     73  C   UNL A   1      45.435  19.431  23.846  1.00  0.00     0.188 C 
BRANCH  73  74
ATOM     74  O   UNL A   1      44.503  18.495  24.385  1.00  0.00    -0.376 OA
BRANCH  74  75
ATOM     75  C   UNL A   1      43.916  18.825  25.639  1.00  0.00     0.202 C 
BRANCH  75  76
ATOM     76  C   UNL A   1      42.390  18.979  25.700  1.00  0.00     0.261 C 
BRANCH  76  77
ATOM     77  O   UNL A   1      41.895  20.317  25.912  1.00  0.00    -0.460 OA
BRANCH  77  78
ATOM     78  C   UNL A   1      41.141  20.459  27.032  1.00  0.00     0.340 C 
ATOM     79  O   UNL A   1      41.086  19.695  27.983  1.00  0.00    -0.246 OA
BRANCH  78  80
ATOM     80  C   UNL A   1      40.165  21.549  26.885  1.00  0.00     0.086 A 
ATOM     81  C   UNL A   1      40.572  22.778  27.427  1.00  0.00     0.018 A 
ATOM     82  C   UNL A   1      39.008  21.409  26.106  1.00  0.00     0.086 A 
ATOM     83  C   UNL A   1      39.812  23.908  27.198  1.00  0.00     0.002 A 
ATOM     84  C   UNL A   1      38.230  22.572  25.883  1.00  0.00     0.015 A 
ATOM     85  N   UNL A   1      38.658  20.221  25.563  1.00  0.00    -0.255 NA
ATOM     86  C   UNL A   1      38.646  23.805  26.447  1.00  0.00     0.011 A 
ATOM     87  C   UNL A   1      37.082  22.433  25.068  1.00  0.00     0.028 A 
ATOM     88  C   UNL A   1      37.562  20.140  24.780  1.00  0.00     0.113 A 
ATOM     89  Br  UNL A   1      35.925  23.891  24.661  1.00  0.00    -0.050 Br
ATOM     90  C   UNL A   1      36.748  21.211  24.501  1.00  0.00     0.036 A 
ENDBRANCH  78  80
ENDBRANCH  77  78
ENDBRANCH  76  77
ENDBRANCH  75  76
ENDBRANCH  74  75
ENDBRANCH  73  74
ENDBRANCH   1  73
TORSDOF 17
ENDMDL
MODEL 3
REMARK VINA RESULT:      -9.6      5.838     11.344
REMARK SMILES O=C(OCCOCCOCCOC(=O)c1cccc2c(Br)ccnc12)c1ccc(-c2c3nc(c(-c4c(F)c(F)c(F)c(F)c4F)c4ccc([nH]4)c(-c4c(F)c(F)c(F)c(F)c4F)c4nc(c(-c5c(F)c(F)c(F)c(F)c5F)c5ccc2[nH]5)C=C4)C=C3)cc1
REMARK SMILES IDX 7 1 6 2 5 3 4 4 3 5 2 6 1 7 26 8 27 9 88 10 28 11 87 12
REMARK SMILES IDX 29 13 30 14 31 15 81 16 32 17 86 18 80 19 82 20 33 21 85 22
REMARK SMILES IDX 79 23 78 24 34 26 66 27 46 28 65 29 47 30 50 31 64 32 83 33
REMARK SMILES IDX 48 34 49 35 63 37 84 38 51 39 35 40 36 41 44 42 37 43 38 44
REMARK SMILES IDX 42 45 45 46 39 47 40 48 43 49 41 50 67 51 68 52 76 53 69 54
REMARK SMILES IDX 70 55 74 56 77 57 71 58 72 59 75 60 73 61 52 62 53 63 61 64
REMARK SMILES IDX 54 65 55 66 59 67 62 68 56 69 57 70 60 71 58 72 8 73 9 74
REMARK SMILES IDX 10 75 11 76 12 77 13 78 14 79 15 80 16 81 25 82 17 83 19 84
REMARK SMILES IDX 24 85 18 86 20 87 23 88 21 89 22 90
REMARK H PARENT 82 25 50 36
REMARK Flexibility Score: inf
ROOT
ATOM      1  C   UNL A   1      32.200  29.489  26.703  1.00  0.00     0.188 C 
ENDROOT
BRANCH   1   2
ATOM      2  O   UNL A   1      32.553  30.863  26.925  1.00  0.00    -0.376 OA
BRANCH   2   3
ATOM      3  C   UNL A   1      31.456  31.758  26.741  1.00  0.00     0.202 C 
BRANCH   3   4
ATOM      4  C   UNL A   1      31.857  33.236  26.691  1.00  0.00     0.261 C 
BRANCH   4   5
ATOM      5  O   UNL A   1      32.611  33.657  27.837  1.00  0.00    -0.460 OA
BRANCH   5   6
ATOM      6  C   UNL A   1      33.926  33.964  27.935  1.00  0.00     0.338 C 
ATOM      7  O   UNL A   1      34.282  35.064  27.505  1.00  0.00    -0.246 OA
BRANCH   6   8
ATOM      8  C   UNL A   1      34.997  33.084  28.524  1.00  0.00     0.060 A 
ATOM      9  C   UNL A   1      36.321  33.560  28.407  1.00  0.00     0.016 A 
ATOM     10  C   UNL A   1      34.821  31.852  29.157  1.00  0.00     0.016 A 
ATOM     11  C   UNL A   1      37.411  32.845  28.916  1.00  0.00     0.010 A 
ATOM     12  C   UNL A   1      35.899  31.149  29.704  1.00  0.00     0.010 A 
ATOM     13  C   UNL A   1      37.198  31.645  29.594  1.00  0.00    -0.014 A 
BRANCH  13  14
ATOM     14  C   UNL A   1      38.287  30.976  30.333  1.00  0.00     0.031 A 
ATOM     15  C   UNL A   1      38.648  31.367  31.730  1.00  0.00     0.074 A 
ATOM     16  C   UNL A   1      39.030  30.075  29.666  1.00  0.00     0.049 A 
ATOM     17  N   UNL A   1      39.527  30.821  32.531  1.00  0.00    -0.248 NA
ATOM     18  C   UNL A   1      37.953  32.529  32.300  1.00  0.00     0.031 C 
ATOM     19  C   UNL A   1      38.832  29.699  28.265  1.00  0.00     0.029 A 
ATOM     20  N   UNL A   1      40.119  29.345  30.061  1.00  0.00    -0.354 N 
ATOM     21  C   UNL A   1      39.443  31.527  33.720  1.00  0.00     0.074 A 
ATOM     22  C   UNL A   1      38.501  32.603  33.507  1.00  0.00     0.031 C 
ATOM     23  C   UNL A   1      39.780  28.820  27.911  1.00  0.00     0.029 A 
ATOM     24  C   UNL A   1      40.647  28.572  29.058  1.00  0.00     0.049 A 
ATOM     25  H   UNL A   1      40.487  29.371  30.973  1.00  0.00     0.167 HD
ATOM     26  C   UNL A   1      40.071  31.268  34.890  1.00  0.00     0.037 A 
ATOM     27  C   UNL A   1      41.712  27.751  29.066  1.00  0.00     0.037 A 
ATOM     28  C   UNL A   1      41.067  30.246  35.061  1.00  0.00     0.049 A 
ATOM     29  C   UNL A   1      42.461  27.543  30.349  1.00  0.00     0.074 A 
ATOM     30  C   UNL A   1      41.719  29.857  36.216  1.00  0.00     0.029 A 
ATOM     31  N   UNL A   1      41.586  29.480  34.027  1.00  0.00    -0.354 N 
ATOM     32  N   UNL A   1      42.243  28.082  31.524  1.00  0.00    -0.248 NA
ATOM     33  C   UNL A   1      43.585  26.601  30.316  1.00  0.00     0.031 C 
ATOM     34  C   UNL A   1      42.675  28.895  35.871  1.00  0.00     0.029 A 
ATOM     35  C   UNL A   1      42.589  28.656  34.509  1.00  0.00     0.049 A 
ATOM     36  H   UNL A   1      41.285  29.517  33.091  1.00  0.00     0.167 HD
ATOM     37  C   UNL A   1      43.184  27.526  32.378  1.00  0.00     0.074 A 
ATOM     38  C   UNL A   1      43.973  26.605  31.584  1.00  0.00     0.031 C 
ATOM     39  C   UNL A   1      43.372  27.756  33.701  1.00  0.00     0.037 A 
BRANCH  26  40
ATOM     40  C   UNL A   1      39.667  32.066  36.092  1.00  0.00     0.064 A 
ATOM     41  C   UNL A   1      40.364  33.234  36.434  1.00  0.00     0.173 A 
ATOM     42  C   UNL A   1      38.540  31.725  36.851  1.00  0.00     0.173 A 
ATOM     43  F   UNL A   1      41.456  33.597  35.744  1.00  0.00    -0.203 F 
ATOM     44  C   UNL A   1      39.953  34.028  37.501  1.00  0.00     0.198 A 
ATOM     45  C   UNL A   1      38.123  32.529  37.911  1.00  0.00     0.198 A 
ATOM     46  F   UNL A   1      37.837  30.622  36.559  1.00  0.00    -0.203 F 
ATOM     47  F   UNL A   1      40.657  35.119  37.830  1.00  0.00    -0.200 F 
ATOM     48  C   UNL A   1      38.831  33.677  38.236  1.00  0.00     0.200 A 
ATOM     49  F   UNL A   1      37.036  32.194  38.617  1.00  0.00    -0.200 F 
ATOM     50  F   UNL A   1      38.437  34.443  39.263  1.00  0.00    -0.200 F 
ENDBRANCH  26  40
BRANCH  27  51
ATOM     51  C   UNL A   1      42.067  27.030  27.821  1.00  0.00     0.064 A 
ATOM     52  C   UNL A   1      43.034  27.546  26.949  1.00  0.00     0.173 A 
ATOM     53  C   UNL A   1      41.520  25.773  27.527  1.00  0.00     0.173 A 
ATOM     54  F   UNL A   1      43.576  28.748  27.191  1.00  0.00    -0.203 F 
ATOM     55  C   UNL A   1      43.445  26.829  25.829  1.00  0.00     0.198 A 
ATOM     56  C   UNL A   1      41.946  25.048  26.416  1.00  0.00     0.198 A 
ATOM     57  F   UNL A   1      40.602  25.232  28.341  1.00  0.00    -0.203 F 
ATOM     58  F   UNL A   1      44.366  27.347  25.006  1.00  0.00    -0.200 F 
ATOM     59  C   UNL A   1      42.907  25.576  25.569  1.00  0.00     0.200 A 
ATOM     60  F   UNL A   1      41.439  23.830  26.178  1.00  0.00    -0.200 F 
ATOM     61  F   UNL A   1      43.322  24.877  24.504  1.00  0.00    -0.200 F 
ENDBRANCH  27  51
BRANCH  39  62
ATOM     62  C   UNL A   1      44.475  27.005  34.379  1.00  0.00     0.064 A 
ATOM     63  C   UNL A   1      45.748  27.571  34.536  1.00  0.00     0.173 A 
ATOM     64  C   UNL A   1      44.239  25.740  34.938  1.00  0.00     0.173 A 
ATOM     65  F   UNL A   1      46.022  28.772  34.007  1.00  0.00    -0.203 F 
ATOM     66  C   UNL A   1      46.751  26.889  35.220  1.00  0.00     0.198 A 
ATOM     67  C   UNL A   1      45.237  25.074  35.642  1.00  0.00     0.198 A 
ATOM     68  F   UNL A   1      43.034  25.162  34.819  1.00  0.00    -0.203 F 
ATOM     69  F   UNL A   1      47.970  27.435  35.333  1.00  0.00    -0.200 F 
ATOM     70  C   UNL A   1      46.493  25.647  35.780  1.00  0.00     0.200 A 
ATOM     71  F   UNL A   1      44.982  23.880  36.195  1.00  0.00    -0.200 F 
ATOM     72  F   UNL A   1      47.454  25.000  36.451  1.00  0.00    -0.200 F 
ENDBRANCH  39  62
ENDBRANCH  13  14
ENDBRANCH   6   8
ENDBRANCH   5   6
ENDBRANCH   4   5
ENDBRANCH   3   4
ENDBRANCH   2   3
ENDBRANCH   1   2
BRANCH   1  73
ATOM     73  C   UNL A   1      31.456  29.287  25.380  1.00  0.00     0.188 C 
BRANCH  73  74
ATOM     74  O   UNL A   1      31.991  28.285  24.515  1.00  0.00    -0.376 OA
BRANCH  74  75
ATOM     75  C   UNL A   1      33.245  28.568  23.905  1.00  0.00     0.202 C 
BRANCH  75  76
ATOM     76  C   UNL A   1      33.685  27.691  22.725  1.00  0.00     0.261 C 
BRANCH  76  77
ATOM     77  O   UNL A   1      32.628  27.079  21.959  1.00  0.00    -0.460 OA
BRANCH  77  78
ATOM     78  C   UNL A   1      32.887  25.803  21.574  1.00  0.00     0.340 C 
ATOM     79  O   UNL A   1      33.179  25.418  20.454  1.00  0.00    -0.246 OA
BRANCH  78  80
ATOM     80  C   UNL A   1      32.529  24.844  22.630  1.00  0.00     0.086 A 
ATOM     81  C   UNL A   1      31.156  24.764  22.908  1.00  0.00     0.018 A 
ATOM     82  C   UNL A   1      33.467  23.957  23.177  1.00  0.00     0.086 A 
ATOM     83  C   UNL A   1      30.689  23.781  23.757  1.00  0.00     0.002 A 
ATOM     84  C   UNL A   1      32.980  22.956  24.054  1.00  0.00     0.015 A 
ATOM     85  N   UNL A   1      34.780  24.032  22.863  1.00  0.00    -0.255 NA
ATOM     86  C   UNL A   1      31.592  22.895  24.336  1.00  0.00     0.011 A 
ATOM     87  C   UNL A   1      33.925  22.042  24.577  1.00  0.00     0.028 A 
ATOM     88  C   UNL A   1      35.642  23.128  23.376  1.00  0.00     0.113 A 
ATOM     89  Br  UNL A   1      33.447  20.633  25.766  1.00  0.00    -0.050 Br
ATOM     90  C   UNL A   1      35.267  22.119  24.229  1.00  0.00     0.036 A 
ENDBRANCH  78  80
ENDBRANCH  77  78
ENDBRANCH  76  77
ENDBRANCH  75  76
ENDBRANCH  74  75
ENDBRANCH  73  74
ENDBRANCH   1  73
TORSDOF 17
ENDMDL
