MODEL 1
REMARK VINA RESULT:     -10.7      0.000      0.000
REMARK SMILES Cc1cc([C@@H](C)NC(=O)N[C@H]2C=C[C@@H](C(=O)OCCOCCOCCOC(=O)c3ccc(-c4c5nc(c(-c6c(F)c(F)c(F)c(F)c6F)c6ccc([nH]6)c(-c6c(F)c(F)c(F)c(F)c6F)c6nc(c(-c7c(F)c(F)c(F)c(F)c7F)c7ccc4[nH]7)C=C6)C=C5)cc3)C2)c(C)s1
REMARK SMILES IDX 21 1 20 2 19 3 18 4 17 5 15 6 16 7 14 8 11 9 12 10 92 11
REMARK SMILES IDX 13 12 10 13 7 14 8 15 9 17 5 19 6 20 4 21 1 22 2 23 3 24
REMARK SMILES IDX 95 25 93 26 94 27 22 28 23 29 24 30 25 31 26 32 27 33 28 34
REMARK SMILES IDX 29 35 30 36 91 37 31 38 90 39 32 40 33 41 34 42 84 43 35 44
REMARK SMILES IDX 89 45 83 46 85 47 36 48 88 49 82 50 81 51 37 53 69 54 49 55
REMARK SMILES IDX 68 56 50 57 53 58 67 59 86 60 51 61 52 62 66 64 87 65 54 66
REMARK SMILES IDX 38 67 39 68 47 69 40 70 41 71 45 72 48 73 42 74 43 75 46 76
REMARK SMILES IDX 44 77 70 78 71 79 79 80 72 81 73 82 77 83 80 84 74 85 75 86
REMARK SMILES IDX 78 87 76 88 55 89 56 90 64 91 57 92 58 93 62 94 65 95 59 96
REMARK SMILES IDX 60 97 63 98 61 99
REMARK H PARENT 7 16 10 18 85 52 53 63
REMARK Flexibility Score: inf
ROOT
ATOM      1  C   UNL A   1      34.001  35.453  29.980  1.00  0.00     0.188 C 
ENDROOT
BRANCH   1   2
ATOM      2  O   UNL A   1      34.499  34.312  29.283  1.00  0.00    -0.376 OA
BRANCH   2   3
ATOM      3  C   UNL A   1      33.594  33.647  28.404  1.00  0.00     0.202 C 
BRANCH   3   4
ATOM      4  C   UNL A   1      34.226  32.462  27.681  1.00  0.00     0.261 C 
BRANCH   4   5
ATOM      5  O   UNL A   1      33.504  31.259  28.004  1.00  0.00    -0.463 OA
BRANCH   5   6
ATOM      6  C   UNL A   1      32.495  30.933  27.157  1.00  0.00     0.312 C 
ATOM      7  O   UNL A   1      31.721  31.737  26.648  1.00  0.00    -0.252 OA
BRANCH   6   8
ATOM      8  C   UNL A   1      32.464  29.446  26.834  1.00  0.00     0.124 C 
ATOM      9  C   UNL A   1      32.799  27.704  25.177  1.00  0.00     0.107 C 
ATOM     10  C   UNL A   1      34.023  27.893  26.019  1.00  0.00    -0.006 C 
ATOM     11  C   UNL A   1      32.071  29.035  25.410  1.00  0.00     0.048 C 
ATOM     12  C   UNL A   1      33.834  28.840  26.945  1.00  0.00    -0.014 C 
BRANCH   9  13
ATOM     13  N   UNL A   1      33.185  27.516  23.804  1.00  0.00    -0.332 N 
ATOM     14  N   UNL A   1      33.988  25.298  23.537  1.00  0.00    -0.332 N 
ATOM     15  C   UNL A   1      33.601  26.484  23.069  1.00  0.00     0.315 C 
ATOM     16  H   UNL A   1      34.246  24.683  22.813  1.00  0.00     0.165 HD
ATOM     17  O   UNL A   1      33.647  26.644  21.846  1.00  0.00    -0.249 OA
ATOM     18  H   UNL A   1      33.129  28.349  23.281  1.00  0.00     0.165 HD
BRANCH  14  19
ATOM     19  C   UNL A   1      34.124  24.680  24.846  1.00  0.00     0.112 C 
ATOM     20  C   UNL A   1      35.557  24.226  25.114  1.00  0.00     0.036 C 
BRANCH  19  21
ATOM     21  C   UNL A   1      33.139  23.547  24.928  1.00  0.00    -0.012 A 
ATOM     22  C   UNL A   1      32.415  19.889  24.228  1.00  0.00     0.056 C 
ATOM     23  C   UNL A   1      32.446  21.320  24.638  1.00  0.00     0.002 A 
ATOM     24  C   UNL A   1      33.396  22.263  24.328  1.00  0.00     0.021 A 
ATOM     25  S   UNL A   1      31.242  21.987  25.634  1.00  0.00    -0.146 S 
ATOM     26  C   UNL A   1      31.882  23.559  25.521  1.00  0.00     0.007 A 
ATOM     27  C   UNL A   1      31.057  24.681  26.069  1.00  0.00     0.057 C 
ENDBRANCH  19  21
ENDBRANCH  14  19
ENDBRANCH   9  13
ENDBRANCH   6   8
ENDBRANCH   5   6
ENDBRANCH   4   5
ENDBRANCH   3   4
ENDBRANCH   2   3
ENDBRANCH   1   2
BRANCH   1  28
ATOM     28  C   UNL A   1      33.522  35.237  31.420  1.00  0.00     0.188 C 
BRANCH  28  29
ATOM     29  O   UNL A   1      34.235  36.086  32.312  1.00  0.00    -0.376 OA
BRANCH  29  30
ATOM     30  C   UNL A   1      35.038  35.377  33.256  1.00  0.00     0.202 C 
BRANCH  30  31
ATOM     31  C   UNL A   1      34.594  33.915  33.277  1.00  0.00     0.261 C 
BRANCH  31  32
ATOM     32  O   UNL A   1      35.671  33.031  32.902  1.00  0.00    -0.460 OA
BRANCH  32  33
ATOM     33  C   UNL A   1      35.431  32.184  31.877  1.00  0.00     0.338 C 
ATOM     34  O   UNL A   1      34.364  31.927  31.349  1.00  0.00    -0.246 OA
BRANCH  33  35
ATOM     35  C   UNL A   1      36.729  31.653  31.413  1.00  0.00     0.060 A 
ATOM     36  C   UNL A   1      37.014  31.698  30.050  1.00  0.00     0.016 A 
ATOM     37  C   UNL A   1      37.669  31.136  32.307  1.00  0.00     0.016 A 
ATOM     38  C   UNL A   1      38.285  31.367  29.592  1.00  0.00     0.010 A 
ATOM     39  C   UNL A   1      38.900  30.674  31.825  1.00  0.00     0.010 A 
ATOM     40  C   UNL A   1      39.225  30.800  30.465  1.00  0.00    -0.014 A 
BRANCH  40  41
ATOM     41  C   UNL A   1      40.456  30.185  29.901  1.00  0.00     0.031 A 
ATOM     42  C   UNL A   1      41.688  31.043  29.762  1.00  0.00     0.074 A 
ATOM     43  C   UNL A   1      40.504  28.885  29.552  1.00  0.00     0.049 A 
ATOM     44  N   UNL A   1      42.877  30.724  29.321  1.00  0.00    -0.248 NA
ATOM     45  C   UNL A   1      41.580  32.438  30.226  1.00  0.00     0.031 C 
ATOM     46  C   UNL A   1      39.432  27.910  29.750  1.00  0.00     0.029 A 
ATOM     47  N   UNL A   1      41.506  28.159  28.953  1.00  0.00    -0.354 N 
ATOM     48  C   UNL A   1      43.661  31.855  29.509  1.00  0.00     0.074 A 
ATOM     49  C   UNL A   1      42.827  32.860  30.124  1.00  0.00     0.031 C 
ATOM     50  C   UNL A   1      39.823  26.722  29.253  1.00  0.00     0.029 A 
ATOM     51  C   UNL A   1      41.154  26.861  28.665  1.00  0.00     0.049 A 
ATOM     52  H   UNL A   1      42.393  28.534  28.750  1.00  0.00     0.167 HD
ATOM     53  C   UNL A   1      44.949  32.066  29.158  1.00  0.00     0.037 A 
ATOM     54  C   UNL A   1      41.819  25.917  27.967  1.00  0.00     0.037 A 
ATOM     55  C   UNL A   1      45.730  31.141  28.391  1.00  0.00     0.049 A 
ATOM     56  C   UNL A   1      43.173  26.255  27.385  1.00  0.00     0.074 A 
ATOM     57  C   UNL A   1      46.987  31.316  27.844  1.00  0.00     0.029 A 
ATOM     58  N   UNL A   1      45.295  29.879  28.016  1.00  0.00    -0.354 N 
ATOM     59  N   UNL A   1      43.899  27.335  27.546  1.00  0.00    -0.248 NA
ATOM     60  C   UNL A   1      43.787  25.253  26.500  1.00  0.00     0.031 C 
ATOM     61  C   UNL A   1      47.287  30.181  27.083  1.00  0.00     0.029 A 
ATOM     62  C   UNL A   1      46.244  29.278  27.209  1.00  0.00     0.049 A 
ATOM     63  H   UNL A   1      44.441  29.472  28.285  1.00  0.00     0.167 HD
ATOM     64  C   UNL A   1      45.057  27.136  26.805  1.00  0.00     0.074 A 
ATOM     65  C   UNL A   1      44.946  25.825  26.202  1.00  0.00     0.031 C 
ATOM     66  C   UNL A   1      46.115  27.965  26.630  1.00  0.00     0.037 A 
BRANCH  53  67
ATOM     67  C   UNL A   1      45.519  33.408  29.496  1.00  0.00     0.064 A 
ATOM     68  C   UNL A   1      45.359  34.506  28.639  1.00  0.00     0.173 A 
ATOM     69  C   UNL A   1      46.295  33.576  30.650  1.00  0.00     0.173 A 
ATOM     70  F   UNL A   1      44.655  34.382  27.503  1.00  0.00    -0.203 F 
ATOM     71  C   UNL A   1      45.981  35.721  28.915  1.00  0.00     0.198 A 
ATOM     72  C   UNL A   1      46.900  34.797  30.933  1.00  0.00     0.198 A 
ATOM     73  F   UNL A   1      46.493  32.546  31.487  1.00  0.00    -0.203 F 
ATOM     74  F   UNL A   1      45.865  36.744  28.056  1.00  0.00    -0.200 F 
ATOM     75  C   UNL A   1      46.749  35.865  30.061  1.00  0.00     0.200 A 
ATOM     76  F   UNL A   1      47.650  34.931  32.035  1.00  0.00    -0.200 F 
ATOM     77  F   UNL A   1      47.365  37.029  30.315  1.00  0.00    -0.200 F 
ENDBRANCH  53  67
BRANCH  54  78
ATOM     78  C   UNL A   1      41.203  24.585  27.704  1.00  0.00     0.064 A 
ATOM     79  C   UNL A   1      41.728  23.414  28.271  1.00  0.00     0.173 A 
ATOM     80  C   UNL A   1      40.125  24.445  26.815  1.00  0.00     0.173 A 
ATOM     81  F   UNL A   1      42.782  23.485  29.097  1.00  0.00    -0.203 F 
ATOM     82  C   UNL A   1      41.214  22.159  27.944  1.00  0.00     0.198 A 
ATOM     83  C   UNL A   1      39.592  23.192  26.514  1.00  0.00     0.198 A 
ATOM     84  F   UNL A   1      39.594  25.527  26.228  1.00  0.00    -0.203 F 
ATOM     85  F   UNL A   1      41.775  21.054  28.454  1.00  0.00    -0.200 F 
ATOM     86  C   UNL A   1      40.143  22.049  27.070  1.00  0.00     0.200 A 
ATOM     87  F   UNL A   1      38.556  23.094  25.670  1.00  0.00    -0.200 F 
ATOM     88  F   UNL A   1      39.657  20.843  26.749  1.00  0.00    -0.200 F 
ENDBRANCH  54  78
BRANCH  66  89
ATOM     89  C   UNL A   1      47.250  27.482  25.778  1.00  0.00     0.064 A 
ATOM     90  C   UNL A   1      47.277  27.706  24.395  1.00  0.00     0.173 A 
ATOM     91  C   UNL A   1      48.367  26.873  26.371  1.00  0.00     0.173 A 
ATOM     92  F   UNL A   1      46.228  28.274  23.782  1.00  0.00    -0.203 F 
ATOM     93  C   UNL A   1      48.381  27.331  23.633  1.00  0.00     0.198 A 
ATOM     94  C   UNL A   1      49.479  26.525  25.611  1.00  0.00     0.198 A 
ATOM     95  F   UNL A   1      48.391  26.648  27.693  1.00  0.00    -0.203 F 
ATOM     96  F   UNL A   1      48.378  27.531  22.309  1.00  0.00    -0.200 F 
ATOM     97  C   UNL A   1      49.485  26.752  24.244  1.00  0.00     0.200 A 
ATOM     98  F   UNL A   1      50.550  25.981  26.205  1.00  0.00    -0.200 F 
ATOM     99  F   UNL A   1      50.555  26.412  23.512  1.00  0.00    -0.200 F 
ENDBRANCH  66  89
ENDBRANCH  40  41
ENDBRANCH  33  35
ENDBRANCH  32  33
ENDBRANCH  31  32
ENDBRANCH  30  31
ENDBRANCH  29  30
ENDBRANCH  28  29
ENDBRANCH   1  28
TORSDOF 20
ENDMDL
MODEL 2
REMARK VINA RESULT:     -10.6      1.122      2.094
REMARK SMILES Cc1cc([C@@H](C)NC(=O)N[C@H]2C=C[C@@H](C(=O)OCCOCCOCCOC(=O)c3ccc(-c4c5nc(c(-c6c(F)c(F)c(F)c(F)c6F)c6ccc([nH]6)c(-c6c(F)c(F)c(F)c(F)c6F)c6nc(c(-c7c(F)c(F)c(F)c(F)c7F)c7ccc4[nH]7)C=C6)C=C5)cc3)C2)c(C)s1
REMARK SMILES IDX 21 1 20 2 19 3 18 4 17 5 15 6 16 7 14 8 11 9 12 10 92 11
REMARK SMILES IDX 13 12 10 13 7 14 8 15 9 17 5 19 6 20 4 21 1 22 2 23 3 24
REMARK SMILES IDX 95 25 93 26 94 27 22 28 23 29 24 30 25 31 26 32 27 33 28 34
REMARK SMILES IDX 29 35 30 36 91 37 31 38 90 39 32 40 33 41 34 42 84 43 35 44
REMARK SMILES IDX 89 45 83 46 85 47 36 48 88 49 82 50 81 51 37 53 69 54 49 55
REMARK SMILES IDX 68 56 50 57 53 58 67 59 86 60 51 61 52 62 66 64 87 65 54 66
REMARK SMILES IDX 38 67 39 68 47 69 40 70 41 71 45 72 48 73 42 74 43 75 46 76
REMARK SMILES IDX 44 77 70 78 71 79 79 80 72 81 73 82 77 83 80 84 74 85 75 86
REMARK SMILES IDX 78 87 76 88 55 89 56 90 64 91 57 92 58 93 62 94 65 95 59 96
REMARK SMILES IDX 60 97 63 98 61 99
REMARK H PARENT 7 16 10 18 85 52 53 63
REMARK Flexibility Score: inf
ROOT
ATOM      1  C   UNL A   1      33.917  35.391  29.656  1.00  0.00     0.188 C 
ENDROOT
BRANCH   1   2
ATOM      2  O   UNL A   1      34.435  34.226  29.013  1.00  0.00    -0.376 OA
BRANCH   2   3
ATOM      3  C   UNL A   1      33.510  33.437  28.269  1.00  0.00     0.202 C 
BRANCH   3   4
ATOM      4  C   UNL A   1      34.143  32.186  27.666  1.00  0.00     0.261 C 
BRANCH   4   5
ATOM      5  O   UNL A   1      33.279  31.056  27.883  1.00  0.00    -0.463 OA
BRANCH   5   6
ATOM      6  C   UNL A   1      32.388  30.798  26.893  1.00  0.00     0.312 C 
ATOM      7  O   UNL A   1      31.543  31.589  26.487  1.00  0.00    -0.252 OA
BRANCH   6   8
ATOM      8  C   UNL A   1      32.593  29.425  26.270  1.00  0.00     0.124 C 
ATOM      9  C   UNL A   1      31.756  27.164  25.975  1.00  0.00     0.107 C 
ATOM     10  C   UNL A   1      31.341  28.048  24.839  1.00  0.00    -0.006 C 
ATOM     11  C   UNL A   1      32.091  28.205  27.053  1.00  0.00     0.048 C 
ATOM     12  C   UNL A   1      31.816  29.290  24.991  1.00  0.00    -0.014 C 
BRANCH   9  13
ATOM     13  N   UNL A   1      30.657  26.314  26.349  1.00  0.00    -0.332 N 
ATOM     14  N   UNL A   1      31.057  24.137  25.490  1.00  0.00    -0.332 N 
ATOM     15  C   UNL A   1      30.385  25.013  26.235  1.00  0.00     0.315 C 
ATOM     16  H   UNL A   1      30.685  23.228  25.565  1.00  0.00     0.165 HD
ATOM     17  O   UNL A   1      29.415  24.583  26.865  1.00  0.00    -0.249 OA
ATOM     18  H   UNL A   1      29.933  26.810  26.794  1.00  0.00     0.165 HD
BRANCH  14  19
ATOM     19  C   UNL A   1      32.201  24.180  24.595  1.00  0.00     0.112 C 
ATOM     20  C   UNL A   1      31.781  24.412  23.145  1.00  0.00     0.036 C 
BRANCH  19  21
ATOM     21  C   UNL A   1      32.975  22.902  24.770  1.00  0.00    -0.012 A 
ATOM     22  C   UNL A   1      33.029  19.127  24.400  1.00  0.00     0.056 C 
ATOM     23  C   UNL A   1      33.285  20.578  24.615  1.00  0.00     0.002 A 
ATOM     24  C   UNL A   1      32.380  21.610  24.549  1.00  0.00     0.021 A 
ATOM     25  S   UNL A   1      34.841  21.166  24.959  1.00  0.00    -0.146 S 
ATOM     26  C   UNL A   1      34.294  22.761  25.185  1.00  0.00     0.007 A 
ATOM     27  C   UNL A   1      35.265  23.750  25.749  1.00  0.00     0.057 C 
ENDBRANCH  19  21
ENDBRANCH  14  19
ENDBRANCH   9  13
ENDBRANCH   6   8
ENDBRANCH   5   6
ENDBRANCH   4   5
ENDBRANCH   3   4
ENDBRANCH   2   3
ENDBRANCH   1   2
BRANCH   1  28
ATOM     28  C   UNL A   1      33.448  35.237  31.107  1.00  0.00     0.188 C 
BRANCH  28  29
ATOM     29  O   UNL A   1      34.042  36.235  31.929  1.00  0.00    -0.376 OA
BRANCH  29  30
ATOM     30  C   UNL A   1      34.837  35.703  32.988  1.00  0.00     0.202 C 
BRANCH  30  31
ATOM     31  C   UNL A   1      34.576  34.202  33.092  1.00  0.00     0.261 C 
BRANCH  31  32
ATOM     32  O   UNL A   1      35.721  33.436  32.666  1.00  0.00    -0.460 OA
BRANCH  32  33
ATOM     33  C   UNL A   1      35.479  32.381  31.857  1.00  0.00     0.338 C 
ATOM     34  O   UNL A   1      34.401  31.953  31.484  1.00  0.00    -0.246 OA
BRANCH  33  35
ATOM     35  C   UNL A   1      36.778  31.847  31.403  1.00  0.00     0.060 A 
ATOM     36  C   UNL A   1      37.047  31.830  30.036  1.00  0.00     0.016 A 
ATOM     37  C   UNL A   1      37.737  31.388  32.310  1.00  0.00     0.016 A 
ATOM     38  C   UNL A   1      38.318  31.496  29.579  1.00  0.00     0.010 A 
ATOM     39  C   UNL A   1      38.970  30.922  31.835  1.00  0.00     0.010 A 
ATOM     40  C   UNL A   1      39.276  30.986  30.466  1.00  0.00    -0.014 A 
BRANCH  40  41
ATOM     41  C   UNL A   1      40.510  30.363  29.917  1.00  0.00     0.031 A 
ATOM     42  C   UNL A   1      41.746  31.216  29.784  1.00  0.00     0.074 A 
ATOM     43  C   UNL A   1      40.556  29.060  29.577  1.00  0.00     0.049 A 
ATOM     44  N   UNL A   1      42.939  30.889  29.356  1.00  0.00    -0.248 NA
ATOM     45  C   UNL A   1      41.639  32.614  30.238  1.00  0.00     0.031 C 
ATOM     46  C   UNL A   1      39.478  28.091  29.772  1.00  0.00     0.029 A 
ATOM     47  N   UNL A   1      41.560  28.327  28.992  1.00  0.00    -0.354 N 
ATOM     48  C   UNL A   1      43.725  32.018  29.544  1.00  0.00     0.074 A 
ATOM     49  C   UNL A   1      42.889  33.031  30.145  1.00  0.00     0.031 C 
ATOM     50  C   UNL A   1      39.870  26.898  29.287  1.00  0.00     0.029 A 
ATOM     51  C   UNL A   1      41.206  27.029  28.710  1.00  0.00     0.049 A 
ATOM     52  H   UNL A   1      42.451  28.697  28.794  1.00  0.00     0.167 HD
ATOM     53  C   UNL A   1      45.017  32.222  29.202  1.00  0.00     0.037 A 
ATOM     54  C   UNL A   1      41.874  26.077  28.024  1.00  0.00     0.037 A 
ATOM     55  C   UNL A   1      45.801  31.289  28.448  1.00  0.00     0.049 A 
ATOM     56  C   UNL A   1      43.234  26.407  27.452  1.00  0.00     0.074 A 
ATOM     57  C   UNL A   1      47.063  31.457  27.912  1.00  0.00     0.029 A 
ATOM     58  N   UNL A   1      45.365  30.026  28.078  1.00  0.00    -0.354 N 
ATOM     59  N   UNL A   1      43.963  27.485  27.612  1.00  0.00    -0.248 NA
ATOM     60  C   UNL A   1      43.852  25.397  26.579  1.00  0.00     0.031 C 
ATOM     61  C   UNL A   1      47.366  30.315  27.161  1.00  0.00     0.029 A 
ATOM     62  C   UNL A   1      46.318  29.416  27.284  1.00  0.00     0.049 A 
ATOM     63  H   UNL A   1      44.506  29.625  28.342  1.00  0.00     0.167 HD
ATOM     64  C   UNL A   1      45.126  27.276  26.882  1.00  0.00     0.074 A 
ATOM     65  C   UNL A   1      45.016  25.962  26.287  1.00  0.00     0.031 C 
ATOM     66  C   UNL A   1      46.189  28.101  26.712  1.00  0.00     0.037 A 
BRANCH  53  67
ATOM     67  C   UNL A   1      45.588  33.564  29.537  1.00  0.00     0.064 A 
ATOM     68  C   UNL A   1      46.237  33.798  30.758  1.00  0.00     0.173 A 
ATOM     69  C   UNL A   1      45.417  34.644  28.660  1.00  0.00     0.173 A 
ATOM     70  F   UNL A   1      46.390  32.803  31.645  1.00  0.00    -0.203 F 
ATOM     71  C   UNL A   1      46.672  35.076  31.100  1.00  0.00     0.198 A 
ATOM     72  C   UNL A   1      45.869  35.916  28.997  1.00  0.00     0.198 A 
ATOM     73  F   UNL A   1      44.783  34.470  27.491  1.00  0.00    -0.203 F 
ATOM     74  F   UNL A   1      47.238  35.294  32.295  1.00  0.00    -0.200 F 
ATOM     75  C   UNL A   1      46.488  36.132  30.219  1.00  0.00     0.200 A 
ATOM     76  F   UNL A   1      45.683  36.937  28.149  1.00  0.00    -0.200 F 
ATOM     77  F   UNL A   1      46.889  37.366  30.558  1.00  0.00    -0.200 F 
ENDBRANCH  53  67
BRANCH  54  78
ATOM     78  C   UNL A   1      41.256  24.746  27.763  1.00  0.00     0.064 A 
ATOM     79  C   UNL A   1      41.784  23.574  28.326  1.00  0.00     0.173 A 
ATOM     80  C   UNL A   1      40.171  24.608  26.882  1.00  0.00     0.173 A 
ATOM     81  F   UNL A   1      42.843  23.644  29.145  1.00  0.00    -0.203 F 
ATOM     82  C   UNL A   1      41.266  22.319  28.002  1.00  0.00     0.198 A 
ATOM     83  C   UNL A   1      39.635  23.355  26.584  1.00  0.00     0.198 A 
ATOM     84  F   UNL A   1      39.637  25.690  26.299  1.00  0.00    -0.203 F 
ATOM     85  F   UNL A   1      41.830  21.214  28.507  1.00  0.00    -0.200 F 
ATOM     86  C   UNL A   1      40.190  22.211  27.135  1.00  0.00     0.200 A 
ATOM     87  F   UNL A   1      38.593  23.258  25.746  1.00  0.00    -0.200 F 
ATOM     88  F   UNL A   1      39.700  21.006  26.816  1.00  0.00    -0.200 F 
ENDBRANCH  54  78
BRANCH  66  89
ATOM     89  C   UNL A   1      47.330  27.608  25.873  1.00  0.00     0.064 A 
ATOM     90  C   UNL A   1      48.366  26.840  26.422  1.00  0.00     0.173 A 
ATOM     91  C   UNL A   1      47.333  27.826  24.487  1.00  0.00     0.173 A 
ATOM     92  F   UNL A   1      48.413  26.615  27.743  1.00  0.00    -0.203 F 
ATOM     93  C   UNL A   1      49.370  26.314  25.613  1.00  0.00     0.198 A 
ATOM     94  C   UNL A   1      48.322  27.277  23.679  1.00  0.00     0.198 A 
ATOM     95  F   UNL A   1      46.356  28.547  23.915  1.00  0.00    -0.203 F 
ATOM     96  F   UNL A   1      50.366  25.604  26.160  1.00  0.00    -0.200 F 
ATOM     97  C   UNL A   1      49.340  26.523  24.241  1.00  0.00     0.200 A 
ATOM     98  F   UNL A   1      48.282  27.465  22.352  1.00  0.00    -0.200 F 
ATOM     99  F   UNL A   1      50.295  25.997  23.462  1.00  0.00    -0.200 F 
ENDBRANCH  66  89
ENDBRANCH  40  41
ENDBRANCH  33  35
ENDBRANCH  32  33
ENDBRANCH  31  32
ENDBRANCH  30  31
ENDBRANCH  29  30
ENDBRANCH  28  29
ENDBRANCH   1  28
TORSDOF 20
ENDMDL
MODEL 3
REMARK VINA RESULT:     -10.3      5.479     11.001
REMARK SMILES Cc1cc([C@@H](C)NC(=O)N[C@H]2C=C[C@@H](C(=O)OCCOCCOCCOC(=O)c3ccc(-c4c5nc(c(-c6c(F)c(F)c(F)c(F)c6F)c6ccc([nH]6)c(-c6c(F)c(F)c(F)c(F)c6F)c6nc(c(-c7c(F)c(F)c(F)c(F)c7F)c7ccc4[nH]7)C=C6)C=C5)cc3)C2)c(C)s1
REMARK SMILES IDX 21 1 20 2 19 3 18 4 17 5 15 6 16 7 14 8 11 9 12 10 92 11
REMARK SMILES IDX 13 12 10 13 7 14 8 15 9 17 5 19 6 20 4 21 1 22 2 23 3 24
REMARK SMILES IDX 95 25 93 26 94 27 22 28 23 29 24 30 25 31 26 32 27 33 28 34
REMARK SMILES IDX 29 35 30 36 91 37 31 38 90 39 32 40 33 41 34 42 84 43 35 44
REMARK SMILES IDX 89 45 83 46 85 47 36 48 88 49 82 50 81 51 37 53 69 54 49 55
REMARK SMILES IDX 68 56 50 57 53 58 67 59 86 60 51 61 52 62 66 64 87 65 54 66
REMARK SMILES IDX 38 67 39 68 47 69 40 70 41 71 45 72 48 73 42 74 43 75 46 76
REMARK SMILES IDX 44 77 70 78 71 79 79 80 72 81 73 82 77 83 80 84 74 85 75 86
REMARK SMILES IDX 78 87 76 88 55 89 56 90 64 91 57 92 58 93 62 94 65 95 59 96
REMARK SMILES IDX 60 97 63 98 61 99
REMARK H PARENT 7 16 10 18 85 52 53 63
REMARK Flexibility Score: inf
ROOT
ATOM      1  C   UNL A   1      41.904  20.714  27.339  1.00  0.00     0.188 C 
ENDROOT
BRANCH   1   2
ATOM      2  O   UNL A   1      40.492  20.915  27.317  1.00  0.00    -0.376 OA
BRANCH   2   3
ATOM      3  C   UNL A   1      39.990  21.865  26.380  1.00  0.00     0.202 C 
BRANCH   3   4
ATOM      4  C   UNL A   1      38.651  21.457  25.773  1.00  0.00     0.261 C 
BRANCH   4   5
ATOM      5  O   UNL A   1      37.979  22.621  25.259  1.00  0.00    -0.463 OA
BRANCH   5   6
ATOM      6  C   UNL A   1      37.540  23.505  26.190  1.00  0.00     0.312 C 
ATOM      7  O   UNL A   1      38.263  24.118  26.969  1.00  0.00    -0.252 OA
BRANCH   6   8
ATOM      8  C   UNL A   1      36.036  23.723  26.121  1.00  0.00     0.124 C 
ATOM      9  C   UNL A   1      33.993  23.505  24.826  1.00  0.00     0.107 C 
ATOM     10  C   UNL A   1      34.174  22.342  25.752  1.00  0.00    -0.006 C 
ATOM     11  C   UNL A   1      35.426  24.051  24.752  1.00  0.00     0.048 C 
ATOM     12  C   UNL A   1      35.291  22.468  26.480  1.00  0.00    -0.014 C 
BRANCH   9  13
ATOM     13  N   UNL A   1      33.512  23.037  23.554  1.00  0.00    -0.332 N 
ATOM     14  N   UNL A   1      31.566  24.270  22.978  1.00  0.00    -0.332 N 
ATOM     15  C   UNL A   1      32.546  23.406  22.712  1.00  0.00     0.315 C 
ATOM     16  H   UNL A   1      30.971  24.400  22.205  1.00  0.00     0.165 HD
ATOM     17  O   UNL A   1      32.549  22.893  21.590  1.00  0.00    -0.249 OA
ATOM     18  H   UNL A   1      34.015  22.256  23.227  1.00  0.00     0.165 HD
BRANCH  14  19
ATOM     19  C   UNL A   1      31.154  25.071  24.118  1.00  0.00     0.112 C 
ATOM     20  C   UNL A   1      29.665  25.403  24.072  1.00  0.00     0.036 C 
BRANCH  19  21
ATOM     21  C   UNL A   1      32.015  26.304  24.154  1.00  0.00    -0.012 A 
ATOM     22  C   UNL A   1      34.414  28.578  22.291  1.00  0.00     0.056 C 
ATOM     23  C   UNL A   1      33.485  27.886  23.227  1.00  0.00     0.002 A 
ATOM     24  C   UNL A   1      32.898  26.653  23.072  1.00  0.00     0.021 A 
ATOM     25  S   UNL A   1      32.985  28.609  24.680  1.00  0.00    -0.146 S 
ATOM     26  C   UNL A   1      32.127  27.230  25.185  1.00  0.00     0.007 A 
ATOM     27  C   UNL A   1      31.613  27.212  26.590  1.00  0.00     0.057 C 
ENDBRANCH  19  21
ENDBRANCH  14  19
ENDBRANCH   9  13
ENDBRANCH   6   8
ENDBRANCH   5   6
ENDBRANCH   4   5
ENDBRANCH   3   4
ENDBRANCH   2   3
ENDBRANCH   1   2
BRANCH   1  28
ATOM     28  C   UNL A   1      42.504  19.848  26.227  1.00  0.00     0.188 C 
BRANCH  28  29
ATOM     29  O   UNL A   1      43.053  20.668  25.201  1.00  0.00    -0.376 OA
BRANCH  29  30
ATOM     30  C   UNL A   1      43.762  21.803  25.697  1.00  0.00     0.202 C 
BRANCH  30  31
ATOM     31  C   UNL A   1      44.067  22.740  24.529  1.00  0.00     0.261 C 
BRANCH  31  32
ATOM     32  O   UNL A   1      43.446  24.029  24.711  1.00  0.00    -0.460 OA
BRANCH  32  33
ATOM     33  C   UNL A   1      44.247  25.036  25.122  1.00  0.00     0.338 C 
ATOM     34  O   UNL A   1      45.290  25.418  24.622  1.00  0.00    -0.246 OA
BRANCH  33  35
ATOM     35  C   UNL A   1      43.598  25.692  26.275  1.00  0.00     0.060 A 
ATOM     36  C   UNL A   1      44.116  26.904  26.726  1.00  0.00     0.016 A 
ATOM     37  C   UNL A   1      42.478  25.135  26.897  1.00  0.00     0.016 A 
ATOM     38  C   UNL A   1      43.436  27.635  27.695  1.00  0.00     0.010 A 
ATOM     39  C   UNL A   1      41.875  25.809  27.966  1.00  0.00     0.010 A 
ATOM     40  C   UNL A   1      42.340  27.073  28.365  1.00  0.00    -0.014 A 
BRANCH  40  41
ATOM     41  C   UNL A   1      41.819  27.741  29.587  1.00  0.00     0.031 A 
ATOM     42  C   UNL A   1      40.603  28.622  29.460  1.00  0.00     0.074 A 
ATOM     43  C   UNL A   1      42.382  27.548  30.796  1.00  0.00     0.049 A 
ATOM     44  N   UNL A   1      39.958  29.287  30.384  1.00  0.00    -0.248 NA
ATOM     45  C   UNL A   1      40.002  28.734  28.118  1.00  0.00     0.031 C 
ATOM     46  C   UNL A   1      43.480  26.626  31.087  1.00  0.00     0.029 A 
ATOM     47  N   UNL A   1      42.101  28.123  32.012  1.00  0.00    -0.354 N 
ATOM     48  C   UNL A   1      38.856  29.840  29.745  1.00  0.00     0.074 A 
ATOM     49  C   UNL A   1      38.900  29.419  28.366  1.00  0.00     0.031 C 
ATOM     50  C   UNL A   1      43.797  26.722  32.391  1.00  0.00     0.029 A 
ATOM     51  C   UNL A   1      42.957  27.740  33.017  1.00  0.00     0.049 A 
ATOM     52  H   UNL A   1      41.355  28.751  32.150  1.00  0.00     0.167 HD
ATOM     53  C   UNL A   1      37.911  30.670  30.243  1.00  0.00     0.037 A 
ATOM     54  C   UNL A   1      43.069  28.197  34.282  1.00  0.00     0.037 A 
ATOM     55  C   UNL A   1      37.957  31.234  31.560  1.00  0.00     0.049 A 
ATOM     56  C   UNL A   1      42.140  29.296  34.748  1.00  0.00     0.074 A 
ATOM     57  C   UNL A   1      37.144  32.206  32.112  1.00  0.00     0.029 A 
ATOM     58  N   UNL A   1      38.910  30.910  32.513  1.00  0.00    -0.354 N 
ATOM     59  N   UNL A   1      41.114  29.832  34.131  1.00  0.00    -0.248 NA
ATOM     60  C   UNL A   1      42.403  29.873  36.075  1.00  0.00     0.031 C 
ATOM     61  C   UNL A   1      37.645  32.515  33.381  1.00  0.00     0.029 A 
ATOM     62  C   UNL A   1      38.731  31.692  33.639  1.00  0.00     0.049 A 
ATOM     63  H   UNL A   1      39.608  30.225  32.405  1.00  0.00     0.167 HD
ATOM     64  C   UNL A   1      40.601  30.789  34.998  1.00  0.00     0.074 A 
ATOM     65  C   UNL A   1      41.418  30.753  36.192  1.00  0.00     0.031 C 
ATOM     66  C   UNL A   1      39.552  31.629  34.820  1.00  0.00     0.037 A 
BRANCH  53  67
ATOM     67  C   UNL A   1      36.840  31.103  29.292  1.00  0.00     0.064 A 
ATOM     68  C   UNL A   1      36.783  32.417  28.806  1.00  0.00     0.173 A 
ATOM     69  C   UNL A   1      35.819  30.216  28.926  1.00  0.00     0.173 A 
ATOM     70  F   UNL A   1      37.718  33.312  29.160  1.00  0.00    -0.203 F 
ATOM     71  C   UNL A   1      35.724  32.834  28.004  1.00  0.00     0.198 A 
ATOM     72  C   UNL A   1      34.771  30.631  28.110  1.00  0.00     0.198 A 
ATOM     73  F   UNL A   1      35.822  28.957  29.386  1.00  0.00    -0.203 F 
ATOM     74  F   UNL A   1      35.654  34.109  27.595  1.00  0.00    -0.200 F 
ATOM     75  C   UNL A   1      34.720  31.941  27.657  1.00  0.00     0.200 A 
ATOM     76  F   UNL A   1      33.798  29.770  27.783  1.00  0.00    -0.200 F 
ATOM     77  F   UNL A   1      33.689  32.349  26.903  1.00  0.00    -0.200 F 
ENDBRANCH  53  67
BRANCH  54  78
ATOM     78  C   UNL A   1      44.138  27.688  35.188  1.00  0.00     0.064 A 
ATOM     79  C   UNL A   1      45.424  28.247  35.183  1.00  0.00     0.173 A 
ATOM     80  C   UNL A   1      43.919  26.580  36.021  1.00  0.00     0.173 A 
ATOM     81  F   UNL A   1      45.700  29.284  34.378  1.00  0.00    -0.203 F 
ATOM     82  C   UNL A   1      46.451  27.706  35.958  1.00  0.00     0.198 A 
ATOM     83  C   UNL A   1      44.938  26.059  36.818  1.00  0.00     0.198 A 
ATOM     84  F   UNL A   1      42.714  25.991  36.053  1.00  0.00    -0.203 F 
ATOM     85  F   UNL A   1      47.686  28.223  35.886  1.00  0.00    -0.200 F 
ATOM     86  C   UNL A   1      46.206  26.616  36.777  1.00  0.00     0.200 A 
ATOM     87  F   UNL A   1      44.693  25.006  37.610  1.00  0.00    -0.200 F 
ATOM     88  F   UNL A   1      47.195  26.090  37.513  1.00  0.00    -0.200 F 
ENDBRANCH  54  78
BRANCH  66  89
ATOM     89  C   UNL A   1      39.204  32.561  35.942  1.00  0.00     0.064 A 
ATOM     90  C   UNL A   1      38.374  32.161  36.998  1.00  0.00     0.173 A 
ATOM     91  C   UNL A   1      39.787  33.836  36.007  1.00  0.00     0.173 A 
ATOM     92  F   UNL A   1      37.785  30.957  36.975  1.00  0.00    -0.203 F 
ATOM     93  C   UNL A   1      38.134  33.008  38.078  1.00  0.00     0.198 A 
ATOM     94  C   UNL A   1      39.567  34.668  37.099  1.00  0.00     0.198 A 
ATOM     95  F   UNL A   1      40.596  34.259  35.024  1.00  0.00    -0.203 F 
ATOM     96  F   UNL A   1      37.318  32.617  39.065  1.00  0.00    -0.200 F 
ATOM     97  C   UNL A   1      38.740  34.256  38.133  1.00  0.00     0.200 A 
ATOM     98  F   UNL A   1      40.166  35.866  37.158  1.00  0.00    -0.200 F 
ATOM     99  F   UNL A   1      38.526  35.060  39.182  1.00  0.00    -0.200 F 
ENDBRANCH  66  89
ENDBRANCH  40  41
ENDBRANCH  33  35
ENDBRANCH  32  33
ENDBRANCH  31  32
ENDBRANCH  30  31
ENDBRANCH  29  30
ENDBRANCH  28  29
ENDBRANCH   1  28
TORSDOF 20
ENDMDL
