MODEL 1
REMARK VINA RESULT:      -9.7      0.000      0.000
REMARK SMILES CC(C)CCNC(=O)[C@@H](C)Oc1ccc(N)cc1C(=O)OCCOCCOCCOC(=O)c1ccc(-c2c3nc(c(-c4c(F)c(F)c(F)c(F)c4F)c4ccc([nH]4)c(-c4c(F)c(F)c(F)c(F)c4F)c4nc(c(-c5c(F)c(F)c(F)c(F)c5F)c5ccc2[nH]5)C=C4)C=C3)cc1
REMARK SMILES IDX 23 1 22 2 21 3 19 4 20 5 18 6 12 7 13 8 14 9 17 10 15 11
REMARK SMILES IDX 11 12 9 13 10 14 7 15 6 16 8 18 5 19 4 20 2 21 1 22 3 23
REMARK SMILES IDX 16 24 24 27 25 28 26 29 27 30 28 31 29 32 30 33 31 34 32 35
REMARK SMILES IDX 33 36 34 37 95 38 35 39 94 40 36 41 37 42 38 43 88 44 39 45
REMARK SMILES IDX 93 46 87 47 89 48 40 49 92 50 86 51 85 52 41 54 73 55 53 56
REMARK SMILES IDX 72 57 54 58 57 59 71 60 90 61 55 62 56 63 70 65 91 66 58 67
REMARK SMILES IDX 42 68 43 69 51 70 44 71 45 72 49 73 52 74 46 75 47 76 50 77
REMARK SMILES IDX 48 78 74 79 75 80 83 81 76 82 77 83 81 84 84 85 78 86 79 87
REMARK SMILES IDX 82 88 80 89 59 90 60 91 68 92 61 93 62 94 66 95 69 96 63 97
REMARK SMILES IDX 64 98 67 99 65 100
REMARK H PARENT 6 17 16 25 16 26 89 53 57 64
REMARK Flexibility Score: inf
ROOT
ATOM      1  C   UNL A   1      38.956  22.162  26.393  1.00  0.00     0.202 C 
ENDROOT
BRANCH   1   2
ATOM      2  C   UNL A   1      38.012  21.876  25.210  1.00  0.00     0.261 C 
BRANCH   2   3
ATOM      3  O   UNL A   1      36.792  22.632  25.180  1.00  0.00    -0.460 OA
BRANCH   3   4
ATOM      4  C   UNL A   1      36.301  22.862  23.941  1.00  0.00     0.342 C 
ATOM      5  O   UNL A   1      36.958  23.131  22.945  1.00  0.00    -0.246 OA
BRANCH   4   6
ATOM      6  C   UNL A   1      34.857  22.559  23.832  1.00  0.00     0.104 A 
ATOM      7  C   UNL A   1      33.975  23.207  22.965  1.00  0.00     0.135 A 
ATOM      8  C   UNL A   1      32.827  22.510  22.604  1.00  0.00     0.049 A 
ATOM      9  C   UNL A   1      32.407  21.390  23.338  1.00  0.00     0.029 A 
ATOM     10  C   UNL A   1      34.415  21.453  24.589  1.00  0.00     0.045 A 
ATOM     11  C   UNL A   1      33.135  20.943  24.431  1.00  0.00     0.032 A 
BRANCH   7  12
ATOM     12  O   UNL A   1      34.282  24.406  22.402  1.00  0.00    -0.480 OA
BRANCH  12  13
ATOM     13  C   UNL A   1      33.306  25.460  22.448  1.00  0.00     0.258 C 
ATOM     14  C   UNL A   1      32.520  25.604  21.139  1.00  0.00     0.064 C 
BRANCH  13  15
ATOM     15  C   UNL A   1      33.493  26.837  23.171  1.00  0.00     0.260 C 
ATOM     16  N   UNL A   1      33.149  27.069  24.474  1.00  0.00    -0.353 N 
ATOM     17  H   UNL A   1      33.563  27.865  24.876  1.00  0.00     0.163 HD
ATOM     18  O   UNL A   1      33.991  27.792  22.560  1.00  0.00    -0.271 OA
BRANCH  16  19
ATOM     19  C   UNL A   1      32.269  26.327  25.357  1.00  0.00     0.116 C 
BRANCH  19  20
ATOM     20  C   UNL A   1      32.945  25.200  26.126  1.00  0.00     0.024 C 
BRANCH  20  21
ATOM     21  C   UNL A   1      32.156  23.873  26.173  1.00  0.00    -0.016 C 
ATOM     22  C   UNL A   1      32.495  23.003  27.389  1.00  0.00     0.007 C 
ATOM     23  C   UNL A   1      30.657  24.185  26.181  1.00  0.00     0.007 C 
ENDBRANCH  20  21
ENDBRANCH  19  20
ENDBRANCH  16  19
ENDBRANCH  13  15
ENDBRANCH  12  13
ENDBRANCH   7  12
BRANCH  11  24
ATOM     24  N   UNL A   1      32.669  19.912  25.226  1.00  0.00    -0.399 N 
ATOM     25  H   UNL A   1      31.708  19.701  25.245  1.00  0.00     0.156 HD
ATOM     26  H   UNL A   1      33.299  19.390  25.773  1.00  0.00     0.156 HD
ENDBRANCH  11  24
ENDBRANCH   4   6
ENDBRANCH   3   4
ENDBRANCH   2   3
ENDBRANCH   1   2
BRANCH   1  27
ATOM     27  O   UNL A   1      40.202  22.823  26.201  1.00  0.00    -0.376 OA
BRANCH  27  28
ATOM     28  C   UNL A   1      41.406  22.074  26.126  1.00  0.00     0.188 C 
BRANCH  28  29
ATOM     29  C   UNL A   1      41.993  21.419  27.390  1.00  0.00     0.188 C 
BRANCH  29  30
ATOM     30  O   UNL A   1      41.553  20.096  27.601  1.00  0.00    -0.376 OA
BRANCH  30  31
ATOM     31  C   UNL A   1      41.490  19.221  26.490  1.00  0.00     0.202 C 
BRANCH  31  32
ATOM     32  C   UNL A   1      42.765  18.748  25.763  1.00  0.00     0.261 C 
BRANCH  32  33
ATOM     33  O   UNL A   1      43.210  19.507  24.629  1.00  0.00    -0.460 OA
BRANCH  33  34
ATOM     34  C   UNL A   1      44.544  19.624  24.444  1.00  0.00     0.338 C 
ATOM     35  O   UNL A   1      45.288  18.816  23.925  1.00  0.00    -0.246 OA
BRANCH  34  36
ATOM     36  C   UNL A   1      44.934  21.008  24.803  1.00  0.00     0.060 A 
ATOM     37  C   UNL A   1      45.337  21.272  26.118  1.00  0.00     0.016 A 
ATOM     38  C   UNL A   1      44.891  22.037  23.859  1.00  0.00     0.016 A 
ATOM     39  C   UNL A   1      45.661  22.576  26.502  1.00  0.00     0.010 A 
ATOM     40  C   UNL A   1      45.202  23.346  24.250  1.00  0.00     0.010 A 
ATOM     41  C   UNL A   1      45.554  23.628  25.582  1.00  0.00    -0.014 A 
BRANCH  41  42
ATOM     42  C   UNL A   1      45.645  25.031  26.062  1.00  0.00     0.031 A 
ATOM     43  C   UNL A   1      46.974  25.734  25.993  1.00  0.00     0.074 A 
ATOM     44  C   UNL A   1      44.561  25.688  26.512  1.00  0.00     0.049 A 
ATOM     45  N   UNL A   1      47.291  26.957  26.335  1.00  0.00    -0.248 NA
ATOM     46  C   UNL A   1      48.101  24.948  25.464  1.00  0.00     0.031 C 
ATOM     47  C   UNL A   1      43.213  25.132  26.605  1.00  0.00     0.029 A 
ATOM     48  N   UNL A   1      44.428  26.974  26.976  1.00  0.00    -0.354 N 
ATOM     49  C   UNL A   1      48.648  27.085  26.069  1.00  0.00     0.074 A 
ATOM     50  C   UNL A   1      49.104  25.807  25.569  1.00  0.00     0.031 C 
ATOM     51  C   UNL A   1      42.388  26.072  27.099  1.00  0.00     0.029 A 
ATOM     52  C   UNL A   1      43.154  27.285  27.382  1.00  0.00     0.049 A 
ATOM     53  H   UNL A   1      45.177  27.612  27.014  1.00  0.00     0.167 HD
ATOM     54  C   UNL A   1      49.443  28.173  26.216  1.00  0.00     0.037 A 
ATOM     55  C   UNL A   1      42.667  28.415  27.934  1.00  0.00     0.037 A 
ATOM     56  C   UNL A   1      48.991  29.446  26.717  1.00  0.00     0.049 A 
ATOM     57  C   UNL A   1      43.589  29.591  28.150  1.00  0.00     0.074 A 
ATOM     58  C   UNL A   1      49.712  30.615  26.876  1.00  0.00     0.029 A 
ATOM     59  N   UNL A   1      47.700  29.711  27.151  1.00  0.00    -0.354 N 
ATOM     60  N   UNL A   1      44.860  29.718  27.850  1.00  0.00    -0.248 NA
ATOM     61  C   UNL A   1      43.001  30.784  28.775  1.00  0.00     0.031 C 
ATOM     62  C   UNL A   1      48.876  31.570  27.465  1.00  0.00     0.029 A 
ATOM     63  C   UNL A   1      47.614  31.017  27.608  1.00  0.00     0.049 A 
ATOM     64  H   UNL A   1      46.956  29.066  27.138  1.00  0.00     0.167 HD
ATOM     65  C   UNL A   1      45.212  31.013  28.217  1.00  0.00     0.074 A 
ATOM     66  C   UNL A   1      44.016  31.635  28.744  1.00  0.00     0.031 C 
ATOM     67  C   UNL A   1      46.417  31.631  28.123  1.00  0.00     0.037 A 
BRANCH  54  68
ATOM     68  C   UNL A   1      50.894  28.027  25.858  1.00  0.00     0.064 A 
ATOM     69  C   UNL A   1      51.341  28.110  24.531  1.00  0.00     0.173 A 
ATOM     70  C   UNL A   1      51.856  27.838  26.862  1.00  0.00     0.173 A 
ATOM     71  F   UNL A   1      50.463  28.276  23.531  1.00  0.00    -0.203 F 
ATOM     72  C   UNL A   1      52.693  27.981  24.221  1.00  0.00     0.198 A 
ATOM     73  C   UNL A   1      53.210  27.743  26.552  1.00  0.00     0.198 A 
ATOM     74  F   UNL A   1      51.484  27.755  28.148  1.00  0.00    -0.203 F 
ATOM     75  F   UNL A   1      53.091  28.013  22.940  1.00  0.00    -0.200 F 
ATOM     76  C   UNL A   1      53.626  27.806  25.231  1.00  0.00     0.200 A 
ATOM     77  F   UNL A   1      54.111  27.588  27.531  1.00  0.00    -0.200 F 
ATOM     78  F   UNL A   1      54.927  27.692  24.931  1.00  0.00    -0.200 F 
ENDBRANCH  54  68
BRANCH  55  79
ATOM     79  C   UNL A   1      41.235  28.502  28.326  1.00  0.00     0.064 A 
ATOM     80  C   UNL A   1      40.806  28.103  29.600  1.00  0.00     0.173 A 
ATOM     81  C   UNL A   1      40.259  28.946  27.421  1.00  0.00     0.173 A 
ATOM     82  F   UNL A   1      41.698  27.645  30.492  1.00  0.00    -0.203 F 
ATOM     83  C   UNL A   1      39.456  28.120  29.945  1.00  0.00     0.198 A 
ATOM     84  C   UNL A   1      38.913  28.992  27.778  1.00  0.00     0.198 A 
ATOM     85  F   UNL A   1      40.613  29.334  26.187  1.00  0.00    -0.203 F 
ATOM     86  F   UNL A   1      39.071  27.675  31.149  1.00  0.00    -0.200 F 
ATOM     87  C   UNL A   1      38.511  28.570  29.036  1.00  0.00     0.200 A 
ATOM     88  F   UNL A   1      38.004  29.437  26.899  1.00  0.00    -0.200 F 
ATOM     89  F   UNL A   1      37.213  28.581  29.367  1.00  0.00    -0.200 F 
ENDBRANCH  55  79
BRANCH  67  90
ATOM     90  C   UNL A   1      46.491  33.070  28.555  1.00  0.00     0.064 A 
ATOM     91  C   UNL A   1      46.852  33.436  29.861  1.00  0.00     0.173 A 
ATOM     92  C   UNL A   1      46.215  34.098  27.641  1.00  0.00     0.173 A 
ATOM     93  F   UNL A   1      47.117  32.493  30.778  1.00  0.00    -0.203 F 
ATOM     94  C   UNL A   1      46.894  34.775  30.244  1.00  0.00     0.198 A 
ATOM     95  C   UNL A   1      46.294  35.437  28.018  1.00  0.00     0.198 A 
ATOM     96  F   UNL A   1      45.875  33.807  26.377  1.00  0.00    -0.203 F 
ATOM     97  F   UNL A   1      47.178  35.097  31.514  1.00  0.00    -0.200 F 
ATOM     98  C   UNL A   1      46.621  35.774  29.322  1.00  0.00     0.200 A 
ATOM     99  F   UNL A   1      46.047  36.400  27.120  1.00  0.00    -0.200 F 
ATOM    100  F   UNL A   1      46.663  37.060  29.694  1.00  0.00    -0.200 F 
ENDBRANCH  67  90
ENDBRANCH  41  42
ENDBRANCH  34  36
ENDBRANCH  33  34
ENDBRANCH  32  33
ENDBRANCH  31  32
ENDBRANCH  30  31
ENDBRANCH  29  30
ENDBRANCH  28  29
ENDBRANCH  27  28
ENDBRANCH   1  27
TORSDOF 24
ENDMDL
MODEL 2
REMARK VINA RESULT:      -9.6      1.245      2.644
REMARK SMILES CC(C)CCNC(=O)[C@@H](C)Oc1ccc(N)cc1C(=O)OCCOCCOCCOC(=O)c1ccc(-c2c3nc(c(-c4c(F)c(F)c(F)c(F)c4F)c4ccc([nH]4)c(-c4c(F)c(F)c(F)c(F)c4F)c4nc(c(-c5c(F)c(F)c(F)c(F)c5F)c5ccc2[nH]5)C=C4)C=C3)cc1
REMARK SMILES IDX 23 1 22 2 21 3 19 4 20 5 18 6 12 7 13 8 14 9 17 10 15 11
REMARK SMILES IDX 11 12 9 13 10 14 7 15 6 16 8 18 5 19 4 20 2 21 1 22 3 23
REMARK SMILES IDX 16 24 24 27 25 28 26 29 27 30 28 31 29 32 30 33 31 34 32 35
REMARK SMILES IDX 33 36 34 37 95 38 35 39 94 40 36 41 37 42 38 43 88 44 39 45
REMARK SMILES IDX 93 46 87 47 89 48 40 49 92 50 86 51 85 52 41 54 73 55 53 56
REMARK SMILES IDX 72 57 54 58 57 59 71 60 90 61 55 62 56 63 70 65 91 66 58 67
REMARK SMILES IDX 42 68 43 69 51 70 44 71 45 72 49 73 52 74 46 75 47 76 50 77
REMARK SMILES IDX 48 78 74 79 75 80 83 81 76 82 77 83 81 84 84 85 78 86 79 87
REMARK SMILES IDX 82 88 80 89 59 90 60 91 68 92 61 93 62 94 66 95 69 96 63 97
REMARK SMILES IDX 64 98 67 99 65 100
REMARK H PARENT 6 17 16 25 16 26 89 53 57 64
REMARK Flexibility Score: inf
ROOT
ATOM      1  C   UNL A   1      37.834  20.858  24.977  1.00  0.00     0.202 C 
ENDROOT
BRANCH   1   2
ATOM      2  C   UNL A   1      37.144  21.901  24.080  1.00  0.00     0.261 C 
BRANCH   2   3
ATOM      3  O   UNL A   1      35.755  22.147  24.352  1.00  0.00    -0.460 OA
BRANCH   3   4
ATOM      4  C   UNL A   1      35.477  23.399  24.782  1.00  0.00     0.342 C 
ATOM      5  O   UNL A   1      36.242  24.140  25.384  1.00  0.00    -0.246 OA
BRANCH   4   6
ATOM      6  C   UNL A   1      34.182  23.904  24.275  1.00  0.00     0.104 A 
ATOM      7  C   UNL A   1      33.207  24.518  25.064  1.00  0.00     0.135 A 
ATOM      8  C   UNL A   1      32.320  25.368  24.415  1.00  0.00     0.049 A 
ATOM      9  C   UNL A   1      32.183  25.333  23.019  1.00  0.00     0.029 A 
ATOM     10  C   UNL A   1      34.020  23.846  22.875  1.00  0.00     0.045 A 
ATOM     11  C   UNL A   1      32.942  24.459  22.253  1.00  0.00     0.032 A 
BRANCH   7  12
ATOM     12  O   UNL A   1      33.204  24.390  26.418  1.00  0.00    -0.480 OA
BRANCH  12  13
ATOM     13  C   UNL A   1      32.484  23.293  27.006  1.00  0.00     0.258 C 
ATOM     14  C   UNL A   1      33.375  22.383  27.860  1.00  0.00     0.064 C 
BRANCH  13  15
ATOM     15  C   UNL A   1      31.327  22.495  26.314  1.00  0.00     0.260 C 
ATOM     16  N   UNL A   1      31.503  21.305  25.663  1.00  0.00    -0.353 N 
ATOM     17  H   UNL A   1      30.680  20.786  25.521  1.00  0.00     0.163 HD
ATOM     18  O   UNL A   1      30.170  22.932  26.348  1.00  0.00    -0.271 OA
BRANCH  16  19
ATOM     19  C   UNL A   1      32.710  20.688  25.148  1.00  0.00     0.116 C 
BRANCH  19  20
ATOM     20  C   UNL A   1      32.514  19.873  23.876  1.00  0.00     0.024 C 
BRANCH  20  21
ATOM     21  C   UNL A   1      32.372  18.350  24.088  1.00  0.00    -0.016 C 
ATOM     22  C   UNL A   1      33.221  17.517  23.121  1.00  0.00     0.007 C 
ATOM     23  C   UNL A   1      32.766  18.009  25.526  1.00  0.00     0.007 C 
ENDBRANCH  20  21
ENDBRANCH  19  20
ENDBRANCH  16  19
ENDBRANCH  13  15
ENDBRANCH  12  13
ENDBRANCH   7  12
BRANCH  11  24
ATOM     24  N   UNL A   1      32.733  24.338  20.891  1.00  0.00    -0.399 N 
ATOM     25  H   UNL A   1      33.474  24.499  20.264  1.00  0.00     0.156 HD
ATOM     26  H   UNL A   1      31.844  24.090  20.551  1.00  0.00     0.156 HD
ENDBRANCH  11  24
ENDBRANCH   4   6
ENDBRANCH   3   4
ENDBRANCH   2   3
ENDBRANCH   1   2
BRANCH   1  27
ATOM     27  O   UNL A   1      38.540  21.245  26.151  1.00  0.00    -0.376 OA
BRANCH  27  28
ATOM     28  C   UNL A   1      39.881  21.707  26.061  1.00  0.00     0.188 C 
BRANCH  28  29
ATOM     29  C   UNL A   1      40.765  21.769  27.321  1.00  0.00     0.188 C 
BRANCH  29  30
ATOM     30  O   UNL A   1      41.979  21.062  27.197  1.00  0.00    -0.376 OA
BRANCH  30  31
ATOM     31  C   UNL A   1      41.938  19.647  27.187  1.00  0.00     0.202 C 
BRANCH  31  32
ATOM     32  C   UNL A   1      42.600  18.830  26.059  1.00  0.00     0.261 C 
BRANCH  32  33
ATOM     33  O   UNL A   1      42.940  19.518  24.846  1.00  0.00    -0.460 OA
BRANCH  33  34
ATOM     34  C   UNL A   1      44.253  19.658  24.557  1.00  0.00     0.338 C 
ATOM     35  O   UNL A   1      44.968  18.863  23.979  1.00  0.00    -0.246 OA
BRANCH  34  36
ATOM     36  C   UNL A   1      44.647  21.047  24.889  1.00  0.00     0.060 A 
ATOM     37  C   UNL A   1      45.300  21.288  26.104  1.00  0.00     0.016 A 
ATOM     38  C   UNL A   1      44.366  22.104  24.018  1.00  0.00     0.016 A 
ATOM     39  C   UNL A   1      45.638  22.593  26.470  1.00  0.00     0.010 A 
ATOM     40  C   UNL A   1      44.692  23.413  24.394  1.00  0.00     0.010 A 
ATOM     41  C   UNL A   1      45.298  23.668  25.637  1.00  0.00    -0.014 A 
BRANCH  41  42
ATOM     42  C   UNL A   1      45.423  25.058  26.149  1.00  0.00     0.031 A 
ATOM     43  C   UNL A   1      46.765  25.737  26.071  1.00  0.00     0.074 A 
ATOM     44  C   UNL A   1      44.361  25.723  26.634  1.00  0.00     0.049 A 
ATOM     45  N   UNL A   1      47.110  26.946  26.437  1.00  0.00    -0.248 NA
ATOM     46  C   UNL A   1      47.867  24.945  25.503  1.00  0.00     0.031 C 
ATOM     47  C   UNL A   1      43.005  25.189  26.739  1.00  0.00     0.029 A 
ATOM     48  N   UNL A   1      44.260  27.000  27.132  1.00  0.00    -0.354 N 
ATOM     49  C   UNL A   1      48.464  27.056  26.148  1.00  0.00     0.074 A 
ATOM     50  C   UNL A   1      48.887  25.782  25.610  1.00  0.00     0.031 C 
ATOM     51  C   UNL A   1      42.206  26.132  27.271  1.00  0.00     0.029 A 
ATOM     52  C   UNL A   1      43.000  27.323  27.568  1.00  0.00     0.049 A 
ATOM     53  H   UNL A   1      45.021  27.623  27.171  1.00  0.00     0.167 HD
ATOM     54  C   UNL A   1      49.282  28.126  26.307  1.00  0.00     0.037 A 
ATOM     55  C   UNL A   1      42.544  28.449  28.156  1.00  0.00     0.037 A 
ATOM     56  C   UNL A   1      48.863  29.394  26.846  1.00  0.00     0.049 A 
ATOM     57  C   UNL A   1      43.492  29.602  28.383  1.00  0.00     0.074 A 
ATOM     58  C   UNL A   1      49.609  30.546  27.020  1.00  0.00     0.029 A 
ATOM     59  N   UNL A   1      47.585  29.672  27.311  1.00  0.00    -0.354 N 
ATOM     60  N   UNL A   1      44.759  29.714  28.062  1.00  0.00    -0.248 NA
ATOM     61  C   UNL A   1      42.938  30.791  29.047  1.00  0.00     0.031 C 
ATOM     62  C   UNL A   1      48.801  31.501  27.647  1.00  0.00     0.029 A 
ATOM     63  C   UNL A   1      47.532  30.968  27.800  1.00  0.00     0.049 A 
ATOM     64  H   UNL A   1      46.829  29.041  27.295  1.00  0.00     0.167 HD
ATOM     65  C   UNL A   1      45.142  30.992  28.453  1.00  0.00     0.074 A 
ATOM     66  C   UNL A   1      43.968  31.624  29.017  1.00  0.00     0.031 C 
ATOM     67  C   UNL A   1      46.356  31.590  28.352  1.00  0.00     0.037 A 
BRANCH  54  68
ATOM     68  C   UNL A   1      50.723  27.962  25.918  1.00  0.00     0.064 A 
ATOM     69  C   UNL A   1      51.721  27.698  26.869  1.00  0.00     0.173 A 
ATOM     70  C   UNL A   1      51.106  28.035  24.571  1.00  0.00     0.173 A 
ATOM     71  F   UNL A   1      51.412  27.631  28.172  1.00  0.00    -0.203 F 
ATOM     72  C   UNL A   1      53.051  27.539  26.486  1.00  0.00     0.198 A 
ATOM     73  C   UNL A   1      52.431  27.844  24.188  1.00  0.00     0.198 A 
ATOM     74  F   UNL A   1      50.192  28.282  23.620  1.00  0.00    -0.203 F 
ATOM     75  F   UNL A   1      53.995  27.337  27.417  1.00  0.00    -0.200 F 
ATOM     76  C   UNL A   1      53.403  27.604  25.147  1.00  0.00     0.200 A 
ATOM     77  F   UNL A   1      52.766  27.893  22.892  1.00  0.00    -0.200 F 
ATOM     78  F   UNL A   1      54.682  27.443  24.780  1.00  0.00    -0.200 F 
ENDBRANCH  54  68
BRANCH  55  79
ATOM     79  C   UNL A   1      41.121  28.553  28.576  1.00  0.00     0.064 A 
ATOM     80  C   UNL A   1      40.713  28.151  29.856  1.00  0.00     0.173 A 
ATOM     81  C   UNL A   1      40.134  29.015  27.694  1.00  0.00     0.173 A 
ATOM     82  F   UNL A   1      41.615  27.675  30.728  1.00  0.00    -0.203 F 
ATOM     83  C   UNL A   1      39.370  28.184  30.228  1.00  0.00     0.198 A 
ATOM     84  C   UNL A   1      38.795  29.077  28.078  1.00  0.00     0.198 A 
ATOM     85  F   UNL A   1      40.469  29.406  26.456  1.00  0.00    -0.203 F 
ATOM     86  F   UNL A   1      39.002  27.736  31.437  1.00  0.00    -0.200 F 
ATOM     87  C   UNL A   1      38.413  28.651  29.341  1.00  0.00     0.200 A 
ATOM     88  F   UNL A   1      37.875  29.540  27.220  1.00  0.00    -0.200 F 
ATOM     89  F   UNL A   1      37.122  28.678  29.697  1.00  0.00    -0.200 F 
ENDBRANCH  55  79
BRANCH  67  90
ATOM     90  C   UNL A   1      46.465  33.017  28.816  1.00  0.00     0.064 A 
ATOM     91  C   UNL A   1      46.895  33.346  30.111  1.00  0.00     0.173 A 
ATOM     92  C   UNL A   1      46.152  34.071  27.945  1.00  0.00     0.173 A 
ATOM     93  F   UNL A   1      47.196  32.378  30.989  1.00  0.00    -0.203 F 
ATOM     94  C   UNL A   1      46.968  34.674  30.527  1.00  0.00     0.198 A 
ATOM     95  C   UNL A   1      46.262  35.399  28.352  1.00  0.00     0.198 A 
ATOM     96  F   UNL A   1      45.746  33.816  26.692  1.00  0.00    -0.203 F 
ATOM     97  F   UNL A   1      47.318  34.960  31.788  1.00  0.00    -0.200 F 
ATOM     98  C   UNL A   1      46.657  35.699  29.645  1.00  0.00     0.200 A 
ATOM     99  F   UNL A   1      45.979  36.387  27.492  1.00  0.00    -0.200 F 
ATOM    100  F   UNL A   1      46.730  36.975  30.048  1.00  0.00    -0.200 F 
ENDBRANCH  67  90
ENDBRANCH  41  42
ENDBRANCH  34  36
ENDBRANCH  33  34
ENDBRANCH  32  33
ENDBRANCH  31  32
ENDBRANCH  30  31
ENDBRANCH  29  30
ENDBRANCH  28  29
ENDBRANCH  27  28
ENDBRANCH   1  27
TORSDOF 24
ENDMDL
MODEL 3
REMARK VINA RESULT:      -9.5      5.099      9.524
REMARK SMILES CC(C)CCNC(=O)[C@@H](C)Oc1ccc(N)cc1C(=O)OCCOCCOCCOC(=O)c1ccc(-c2c3nc(c(-c4c(F)c(F)c(F)c(F)c4F)c4ccc([nH]4)c(-c4c(F)c(F)c(F)c(F)c4F)c4nc(c(-c5c(F)c(F)c(F)c(F)c5F)c5ccc2[nH]5)C=C4)C=C3)cc1
REMARK SMILES IDX 23 1 22 2 21 3 19 4 20 5 18 6 12 7 13 8 14 9 17 10 15 11
REMARK SMILES IDX 11 12 9 13 10 14 7 15 6 16 8 18 5 19 4 20 2 21 1 22 3 23
REMARK SMILES IDX 16 24 24 27 25 28 26 29 27 30 28 31 29 32 30 33 31 34 32 35
REMARK SMILES IDX 33 36 34 37 95 38 35 39 94 40 36 41 37 42 38 43 88 44 39 45
REMARK SMILES IDX 93 46 87 47 89 48 40 49 92 50 86 51 85 52 41 54 73 55 53 56
REMARK SMILES IDX 72 57 54 58 57 59 71 60 90 61 55 62 56 63 70 65 91 66 58 67
REMARK SMILES IDX 42 68 43 69 51 70 44 71 45 72 49 73 52 74 46 75 47 76 50 77
REMARK SMILES IDX 48 78 74 79 75 80 83 81 76 82 77 83 81 84 84 85 78 86 79 87
REMARK SMILES IDX 82 88 80 89 59 90 60 91 68 92 61 93 62 94 66 95 69 96 63 97
REMARK SMILES IDX 64 98 67 99 65 100
REMARK H PARENT 6 17 16 25 16 26 89 53 57 64
REMARK Flexibility Score: inf
ROOT
ATOM      1  C   UNL A   1      39.263  21.873  26.238  1.00  0.00     0.202 C 
ENDROOT
BRANCH   1   2
ATOM      2  C   UNL A   1      38.261  21.315  25.210  1.00  0.00     0.261 C 
BRANCH   2   3
ATOM      3  O   UNL A   1      36.871  21.515  25.511  1.00  0.00    -0.460 OA
BRANCH   3   4
ATOM      4  C   UNL A   1      36.124  21.946  24.469  1.00  0.00     0.342 C 
ATOM      5  O   UNL A   1      36.549  22.455  23.441  1.00  0.00    -0.246 OA
BRANCH   4   6
ATOM      6  C   UNL A   1      34.701  21.559  24.585  1.00  0.00     0.104 A 
ATOM      7  C   UNL A   1      33.672  22.078  23.797  1.00  0.00     0.135 A 
ATOM      8  C   UNL A   1      32.534  21.291  23.658  1.00  0.00     0.049 A 
ATOM      9  C   UNL A   1      32.287  20.223  24.533  1.00  0.00     0.029 A 
ATOM     10  C   UNL A   1      34.436  20.505  25.486  1.00  0.00     0.045 A 
ATOM     11  C   UNL A   1      33.181  19.917  25.549  1.00  0.00     0.032 A 
BRANCH   7  12
ATOM     12  O   UNL A   1      33.824  23.234  23.099  1.00  0.00    -0.480 OA
BRANCH  12  13
ATOM     13  C   UNL A   1      33.368  24.462  23.690  1.00  0.00     0.258 C 
ATOM     14  C   UNL A   1      33.668  25.691  22.823  1.00  0.00     0.064 C 
BRANCH  13  15
ATOM     15  C   UNL A   1      33.411  24.802  25.219  1.00  0.00     0.260 C 
ATOM     16  N   UNL A   1      32.300  25.009  25.987  1.00  0.00    -0.353 N 
ATOM     17  H   UNL A   1      32.447  24.938  26.957  1.00  0.00     0.163 HD
ATOM     18  O   UNL A   1      34.500  24.885  25.802  1.00  0.00    -0.271 OA
BRANCH  16  19
ATOM     19  C   UNL A   1      30.936  25.316  25.599  1.00  0.00     0.116 C 
BRANCH  19  20
ATOM     20  C   UNL A   1      30.757  26.671  24.926  1.00  0.00     0.024 C 
BRANCH  20  21
ATOM     21  C   UNL A   1      29.907  26.657  23.637  1.00  0.00    -0.016 C 
ATOM     22  C   UNL A   1      28.398  26.601  23.901  1.00  0.00     0.007 C 
ATOM     23  C   UNL A   1      30.228  27.907  22.815  1.00  0.00     0.007 C 
ENDBRANCH  20  21
ENDBRANCH  19  20
ENDBRANCH  16  19
ENDBRANCH  13  15
ENDBRANCH  12  13
ENDBRANCH   7  12
BRANCH  11  24
ATOM     24  N   UNL A   1      32.892  18.940  26.484  1.00  0.00    -0.399 N 
ATOM     25  H   UNL A   1      32.544  18.067  26.192  1.00  0.00     0.156 HD
ATOM     26  H   UNL A   1      33.033  19.119  27.442  1.00  0.00     0.156 HD
ENDBRANCH  11  24
ENDBRANCH   4   6
ENDBRANCH   3   4
ENDBRANCH   2   3
ENDBRANCH   1   2
BRANCH   1  27
ATOM     27  O   UNL A   1      40.123  21.012  26.974  1.00  0.00    -0.376 OA
BRANCH  27  28
ATOM     28  C   UNL A   1      40.766  19.921  26.332  1.00  0.00     0.188 C 
BRANCH  28  29
ATOM     29  C   UNL A   1      42.297  19.766  26.412  1.00  0.00     0.188 C 
BRANCH  29  30
ATOM     30  O   UNL A   1      42.983  20.331  25.318  1.00  0.00    -0.376 OA
BRANCH  30  31
ATOM     31  C   UNL A   1      43.545  21.622  25.467  1.00  0.00     0.202 C 
BRANCH  31  32
ATOM     32  C   UNL A   1      42.676  22.893  25.389  1.00  0.00     0.261 C 
BRANCH  32  33
ATOM     33  O   UNL A   1      43.187  24.009  24.644  1.00  0.00    -0.460 OA
BRANCH  33  34
ATOM     34  C   UNL A   1      44.119  24.784  25.244  1.00  0.00     0.338 C 
ATOM     35  O   UNL A   1      45.279  24.928  24.914  1.00  0.00    -0.246 OA
BRANCH  34  36
ATOM     36  C   UNL A   1      43.436  25.600  26.276  1.00  0.00     0.060 A 
ATOM     37  C   UNL A   1      43.757  26.959  26.378  1.00  0.00     0.016 A 
ATOM     38  C   UNL A   1      42.498  25.030  27.140  1.00  0.00     0.016 A 
ATOM     39  C   UNL A   1      43.170  27.743  27.373  1.00  0.00     0.010 A 
ATOM     40  C   UNL A   1      41.921  25.815  28.147  1.00  0.00     0.010 A 
ATOM     41  C   UNL A   1      42.281  27.167  28.291  1.00  0.00    -0.014 A 
BRANCH  41  42
ATOM     42  C   UNL A   1      41.868  27.938  29.492  1.00  0.00     0.031 A 
ATOM     43  C   UNL A   1      40.611  28.763  29.425  1.00  0.00     0.074 A 
ATOM     44  C   UNL A   1      42.570  27.877  30.638  1.00  0.00     0.049 A 
ATOM     45  N   UNL A   1      40.046  29.501  30.347  1.00  0.00    -0.248 NA
ATOM     46  C   UNL A   1      39.892  28.754  28.141  1.00  0.00     0.031 C 
ATOM     47  C   UNL A   1      43.788  27.096  30.843  1.00  0.00     0.029 A 
ATOM     48  N   UNL A   1      42.353  28.487  31.849  1.00  0.00    -0.354 N 
ATOM     49  C   UNL A   1      38.914  30.045  29.755  1.00  0.00     0.074 A 
ATOM     50  C   UNL A   1      38.888  29.581  28.385  1.00  0.00     0.031 C 
ATOM     51  C   UNL A   1      44.212  27.276  32.106  1.00  0.00     0.029 A 
ATOM     52  C   UNL A   1      43.313  28.205  32.789  1.00  0.00     0.049 A 
ATOM     53  H   UNL A   1      41.581  29.071  32.027  1.00  0.00     0.167 HD
ATOM     54  C   UNL A   1      37.972  30.850  30.305  1.00  0.00     0.037 A 
ATOM     55  C   UNL A   1      43.457  28.659  34.050  1.00  0.00     0.037 A 
ATOM     56  C   UNL A   1      37.998  31.315  31.668  1.00  0.00     0.049 A 
ATOM     57  C   UNL A   1      42.429  29.608  34.618  1.00  0.00     0.074 A 
ATOM     58  C   UNL A   1      37.076  32.110  32.326  1.00  0.00     0.029 A 
ATOM     59  N   UNL A   1      39.007  31.037  32.579  1.00  0.00    -0.354 N 
ATOM     60  N   UNL A   1      41.336  30.078  34.066  1.00  0.00    -0.248 NA
ATOM     61  C   UNL A   1      42.656  30.083  35.991  1.00  0.00     0.031 C 
ATOM     62  C   UNL A   1      37.557  32.364  33.615  1.00  0.00     0.029 A 
ATOM     63  C   UNL A   1      38.745  31.670  33.783  1.00  0.00     0.049 A 
ATOM     64  H   UNL A   1      39.793  30.472  32.396  1.00  0.00     0.167 HD
ATOM     65  C   UNL A   1      40.729  30.872  35.033  1.00  0.00     0.074 A 
ATOM     66  C   UNL A   1      41.567  30.804  36.212  1.00  0.00     0.031 C 
ATOM     67  C   UNL A   1      39.581  31.590  34.954  1.00  0.00     0.037 A 
BRANCH  54  68
ATOM     68  C   UNL A   1      36.845  31.305  29.423  1.00  0.00     0.064 A 
ATOM     69  C   UNL A   1      35.806  30.442  29.044  1.00  0.00     0.173 A 
ATOM     70  C   UNL A   1      36.786  32.634  28.978  1.00  0.00     0.173 A 
ATOM     71  F   UNL A   1      35.820  29.157  29.429  1.00  0.00    -0.203 F 
ATOM     72  C   UNL A   1      34.765  30.886  28.233  1.00  0.00     0.198 A 
ATOM     73  C   UNL A   1      35.726  33.084  28.195  1.00  0.00     0.198 A 
ATOM     74  F   UNL A   1      37.751  33.503  29.313  1.00  0.00    -0.203 F 
ATOM     75  F   UNL A   1      33.809  30.030  27.843  1.00  0.00    -0.200 F 
ATOM     76  C   UNL A   1      34.721  32.207  27.816  1.00  0.00     0.200 A 
ATOM     77  F   UNL A   1      35.680  34.365  27.804  1.00  0.00    -0.200 F 
ATOM     78  F   UNL A   1      33.714  32.635  27.042  1.00  0.00    -0.200 F 
ENDBRANCH  54  68
BRANCH  55  79
ATOM     79  C   UNL A   1      44.617  28.227  34.876  1.00  0.00     0.064 A 
ATOM     80  C   UNL A   1      44.532  27.107  35.715  1.00  0.00     0.173 A 
ATOM     81  C   UNL A   1      45.819  28.950  34.876  1.00  0.00     0.173 A 
ATOM     82  F   UNL A   1      43.394  26.398  35.771  1.00  0.00    -0.203 F 
ATOM     83  C   UNL A   1      45.594  26.741  36.540  1.00  0.00     0.198 A 
ATOM     84  C   UNL A   1      46.892  28.565  35.678  1.00  0.00     0.198 A 
ATOM     85  F   UNL A   1      45.952  30.033  34.097  1.00  0.00    -0.203 F 
ATOM     86  F   UNL A   1      45.462  25.702  37.376  1.00  0.00    -0.200 F 
ATOM     87  C   UNL A   1      46.775  27.467  36.517  1.00  0.00     0.200 A 
ATOM     88  F   UNL A   1      48.035  29.264  35.645  1.00  0.00    -0.200 F 
ATOM     89  F   UNL A   1      47.794  27.118  37.314  1.00  0.00    -0.200 F 
ENDBRANCH  55  79
BRANCH  67  90
ATOM     90  C   UNL A   1      39.135  32.322  36.190  1.00  0.00     0.064 A 
ATOM     91  C   UNL A   1      38.267  31.739  37.127  1.00  0.00     0.173 A 
ATOM     92  C   UNL A   1      39.601  33.621  36.451  1.00  0.00     0.173 A 
ATOM     93  F   UNL A   1      37.784  30.505  36.922  1.00  0.00    -0.203 F 
ATOM     94  C   UNL A   1      37.851  32.444  38.254  1.00  0.00     0.198 A 
ATOM     95  C   UNL A   1      39.212  34.308  37.599  1.00  0.00     0.198 A 
ATOM     96  F   UNL A   1      40.441  34.223  35.597  1.00  0.00    -0.203 F 
ATOM     97  F   UNL A   1      36.971  31.890  39.100  1.00  0.00    -0.200 F 
ATOM     98  C   UNL A   1      38.328  33.724  38.493  1.00  0.00     0.200 A 
ATOM     99  F   UNL A   1      39.689  35.537  37.835  1.00  0.00    -0.200 F 
ATOM    100  F   UNL A   1      37.927  34.399  39.579  1.00  0.00    -0.200 F 
ENDBRANCH  67  90
ENDBRANCH  41  42
ENDBRANCH  34  36
ENDBRANCH  33  34
ENDBRANCH  32  33
ENDBRANCH  31  32
ENDBRANCH  30  31
ENDBRANCH  29  30
ENDBRANCH  28  29
ENDBRANCH  27  28
ENDBRANCH   1  27
TORSDOF 24
ENDMDL
