MODEL 1
REMARK VINA RESULT:     -12.2      0.000      0.000
REMARK SMILES O=C(OCCOCCOCCOC(=O)C1CCN(C2=[NH+]C(Cl)=[NH+]C3=[NH+]C=N[C@@H]32)CC1)c1ccc(-c2c3nc(c(-c4c(F)c(F)c(F)c(F)c4F)c4ccc([nH]4)c(-c4c(F)c(F)c(F)c(F)c4F)c4nc(c(-c5c(F)c(F)c(F)c(F)c5F)c5ccc2[nH]5)C=C4)C=C3)cc1
REMARK SMILES IDX 7 1 6 2 5 3 4 4 3 5 2 6 1 7 31 8 32 9 93 10 33 11 92 12
REMARK SMILES IDX 34 13 35 14 36 15 86 16 37 17 91 18 85 19 87 20 38 21 90 22
REMARK SMILES IDX 84 23 83 24 39 26 71 27 51 28 70 29 52 30 55 31 69 32 88 33
REMARK SMILES IDX 53 34 54 35 68 37 89 38 56 39 40 40 41 41 49 42 42 43 43 44
REMARK SMILES IDX 47 45 50 46 44 47 45 48 48 49 46 50 72 51 73 52 81 53 74 54
REMARK SMILES IDX 75 55 79 56 82 57 76 58 77 59 80 60 78 61 57 62 58 63 66 64
REMARK SMILES IDX 59 65 60 66 64 67 67 68 61 69 62 70 65 71 63 72 8 73 9 74
REMARK SMILES IDX 10 75 11 76 12 77 13 78 14 79 15 80 16 81 30 82 17 83 29 84
REMARK SMILES IDX 18 85 19 86 20 87 28 88 21 89 24 91 27 92 22 93 23 94 25 95
REMARK SMILES IDX 26 96
REMARK H PARENT 87 25 55 36 20 90 23 97 25 98
REMARK Flexibility Score: inf
ROOT
ATOM      1  C   UNL A   1      43.708  18.597  25.055  1.00  0.00     0.188 C 
ENDROOT
BRANCH   1   2
ATOM      2  O   UNL A   1      44.901  18.077  25.591  1.00  0.00    -0.376 OA
BRANCH   2   3
ATOM      3  C   UNL A   1      46.091  18.834  25.641  1.00  0.00     0.202 C 
BRANCH   3   4
ATOM      4  C   UNL A   1      46.499  19.795  24.520  1.00  0.00     0.261 C 
BRANCH   4   5
ATOM      5  O   UNL A   1      46.096  21.159  24.647  1.00  0.00    -0.460 OA
BRANCH   5   6
ATOM      6  C   UNL A   1      44.936  21.756  24.318  1.00  0.00     0.338 C 
ATOM      7  O   UNL A   1      44.529  21.686  23.160  1.00  0.00    -0.246 OA
BRANCH   6   8
ATOM      8  C   UNL A   1      44.218  22.676  25.233  1.00  0.00     0.060 A 
ATOM      9  C   UNL A   1      43.055  23.380  24.924  1.00  0.00     0.016 A 
ATOM     10  C   UNL A   1      44.858  22.895  26.473  1.00  0.00     0.016 A 
ATOM     11  C   UNL A   1      42.668  24.432  25.735  1.00  0.00     0.010 A 
ATOM     12  C   UNL A   1      44.464  23.932  27.292  1.00  0.00     0.010 A 
ATOM     13  C   UNL A   1      43.447  24.761  26.844  1.00  0.00    -0.014 A 
BRANCH  13  14
ATOM     14  C   UNL A   1      43.239  26.074  27.427  1.00  0.00     0.031 A 
ATOM     15  C   UNL A   1      44.260  27.088  27.081  1.00  0.00     0.074 A 
ATOM     16  C   UNL A   1      42.183  26.296  28.236  1.00  0.00     0.049 A 
ATOM     17  N   UNL A   1      45.096  27.677  27.871  1.00  0.00    -0.248 NA
ATOM     18  C   UNL A   1      44.464  27.382  25.656  1.00  0.00     0.031 C 
ATOM     19  C   UNL A   1      41.017  25.436  28.473  1.00  0.00     0.029 A 
ATOM     20  N   UNL A   1      41.894  27.401  28.972  1.00  0.00    -0.354 N 
ATOM     21  C   UNL A   1      45.813  28.562  27.069  1.00  0.00     0.074 A 
ATOM     22  C   UNL A   1      45.496  28.226  25.706  1.00  0.00     0.031 C 
ATOM     23  C   UNL A   1      40.053  26.148  29.095  1.00  0.00     0.029 A 
ATOM     24  C   UNL A   1      40.583  27.457  29.425  1.00  0.00     0.049 A 
ATOM     25  H   UNL A   1      42.557  28.102  29.168  1.00  0.00     0.167 HD
ATOM     26  C   UNL A   1      46.418  29.660  27.600  1.00  0.00     0.037 A 
ATOM     27  C   UNL A   1      39.969  28.549  29.942  1.00  0.00     0.037 A 
ATOM     28  C   UNL A   1      46.666  29.491  29.010  1.00  0.00     0.049 A 
ATOM     29  C   UNL A   1      41.036  29.475  30.405  1.00  0.00     0.074 A 
ATOM     30  C   UNL A   1      47.415  28.608  29.763  1.00  0.00     0.029 A 
ATOM     31  N   UNL A   1      45.820  30.105  29.901  1.00  0.00    -0.354 N 
ATOM     32  N   UNL A   1      41.824  29.219  31.415  1.00  0.00    -0.248 NA
ATOM     33  C   UNL A   1      41.543  30.452  29.451  1.00  0.00     0.031 C 
ATOM     34  C   UNL A   1      46.648  28.382  30.944  1.00  0.00     0.029 A 
ATOM     35  C   UNL A   1      45.507  29.180  30.863  1.00  0.00     0.049 A 
ATOM     36  H   UNL A   1      45.500  31.034  29.858  1.00  0.00     0.167 HD
ATOM     37  C   UNL A   1      43.074  29.669  31.014  1.00  0.00     0.074 A 
ATOM     38  C   UNL A   1      42.825  30.481  29.824  1.00  0.00     0.031 C 
ATOM     39  C   UNL A   1      44.218  29.108  31.506  1.00  0.00     0.037 A 
BRANCH  26  40
ATOM     40  C   UNL A   1      46.413  31.017  26.935  1.00  0.00     0.064 A 
ATOM     41  C   UNL A   1      47.613  31.754  26.878  1.00  0.00     0.173 A 
ATOM     42  C   UNL A   1      45.239  31.750  26.651  1.00  0.00     0.173 A 
ATOM     43  F   UNL A   1      48.791  31.162  27.129  1.00  0.00    -0.203 F 
ATOM     44  C   UNL A   1      47.622  33.135  26.665  1.00  0.00     0.198 A 
ATOM     45  C   UNL A   1      45.257  33.118  26.389  1.00  0.00     0.198 A 
ATOM     46  F   UNL A   1      44.018  31.209  26.724  1.00  0.00    -0.203 F 
ATOM     47  F   UNL A   1      48.773  33.814  26.760  1.00  0.00    -0.200 F 
ATOM     48  C   UNL A   1      46.443  33.818  26.435  1.00  0.00     0.200 A 
ATOM     49  F   UNL A   1      44.100  33.762  26.180  1.00  0.00    -0.200 F 
ATOM     50  F   UNL A   1      46.439  35.151  26.307  1.00  0.00    -0.200 F 
ENDBRANCH  26  40
BRANCH  27  51
ATOM     51  C   UNL A   1      38.574  28.980  29.688  1.00  0.00     0.064 A 
ATOM     52  C   UNL A   1      37.733  29.384  30.735  1.00  0.00     0.173 A 
ATOM     53  C   UNL A   1      38.119  29.253  28.381  1.00  0.00     0.173 A 
ATOM     54  F   UNL A   1      38.114  29.210  32.009  1.00  0.00    -0.203 F 
ATOM     55  C   UNL A   1      36.516  30.032  30.490  1.00  0.00     0.198 A 
ATOM     56  C   UNL A   1      36.904  29.890  28.136  1.00  0.00     0.198 A 
ATOM     57  F   UNL A   1      38.889  28.992  27.314  1.00  0.00    -0.203 F 
ATOM     58  F   UNL A   1      35.764  30.454  31.516  1.00  0.00    -0.200 F 
ATOM     59  C   UNL A   1      36.107  30.290  29.191  1.00  0.00     0.200 A 
ATOM     60  F   UNL A   1      36.541  30.168  26.876  1.00  0.00    -0.200 F 
ATOM     61  F   UNL A   1      34.970  30.960  28.957  1.00  0.00    -0.200 F 
ENDBRANCH  27  51
BRANCH  39  62
ATOM     62  C   UNL A   1      44.083  28.149  32.654  1.00  0.00     0.064 A 
ATOM     63  C   UNL A   1      43.930  26.761  32.491  1.00  0.00     0.173 A 
ATOM     64  C   UNL A   1      44.263  28.628  33.956  1.00  0.00     0.173 A 
ATOM     65  F   UNL A   1      43.866  26.215  31.270  1.00  0.00    -0.203 F 
ATOM     66  C   UNL A   1      43.909  25.900  33.588  1.00  0.00     0.198 A 
ATOM     67  C   UNL A   1      44.277  27.764  35.048  1.00  0.00     0.198 A 
ATOM     68  F   UNL A   1      44.478  29.936  34.167  1.00  0.00    -0.203 F 
ATOM     69  F   UNL A   1      43.756  24.581  33.405  1.00  0.00    -0.200 F 
ATOM     70  C   UNL A   1      44.089  26.403  34.865  1.00  0.00     0.200 A 
ATOM     71  F   UNL A   1      44.506  28.247  36.277  1.00  0.00    -0.200 F 
ATOM     72  F   UNL A   1      44.113  25.573  35.918  1.00  0.00    -0.200 F 
ENDBRANCH  39  62
ENDBRANCH  13  14
ENDBRANCH   6   8
ENDBRANCH   5   6
ENDBRANCH   4   5
ENDBRANCH   3   4
ENDBRANCH   2   3
ENDBRANCH   1   2
BRANCH   1  73
ATOM     73  C   UNL A   1      42.701  19.196  26.068  1.00  0.00     0.188 C 
BRANCH  73  74
ATOM     74  O   UNL A   1      41.787  20.241  25.752  1.00  0.00    -0.376 OA
BRANCH  74  75
ATOM     75  C   UNL A   1      40.583  20.398  26.477  1.00  0.00     0.202 C 
BRANCH  75  76
ATOM     76  C   UNL A   1      40.050  21.836  26.570  1.00  0.00     0.261 C 
BRANCH  76  77
ATOM     77  O   UNL A   1      38.959  22.146  25.686  1.00  0.00    -0.463 OA
BRANCH  77  78
ATOM     78  C   UNL A   1      38.121  23.127  26.121  1.00  0.00     0.309 C 
ATOM     79  O   UNL A   1      38.223  23.701  27.187  1.00  0.00    -0.252 OA
BRANCH  78  80
ATOM     80  C   UNL A   1      37.028  23.404  25.088  1.00  0.00     0.108 C 
ATOM     81  C   UNL A   1      35.622  23.396  25.707  1.00  0.00     0.070 C 
ATOM     82  C   UNL A   1      37.103  22.369  23.972  1.00  0.00     0.070 C 
ATOM     83  C   UNL A   1      35.215  22.009  26.185  1.00  0.00     0.277 C 
ATOM     84  C   UNL A   1      36.728  20.979  24.482  1.00  0.00     0.277 C 
ATOM     85  N   UNL A   1      35.418  21.029  25.124  1.00  0.00    -0.230 N 
ATOM     86  C   UNL A   1      34.518  20.002  24.929  1.00  0.00     0.383 C 
ATOM     87  N   UNL A   1      34.905  18.761  24.843  1.00  0.00    -0.155 N 
ATOM     88  C   UNL A   1      33.047  20.334  24.782  1.00  0.00     0.523 C 
ATOM     89  C   UNL A   1      33.954  17.793  24.634  1.00  0.00     0.414 C 
ATOM     90  H   UNL A   1      35.857  18.522  24.925  1.00  0.00     0.367 HD
ATOM     91  C   UNL A   1      32.529  19.285  23.880  1.00  0.00     0.389 C 
ATOM     92  N   UNL A   1      32.800  21.553  23.975  1.00  0.00     0.003 NA
ATOM     93  Cl  UNL A   1      34.415  16.201  25.056  1.00  0.00     0.028 Cl
ATOM     94  N   UNL A   1      32.769  17.983  24.149  1.00  0.00    -0.155 N 
ATOM     95  N   UNL A   1      31.986  19.745  22.810  1.00  0.00    -0.169 N 
ATOM     96  C   UNL A   1      32.190  21.099  22.918  1.00  0.00     0.532 C 
ATOM     97  H   UNL A   1      32.117  17.261  23.995  1.00  0.00     0.367 HD
ATOM     98  H   UNL A   1      31.536  19.250  22.088  1.00  0.00     0.365 HD
ENDBRANCH  78  80
ENDBRANCH  77  78
ENDBRANCH  76  77
ENDBRANCH  75  76
ENDBRANCH  74  75
ENDBRANCH  73  74
ENDBRANCH   1  73
TORSDOF 17
ENDMDL
MODEL 2
REMARK VINA RESULT:     -12.1      1.676      2.331
REMARK SMILES O=C(OCCOCCOCCOC(=O)C1CCN(C2=[NH+]C(Cl)=[NH+]C3=[NH+]C=N[C@@H]32)CC1)c1ccc(-c2c3nc(c(-c4c(F)c(F)c(F)c(F)c4F)c4ccc([nH]4)c(-c4c(F)c(F)c(F)c(F)c4F)c4nc(c(-c5c(F)c(F)c(F)c(F)c5F)c5ccc2[nH]5)C=C4)C=C3)cc1
REMARK SMILES IDX 7 1 6 2 5 3 4 4 3 5 2 6 1 7 31 8 32 9 93 10 33 11 92 12
REMARK SMILES IDX 34 13 35 14 36 15 86 16 37 17 91 18 85 19 87 20 38 21 90 22
REMARK SMILES IDX 84 23 83 24 39 26 71 27 51 28 70 29 52 30 55 31 69 32 88 33
REMARK SMILES IDX 53 34 54 35 68 37 89 38 56 39 40 40 41 41 49 42 42 43 43 44
REMARK SMILES IDX 47 45 50 46 44 47 45 48 48 49 46 50 72 51 73 52 81 53 74 54
REMARK SMILES IDX 75 55 79 56 82 57 76 58 77 59 80 60 78 61 57 62 58 63 66 64
REMARK SMILES IDX 59 65 60 66 64 67 67 68 61 69 62 70 65 71 63 72 8 73 9 74
REMARK SMILES IDX 10 75 11 76 12 77 13 78 14 79 15 80 16 81 30 82 17 83 29 84
REMARK SMILES IDX 18 85 19 86 20 87 28 88 21 89 24 91 27 92 22 93 23 94 25 95
REMARK SMILES IDX 26 96
REMARK H PARENT 87 25 55 36 20 90 23 97 25 98
REMARK Flexibility Score: inf
ROOT
ATOM      1  C   UNL A   1      42.774  18.761  25.865  1.00  0.00     0.188 C 
ENDROOT
BRANCH   1   2
ATOM      2  O   UNL A   1      43.362  19.668  24.964  1.00  0.00    -0.376 OA
BRANCH   2   3
ATOM      3  C   UNL A   1      44.711  20.064  25.076  1.00  0.00     0.202 C 
BRANCH   3   4
ATOM      4  C   UNL A   1      45.120  21.439  25.613  1.00  0.00     0.261 C 
BRANCH   4   5
ATOM      5  O   UNL A   1      44.108  22.224  26.244  1.00  0.00    -0.460 OA
BRANCH   5   6
ATOM      6  C   UNL A   1      43.179  23.036  25.707  1.00  0.00     0.338 C 
ATOM      7  O   UNL A   1      43.024  23.051  24.488  1.00  0.00    -0.246 OA
BRANCH   6   8
ATOM      8  C   UNL A   1      42.468  24.073  26.492  1.00  0.00     0.060 A 
ATOM      9  C   UNL A   1      41.502  24.946  25.994  1.00  0.00     0.016 A 
ATOM     10  C   UNL A   1      42.912  24.213  27.826  1.00  0.00     0.016 A 
ATOM     11  C   UNL A   1      41.152  26.060  26.735  1.00  0.00     0.010 A 
ATOM     12  C   UNL A   1      42.552  25.314  28.575  1.00  0.00     0.010 A 
ATOM     13  C   UNL A   1      41.770  26.283  27.966  1.00  0.00    -0.014 A 
BRANCH  13  14
ATOM     14  C   UNL A   1      41.675  27.623  28.515  1.00  0.00     0.031 A 
ATOM     15  C   UNL A   1      42.814  28.516  28.206  1.00  0.00     0.074 A 
ATOM     16  C   UNL A   1      40.610  27.973  29.266  1.00  0.00     0.049 A 
ATOM     17  N   UNL A   1      43.668  29.031  29.029  1.00  0.00    -0.248 NA
ATOM     18  C   UNL A   1      43.118  28.756  26.789  1.00  0.00     0.031 C 
ATOM     19  C   UNL A   1      39.349  27.246  29.456  1.00  0.00     0.029 A 
ATOM     20  N   UNL A   1      40.404  29.118  29.968  1.00  0.00    -0.354 N 
ATOM     21  C   UNL A   1      44.514  29.817  28.250  1.00  0.00     0.074 A 
ATOM     22  C   UNL A   1      44.230  29.488  26.878  1.00  0.00     0.031 C 
ATOM     23  C   UNL A   1      38.436  28.069  30.016  1.00  0.00     0.029 A 
ATOM     24  C   UNL A   1      39.086  29.321  30.351  1.00  0.00     0.049 A 
ATOM     25  H   UNL A   1      41.128  29.748  30.186  1.00  0.00     0.167 HD
ATOM     26  C   UNL A   1      45.205  30.856  28.794  1.00  0.00     0.037 A 
ATOM     27  C   UNL A   1      38.567  30.483  30.819  1.00  0.00     0.037 A 
ATOM     28  C   UNL A   1      45.363  30.692  30.217  1.00  0.00     0.049 A 
ATOM     29  C   UNL A   1      39.702  31.301  31.321  1.00  0.00     0.074 A 
ATOM     30  C   UNL A   1      45.976  29.752  31.022  1.00  0.00     0.029 A 
ATOM     31  N   UNL A   1      44.545  31.411  31.054  1.00  0.00    -0.354 N 
ATOM     32  N   UNL A   1      40.407  30.985  32.373  1.00  0.00    -0.248 NA
ATOM     33  C   UNL A   1      40.356  32.198  30.378  1.00  0.00     0.031 C 
ATOM     34  C   UNL A   1      45.132  29.634  32.165  1.00  0.00     0.029 A 
ATOM     35  C   UNL A   1      44.088  30.545  32.013  1.00  0.00     0.049 A 
ATOM     36  H   UNL A   1      44.328  32.368  30.979  1.00  0.00     0.167 HD
ATOM     37  C   UNL A   1      41.716  31.292  32.030  1.00  0.00     0.074 A 
ATOM     38  C   UNL A   1      41.614  32.100  30.816  1.00  0.00     0.031 C 
ATOM     39  C   UNL A   1      42.768  30.625  32.590  1.00  0.00     0.037 A 
BRANCH  26  40
ATOM     40  C   UNL A   1      45.378  32.192  28.107  1.00  0.00     0.064 A 
ATOM     41  C   UNL A   1      44.234  32.952  27.794  1.00  0.00     0.173 A 
ATOM     42  C   UNL A   1      46.569  32.596  27.463  1.00  0.00     0.173 A 
ATOM     43  F   UNL A   1      43.047  32.659  28.347  1.00  0.00    -0.203 F 
ATOM     44  C   UNL A   1      44.261  33.962  26.829  1.00  0.00     0.198 A 
ATOM     45  C   UNL A   1      46.601  33.637  26.537  1.00  0.00     0.198 A 
ATOM     46  F   UNL A   1      47.724  31.939  27.608  1.00  0.00    -0.203 F 
ATOM     47  F   UNL A   1      43.119  34.561  26.463  1.00  0.00    -0.200 F 
ATOM     48  C   UNL A   1      45.441  34.294  26.191  1.00  0.00     0.200 A 
ATOM     49  F   UNL A   1      47.755  33.934  25.923  1.00  0.00    -0.200 F 
ATOM     50  F   UNL A   1      45.455  35.207  25.212  1.00  0.00    -0.200 F 
ENDBRANCH  26  40
BRANCH  27  51
ATOM     51  C   UNL A   1      37.239  31.053  30.486  1.00  0.00     0.064 A 
ATOM     52  C   UNL A   1      36.341  31.444  31.489  1.00  0.00     0.173 A 
ATOM     53  C   UNL A   1      36.930  31.468  29.174  1.00  0.00     0.173 A 
ATOM     54  F   UNL A   1      36.589  31.137  32.771  1.00  0.00    -0.203 F 
ATOM     55  C   UNL A   1      35.208  32.213  31.200  1.00  0.00     0.198 A 
ATOM     56  C   UNL A   1      35.797  32.226  28.884  1.00  0.00     0.198 A 
ATOM     57  F   UNL A   1      37.770  31.227  28.157  1.00  0.00    -0.203 F 
ATOM     58  F   UNL A   1      34.401  32.617  32.191  1.00  0.00    -0.200 F 
ATOM     59  C   UNL A   1      34.941  32.609  29.898  1.00  0.00     0.200 A 
ATOM     60  F   UNL A   1      35.575  32.635  27.627  1.00  0.00    -0.200 F 
ATOM     61  F   UNL A   1      33.888  33.392  29.628  1.00  0.00    -0.200 F 
ENDBRANCH  27  51
BRANCH  39  62
ATOM     62  C   UNL A   1      42.475  29.709  33.745  1.00  0.00     0.064 A 
ATOM     63  C   UNL A   1      42.059  28.375  33.591  1.00  0.00     0.173 A 
ATOM     64  C   UNL A   1      42.767  30.147  35.041  1.00  0.00     0.173 A 
ATOM     65  F   UNL A   1      41.869  27.850  32.374  1.00  0.00    -0.203 F 
ATOM     66  C   UNL A   1      41.895  27.536  34.693  1.00  0.00     0.198 A 
ATOM     67  C   UNL A   1      42.638  29.298  36.136  1.00  0.00     0.198 A 
ATOM     68  F   UNL A   1      43.231  31.391  35.241  1.00  0.00    -0.203 F 
ATOM     69  F   UNL A   1      41.490  26.269  34.519  1.00  0.00    -0.200 F 
ATOM     70  C   UNL A   1      42.191  27.997  35.964  1.00  0.00     0.200 A 
ATOM     71  F   UNL A   1      42.977  29.731  37.359  1.00  0.00    -0.200 F 
ATOM     72  F   UNL A   1      42.077  27.179  37.020  1.00  0.00    -0.200 F 
ENDBRANCH  39  62
ENDBRANCH  13  14
ENDBRANCH   6   8
ENDBRANCH   5   6
ENDBRANCH   4   5
ENDBRANCH   3   4
ENDBRANCH   2   3
ENDBRANCH   1   2
BRANCH   1  73
ATOM     73  C   UNL A   1      42.430  19.311  27.272  1.00  0.00     0.188 C 
BRANCH  73  74
ATOM     74  O   UNL A   1      41.316  20.155  27.541  1.00  0.00    -0.376 OA
BRANCH  74  75
ATOM     75  C   UNL A   1      40.467  20.594  26.499  1.00  0.00     0.202 C 
BRANCH  75  76
ATOM     76  C   UNL A   1      39.710  21.904  26.770  1.00  0.00     0.261 C 
BRANCH  76  77
ATOM     77  O   UNL A   1      38.723  22.259  25.787  1.00  0.00    -0.463 OA
BRANCH  77  78
ATOM     78  C   UNL A   1      37.981  23.362  26.083  1.00  0.00     0.309 C 
ATOM     79  O   UNL A   1      38.144  24.064  27.061  1.00  0.00    -0.252 OA
BRANCH  78  80
ATOM     80  C   UNL A   1      36.906  23.593  25.019  1.00  0.00     0.108 C 
ATOM     81  C   UNL A   1      35.487  23.569  25.607  1.00  0.00     0.070 C 
ATOM     82  C   UNL A   1      37.028  22.535  23.929  1.00  0.00     0.070 C 
ATOM     83  C   UNL A   1      35.097  22.185  26.107  1.00  0.00     0.277 C 
ATOM     84  C   UNL A   1      36.670  21.150  24.462  1.00  0.00     0.277 C 
ATOM     85  N   UNL A   1      35.345  21.186  25.073  1.00  0.00    -0.230 N 
ATOM     86  C   UNL A   1      34.471  20.136  24.882  1.00  0.00     0.383 C 
ATOM     87  N   UNL A   1      34.884  18.902  24.832  1.00  0.00    -0.155 N 
ATOM     88  C   UNL A   1      32.997  20.434  24.694  1.00  0.00     0.523 C 
ATOM     89  C   UNL A   1      33.959  17.910  24.623  1.00  0.00     0.414 C 
ATOM     90  H   UNL A   1      35.839  18.685  24.941  1.00  0.00     0.367 HD
ATOM     91  C   UNL A   1      32.521  19.354  23.804  1.00  0.00     0.389 C 
ATOM     92  N   UNL A   1      32.744  21.629  23.854  1.00  0.00     0.003 NA
ATOM     93  Cl  UNL A   1      34.443  16.338  25.092  1.00  0.00     0.028 Cl
ATOM     94  N   UNL A   1      32.781  18.064  24.108  1.00  0.00    -0.155 N 
ATOM     95  N   UNL A   1      31.994  19.780  22.712  1.00  0.00    -0.169 N 
ATOM     96  C   UNL A   1      32.167  21.139  22.794  1.00  0.00     0.532 C 
ATOM     97  H   UNL A   1      32.148  17.325  23.956  1.00  0.00     0.367 HD
ATOM     98  H   UNL A   1      31.571  19.259  21.992  1.00  0.00     0.365 HD
ENDBRANCH  78  80
ENDBRANCH  77  78
ENDBRANCH  76  77
ENDBRANCH  75  76
ENDBRANCH  74  75
ENDBRANCH  73  74
ENDBRANCH   1  73
TORSDOF 17
ENDMDL
MODEL 3
REMARK VINA RESULT:     -12.0      3.153      4.305
REMARK SMILES O=C(OCCOCCOCCOC(=O)C1CCN(C2=[NH+]C(Cl)=[NH+]C3=[NH+]C=N[C@@H]32)CC1)c1ccc(-c2c3nc(c(-c4c(F)c(F)c(F)c(F)c4F)c4ccc([nH]4)c(-c4c(F)c(F)c(F)c(F)c4F)c4nc(c(-c5c(F)c(F)c(F)c(F)c5F)c5ccc2[nH]5)C=C4)C=C3)cc1
REMARK SMILES IDX 7 1 6 2 5 3 4 4 3 5 2 6 1 7 31 8 32 9 93 10 33 11 92 12
REMARK SMILES IDX 34 13 35 14 36 15 86 16 37 17 91 18 85 19 87 20 38 21 90 22
REMARK SMILES IDX 84 23 83 24 39 26 71 27 51 28 70 29 52 30 55 31 69 32 88 33
REMARK SMILES IDX 53 34 54 35 68 37 89 38 56 39 40 40 41 41 49 42 42 43 43 44
REMARK SMILES IDX 47 45 50 46 44 47 45 48 48 49 46 50 72 51 73 52 81 53 74 54
REMARK SMILES IDX 75 55 79 56 82 57 76 58 77 59 80 60 78 61 57 62 58 63 66 64
REMARK SMILES IDX 59 65 60 66 64 67 67 68 61 69 62 70 65 71 63 72 8 73 9 74
REMARK SMILES IDX 10 75 11 76 12 77 13 78 14 79 15 80 16 81 30 82 17 83 29 84
REMARK SMILES IDX 18 85 19 86 20 87 28 88 21 89 24 91 27 92 22 93 23 94 25 95
REMARK SMILES IDX 26 96
REMARK H PARENT 87 25 55 36 20 90 23 97 25 98
REMARK Flexibility Score: inf
ROOT
ATOM      1  C   UNL A   1      38.831  22.707  26.467  1.00  0.00     0.188 C 
ENDROOT
BRANCH   1   2
ATOM      2  O   UNL A   1      40.108  22.159  26.250  1.00  0.00    -0.376 OA
BRANCH   2   3
ATOM      3  C   UNL A   1      40.589  21.063  26.998  1.00  0.00     0.202 C 
BRANCH   3   4
ATOM      4  C   UNL A   1      41.213  19.830  26.338  1.00  0.00     0.261 C 
BRANCH   4   5
ATOM      5  O   UNL A   1      42.635  19.802  26.215  1.00  0.00    -0.460 OA
BRANCH   5   6
ATOM      6  C   UNL A   1      43.451  20.506  25.409  1.00  0.00     0.338 C 
ATOM      7  O   UNL A   1      44.067  19.925  24.519  1.00  0.00    -0.246 OA
BRANCH   6   8
ATOM      8  C   UNL A   1      43.810  21.921  25.668  1.00  0.00     0.060 A 
ATOM      9  C   UNL A   1      44.721  22.363  26.627  1.00  0.00     0.016 A 
ATOM     10  C   UNL A   1      43.072  22.865  24.920  1.00  0.00     0.016 A 
ATOM     11  C   UNL A   1      44.730  23.700  26.983  1.00  0.00     0.010 A 
ATOM     12  C   UNL A   1      43.092  24.202  25.261  1.00  0.00     0.010 A 
ATOM     13  C   UNL A   1      43.833  24.576  26.371  1.00  0.00    -0.014 A 
BRANCH  13  14
ATOM     14  C   UNL A   1      43.606  25.849  27.029  1.00  0.00     0.031 A 
ATOM     15  C   UNL A   1      44.612  26.896  26.744  1.00  0.00     0.074 A 
ATOM     16  C   UNL A   1      42.547  26.008  27.848  1.00  0.00     0.049 A 
ATOM     17  N   UNL A   1      45.440  27.450  27.569  1.00  0.00    -0.248 NA
ATOM     18  C   UNL A   1      44.813  27.276  25.339  1.00  0.00     0.031 C 
ATOM     19  C   UNL A   1      41.393  25.119  28.032  1.00  0.00     0.029 A 
ATOM     20  N   UNL A   1      42.241  27.064  28.647  1.00  0.00    -0.354 N 
ATOM     21  C   UNL A   1      46.145  28.390  26.821  1.00  0.00     0.074 A 
ATOM     22  C   UNL A   1      45.833  28.130  25.441  1.00  0.00     0.031 C 
ATOM     23  C   UNL A   1      40.418  25.780  28.694  1.00  0.00     0.029 A 
ATOM     24  C   UNL A   1      40.929  27.074  29.100  1.00  0.00     0.049 A 
ATOM     25  H   UNL A   1      42.894  27.761  28.885  1.00  0.00     0.167 HD
ATOM     26  C   UNL A   1      46.733  29.463  27.417  1.00  0.00     0.037 A 
ATOM     27  C   UNL A   1      40.299  28.125  29.680  1.00  0.00     0.037 A 
ATOM     28  C   UNL A   1      46.982  29.215  28.814  1.00  0.00     0.049 A 
ATOM     29  C   UNL A   1      41.353  29.038  30.198  1.00  0.00     0.074 A 
ATOM     30  C   UNL A   1      47.744  28.301  29.516  1.00  0.00     0.029 A 
ATOM     31  N   UNL A   1      46.128  29.764  29.740  1.00  0.00    -0.354 N 
ATOM     32  N   UNL A   1      42.143  28.734  31.192  1.00  0.00    -0.248 NA
ATOM     33  C   UNL A   1      41.846  30.076  29.304  1.00  0.00     0.031 C 
ATOM     34  C   UNL A   1      46.979  27.995  30.680  1.00  0.00     0.029 A 
ATOM     35  C   UNL A   1      45.827  28.780  30.645  1.00  0.00     0.049 A 
ATOM     36  H   UNL A   1      45.794  30.690  29.750  1.00  0.00     0.167 HD
ATOM     37  C   UNL A   1      43.387  29.225  30.820  1.00  0.00     0.074 A 
ATOM     38  C   UNL A   1      43.127  30.101  29.680  1.00  0.00     0.031 C 
ATOM     39  C   UNL A   1      44.538  28.652  31.281  1.00  0.00     0.037 A 
BRANCH  26  40
ATOM     40  C   UNL A   1      46.710  30.857  26.833  1.00  0.00     0.064 A 
ATOM     41  C   UNL A   1      47.899  31.613  26.822  1.00  0.00     0.173 A 
ATOM     42  C   UNL A   1      45.525  31.588  26.590  1.00  0.00     0.173 A 
ATOM     43  F   UNL A   1      49.085  31.024  27.041  1.00  0.00    -0.203 F 
ATOM     44  C   UNL A   1      47.888  33.004  26.690  1.00  0.00     0.198 A 
ATOM     45  C   UNL A   1      45.524  32.970  26.409  1.00  0.00     0.198 A 
ATOM     46  F   UNL A   1      44.312  31.027  26.628  1.00  0.00    -0.203 F 
ATOM     47  F   UNL A   1      49.029  33.693  26.827  1.00  0.00    -0.200 F 
ATOM     48  C   UNL A   1      46.699  33.683  26.498  1.00  0.00     0.200 A 
ATOM     49  F   UNL A   1      44.358  33.608  26.235  1.00  0.00    -0.200 F 
ATOM     50  F   UNL A   1      46.676  35.021  26.448  1.00  0.00    -0.200 F 
ENDBRANCH  26  40
BRANCH  27  51
ATOM     51  C   UNL A   1      38.898  28.551  29.449  1.00  0.00     0.064 A 
ATOM     52  C   UNL A   1      38.015  28.764  30.518  1.00  0.00     0.173 A 
ATOM     53  C   UNL A   1      38.471  29.009  28.185  1.00  0.00     0.173 A 
ATOM     54  F   UNL A   1      38.366  28.407  31.762  1.00  0.00    -0.203 F 
ATOM     55  C   UNL A   1      36.785  29.407  30.336  1.00  0.00     0.198 A 
ATOM     56  C   UNL A   1      37.243  29.641  28.002  1.00  0.00     0.198 A 
ATOM     57  F   UNL A   1      39.279  28.938  27.117  1.00  0.00    -0.203 F 
ATOM     58  F   UNL A   1      35.991  29.645  31.389  1.00  0.00    -0.200 F 
ATOM     59  C   UNL A   1      36.404  29.851  29.079  1.00  0.00     0.200 A 
ATOM     60  F   UNL A   1      36.907  30.101  26.788  1.00  0.00    -0.200 F 
ATOM     61  F   UNL A   1      35.253  30.517  28.913  1.00  0.00    -0.200 F 
ENDBRANCH  27  51
BRANCH  39  62
ATOM     62  C   UNL A   1      44.416  27.625  32.370  1.00  0.00     0.064 A 
ATOM     63  C   UNL A   1      44.251  26.251  32.125  1.00  0.00     0.173 A 
ATOM     64  C   UNL A   1      44.623  28.023  33.696  1.00  0.00     0.173 A 
ATOM     65  F   UNL A   1      44.160  25.781  30.874  1.00  0.00    -0.203 F 
ATOM     66  C   UNL A   1      44.242  25.324  33.168  1.00  0.00     0.198 A 
ATOM     67  C   UNL A   1      44.650  27.094  34.732  1.00  0.00     0.198 A 
ATOM     68  F   UNL A   1      44.852  29.314  33.982  1.00  0.00    -0.203 F 
ATOM     69  F   UNL A   1      44.075  24.020  32.907  1.00  0.00    -0.200 F 
ATOM     70  C   UNL A   1      44.448  25.747  34.470  1.00  0.00     0.200 A 
ATOM     71  F   UNL A   1      44.903  27.499  35.984  1.00  0.00    -0.200 F 
ATOM     72  F   UNL A   1      44.484  24.854  35.470  1.00  0.00    -0.200 F 
ENDBRANCH  39  62
ENDBRANCH  13  14
ENDBRANCH   6   8
ENDBRANCH   5   6
ENDBRANCH   4   5
ENDBRANCH   3   4
ENDBRANCH   2   3
ENDBRANCH   1   2
BRANCH   1  73
ATOM     73  C   UNL A   1      37.764  22.424  25.379  1.00  0.00     0.188 C 
BRANCH  73  74
ATOM     74  O   UNL A   1      36.884  21.307  25.406  1.00  0.00    -0.376 OA
BRANCH  74  75
ATOM     75  C   UNL A   1      35.528  21.457  25.780  1.00  0.00     0.202 C 
BRANCH  75  76
ATOM     76  C   UNL A   1      34.523  21.502  24.619  1.00  0.00     0.261 C 
BRANCH  76  77
ATOM     77  O   UNL A   1      33.750  22.710  24.519  1.00  0.00    -0.463 OA
BRANCH  77  78
ATOM     78  C   UNL A   1      33.933  23.422  23.373  1.00  0.00     0.309 C 
ATOM     79  O   UNL A   1      35.013  23.646  22.862  1.00  0.00    -0.252 OA
BRANCH  78  80
ATOM     80  C   UNL A   1      32.593  23.909  22.818  1.00  0.00     0.108 C 
ATOM     81  C   UNL A   1      32.756  25.099  21.859  1.00  0.00     0.070 C 
ATOM     82  C   UNL A   1      31.674  24.300  23.969  1.00  0.00     0.070 C 
ATOM     83  C   UNL A   1      33.238  26.352  22.577  1.00  0.00     0.277 C 
ATOM     84  C   UNL A   1      32.196  25.536  24.698  1.00  0.00     0.277 C 
ATOM     85  N   UNL A   1      32.402  26.619  23.742  1.00  0.00    -0.230 N 
ATOM     86  C   UNL A   1      32.059  27.911  24.084  1.00  0.00     0.383 C 
ATOM     87  N   UNL A   1      32.230  28.368  25.292  1.00  0.00    -0.155 N 
ATOM     88  C   UNL A   1      31.438  28.807  23.032  1.00  0.00     0.523 C 
ATOM     89  C   UNL A   1      31.851  29.659  25.563  1.00  0.00     0.414 C 
ATOM     90  H   UNL A   1      32.622  27.800  25.995  1.00  0.00     0.367 HD
ATOM     91  C   UNL A   1      30.542  29.698  23.799  1.00  0.00     0.389 C 
ATOM     92  N   UNL A   1      30.465  28.102  22.163  1.00  0.00     0.003 NA
ATOM     93  Cl  UNL A   1      32.566  30.364  26.947  1.00  0.00     0.028 Cl
ATOM     94  N   UNL A   1      31.013  30.366  24.874  1.00  0.00    -0.155 N 
ATOM     95  N   UNL A   1      29.314  29.643  23.424  1.00  0.00    -0.169 N 
ATOM     96  C   UNL A   1      29.330  28.668  22.457  1.00  0.00     0.532 C 
ATOM     97  H   UNL A   1      30.750  31.285  25.109  1.00  0.00     0.367 HD
ATOM     98  H   UNL A   1      28.550  30.170  23.750  1.00  0.00     0.365 HD
ENDBRANCH  78  80
ENDBRANCH  77  78
ENDBRANCH  76  77
ENDBRANCH  75  76
ENDBRANCH  74  75
ENDBRANCH  73  74
ENDBRANCH   1  73
TORSDOF 17
ENDMDL
