MODEL 1
REMARK VINA RESULT:      -9.0      0.000      0.000
REMARK SMILES COC(=O)[C@H]1CC[C@]2(C)[C@H](CC[C@]3(C)[C@H]2CC=C2[C@H]4CC(C)(C)CC[C@]4(C(=O)OCCOCCOCCOC(=O)c4ccc(-c5c6nc(c(-c7c(F)c(F)c(F)c(F)c7F)c7ccc([nH]7)c(-c7c(F)c(F)c(F)c(F)c7F)c7nc(c(-c8c(F)c(F)c(F)c(F)c8F)c8ccc5[nH]8)C=C7)C=C6)cc4)CC[C@@]23C)C1(C)C
REMARK SMILES IDX 33 1 32 2 31 3 30 4 29 5 27 6 28 7 26 8 5 9 6 10 108 11 7 12
REMARK SMILES IDX 10 13 109 14 110 15 8 16 11 17 15 18 9 19 12 20 16 21 13 22
REMARK SMILES IDX 17 23 106 24 14 25 18 26 105 27 107 28 19 29 104 30 20 31
REMARK SMILES IDX 21 32 25 33 24 34 22 35 23 36 3 37 4 38 2 39 1 40 34 41
REMARK SMILES IDX 35 42 36 43 37 44 38 45 39 46 40 47 41 48 42 49 103 50 43 51
REMARK SMILES IDX 102 52 44 53 45 54 46 55 96 56 47 57 101 58 95 59 97 60
REMARK SMILES IDX 48 61 100 62 94 63 93 64 49 66 81 67 61 68 80 69 62 70 65 71
REMARK SMILES IDX 79 72 98 73 63 74 64 75 78 77 99 78 66 79 50 80 51 81 59 82
REMARK SMILES IDX 52 83 53 84 57 85 60 86 54 87 55 88 58 89 56 90 82 91 83 92
REMARK SMILES IDX 91 93 84 94 85 95 89 96 92 97 86 98 87 99 90 100 88 101
REMARK SMILES IDX 67 102 68 103 76 104 69 105 70 106 74 107 77 108 71 109
REMARK SMILES IDX 72 110 75 111 73 112
REMARK H PARENT 97 65 65 76
REMARK Flexibility Score: inf
ROOT
ATOM      1  C   UNL A   1      51.731  26.484  30.808  1.00  0.00     0.188 C 
ENDROOT
BRANCH   1   2
ATOM      2  O   UNL A   1      50.991  27.170  31.798  1.00  0.00    -0.376 OA
BRANCH   2   3
ATOM      3  C   UNL A   1      49.566  26.854  31.818  1.00  0.00     0.202 C 
BRANCH   3   4
ATOM      4  C   UNL A   1      48.989  25.492  32.402  1.00  0.00     0.261 C 
BRANCH   4   5
ATOM      5  O   UNL A   1      47.535  25.393  32.341  1.00  0.00    -0.463 OA
BRANCH   5   6
ATOM      6  C   UNL A   1      46.675  24.791  33.247  1.00  0.00     0.312 C 
ATOM      7  O   UNL A   1      47.048  24.063  34.154  1.00  0.00    -0.252 OA
BRANCH   6   8
ATOM      8  C   UNL A   1      45.142  25.124  32.920  1.00  0.00     0.075 C 
ATOM      9  C   UNL A   1      42.855  33.292  35.980  1.00  0.00     0.105 C 
ATOM     10  C   UNL A   1      43.883  32.796  37.640  1.00  0.00     0.016 C 
ATOM     11  C   UNL A   1      42.470  31.950  34.585  1.00  0.00    -0.019 C 
ATOM     12  C   UNL A   1      44.204  30.823  37.991  1.00  0.00     0.008 C 
ATOM     13  C   UNL A   1      42.870  30.127  34.956  1.00  0.00     0.002 C 
ATOM     14  C   UNL A   1      43.184  32.305  33.174  1.00  0.00     0.012 C 
ATOM     15  C   UNL A   1      40.982  32.012  34.142  1.00  0.00     0.012 C 
ATOM     16  C   UNL A   1      44.001  29.572  36.439  1.00  0.00    -0.026 C 
ATOM     17  C   UNL A   1      42.728  28.919  34.025  1.00  0.00     0.005 C 
ATOM     18  C   UNL A   1      43.771  28.018  36.978  1.00  0.00     0.006 C 
ATOM     19  C   UNL A   1      45.306  29.429  35.586  1.00  0.00     0.012 C 
ATOM     20  C   UNL A   1      42.165  27.627  34.755  1.00  0.00     0.008 C 
ATOM     21  C   UNL A   1      45.187  27.395  37.324  1.00  0.00     0.032 C 
ATOM     22  C   UNL A   1      42.843  26.956  36.046  1.00  0.00    -0.020 C 
ATOM     23  C   UNL A   1      45.783  26.724  36.083  1.00  0.00    -0.027 C 
ATOM     24  C   UNL A   1      43.726  25.625  35.740  1.00  0.00    -0.006 C 
ATOM     25  C   UNL A   1      41.648  26.433  36.919  1.00  0.00     0.012 C 
ATOM     26  C   UNL A   1      44.955  26.244  35.130  1.00  0.00    -0.063 C 
ATOM     27  C   UNL A   1      43.302  24.451  34.811  1.00  0.00     0.013 C 
ATOM     28  C   UNL A   1      43.950  24.808  37.105  1.00  0.00     0.017 C 
ATOM     29  C   UNL A   1      44.874  26.477  33.534  1.00  0.00     0.033 C 
ATOM     30  C   UNL A   1      44.063  24.141  33.496  1.00  0.00     0.020 C 
ATOM     31  C   UNL A   1      45.582  27.581  32.643  1.00  0.00     0.015 C 
ATOM     32  C   UNL A   1      45.172  27.676  31.152  1.00  0.00    -0.035 C 
ATOM     33  C   UNL A   1      44.827  25.128  31.383  1.00  0.00     0.020 C 
ATOM     34  C   UNL A   1      45.285  26.289  30.513  1.00  0.00     0.007 C 
ATOM     35  C   UNL A   1      46.169  28.608  30.416  1.00  0.00     0.011 C 
ATOM     36  C   UNL A   1      43.784  28.314  30.958  1.00  0.00     0.011 C 
BRANCH   9  37
ATOM     37  C   UNL A   1      41.556  34.154  36.035  1.00  0.00     0.309 C 
ATOM     38  O   UNL A   1      40.505  33.853  36.584  1.00  0.00    -0.252 OA
BRANCH  37  39
ATOM     39  O   UNL A   1      41.639  35.211  35.174  1.00  0.00    -0.469 OA
ATOM     40  C   UNL A   1      42.478  36.266  35.664  1.00  0.00     0.282 C 
ENDBRANCH  37  39
ENDBRANCH   9  37
ENDBRANCH   6   8
ENDBRANCH   5   6
ENDBRANCH   4   5
ENDBRANCH   3   4
ENDBRANCH   2   3
ENDBRANCH   1   2
BRANCH   1  41
ATOM     41  C   UNL A   1      51.764  26.944  29.320  1.00  0.00     0.188 C 
BRANCH  41  42
ATOM     42  O   UNL A   1      51.757  26.007  28.263  1.00  0.00    -0.376 OA
BRANCH  42  43
ATOM     43  C   UNL A   1      52.256  26.439  26.997  1.00  0.00     0.202 C 
BRANCH  43  44
ATOM     44  C   UNL A   1      52.037  25.510  25.771  1.00  0.00     0.261 C 
BRANCH  44  45
ATOM     45  O   UNL A   1      52.174  26.107  24.418  1.00  0.00    -0.460 OA
BRANCH  45  46
ATOM     46  C   UNL A   1      51.022  26.781  23.678  1.00  0.00     0.338 C 
ATOM     47  O   UNL A   1      51.613  27.063  22.664  1.00  0.00    -0.246 OA
BRANCH  46  48
ATOM     48  C   UNL A   1      49.152  27.257  24.483  1.00  0.00     0.060 A 
ATOM     49  C   UNL A   1      48.811  27.772  25.777  1.00  0.00     0.016 A 
ATOM     50  C   UNL A   1      47.814  27.452  23.851  1.00  0.00     0.016 A 
ATOM     51  C   UNL A   1      47.602  27.956  26.444  1.00  0.00     0.010 A 
ATOM     52  C   UNL A   1      46.576  27.957  24.393  1.00  0.00     0.010 A 
ATOM     53  C   UNL A   1      46.479  28.190  25.733  1.00  0.00    -0.014 A 
BRANCH  53  54
ATOM     54  C   UNL A   1      45.310  28.559  26.523  1.00  0.00     0.031 A 
ATOM     55  C   UNL A   1      44.431  27.457  26.988  1.00  0.00     0.074 A 
ATOM     56  C   UNL A   1      45.236  29.812  27.021  1.00  0.00     0.049 A 
ATOM     57  N   UNL A   1      43.285  27.536  27.595  1.00  0.00    -0.248 NA
ATOM     58  C   UNL A   1      44.895  26.082  26.732  1.00  0.00     0.031 C 
ATOM     59  C   UNL A   1      46.211  30.884  26.758  1.00  0.00     0.029 A 
ATOM     60  N   UNL A   1      44.377  30.380  27.918  1.00  0.00    -0.354 N 
ATOM     61  C   UNL A   1      42.829  26.231  27.675  1.00  0.00     0.074 A 
ATOM     62  C   UNL A   1      43.855  25.371  27.135  1.00  0.00     0.031 C 
ATOM     63  C   UNL A   1      45.953  31.930  27.556  1.00  0.00     0.029 A 
ATOM     64  C   UNL A   1      44.700  31.677  28.248  1.00  0.00     0.049 A 
ATOM     65  H   UNL A   1      43.599  29.907  28.293  1.00  0.00     0.167 HD
ATOM     66  C   UNL A   1      41.612  25.838  28.104  1.00  0.00     0.037 A 
ATOM     67  C   UNL A   1      44.004  32.574  28.970  1.00  0.00     0.037 A 
ATOM     68  C   UNL A   1      40.672  26.770  28.664  1.00  0.00     0.049 A 
ATOM     69  C   UNL A   1      42.653  32.113  29.449  1.00  0.00     0.074 A 
ATOM     70  C   UNL A   1      39.360  26.571  29.041  1.00  0.00     0.029 A 
ATOM     71  N   UNL A   1      40.978  28.101  28.942  1.00  0.00    -0.354 N 
ATOM     72  N   UNL A   1      42.109  30.921  29.349  1.00  0.00    -0.248 NA
ATOM     73  C   UNL A   1      41.792  33.118  30.076  1.00  0.00     0.031 C 
ATOM     74  C   UNL A   1      38.865  27.793  29.516  1.00  0.00     0.029 A 
ATOM     75  C   UNL A   1      39.882  28.739  29.488  1.00  0.00     0.049 A 
ATOM     76  H   UNL A   1      41.851  28.525  28.774  1.00  0.00     0.167 HD
ATOM     77  C   UNL A   1      40.836  31.032  29.875  1.00  0.00     0.074 A 
ATOM     78  C   UNL A   1      40.709  32.400  30.345  1.00  0.00     0.031 C 
ATOM     79  C   UNL A   1      39.843  30.109  29.941  1.00  0.00     0.037 A 
BRANCH  66  80
ATOM     80  C   UNL A   1      41.222  24.421  27.818  1.00  0.00     0.064 A 
ATOM     81  C   UNL A   1      41.872  23.320  28.395  1.00  0.00     0.173 A 
ATOM     82  C   UNL A   1      40.224  24.164  26.864  1.00  0.00     0.173 A 
ATOM     83  F   UNL A   1      42.865  23.509  29.277  1.00  0.00    -0.203 F 
ATOM     84  C   UNL A   1      41.557  22.019  28.006  1.00  0.00     0.198 A 
ATOM     85  C   UNL A   1      39.892  22.863  26.499  1.00  0.00     0.198 A 
ATOM     86  F   UNL A   1      39.586  25.180  26.262  1.00  0.00    -0.203 F 
ATOM     87  F   UNL A   1      42.241  20.985  28.516  1.00  0.00    -0.200 F 
ATOM     88  C   UNL A   1      40.567  21.791  27.062  1.00  0.00     0.200 A 
ATOM     89  F   UNL A   1      38.937  22.648  25.584  1.00  0.00    -0.200 F 
ATOM     90  F   UNL A   1      40.275  20.540  26.679  1.00  0.00    -0.200 F 
ENDBRANCH  66  80
BRANCH  67  91
ATOM     91  C   UNL A   1      44.484  33.977  29.145  1.00  0.00     0.064 A 
ATOM     92  C   UNL A   1      45.292  34.348  30.229  1.00  0.00     0.173 A 
ATOM     93  C   UNL A   1      44.134  34.992  28.236  1.00  0.00     0.173 A 
ATOM     94  F   UNL A   1      45.643  33.434  31.146  1.00  0.00    -0.203 F 
ATOM     95  C   UNL A   1      45.715  35.669  30.404  1.00  0.00     0.198 A 
ATOM     96  C   UNL A   1      44.594  36.300  28.385  1.00  0.00     0.198 A 
ATOM     97  F   UNL A   1      43.352  34.715  27.183  1.00  0.00    -0.203 F 
ATOM     98  F   UNL A   1      46.441  36.001  31.480  1.00  0.00    -0.200 F 
ATOM     99  C   UNL A   1      45.375  36.641  29.475  1.00  0.00     0.200 A 
ATOM    100  F   UNL A   1      44.278  37.227  27.470  1.00  0.00    -0.200 F 
ATOM    101  F   UNL A   1      45.790  37.904  29.637  1.00  0.00    -0.200 F 
ENDBRANCH  67  91
BRANCH  79 102
ATOM    102  C   UNL A   1      38.567  30.564  30.570  1.00  0.00     0.064 A 
ATOM    103  C   UNL A   1      38.364  30.477  31.954  1.00  0.00     0.173 A 
ATOM    104  C   UNL A   1      37.561  31.135  29.779  1.00  0.00     0.173 A 
ATOM    105  F   UNL A   1      39.296  29.919  32.742  1.00  0.00    -0.203 F 
ATOM    106  C   UNL A   1      37.180  30.930  32.524  1.00  0.00     0.198 A 
ATOM    107  C   UNL A   1      36.393  31.614  30.357  1.00  0.00     0.198 A 
ATOM    108  F   UNL A   1      37.723  31.239  28.451  1.00  0.00    -0.203 F 
ATOM    109  F   UNL A   1      36.981  30.799  33.843  1.00  0.00    -0.200 F 
ATOM    110  C   UNL A   1      36.201  31.506  31.726  1.00  0.00     0.200 A 
ATOM    111  F   UNL A   1      35.454  32.182  29.588  1.00  0.00    -0.200 F 
ATOM    112  F   UNL A   1      35.064  31.951  32.278  1.00  0.00    -0.200 F 
ENDBRANCH  79 102
ENDBRANCH  53  54
ENDBRANCH  46  48
ENDBRANCH  45  46
ENDBRANCH  44  45
ENDBRANCH  43  44
ENDBRANCH  42  43
ENDBRANCH  41  42
ENDBRANCH   1  41
TORSDOF 19
ENDMDL
MODEL 2
REMARK VINA RESULT:      -8.6      4.949      9.977
REMARK SMILES COC(=O)[C@H]1CC[C@]2(C)[C@H](CC[C@]3(C)[C@H]2CC=C2[C@H]4CC(C)(C)CC[C@]4(C(=O)OCCOCCOCCOC(=O)c4ccc(-c5c6nc(c(-c7c(F)c(F)c(F)c(F)c7F)c7ccc([nH]7)c(-c7c(F)c(F)c(F)c(F)c7F)c7nc(c(-c8c(F)c(F)c(F)c(F)c8F)c8ccc5[nH]8)C=C7)C=C6)cc4)CC[C@@]23C)C1(C)C
REMARK SMILES IDX 33 1 32 2 31 3 30 4 29 5 27 6 28 7 26 8 5 9 6 10 108 11 7 12
REMARK SMILES IDX 10 13 109 14 110 15 8 16 11 17 15 18 9 19 12 20 16 21 13 22
REMARK SMILES IDX 17 23 106 24 14 25 18 26 105 27 107 28 19 29 104 30 20 31
REMARK SMILES IDX 21 32 25 33 24 34 22 35 23 36 3 37 4 38 2 39 1 40 34 41
REMARK SMILES IDX 35 42 36 43 37 44 38 45 39 46 40 47 41 48 42 49 103 50 43 51
REMARK SMILES IDX 102 52 44 53 45 54 46 55 96 56 47 57 101 58 95 59 97 60
REMARK SMILES IDX 48 61 100 62 94 63 93 64 49 66 81 67 61 68 80 69 62 70 65 71
REMARK SMILES IDX 79 72 98 73 63 74 64 75 78 77 99 78 66 79 50 80 51 81 59 82
REMARK SMILES IDX 52 83 53 84 57 85 60 86 54 87 55 88 58 89 56 90 82 91 83 92
REMARK SMILES IDX 91 93 84 94 85 95 89 96 92 97 86 98 87 99 90 100 88 101
REMARK SMILES IDX 67 102 68 103 76 104 69 105 70 106 74 107 77 108 71 109
REMARK SMILES IDX 72 110 75 111 73 112
REMARK H PARENT 97 65 65 76
REMARK Flexibility Score: inf
ROOT
ATOM      1  C   UNL A   1      38.829  20.947  26.125  1.00  0.00     0.188 C 
ENDROOT
BRANCH   1   2
ATOM      2  O   UNL A   1      38.793  22.199  25.469  1.00  0.00    -0.376 OA
BRANCH   2   3
ATOM      3  C   UNL A   1      39.426  23.289  26.205  1.00  0.00     0.202 C 
BRANCH   3   4
ATOM      4  C   UNL A   1      38.602  24.460  26.896  1.00  0.00     0.261 C 
BRANCH   4   5
ATOM      5  O   UNL A   1      39.395  25.653  27.178  1.00  0.00    -0.463 OA
BRANCH   5   6
ATOM      6  C   UNL A   1      40.504  25.773  28.001  1.00  0.00     0.312 C 
ATOM      7  O   UNL A   1      40.876  24.898  28.767  1.00  0.00    -0.252 OA
BRANCH   6   8
ATOM      8  C   UNL A   1      41.192  27.214  27.861  1.00  0.00     0.075 C 
ATOM      9  C   UNL A   1      40.979  31.700  35.679  1.00  0.00     0.105 C 
ATOM     10  C   UNL A   1      39.084  31.037  35.840  1.00  0.00     0.016 C 
ATOM     11  C   UNL A   1      41.999  31.466  34.006  1.00  0.00    -0.019 C 
ATOM     12  C   UNL A   1      38.151  30.440  34.139  1.00  0.00     0.008 C 
ATOM     13  C   UNL A   1      41.073  30.829  32.470  1.00  0.00     0.002 C 
ATOM     14  C   UNL A   1      43.292  30.510  34.201  1.00  0.00     0.012 C 
ATOM     15  C   UNL A   1      42.714  32.783  33.596  1.00  0.00     0.012 C 
ATOM     16  C   UNL A   1      39.309  30.013  32.560  1.00  0.00    -0.026 C 
ATOM     17  C   UNL A   1      41.647  30.504  31.088  1.00  0.00     0.005 C 
ATOM     18  C   UNL A   1      38.418  30.067  31.161  1.00  0.00     0.006 C 
ATOM     19  C   UNL A   1      39.828  28.535  32.558  1.00  0.00     0.012 C 
ATOM     20  C   UNL A   1      40.710  30.971  29.895  1.00  0.00     0.008 C 
ATOM     21  C   UNL A   1      37.654  28.687  31.002  1.00  0.00     0.032 C 
ATOM     22  C   UNL A   1      39.180  30.516  29.720  1.00  0.00    -0.020 C 
ATOM     23  C   UNL A   1      38.528  27.687  30.239  1.00  0.00    -0.027 C 
ATOM     24  C   UNL A   1      38.938  29.348  28.616  1.00  0.00    -0.006 C 
ATOM     25  C   UNL A   1      38.439  31.766  29.127  1.00  0.00     0.012 C 
ATOM     26  C   UNL A   1      39.450  28.148  29.367  1.00  0.00    -0.063 C 
ATOM     27  C   UNL A   1      39.572  29.298  27.196  1.00  0.00     0.013 C 
ATOM     28  C   UNL A   1      37.384  29.314  28.208  1.00  0.00     0.017 C 
ATOM     29  C   UNL A   1      41.035  27.877  29.208  1.00  0.00     0.033 C 
ATOM     30  C   UNL A   1      40.583  28.193  26.796  1.00  0.00     0.020 C 
ATOM     31  C   UNL A   1      42.045  27.197  30.223  1.00  0.00     0.015 C 
ATOM     32  C   UNL A   1      43.554  27.238  29.877  1.00  0.00    -0.035 C 
ATOM     33  C   UNL A   1      42.702  27.136  27.442  1.00  0.00     0.020 C 
ATOM     34  C   UNL A   1      43.754  26.708  28.454  1.00  0.00     0.007 C 
ATOM     35  C   UNL A   1      44.316  26.288  30.837  1.00  0.00     0.011 C 
ATOM     36  C   UNL A   1      44.174  28.632  30.090  1.00  0.00     0.011 C 
BRANCH   9  37
ATOM     37  C   UNL A   1      41.408  33.113  36.183  1.00  0.00     0.309 C 
ATOM     38  O   UNL A   1      40.945  34.186  35.822  1.00  0.00    -0.252 OA
BRANCH  37  39
ATOM     39  O   UNL A   1      42.559  33.037  36.916  1.00  0.00    -0.469 OA
ATOM     40  C   UNL A   1      42.419  32.227  38.091  1.00  0.00     0.282 C 
ENDBRANCH  37  39
ENDBRANCH   9  37
ENDBRANCH   6   8
ENDBRANCH   5   6
ENDBRANCH   4   5
ENDBRANCH   3   4
ENDBRANCH   2   3
ENDBRANCH   1   2
BRANCH   1  41
ATOM     41  C   UNL A   1      39.791  19.802  25.690  1.00  0.00     0.188 C 
BRANCH  41  42
ATOM     42  O   UNL A   1      41.170  19.852  25.989  1.00  0.00    -0.376 OA
BRANCH  42  43
ATOM     43  C   UNL A   1      41.543  20.267  27.304  1.00  0.00     0.202 C 
BRANCH  43  44
ATOM     44  C   UNL A   1      42.328  21.599  27.453  1.00  0.00     0.261 C 
BRANCH  44  45
ATOM     45  O   UNL A   1      42.785  22.275  26.210  1.00  0.00    -0.460 OA
BRANCH  45  46
ATOM     46  C   UNL A   1      44.255  22.412  25.824  1.00  0.00     0.338 C 
ATOM     47  O   UNL A   1      44.468  21.254  25.554  1.00  0.00    -0.246 OA
BRANCH  46  48
ATOM     48  C   UNL A   1      45.438  24.118  26.065  1.00  0.00     0.060 A 
ATOM     49  C   UNL A   1      45.385  25.379  25.385  1.00  0.00     0.016 A 
ATOM     50  C   UNL A   1      46.383  24.533  27.144  1.00  0.00     0.016 A 
ATOM     51  C   UNL A   1      46.225  26.491  25.364  1.00  0.00     0.010 A 
ATOM     52  C   UNL A   1      47.052  25.789  27.384  1.00  0.00     0.010 A 
ATOM     53  C   UNL A   1      46.975  26.777  26.448  1.00  0.00    -0.014 A 
BRANCH  53  54
ATOM     54  C   UNL A   1      47.671  28.059  26.401  1.00  0.00     0.031 A 
ATOM     55  C   UNL A   1      49.027  28.072  25.800  1.00  0.00     0.074 A 
ATOM     56  C   UNL A   1      46.964  29.185  26.636  1.00  0.00     0.049 A 
ATOM     57  N   UNL A   1      49.882  29.050  25.750  1.00  0.00    -0.248 NA
ATOM     58  C   UNL A   1      49.492  26.820  25.176  1.00  0.00     0.031 C 
ATOM     59  C   UNL A   1      45.545  29.226  27.027  1.00  0.00     0.029 A 
ATOM     60  N   UNL A   1      47.289  30.503  26.491  1.00  0.00    -0.354 N 
ATOM     61  C   UNL A   1      51.031  28.497  25.211  1.00  0.00     0.074 A 
ATOM     62  C   UNL A   1      50.742  27.124  24.869  1.00  0.00     0.031 C 
ATOM     63  C   UNL A   1      45.104  30.491  26.985  1.00  0.00     0.029 A 
ATOM     64  C   UNL A   1      46.243  31.362  26.743  1.00  0.00     0.049 A 
ATOM     65  H   UNL A   1      48.188  30.812  26.231  1.00  0.00     0.167 HD
ATOM     66  C   UNL A   1      52.230  29.104  25.101  1.00  0.00     0.037 A 
ATOM     67  C   UNL A   1      46.243  32.704  26.843  1.00  0.00     0.037 A 
ATOM     68  C   UNL A   1      52.407  30.492  25.431  1.00  0.00     0.049 A 
ATOM     69  C   UNL A   1      47.589  33.365  26.705  1.00  0.00     0.074 A 
ATOM     70  C   UNL A   1      53.565  31.238  25.489  1.00  0.00     0.029 A 
ATOM     71  N   UNL A   1      51.354  31.349  25.748  1.00  0.00    -0.354 N 
ATOM     72  N   UNL A   1      48.743  32.818  26.396  1.00  0.00    -0.248 NA
ATOM     73  C   UNL A   1      47.657  34.799  26.990  1.00  0.00     0.031 C 
ATOM     74  C   UNL A   1      53.214  32.539  25.874  1.00  0.00     0.029 A 
ATOM     75  C   UNL A   1      51.833  32.618  26.001  1.00  0.00     0.049 A 
ATOM     76  H   UNL A   1      50.406  31.086  25.785  1.00  0.00     0.167 HD
ATOM     77  C   UNL A   1      49.682  33.830  26.472  1.00  0.00     0.074 A 
ATOM     78  C   UNL A   1      48.948  35.039  26.803  1.00  0.00     0.031 C 
ATOM     79  C   UNL A   1      51.029  33.776  26.317  1.00  0.00     0.037 A 
BRANCH  66  80
ATOM     80  C   UNL A   1      53.402  28.229  24.778  1.00  0.00     0.064 A 
ATOM     81  C   UNL A   1      54.115  27.519  25.755  1.00  0.00     0.173 A 
ATOM     82  C   UNL A   1      53.876  28.178  23.457  1.00  0.00     0.173 A 
ATOM     83  F   UNL A   1      53.734  27.572  27.040  1.00  0.00    -0.203 F 
ATOM     84  C   UNL A   1      55.273  26.817  25.427  1.00  0.00     0.198 A 
ATOM     85  C   UNL A   1      55.017  27.451  23.127  1.00  0.00     0.198 A 
ATOM     86  F   UNL A   1      53.247  28.857  22.486  1.00  0.00    -0.203 F 
ATOM     87  F   UNL A   1      55.980  26.206  26.387  1.00  0.00    -0.200 F 
ATOM     88  C   UNL A   1      55.721  26.781  24.114  1.00  0.00     0.200 A 
ATOM     89  F   UNL A   1      55.447  27.423  21.858  1.00  0.00    -0.200 F 
ATOM     90  F   UNL A   1      56.842  26.115  23.802  1.00  0.00    -0.200 F 
ENDBRANCH  66  80
BRANCH  67  91
ATOM     91  C   UNL A   1      45.010  33.460  27.216  1.00  0.00     0.064 A 
ATOM     92  C   UNL A   1      44.493  33.427  28.518  1.00  0.00     0.173 A 
ATOM     93  C   UNL A   1      44.305  34.227  26.270  1.00  0.00     0.173 A 
ATOM     94  F   UNL A   1      45.103  32.696  29.463  1.00  0.00    -0.203 F 
ATOM     95  C   UNL A   1      43.323  34.113  28.855  1.00  0.00     0.198 A 
ATOM     96  C   UNL A   1      43.163  34.949  26.617  1.00  0.00     0.198 A 
ATOM     97  F   UNL A   1      44.732  34.293  25.001  1.00  0.00    -0.203 F 
ATOM     98  F   UNL A   1      42.825  34.017  30.094  1.00  0.00    -0.200 F 
ATOM     99  C   UNL A   1      42.666  34.883  27.906  1.00  0.00     0.200 A 
ATOM    100  F   UNL A   1      42.549  35.707  25.698  1.00  0.00    -0.200 F 
ATOM    101  F   UNL A   1      41.550  35.549  28.232  1.00  0.00    -0.200 F 
ENDBRANCH  67  91
BRANCH  79 102
ATOM    102  C   UNL A   1      51.760  35.068  26.478  1.00  0.00     0.064 A 
ATOM    103  C   UNL A   1      51.939  35.945  25.399  1.00  0.00     0.173 A 
ATOM    104  C   UNL A   1      52.241  35.448  27.738  1.00  0.00     0.173 A 
ATOM    105  F   UNL A   1      51.510  35.607  24.174  1.00  0.00    -0.203 F 
ATOM    106  C   UNL A   1      52.599  37.155  25.575  1.00  0.00     0.198 A 
ATOM    107  C   UNL A   1      52.872  36.672  27.915  1.00  0.00     0.198 A 
ATOM    108  F   UNL A   1      52.083  34.637  28.795  1.00  0.00    -0.203 F 
ATOM    109  F   UNL A   1      52.804  37.962  24.525  1.00  0.00    -0.200 F 
ATOM    110  C   UNL A   1      53.056  37.521  26.833  1.00  0.00     0.200 A 
ATOM    111  F   UNL A   1      53.301  37.030  29.132  1.00  0.00    -0.200 F 
ATOM    112  F   UNL A   1      53.684  38.692  27.003  1.00  0.00    -0.200 F 
ENDBRANCH  79 102
ENDBRANCH  53  54
ENDBRANCH  46  48
ENDBRANCH  45  46
ENDBRANCH  44  45
ENDBRANCH  43  44
ENDBRANCH  42  43
ENDBRANCH  41  42
ENDBRANCH   1  41
TORSDOF 19
ENDMDL
MODEL 3
REMARK VINA RESULT:      -8.5      4.816     10.414
REMARK SMILES COC(=O)[C@H]1CC[C@]2(C)[C@H](CC[C@]3(C)[C@H]2CC=C2[C@H]4CC(C)(C)CC[C@]4(C(=O)OCCOCCOCCOC(=O)c4ccc(-c5c6nc(c(-c7c(F)c(F)c(F)c(F)c7F)c7ccc([nH]7)c(-c7c(F)c(F)c(F)c(F)c7F)c7nc(c(-c8c(F)c(F)c(F)c(F)c8F)c8ccc5[nH]8)C=C7)C=C6)cc4)CC[C@@]23C)C1(C)C
REMARK SMILES IDX 33 1 32 2 31 3 30 4 29 5 27 6 28 7 26 8 5 9 6 10 108 11 7 12
REMARK SMILES IDX 10 13 109 14 110 15 8 16 11 17 15 18 9 19 12 20 16 21 13 22
REMARK SMILES IDX 17 23 106 24 14 25 18 26 105 27 107 28 19 29 104 30 20 31
REMARK SMILES IDX 21 32 25 33 24 34 22 35 23 36 3 37 4 38 2 39 1 40 34 41
REMARK SMILES IDX 35 42 36 43 37 44 38 45 39 46 40 47 41 48 42 49 103 50 43 51
REMARK SMILES IDX 102 52 44 53 45 54 46 55 96 56 47 57 101 58 95 59 97 60
REMARK SMILES IDX 48 61 100 62 94 63 93 64 49 66 81 67 61 68 80 69 62 70 65 71
REMARK SMILES IDX 79 72 98 73 63 74 64 75 78 77 99 78 66 79 50 80 51 81 59 82
REMARK SMILES IDX 52 83 53 84 57 85 60 86 54 87 55 88 58 89 56 90 82 91 83 92
REMARK SMILES IDX 91 93 84 94 85 95 89 96 92 97 86 98 87 99 90 100 88 101
REMARK SMILES IDX 67 102 68 103 76 104 69 105 70 106 74 107 77 108 71 109
REMARK SMILES IDX 72 110 75 111 73 112
REMARK H PARENT 97 65 65 76
REMARK Flexibility Score: inf
ROOT
ATOM      1  C   UNL A   1      33.147  26.623  25.754  1.00  0.00     0.188 C 
ENDROOT
BRANCH   1   2
ATOM      2  O   UNL A   1      33.248  27.517  26.845  1.00  0.00    -0.376 OA
BRANCH   2   3
ATOM      3  C   UNL A   1      34.292  28.527  26.707  1.00  0.00     0.202 C 
BRANCH   3   4
ATOM      4  C   UNL A   1      34.486  29.718  27.743  1.00  0.00     0.261 C 
BRANCH   4   5
ATOM      5  O   UNL A   1      35.737  29.651  28.491  1.00  0.00    -0.463 OA
BRANCH   5   6
ATOM      6  C   UNL A   1      36.678  30.650  28.683  1.00  0.00     0.312 C 
ATOM      7  O   UNL A   1      37.274  31.204  27.771  1.00  0.00    -0.252 OA
BRANCH   6   8
ATOM      8  C   UNL A   1      36.924  30.941  30.240  1.00  0.00     0.075 C 
ATOM      9  C   UNL A   1      45.707  31.946  32.018  1.00  0.00     0.105 C 
ATOM     10  C   UNL A   1      45.984  30.363  30.804  1.00  0.00     0.016 C 
ATOM     11  C   UNL A   1      43.896  32.484  32.589  1.00  0.00    -0.019 C 
ATOM     12  C   UNL A   1      44.394  29.146  30.471  1.00  0.00     0.008 C 
ATOM     13  C   UNL A   1      42.442  31.329  32.174  1.00  0.00     0.002 C 
ATOM     14  C   UNL A   1      43.491  33.956  32.046  1.00  0.00     0.012 C 
ATOM     15  C   UNL A   1      43.846  32.753  34.118  1.00  0.00     0.012 C 
ATOM     16  C   UNL A   1      42.575  29.882  30.880  1.00  0.00    -0.026 C 
ATOM     17  C   UNL A   1      40.951  31.551  32.445  1.00  0.00     0.005 C 
ATOM     18  C   UNL A   1      41.482  28.646  31.066  1.00  0.00     0.006 C 
ATOM     19  C   UNL A   1      41.955  30.688  29.690  1.00  0.00     0.012 C 
ATOM     20  C   UNL A   1      40.201  30.240  32.934  1.00  0.00     0.008 C 
ATOM     21  C   UNL A   1      40.998  28.188  29.627  1.00  0.00     0.032 C 
ATOM     22  C   UNL A   1      40.174  28.859  32.115  1.00  0.00    -0.020 C 
ATOM     23  C   UNL A   1      39.780  29.010  29.196  1.00  0.00    -0.027 C 
ATOM     24  C   UNL A   1      38.798  28.579  31.296  1.00  0.00    -0.006 C 
ATOM     25  C   UNL A   1      40.212  27.729  33.203  1.00  0.00     0.012 C 
ATOM     26  C   UNL A   1      38.967  29.529  30.140  1.00  0.00    -0.063 C 
ATOM     27  C   UNL A   1      37.357  28.787  31.847  1.00  0.00     0.013 C 
ATOM     28  C   UNL A   1      38.710  27.019  30.920  1.00  0.00     0.017 C 
ATOM     29  C   UNL A   1      38.422  31.026  30.411  1.00  0.00     0.033 C 
ATOM     30  C   UNL A   1      36.410  29.862  31.256  1.00  0.00     0.020 C 
ATOM     31  C   UNL A   1      38.920  32.401  29.800  1.00  0.00     0.015 C 
ATOM     32  C   UNL A   1      38.328  33.708  30.386  1.00  0.00    -0.035 C 
ATOM     33  C   UNL A   1      36.224  32.253  30.738  1.00  0.00     0.020 C 
ATOM     34  C   UNL A   1      36.799  33.613  30.372  1.00  0.00     0.007 C 
ATOM     35  C   UNL A   1      38.728  34.894  29.472  1.00  0.00     0.011 C 
ATOM     36  C   UNL A   1      38.894  34.043  31.778  1.00  0.00     0.011 C 
BRANCH   9  37
ATOM     37  C   UNL A   1      46.583  32.181  33.288  1.00  0.00     0.309 C 
ATOM     38  O   UNL A   1      47.071  33.243  33.650  1.00  0.00    -0.252 OA
BRANCH  37  39
ATOM     39  O   UNL A   1      46.960  30.990  33.842  1.00  0.00    -0.469 OA
ATOM     40  C   UNL A   1      47.961  31.140  34.858  1.00  0.00     0.282 C 
ENDBRANCH  37  39
ENDBRANCH   9  37
ENDBRANCH   6   8
ENDBRANCH   5   6
ENDBRANCH   4   5
ENDBRANCH   3   4
ENDBRANCH   2   3
ENDBRANCH   1   2
BRANCH   1  41
ATOM     41  C   UNL A   1      34.161  25.462  25.527  1.00  0.00     0.188 C 
BRANCH  41  42
ATOM     42  O   UNL A   1      33.933  24.176  26.062  1.00  0.00    -0.376 OA
BRANCH  42  43
ATOM     43  C   UNL A   1      34.849  23.141  25.700  1.00  0.00     0.202 C 
BRANCH  43  44
ATOM     44  C   UNL A   1      36.334  23.299  26.128  1.00  0.00     0.261 C 
BRANCH  44  45
ATOM     45  O   UNL A   1      37.374  22.711  25.246  1.00  0.00    -0.460 OA
BRANCH  45  46
ATOM     46  C   UNL A   1      38.581  21.940  25.773  1.00  0.00     0.338 C 
ATOM     47  O   UNL A   1      38.050  20.863  25.905  1.00  0.00    -0.246 OA
BRANCH  46  48
ATOM     48  C   UNL A   1      40.420  22.761  26.330  1.00  0.00     0.060 A 
ATOM     49  C   UNL A   1      40.709  23.957  27.068  1.00  0.00     0.016 A 
ATOM     50  C   UNL A   1      41.801  22.192  26.360  1.00  0.00     0.016 A 
ATOM     51  C   UNL A   1      41.885  24.655  27.335  1.00  0.00     0.010 A 
ATOM     52  C   UNL A   1      43.026  22.711  26.917  1.00  0.00     0.010 A 
ATOM     53  C   UNL A   1      43.056  23.987  27.395  1.00  0.00    -0.014 A 
BRANCH  53  54
ATOM     54  C   UNL A   1      44.193  24.769  27.867  1.00  0.00     0.031 A 
ATOM     55  C   UNL A   1      44.513  24.695  29.314  1.00  0.00     0.074 A 
ATOM     56  C   UNL A   1      45.047  25.280  26.955  1.00  0.00     0.049 A 
ATOM     57  N   UNL A   1      45.390  25.379  29.986  1.00  0.00    -0.248 NA
ATOM     58  C   UNL A   1      43.743  23.729  30.117  1.00  0.00     0.031 C 
ATOM     59  C   UNL A   1      44.880  25.188  25.494  1.00  0.00     0.029 A 
ATOM     60  N   UNL A   1      46.264  25.885  27.094  1.00  0.00    -0.354 N 
ATOM     61  C   UNL A   1      45.186  25.024  31.309  1.00  0.00     0.074 A 
ATOM     62  C   UNL A   1      44.166  24.003  31.340  1.00  0.00     0.031 C 
ATOM     63  C   UNL A   1      45.994  25.618  24.887  1.00  0.00     0.029 A 
ATOM     64  C   UNL A   1      46.876  26.180  25.896  1.00  0.00     0.049 A 
ATOM     65  H   UNL A   1      46.666  26.092  27.969  1.00  0.00     0.167 HD
ATOM     66  C   UNL A   1      45.774  25.589  32.384  1.00  0.00     0.037 A 
ATOM     67  C   UNL A   1      47.988  26.898  25.658  1.00  0.00     0.037 A 
ATOM     68  C   UNL A   1      46.812  26.574  32.246  1.00  0.00     0.049 A 
ATOM     69  C   UNL A   1      48.637  27.511  26.871  1.00  0.00     0.074 A 
ATOM     70  C   UNL A   1      47.436  27.330  33.215  1.00  0.00     0.029 A 
ATOM     71  N   UNL A   1      47.391  26.919  31.025  1.00  0.00    -0.354 N 
ATOM     72  N   UNL A   1      48.324  27.350  28.138  1.00  0.00    -0.248 NA
ATOM     73  C   UNL A   1      49.738  28.446  26.636  1.00  0.00     0.031 C 
ATOM     74  C   UNL A   1      48.369  28.157  32.575  1.00  0.00     0.029 A 
ATOM     75  C   UNL A   1      48.366  27.876  31.214  1.00  0.00     0.049 A 
ATOM     76  H   UNL A   1      47.139  26.534  30.154  1.00  0.00     0.167 HD
ATOM     77  C   UNL A   1      49.169  28.180  28.852  1.00  0.00     0.074 A 
ATOM     78  C   UNL A   1      50.046  28.802  27.875  1.00  0.00     0.031 C 
ATOM     79  C   UNL A   1      49.207  28.439  30.183  1.00  0.00     0.037 A 
BRANCH  66  80
ATOM     80  C   UNL A   1      45.185  25.267  33.721  1.00  0.00     0.064 A 
ATOM     81  C   UNL A   1      44.069  25.938  34.244  1.00  0.00     0.173 A 
ATOM     82  C   UNL A   1      45.818  24.317  34.540  1.00  0.00     0.173 A 
ATOM     83  F   UNL A   1      43.455  26.889  33.524  1.00  0.00    -0.203 F 
ATOM     84  C   UNL A   1      43.630  25.691  35.544  1.00  0.00     0.198 A 
ATOM     85  C   UNL A   1      45.359  24.052  35.827  1.00  0.00     0.198 A 
ATOM     86  F   UNL A   1      46.904  23.663  34.100  1.00  0.00    -0.203 F 
ATOM     87  F   UNL A   1      42.608  26.396  36.050  1.00  0.00    -0.200 F 
ATOM     88  C   UNL A   1      44.273  24.747  36.332  1.00  0.00     0.200 A 
ATOM     89  F   UNL A   1      45.985  23.142  36.585  1.00  0.00    -0.200 F 
ATOM     90  F   UNL A   1      43.857  24.521  37.587  1.00  0.00    -0.200 F 
ENDBRANCH  66  80
BRANCH  67  91
ATOM     91  C   UNL A   1      48.449  27.186  24.268  1.00  0.00     0.064 A 
ATOM     92  C   UNL A   1      47.654  27.901  23.362  1.00  0.00     0.173 A 
ATOM     93  C   UNL A   1      49.699  26.739  23.801  1.00  0.00     0.173 A 
ATOM     94  F   UNL A   1      46.441  28.336  23.735  1.00  0.00    -0.203 F 
ATOM     95  C   UNL A   1      48.078  28.144  22.053  1.00  0.00     0.198 A 
ATOM     96  C   UNL A   1      50.143  27.020  22.509  1.00  0.00     0.198 A 
ATOM     97  F   UNL A   1      50.509  26.036  24.607  1.00  0.00    -0.203 F 
ATOM     98  F   UNL A   1      47.271  28.783  21.196  1.00  0.00    -0.200 F 
ATOM     99  C   UNL A   1      49.327  27.712  21.631  1.00  0.00     0.200 A 
ATOM    100  F   UNL A   1      51.360  26.619  22.120  1.00  0.00    -0.200 F 
ATOM    101  F   UNL A   1      49.738  27.955  20.380  1.00  0.00    -0.200 F 
ENDBRANCH  67  91
BRANCH  79 102
ATOM    102  C   UNL A   1      50.250  29.409  30.633  1.00  0.00     0.064 A 
ATOM    103  C   UNL A   1      50.005  30.788  30.653  1.00  0.00     0.173 A 
ATOM    104  C   UNL A   1      51.489  28.941  31.090  1.00  0.00     0.173 A 
ATOM    105  F   UNL A   1      48.837  31.275  30.205  1.00  0.00    -0.203 F 
ATOM    106  C   UNL A   1      50.980  31.672  31.099  1.00  0.00     0.198 A 
ATOM    107  C   UNL A   1      52.449  29.826  31.563  1.00  0.00     0.198 A 
ATOM    108  F   UNL A   1      51.758  27.627  31.089  1.00  0.00    -0.203 F 
ATOM    109  F   UNL A   1      50.747  32.992  31.071  1.00  0.00    -0.200 F 
ATOM    110  C   UNL A   1      52.196  31.190  31.562  1.00  0.00     0.200 A 
ATOM    111  F   UNL A   1      53.618  29.358  32.022  1.00  0.00    -0.200 F 
ATOM    112  F   UNL A   1      53.131  32.043  32.001  1.00  0.00    -0.200 F 
ENDBRANCH  79 102
ENDBRANCH  53  54
ENDBRANCH  46  48
ENDBRANCH  45  46
ENDBRANCH  44  45
ENDBRANCH  43  44
ENDBRANCH  42  43
ENDBRANCH  41  42
ENDBRANCH   1  41
TORSDOF 19
ENDMDL
