MODEL 1
REMARK VINA RESULT:     -11.0      0.000      0.000
REMARK SMILES O=C(OCCOCCOCCOC(=O)c1ccc(S(=O)(=O)NCc2ccn[nH]2)c(F)c1)c1ccc(-c2c3nc(c(-c4c(F)c(F)c(F)c(F)c4F)c4ccc([nH]4)c(-c4c(F)c(F)c(F)c(F)c4F)c4nc(c(-c5c(F)c(F)c(F)c(F)c5F)c5ccc2[nH]5)C=C4)C=C3)cc1
REMARK SMILES IDX 8 1 7 2 6 3 5 4 4 5 3 6 2 7 1 8 32 9 33 10 94 11 34 12 93 13
REMARK SMILES IDX 35 14 36 15 37 16 87 17 38 18 92 19 86 20 88 21 39 22 91 23
REMARK SMILES IDX 85 24 84 25 40 27 72 28 52 29 71 30 53 31 56 32 70 33 89 34
REMARK SMILES IDX 54 35 55 36 69 38 90 39 57 40 41 41 42 42 50 43 43 44 44 45
REMARK SMILES IDX 48 46 51 47 45 48 46 49 49 50 47 51 73 52 74 53 82 54 75 55
REMARK SMILES IDX 76 56 80 57 83 58 77 59 78 60 81 61 79 62 58 63 59 64 67 65
REMARK SMILES IDX 60 66 61 67 65 68 68 69 62 70 63 71 66 72 64 73 9 74 10 75
REMARK SMILES IDX 11 76 12 77 13 78 14 79 15 80 16 81 31 82 17 83 29 84 18 85
REMARK SMILES IDX 30 86 19 87 20 88 21 89 22 90 23 92 24 93 25 94 28 95 26 96
REMARK SMILES IDX 27 97
REMARK H PARENT 88 26 56 37 22 91 28 98
REMARK Flexibility Score: inf
ROOT
ATOM      1  C   UNL A   1      33.287  29.057  25.779  1.00  0.00     0.188 C 
ENDROOT
BRANCH   1   2
ATOM      2  C   UNL A   1      32.668  29.966  26.840  1.00  0.00     0.188 C 
BRANCH   2   3
ATOM      3  O   UNL A   1      31.412  30.534  26.459  1.00  0.00    -0.376 OA
BRANCH   3   4
ATOM      4  C   UNL A   1      31.383  31.967  26.508  1.00  0.00     0.202 C 
BRANCH   4   5
ATOM      5  C   UNL A   1      32.595  32.653  27.172  1.00  0.00     0.261 C 
BRANCH   5   6
ATOM      6  O   UNL A   1      32.322  33.966  27.700  1.00  0.00    -0.460 OA
BRANCH   6   7
ATOM      7  C   UNL A   1      33.007  34.674  28.632  1.00  0.00     0.338 C 
ATOM      8  O   UNL A   1      32.612  35.802  28.925  1.00  0.00    -0.246 OA
BRANCH   7   9
ATOM      9  C   UNL A   1      34.243  34.180  29.308  1.00  0.00     0.060 A 
ATOM     10  C   UNL A   1      35.536  34.412  28.851  1.00  0.00     0.016 A 
ATOM     11  C   UNL A   1      34.096  33.490  30.525  1.00  0.00     0.016 A 
ATOM     12  C   UNL A   1      36.644  33.901  29.500  1.00  0.00     0.010 A 
ATOM     13  C   UNL A   1      35.211  33.010  31.221  1.00  0.00     0.010 A 
ATOM     14  C   UNL A   1      36.490  33.189  30.682  1.00  0.00    -0.014 A 
BRANCH  14  15
ATOM     15  C   UNL A   1      37.685  32.509  31.204  1.00  0.00     0.031 A 
ATOM     16  C   UNL A   1      38.148  32.872  32.582  1.00  0.00     0.074 A 
ATOM     17  C   UNL A   1      38.182  31.445  30.547  1.00  0.00     0.049 A 
ATOM     18  N   UNL A   1      39.158  32.408  33.264  1.00  0.00    -0.248 NA
ATOM     19  C   UNL A   1      37.339  33.868  33.310  1.00  0.00     0.031 C 
ATOM     20  C   UNL A   1      37.651  30.906  29.292  1.00  0.00     0.029 A 
ATOM     21  N   UNL A   1      39.200  30.590  30.868  1.00  0.00    -0.354 N 
ATOM     22  C   UNL A   1      39.116  33.065  34.485  1.00  0.00     0.074 A 
ATOM     23  C   UNL A   1      37.993  33.970  34.456  1.00  0.00     0.031 C 
ATOM     24  C   UNL A   1      38.335  29.798  28.966  1.00  0.00     0.029 A 
ATOM     25  C   UNL A   1      39.401  29.599  29.938  1.00  0.00     0.049 A 
ATOM     26  H   UNL A   1      39.739  30.677  31.687  1.00  0.00     0.167 HD
ATOM     27  C   UNL A   1      39.951  32.908  35.535  1.00  0.00     0.037 A 
ATOM     28  C   UNL A   1      40.367  28.666  29.868  1.00  0.00     0.037 A 
ATOM     29  C   UNL A   1      41.051  31.984  35.529  1.00  0.00     0.049 A 
ATOM     30  C   UNL A   1      41.386  28.638  30.970  1.00  0.00     0.074 A 
ATOM     31  C   UNL A   1      42.018  31.788  36.495  1.00  0.00     0.029 A 
ATOM     32  N   UNL A   1      41.321  31.096  34.495  1.00  0.00    -0.354 N 
ATOM     33  N   UNL A   1      41.406  29.322  32.090  1.00  0.00    -0.248 NA
ATOM     34  C   UNL A   1      42.519  27.723  30.799  1.00  0.00     0.031 C 
ATOM     35  C   UNL A   1      42.902  30.815  36.024  1.00  0.00     0.029 A 
ATOM     36  C   UNL A   1      42.451  30.358  34.795  1.00  0.00     0.049 A 
ATOM     37  H   UNL A   1      40.788  31.006  33.672  1.00  0.00     0.167 HD
ATOM     38  C   UNL A   1      42.541  28.909  32.767  1.00  0.00     0.074 A 
ATOM     39  C   UNL A   1      43.168  27.894  31.942  1.00  0.00     0.031 C 
ATOM     40  C   UNL A   1      43.025  29.332  33.960  1.00  0.00     0.037 A 
BRANCH  27  41
ATOM     41  C   UNL A   1      39.737  33.776  36.736  1.00  0.00     0.064 A 
ATOM     42  C   UNL A   1      38.911  33.337  37.783  1.00  0.00     0.173 A 
ATOM     43  C   UNL A   1      40.311  35.050  36.844  1.00  0.00     0.173 A 
ATOM     44  F   UNL A   1      38.350  32.119  37.735  1.00  0.00    -0.203 F 
ATOM     45  C   UNL A   1      38.650  34.152  38.881  1.00  0.00     0.198 A 
ATOM     46  C   UNL A   1      40.069  35.853  37.956  1.00  0.00     0.198 A 
ATOM     47  F   UNL A   1      41.137  35.503  35.887  1.00  0.00    -0.203 F 
ATOM     48  F   UNL A   1      37.838  33.719  39.855  1.00  0.00    -0.200 F 
ATOM     49  C   UNL A   1      39.231  35.407  38.968  1.00  0.00     0.200 A 
ATOM     50  F   UNL A   1      40.657  37.053  38.056  1.00  0.00    -0.200 F 
ATOM     51  F   UNL A   1      38.987  36.187  40.031  1.00  0.00    -0.200 F 
ENDBRANCH  27  41
BRANCH  28  52
ATOM     52  C   UNL A   1      40.453  27.743  28.705  1.00  0.00     0.064 A 
ATOM     53  C   UNL A   1      39.793  26.504  28.725  1.00  0.00     0.173 A 
ATOM     54  C   UNL A   1      41.170  28.071  27.550  1.00  0.00     0.173 A 
ATOM     55  F   UNL A   1      39.063  26.160  29.792  1.00  0.00    -0.203 F 
ATOM     56  C   UNL A   1      39.881  25.614  27.657  1.00  0.00     0.198 A 
ATOM     57  C   UNL A   1      41.223  27.200  26.461  1.00  0.00     0.198 A 
ATOM     58  F   UNL A   1      41.795  29.255  27.463  1.00  0.00    -0.203 F 
ATOM     59  F   UNL A   1      39.284  24.417  27.730  1.00  0.00    -0.200 F 
ATOM     60  C   UNL A   1      40.588  25.967  26.521  1.00  0.00     0.200 A 
ATOM     61  F   UNL A   1      41.883  27.558  25.351  1.00  0.00    -0.200 F 
ATOM     62  F   UNL A   1      40.656  25.124  25.481  1.00  0.00    -0.200 F 
ENDBRANCH  28  52
BRANCH  40  63
ATOM     63  C   UNL A   1      44.257  28.657  34.473  1.00  0.00     0.064 A 
ATOM     64  C   UNL A   1      44.143  27.555  35.335  1.00  0.00     0.173 A 
ATOM     65  C   UNL A   1      45.538  29.148  34.189  1.00  0.00     0.173 A 
ATOM     66  F   UNL A   1      42.936  27.057  35.642  1.00  0.00    -0.203 F 
ATOM     67  C   UNL A   1      45.271  26.985  35.913  1.00  0.00     0.198 A 
ATOM     68  C   UNL A   1      46.666  28.551  34.740  1.00  0.00     0.198 A 
ATOM     69  F   UNL A   1      45.694  30.190  33.358  1.00  0.00    -0.203 F 
ATOM     70  F   UNL A   1      45.136  25.966  36.773  1.00  0.00    -0.200 F 
ATOM     71  C   UNL A   1      46.530  27.480  35.613  1.00  0.00     0.200 A 
ATOM     72  F   UNL A   1      47.885  29.010  34.427  1.00  0.00    -0.200 F 
ATOM     73  F   UNL A   1      47.617  26.923  36.164  1.00  0.00    -0.200 F 
ENDBRANCH  40  63
ENDBRANCH  14  15
ENDBRANCH   7   9
ENDBRANCH   6   7
ENDBRANCH   5   6
ENDBRANCH   4   5
ENDBRANCH   3   4
ENDBRANCH   2   3
ENDBRANCH   1   2
BRANCH   1  74
ATOM     74  O   UNL A   1      33.047  29.391  24.418  1.00  0.00    -0.376 OA
BRANCH  74  75
ATOM     75  C   UNL A   1      32.261  28.485  23.656  1.00  0.00     0.202 C 
BRANCH  75  76
ATOM     76  C   UNL A   1      32.981  27.428  22.801  1.00  0.00     0.261 C 
BRANCH  76  77
ATOM     77  O   UNL A   1      32.397  26.109  22.774  1.00  0.00    -0.460 OA
BRANCH  77  78
ATOM     78  C   UNL A   1      32.973  25.264  21.886  1.00  0.00     0.338 C 
ATOM     79  O   UNL A   1      33.067  25.408  20.678  1.00  0.00    -0.246 OA
BRANCH  78  80
ATOM     80  C   UNL A   1      33.449  24.027  22.529  1.00  0.00     0.063 A 
ATOM     81  C   UNL A   1      34.632  24.111  23.267  1.00  0.00     0.017 A 
ATOM     82  C   UNL A   1      32.629  22.896  22.633  1.00  0.00     0.056 A 
ATOM     83  C   UNL A   1      34.973  23.074  24.137  1.00  0.00     0.026 A 
ATOM     84  C   UNL A   1      32.978  21.865  23.513  1.00  0.00     0.144 A 
ATOM     85  C   UNL A   1      34.133  21.956  24.273  1.00  0.00     0.118 A 
ATOM     86  F   UNL A   1      32.151  20.818  23.623  1.00  0.00    -0.205 F 
BRANCH  85  87
ATOM     87  S   UNL A   1      34.614  20.742  25.454  1.00  0.00     0.243 S 
ATOM     88  O   UNL A   1      34.397  19.465  24.822  1.00  0.00    -0.207 OA
ATOM     89  O   UNL A   1      35.931  21.123  25.928  1.00  0.00    -0.207 OA
BRANCH  87  90
ATOM     90  N   UNL A   1      33.615  20.787  26.771  1.00  0.00    -0.205 NA
ATOM     91  H   UNL A   1      33.976  20.079  27.410  1.00  0.00     0.141 HD
BRANCH  90  92
ATOM     92  C   UNL A   1      33.369  21.954  27.587  1.00  0.00     0.154 C 
BRANCH  92  93
ATOM     93  C   UNL A   1      32.338  22.867  27.047  1.00  0.00     0.050 A 
ATOM     94  C   UNL A   1      32.432  24.171  26.602  1.00  0.00     0.046 A 
ATOM     95  N   UNL A   1      31.047  22.489  26.774  1.00  0.00    -0.281 N 
ATOM     96  C   UNL A   1      31.179  24.456  26.029  1.00  0.00     0.135 A 
ATOM     97  N   UNL A   1      30.332  23.436  26.144  1.00  0.00    -0.184 NA
ATOM     98  H   UNL A   1      30.679  21.609  27.016  1.00  0.00     0.190 HD
ENDBRANCH  92  93
ENDBRANCH  90  92
ENDBRANCH  87  90
ENDBRANCH  85  87
ENDBRANCH  78  80
ENDBRANCH  77  78
ENDBRANCH  76  77
ENDBRANCH  75  76
ENDBRANCH  74  75
ENDBRANCH   1  74
TORSDOF 21
ENDMDL
MODEL 2
REMARK VINA RESULT:     -11.0      3.564      8.982
REMARK SMILES O=C(OCCOCCOCCOC(=O)c1ccc(S(=O)(=O)NCc2ccn[nH]2)c(F)c1)c1ccc(-c2c3nc(c(-c4c(F)c(F)c(F)c(F)c4F)c4ccc([nH]4)c(-c4c(F)c(F)c(F)c(F)c4F)c4nc(c(-c5c(F)c(F)c(F)c(F)c5F)c5ccc2[nH]5)C=C4)C=C3)cc1
REMARK SMILES IDX 8 1 7 2 6 3 5 4 4 5 3 6 2 7 1 8 32 9 33 10 94 11 34 12 93 13
REMARK SMILES IDX 35 14 36 15 37 16 87 17 38 18 92 19 86 20 88 21 39 22 91 23
REMARK SMILES IDX 85 24 84 25 40 27 72 28 52 29 71 30 53 31 56 32 70 33 89 34
REMARK SMILES IDX 54 35 55 36 69 38 90 39 57 40 41 41 42 42 50 43 43 44 44 45
REMARK SMILES IDX 48 46 51 47 45 48 46 49 49 50 47 51 73 52 74 53 82 54 75 55
REMARK SMILES IDX 76 56 80 57 83 58 77 59 78 60 81 61 79 62 58 63 59 64 67 65
REMARK SMILES IDX 60 66 61 67 65 68 68 69 62 70 63 71 66 72 64 73 9 74 10 75
REMARK SMILES IDX 11 76 12 77 13 78 14 79 15 80 16 81 31 82 17 83 29 84 18 85
REMARK SMILES IDX 30 86 19 87 20 88 21 89 22 90 23 92 24 93 25 94 28 95 26 96
REMARK SMILES IDX 27 97
REMARK H PARENT 88 26 56 37 22 91 28 98
REMARK Flexibility Score: inf
ROOT
ATOM      1  C   UNL A   1      43.736  18.772  25.356  1.00  0.00     0.188 C 
ENDROOT
BRANCH   1   2
ATOM      2  C   UNL A   1      44.727  19.342  24.343  1.00  0.00     0.188 C 
BRANCH   2   3
ATOM      3  O   UNL A   1      45.881  19.946  24.933  1.00  0.00    -0.376 OA
BRANCH   3   4
ATOM      4  C   UNL A   1      45.925  21.373  24.799  1.00  0.00     0.202 C 
BRANCH   4   5
ATOM      5  C   UNL A   1      45.286  22.187  25.945  1.00  0.00     0.261 C 
BRANCH   5   6
ATOM      6  O   UNL A   1      44.285  23.130  25.519  1.00  0.00    -0.460 OA
BRANCH   6   7
ATOM      7  C   UNL A   1      44.330  24.486  25.519  1.00  0.00     0.338 C 
ATOM      8  O   UNL A   1      45.014  25.055  24.669  1.00  0.00    -0.246 OA
BRANCH   7   9
ATOM      9  C   UNL A   1      43.621  25.341  26.517  1.00  0.00     0.060 A 
ATOM     10  C   UNL A   1      43.855  26.701  26.695  1.00  0.00     0.016 A 
ATOM     11  C   UNL A   1      42.602  24.749  27.284  1.00  0.00     0.016 A 
ATOM     12  C   UNL A   1      43.192  27.437  27.658  1.00  0.00     0.010 A 
ATOM     13  C   UNL A   1      41.887  25.493  28.229  1.00  0.00     0.010 A 
ATOM     14  C   UNL A   1      42.211  26.837  28.438  1.00  0.00    -0.014 A 
BRANCH  14  15
ATOM     15  C   UNL A   1      41.696  27.624  29.570  1.00  0.00     0.031 A 
ATOM     16  C   UNL A   1      42.528  27.681  30.815  1.00  0.00     0.074 A 
ATOM     17  C   UNL A   1      40.640  28.437  29.385  1.00  0.00     0.049 A 
ATOM     18  N   UNL A   1      42.300  28.312  31.933  1.00  0.00    -0.248 NA
ATOM     19  C   UNL A   1      43.814  26.960  30.784  1.00  0.00     0.031 C 
ATOM     20  C   UNL A   1      39.899  28.585  28.129  1.00  0.00     0.029 A 
ATOM     21  N   UNL A   1      40.041  29.332  30.228  1.00  0.00    -0.354 N 
ATOM     22  C   UNL A   1      43.397  28.049  32.739  1.00  0.00     0.074 A 
ATOM     23  C   UNL A   1      44.290  27.194  31.997  1.00  0.00     0.031 C 
ATOM     24  C   UNL A   1      38.963  29.535  28.281  1.00  0.00     0.029 A 
ATOM     25  C   UNL A   1      38.982  29.998  29.661  1.00  0.00     0.049 A 
ATOM     26  H   UNL A   1      40.341  29.486  31.152  1.00  0.00     0.167 HD
ATOM     27  C   UNL A   1      43.627  28.500  33.992  1.00  0.00     0.037 A 
ATOM     28  C   UNL A   1      38.105  30.854  30.217  1.00  0.00     0.037 A 
ATOM     29  C   UNL A   1      42.717  29.363  34.693  1.00  0.00     0.049 A 
ATOM     30  C   UNL A   1      38.291  31.193  31.667  1.00  0.00     0.074 A 
ATOM     31  C   UNL A   1      42.793  29.823  35.992  1.00  0.00     0.029 A 
ATOM     32  N   UNL A   1      41.562  29.899  34.136  1.00  0.00    -0.354 N 
ATOM     33  N   UNL A   1      39.282  30.874  32.467  1.00  0.00    -0.248 NA
ATOM     34  C   UNL A   1      37.240  31.999  32.297  1.00  0.00     0.031 C 
ATOM     35  C   UNL A   1      41.658  30.598  36.238  1.00  0.00     0.029 A 
ATOM     36  C   UNL A   1      40.907  30.676  35.075  1.00  0.00     0.049 A 
ATOM     37  H   UNL A   1      41.255  29.747  33.213  1.00  0.00     0.167 HD
ATOM     38  C   UNL A   1      38.985  31.453  33.689  1.00  0.00     0.074 A 
ATOM     39  C   UNL A   1      37.734  32.166  33.516  1.00  0.00     0.031 C 
ATOM     40  C   UNL A   1      39.679  31.397  34.851  1.00  0.00     0.037 A 
BRANCH  27  41
ATOM     41  C   UNL A   1      44.867  28.032  34.688  1.00  0.00     0.064 A 
ATOM     42  C   UNL A   1      44.853  26.834  35.420  1.00  0.00     0.173 A 
ATOM     43  C   UNL A   1      46.057  28.773  34.666  1.00  0.00     0.173 A 
ATOM     44  F   UNL A   1      43.744  26.080  35.460  1.00  0.00    -0.203 F 
ATOM     45  C   UNL A   1      45.976  26.411  36.125  1.00  0.00     0.198 A 
ATOM     46  C   UNL A   1      47.187  28.333  35.350  1.00  0.00     0.198 A 
ATOM     47  F   UNL A   1      46.134  29.907  33.951  1.00  0.00    -0.203 F 
ATOM     48  F   UNL A   1      45.929  25.277  36.838  1.00  0.00    -0.200 F 
ATOM     49  C   UNL A   1      47.143  27.159  36.087  1.00  0.00     0.200 A 
ATOM     50  F   UNL A   1      48.324  29.039  35.287  1.00  0.00    -0.200 F 
ATOM     51  F   UNL A   1      48.227  26.744  36.757  1.00  0.00    -0.200 F 
ENDBRANCH  27  41
BRANCH  28  52
ATOM     52  C   UNL A   1      36.959  31.387  29.433  1.00  0.00     0.064 A 
ATOM     53  C   UNL A   1      36.920  32.737  29.051  1.00  0.00     0.173 A 
ATOM     54  C   UNL A   1      35.893  30.574  29.033  1.00  0.00     0.173 A 
ATOM     55  F   UNL A   1      37.934  33.546  29.377  1.00  0.00    -0.203 F 
ATOM     56  C   UNL A   1      35.844  33.263  28.339  1.00  0.00     0.198 A 
ATOM     57  C   UNL A   1      34.835  31.089  28.282  1.00  0.00     0.198 A 
ATOM     58  F   UNL A   1      35.892  29.270  29.344  1.00  0.00    -0.203 F 
ATOM     59  F   UNL A   1      35.813  34.567  28.037  1.00  0.00    -0.200 F 
ATOM     60  C   UNL A   1      34.807  32.435  27.946  1.00  0.00     0.200 A 
ATOM     61  F   UNL A   1      33.847  30.279  27.877  1.00  0.00    -0.200 F 
ATOM     62  F   UNL A   1      33.781  32.931  27.240  1.00  0.00    -0.200 F 
ENDBRANCH  28  52
BRANCH  40  63
ATOM     63  C   UNL A   1      39.136  32.176  36.007  1.00  0.00     0.064 A 
ATOM     64  C   UNL A   1      39.572  33.490  36.231  1.00  0.00     0.173 A 
ATOM     65  C   UNL A   1      38.261  31.599  36.937  1.00  0.00     0.173 A 
ATOM     66  F   UNL A   1      40.418  34.080  35.372  1.00  0.00    -0.203 F 
ATOM     67  C   UNL A   1      39.169  34.192  37.361  1.00  0.00     0.198 A 
ATOM     68  C   UNL A   1      37.830  32.317  38.047  1.00  0.00     0.198 A 
ATOM     69  F   UNL A   1      37.806  30.350  36.754  1.00  0.00    -0.203 F 
ATOM     70  F   UNL A   1      39.638  35.427  37.582  1.00  0.00    -0.200 F 
ATOM     71  C   UNL A   1      38.295  33.607  38.265  1.00  0.00     0.200 A 
ATOM     72  F   UNL A   1      36.963  31.763  38.905  1.00  0.00    -0.200 F 
ATOM     73  F   UNL A   1      37.900  34.287  39.349  1.00  0.00    -0.200 F 
ENDBRANCH  40  63
ENDBRANCH  14  15
ENDBRANCH   7   9
ENDBRANCH   6   7
ENDBRANCH   5   6
ENDBRANCH   4   5
ENDBRANCH   3   4
ENDBRANCH   2   3
ENDBRANCH   1   2
BRANCH   1  74
ATOM     74  O   UNL A   1      42.394  19.235  25.283  1.00  0.00    -0.376 OA
BRANCH  74  75
ATOM     75  C   UNL A   1      42.026  20.298  26.152  1.00  0.00     0.202 C 
BRANCH  75  76
ATOM     76  C   UNL A   1      40.609  20.298  26.751  1.00  0.00     0.261 C 
BRANCH  76  77
ATOM     77  O   UNL A   1      39.549  20.797  25.909  1.00  0.00    -0.460 OA
BRANCH  77  78
ATOM     78  C   UNL A   1      39.140  22.051  26.216  1.00  0.00     0.338 C 
ATOM     79  O   UNL A   1      39.662  22.833  26.994  1.00  0.00    -0.246 OA
BRANCH  78  80
ATOM     80  C   UNL A   1      37.876  22.399  25.543  1.00  0.00     0.063 A 
ATOM     81  C   UNL A   1      37.180  21.360  24.923  1.00  0.00     0.017 A 
ATOM     82  C   UNL A   1      37.260  23.641  25.744  1.00  0.00     0.056 A 
ATOM     83  C   UNL A   1      35.854  21.555  24.537  1.00  0.00     0.026 A 
ATOM     84  C   UNL A   1      35.927  23.825  25.358  1.00  0.00     0.144 A 
ATOM     85  C   UNL A   1      35.220  22.787  24.773  1.00  0.00     0.118 A 
ATOM     86  F   UNL A   1      35.352  25.009  25.606  1.00  0.00    -0.205 F 
BRANCH  85  87
ATOM     87  S   UNL A   1      33.523  22.904  24.320  1.00  0.00     0.243 S 
ATOM     88  O   UNL A   1      33.055  24.157  24.858  1.00  0.00    -0.207 OA
ATOM     89  O   UNL A   1      33.452  22.633  22.898  1.00  0.00    -0.207 OA
BRANCH  87  90
ATOM     90  N   UNL A   1      32.642  21.719  25.065  1.00  0.00    -0.205 NA
ATOM     91  H   UNL A   1      32.187  21.204  24.311  1.00  0.00     0.141 HD
BRANCH  90  92
ATOM     92  C   UNL A   1      33.184  20.711  25.947  1.00  0.00     0.154 C 
BRANCH  92  93
ATOM     93  C   UNL A   1      32.947  19.321  25.500  1.00  0.00     0.050 A 
ATOM     94  C   UNL A   1      33.029  18.752  24.245  1.00  0.00     0.046 A 
ATOM     95  N   UNL A   1      32.702  18.273  26.352  1.00  0.00    -0.281 N 
ATOM     96  C   UNL A   1      32.884  17.369  24.458  1.00  0.00     0.135 A 
ATOM     97  N   UNL A   1      32.674  17.078  25.740  1.00  0.00    -0.184 NA
ATOM     98  H   UNL A   1      32.560  18.386  27.320  1.00  0.00     0.190 HD
ENDBRANCH  92  93
ENDBRANCH  90  92
ENDBRANCH  87  90
ENDBRANCH  85  87
ENDBRANCH  78  80
ENDBRANCH  77  78
ENDBRANCH  76  77
ENDBRANCH  75  76
ENDBRANCH  74  75
ENDBRANCH   1  74
TORSDOF 21
ENDMDL
MODEL 3
REMARK VINA RESULT:     -10.9      1.351      2.453
REMARK SMILES O=C(OCCOCCOCCOC(=O)c1ccc(S(=O)(=O)NCc2ccn[nH]2)c(F)c1)c1ccc(-c2c3nc(c(-c4c(F)c(F)c(F)c(F)c4F)c4ccc([nH]4)c(-c4c(F)c(F)c(F)c(F)c4F)c4nc(c(-c5c(F)c(F)c(F)c(F)c5F)c5ccc2[nH]5)C=C4)C=C3)cc1
REMARK SMILES IDX 8 1 7 2 6 3 5 4 4 5 3 6 2 7 1 8 32 9 33 10 94 11 34 12 93 13
REMARK SMILES IDX 35 14 36 15 37 16 87 17 38 18 92 19 86 20 88 21 39 22 91 23
REMARK SMILES IDX 85 24 84 25 40 27 72 28 52 29 71 30 53 31 56 32 70 33 89 34
REMARK SMILES IDX 54 35 55 36 69 38 90 39 57 40 41 41 42 42 50 43 43 44 44 45
REMARK SMILES IDX 48 46 51 47 45 48 46 49 49 50 47 51 73 52 74 53 82 54 75 55
REMARK SMILES IDX 76 56 80 57 83 58 77 59 78 60 81 61 79 62 58 63 59 64 67 65
REMARK SMILES IDX 60 66 61 67 65 68 68 69 62 70 63 71 66 72 64 73 9 74 10 75
REMARK SMILES IDX 11 76 12 77 13 78 14 79 15 80 16 81 31 82 17 83 29 84 18 85
REMARK SMILES IDX 30 86 19 87 20 88 21 89 22 90 23 92 24 93 25 94 28 95 26 96
REMARK SMILES IDX 27 97
REMARK H PARENT 88 26 56 37 22 91 28 98
REMARK Flexibility Score: inf
ROOT
ATOM      1  C   UNL A   1      32.282  28.728  26.208  1.00  0.00     0.188 C 
ENDROOT
BRANCH   1   2
ATOM      2  C   UNL A   1      32.145  30.090  26.888  1.00  0.00     0.188 C 
BRANCH   2   3
ATOM      3  O   UNL A   1      31.058  30.879  26.397  1.00  0.00    -0.376 OA
BRANCH   3   4
ATOM      4  C   UNL A   1      31.332  32.286  26.353  1.00  0.00     0.202 C 
BRANCH   4   5
ATOM      5  C   UNL A   1      32.402  32.804  27.338  1.00  0.00     0.261 C 
BRANCH   5   6
ATOM      6  O   UNL A   1      32.195  34.158  27.783  1.00  0.00    -0.460 OA
BRANCH   6   7
ATOM      7  C   UNL A   1      32.903  34.880  28.688  1.00  0.00     0.338 C 
ATOM      8  O   UNL A   1      32.531  36.023  28.953  1.00  0.00    -0.246 OA
BRANCH   7   9
ATOM      9  C   UNL A   1      34.137  34.383  29.365  1.00  0.00     0.060 A 
ATOM     10  C   UNL A   1      35.421  34.494  28.840  1.00  0.00     0.016 A 
ATOM     11  C   UNL A   1      34.003  33.825  30.649  1.00  0.00     0.016 A 
ATOM     12  C   UNL A   1      36.525  33.985  29.496  1.00  0.00     0.010 A 
ATOM     13  C   UNL A   1      35.119  33.350  31.348  1.00  0.00     0.010 A 
ATOM     14  C   UNL A   1      36.381  33.401  30.748  1.00  0.00    -0.014 A 
BRANCH  14  15
ATOM     15  C   UNL A   1      37.559  32.707  31.291  1.00  0.00     0.031 A 
ATOM     16  C   UNL A   1      38.008  33.072  32.674  1.00  0.00     0.074 A 
ATOM     17  C   UNL A   1      38.048  31.630  30.649  1.00  0.00     0.049 A 
ATOM     18  N   UNL A   1      39.001  32.598  33.373  1.00  0.00    -0.248 NA
ATOM     19  C   UNL A   1      37.204  34.085  33.383  1.00  0.00     0.031 C 
ATOM     20  C   UNL A   1      37.527  31.090  29.390  1.00  0.00     0.029 A 
ATOM     21  N   UNL A   1      39.049  30.762  30.990  1.00  0.00    -0.354 N 
ATOM     22  C   UNL A   1      38.952  33.263  34.589  1.00  0.00     0.074 A 
ATOM     23  C   UNL A   1      37.844  34.186  34.538  1.00  0.00     0.031 C 
ATOM     24  C   UNL A   1      38.198  29.969  29.082  1.00  0.00     0.029 A 
ATOM     25  C   UNL A   1      39.247  29.762  30.070  1.00  0.00     0.049 A 
ATOM     26  H   UNL A   1      39.577  30.846  31.816  1.00  0.00     0.167 HD
ATOM     27  C   UNL A   1      39.769  33.101  35.651  1.00  0.00     0.037 A 
ATOM     28  C   UNL A   1      40.199  28.813  30.020  1.00  0.00     0.037 A 
ATOM     29  C   UNL A   1      40.855  32.161  35.667  1.00  0.00     0.049 A 
ATOM     30  C   UNL A   1      41.202  28.777  31.137  1.00  0.00     0.074 A 
ATOM     31  C   UNL A   1      41.806  31.957  36.648  1.00  0.00     0.029 A 
ATOM     32  N   UNL A   1      41.126  31.261  34.644  1.00  0.00    -0.354 N 
ATOM     33  N   UNL A   1      41.217  29.469  32.252  1.00  0.00    -0.248 NA
ATOM     34  C   UNL A   1      42.323  27.843  30.988  1.00  0.00     0.031 C 
ATOM     35  C   UNL A   1      42.681  30.966  36.197  1.00  0.00     0.029 A 
ATOM     36  C   UNL A   1      42.240  30.507  34.964  1.00  0.00     0.049 A 
ATOM     37  H   UNL A   1      40.603  31.173  33.813  1.00  0.00     0.167 HD
ATOM     38  C   UNL A   1      42.336  29.043  32.948  1.00  0.00     0.074 A 
ATOM     39  C   UNL A   1      42.959  28.013  32.139  1.00  0.00     0.031 C 
ATOM     40  C   UNL A   1      42.810  29.467  34.145  1.00  0.00     0.037 A 
BRANCH  27  41
ATOM     41  C   UNL A   1      39.552  33.981  36.843  1.00  0.00     0.064 A 
ATOM     42  C   UNL A   1      40.131  35.259  36.888  1.00  0.00     0.173 A 
ATOM     43  C   UNL A   1      38.808  33.559  37.953  1.00  0.00     0.173 A 
ATOM     44  F   UNL A   1      40.840  35.716  35.845  1.00  0.00    -0.203 F 
ATOM     45  C   UNL A   1      39.993  36.071  38.010  1.00  0.00     0.198 A 
ATOM     46  C   UNL A   1      38.649  34.384  39.065  1.00  0.00     0.198 A 
ATOM     47  F   UNL A   1      38.204  32.360  37.946  1.00  0.00    -0.203 F 
ATOM     48  F   UNL A   1      40.577  37.276  38.038  1.00  0.00    -0.200 F 
ATOM     49  C   UNL A   1      39.251  35.633  39.096  1.00  0.00     0.200 A 
ATOM     50  F   UNL A   1      37.904  33.975  40.100  1.00  0.00    -0.200 F 
ATOM     51  F   UNL A   1      39.110  36.421  40.172  1.00  0.00    -0.200 F 
ENDBRANCH  27  41
BRANCH  28  52
ATOM     52  C   UNL A   1      40.287  27.880  28.865  1.00  0.00     0.064 A 
ATOM     53  C   UNL A   1      39.647  26.631  28.904  1.00  0.00     0.173 A 
ATOM     54  C   UNL A   1      40.986  28.209  27.699  1.00  0.00     0.173 A 
ATOM     55  F   UNL A   1      38.936  26.286  29.983  1.00  0.00    -0.203 F 
ATOM     56  C   UNL A   1      39.738  25.733  27.843  1.00  0.00     0.198 A 
ATOM     57  C   UNL A   1      41.041  27.328  26.617  1.00  0.00     0.198 A 
ATOM     58  F   UNL A   1      41.590  29.402  27.594  1.00  0.00    -0.203 F 
ATOM     59  F   UNL A   1      39.161  24.527  27.935  1.00  0.00    -0.200 F 
ATOM     60  C   UNL A   1      40.427  26.087  26.696  1.00  0.00     0.200 A 
ATOM     61  F   UNL A   1      41.682  27.686  25.496  1.00  0.00    -0.200 F 
ATOM     62  F   UNL A   1      40.496  25.235  25.663  1.00  0.00    -0.200 F 
ENDBRANCH  28  52
BRANCH  40  63
ATOM     63  C   UNL A   1      44.024  28.777  34.680  1.00  0.00     0.064 A 
ATOM     64  C   UNL A   1      45.302  29.253  34.347  1.00  0.00     0.173 A 
ATOM     65  C   UNL A   1      43.930  27.604  35.439  1.00  0.00     0.173 A 
ATOM     66  F   UNL A   1      45.440  30.369  33.614  1.00  0.00    -0.203 F 
ATOM     67  C   UNL A   1      46.443  28.563  34.738  1.00  0.00     0.198 A 
ATOM     68  C   UNL A   1      45.075  26.936  35.860  1.00  0.00     0.198 A 
ATOM     69  F   UNL A   1      42.729  27.121  35.792  1.00  0.00    -0.203 F 
ATOM     70  F   UNL A   1      47.651  29.008  34.367  1.00  0.00    -0.200 F 
ATOM     71  C   UNL A   1      46.328  27.408  35.497  1.00  0.00     0.200 A 
ATOM     72  F   UNL A   1      44.966  25.837  36.617  1.00  0.00    -0.200 F 
ATOM     73  F   UNL A   1      47.430  26.749  35.880  1.00  0.00    -0.200 F 
ENDBRANCH  40  63
ENDBRANCH  14  15
ENDBRANCH   7   9
ENDBRANCH   6   7
ENDBRANCH   5   6
ENDBRANCH   4   5
ENDBRANCH   3   4
ENDBRANCH   2   3
ENDBRANCH   1   2
BRANCH   1  74
ATOM     74  O   UNL A   1      33.302  28.592  25.228  1.00  0.00    -0.376 OA
BRANCH  74  75
ATOM     75  C   UNL A   1      33.173  29.369  24.045  1.00  0.00     0.202 C 
BRANCH  75  76
ATOM     76  C   UNL A   1      33.304  28.662  22.685  1.00  0.00     0.261 C 
BRANCH  76  77
ATOM     77  O   UNL A   1      32.443  27.528  22.458  1.00  0.00    -0.460 OA
BRANCH  77  78
ATOM     78  C   UNL A   1      33.099  26.350  22.329  1.00  0.00     0.338 C 
ATOM     79  O   UNL A   1      33.537  25.853  21.304  1.00  0.00    -0.246 OA
BRANCH  78  80
ATOM     80  C   UNL A   1      33.182  25.622  23.607  1.00  0.00     0.063 A 
ATOM     81  C   UNL A   1      31.994  25.456  24.322  1.00  0.00     0.017 A 
ATOM     82  C   UNL A   1      34.326  24.895  23.960  1.00  0.00     0.056 A 
ATOM     83  C   UNL A   1      31.944  24.534  25.368  1.00  0.00     0.026 A 
ATOM     84  C   UNL A   1      34.264  23.968  25.007  1.00  0.00     0.144 A 
ATOM     85  C   UNL A   1      33.079  23.775  25.698  1.00  0.00     0.118 A 
ATOM     86  F   UNL A   1      35.362  23.255  25.290  1.00  0.00    -0.205 F 
BRANCH  85  87
ATOM     87  S   UNL A   1      32.889  22.583  26.981  1.00  0.00     0.243 S 
ATOM     88  O   UNL A   1      34.185  22.453  27.597  1.00  0.00    -0.207 OA
ATOM     89  O   UNL A   1      31.734  22.990  27.758  1.00  0.00    -0.207 OA
BRANCH  87  90
ATOM     90  N   UNL A   1      32.523  21.101  26.345  1.00  0.00    -0.205 NA
ATOM     91  H   UNL A   1      31.576  21.189  25.977  1.00  0.00     0.141 HD
BRANCH  90  92
ATOM     92  C   UNL A   1      33.278  20.433  25.310  1.00  0.00     0.154 C 
BRANCH  92  93
ATOM     93  C   UNL A   1      33.016  18.980  25.209  1.00  0.00     0.050 A 
ATOM     94  C   UNL A   1      33.063  18.129  24.122  1.00  0.00     0.046 A 
ATOM     95  N   UNL A   1      32.782  18.167  26.289  1.00  0.00    -0.281 N 
ATOM     96  C   UNL A   1      32.910  16.838  24.659  1.00  0.00     0.135 A 
ATOM     97  N   UNL A   1      32.728  16.862  25.978  1.00  0.00    -0.184 NA
ATOM     98  H   UNL A   1      32.665  18.507  27.206  1.00  0.00     0.190 HD
ENDBRANCH  92  93
ENDBRANCH  90  92
ENDBRANCH  87  90
ENDBRANCH  85  87
ENDBRANCH  78  80
ENDBRANCH  77  78
ENDBRANCH  76  77
ENDBRANCH  75  76
ENDBRANCH  74  75
ENDBRANCH   1  74
TORSDOF 21
ENDMDL
