MODEL 1
REMARK VINA RESULT:     -11.7      0.000      0.000
REMARK SMILES O=C(OCCOCCOCCOC(=O)[C@@H]1[C@H](C(=O)Nc2cccc(Cl)c2F)[C@@H]2C=C[C@H]1C2)c1ccc(-c2c3nc(c(-c4c(F)c(F)c(F)c(F)c4F)c4ccc([nH]4)c(-c4c(F)c(F)c(F)c(F)c4F)c4nc(c(-c5c(F)c(F)c(F)c(F)c5F)c5ccc2[nH]5)C=C4)C=C3)cc1
REMARK SMILES IDX 7 1 6 2 5 3 4 4 3 5 2 6 1 7 33 8 34 9 95 10 35 11 94 12
REMARK SMILES IDX 36 13 37 14 38 15 88 16 39 17 93 18 87 19 89 20 40 21 92 22
REMARK SMILES IDX 86 23 85 24 41 26 73 27 53 28 72 29 54 30 57 31 71 32 90 33
REMARK SMILES IDX 55 34 56 35 70 37 91 38 58 39 42 40 43 41 51 42 44 43 45 44
REMARK SMILES IDX 49 45 52 46 46 47 47 48 50 49 48 50 74 51 75 52 83 53 76 54
REMARK SMILES IDX 77 55 81 56 84 57 78 58 79 59 82 60 80 61 59 62 60 63 68 64
REMARK SMILES IDX 61 65 62 66 66 67 69 68 63 69 64 70 67 71 65 72 8 73 9 74
REMARK SMILES IDX 10 75 11 76 12 77 13 78 14 79 15 80 16 81 31 82 28 83 30 84
REMARK SMILES IDX 32 85 29 86 17 87 18 88 19 89 20 91 21 92 26 93 22 94 24 95
REMARK SMILES IDX 27 96 23 97 25 98
REMARK H PARENT 89 25 57 36 19 90
REMARK Flexibility Score: inf
ROOT
ATOM      1  C   UNL A   1      41.105  21.537  26.480  1.00  0.00     0.188 C 
ENDROOT
BRANCH   1   2
ATOM      2  O   UNL A   1      42.061  21.701  25.436  1.00  0.00    -0.376 OA
BRANCH   2   3
ATOM      3  C   UNL A   1      43.431  21.819  25.798  1.00  0.00     0.202 C 
BRANCH   3   4
ATOM      4  C   UNL A   1      44.323  22.575  24.813  1.00  0.00     0.261 C 
BRANCH   4   5
ATOM      5  O   UNL A   1      43.804  23.871  24.493  1.00  0.00    -0.460 OA
BRANCH   5   6
ATOM      6  C   UNL A   1      44.234  25.060  24.988  1.00  0.00     0.338 C 
ATOM      7  O   UNL A   1      45.395  25.387  24.791  1.00  0.00    -0.246 OA
BRANCH   6   8
ATOM      8  C   UNL A   1      43.405  25.919  25.911  1.00  0.00     0.060 A 
ATOM      9  C   UNL A   1      43.676  27.236  26.288  1.00  0.00     0.016 A 
ATOM     10  C   UNL A   1      42.246  25.317  26.445  1.00  0.00     0.016 A 
ATOM     11  C   UNL A   1      42.890  27.899  27.225  1.00  0.00     0.010 A 
ATOM     12  C   UNL A   1      41.444  25.978  27.385  1.00  0.00     0.010 A 
ATOM     13  C   UNL A   1      41.806  27.253  27.819  1.00  0.00    -0.014 A 
BRANCH  13  14
ATOM     14  C   UNL A   1      41.262  27.858  29.052  1.00  0.00     0.031 A 
ATOM     15  C   UNL A   1      42.084  27.749  30.296  1.00  0.00     0.074 A 
ATOM     16  C   UNL A   1      40.177  28.646  29.009  1.00  0.00     0.049 A 
ATOM     17  N   UNL A   1      41.922  28.342  31.449  1.00  0.00    -0.248 NA
ATOM     18  C   UNL A   1      43.270  26.879  30.222  1.00  0.00     0.031 C 
ATOM     19  C   UNL A   1      39.378  28.873  27.816  1.00  0.00     0.029 A 
ATOM     20  N   UNL A   1      39.589  29.434  29.963  1.00  0.00    -0.354 N 
ATOM     21  C   UNL A   1      42.984  27.920  32.233  1.00  0.00     0.074 A 
ATOM     22  C   UNL A   1      43.777  27.012  31.436  1.00  0.00     0.031 C 
ATOM     23  C   UNL A   1      38.428  29.783  28.087  1.00  0.00     0.029 A 
ATOM     24  C   UNL A   1      38.528  30.168  29.488  1.00  0.00     0.049 A 
ATOM     25  H   UNL A   1      39.896  29.472  30.898  1.00  0.00     0.167 HD
ATOM     26  C   UNL A   1      43.264  28.261  33.510  1.00  0.00     0.037 A 
ATOM     27  C   UNL A   1      37.728  31.049  30.118  1.00  0.00     0.037 A 
ATOM     28  C   UNL A   1      42.440  29.135  34.298  1.00  0.00     0.049 A 
ATOM     29  C   UNL A   1      38.005  31.333  31.568  1.00  0.00     0.074 A 
ATOM     30  C   UNL A   1      42.575  29.486  35.627  1.00  0.00     0.029 A 
ATOM     31  N   UNL A   1      41.309  29.785  33.819  1.00  0.00    -0.354 N 
ATOM     32  N   UNL A   1      38.996  30.909  32.317  1.00  0.00    -0.248 NA
ATOM     33  C   UNL A   1      37.053  32.205  32.267  1.00  0.00     0.031 C 
ATOM     34  C   UNL A   1      41.495  30.310  35.967  1.00  0.00     0.029 A 
ATOM     35  C   UNL A   1      40.719  30.517  34.836  1.00  0.00     0.049 A 
ATOM     36  H   UNL A   1      40.977  29.733  32.894  1.00  0.00     0.167 HD
ATOM     37  C   UNL A   1      38.799  31.474  33.568  1.00  0.00     0.074 A 
ATOM     38  C   UNL A   1      37.605  32.291  33.468  1.00  0.00     0.031 C 
ATOM     39  C   UNL A   1      39.533  31.325  34.698  1.00  0.00     0.037 A 
BRANCH  26  40
ATOM     40  C   UNL A   1      44.457  27.602  34.129  1.00  0.00     0.064 A 
ATOM     41  C   UNL A   1      45.735  28.180  34.077  1.00  0.00     0.173 A 
ATOM     42  C   UNL A   1      44.331  26.335  34.716  1.00  0.00     0.173 A 
ATOM     43  F   UNL A   1      45.914  29.372  33.489  1.00  0.00    -0.203 F 
ATOM     44  C   UNL A   1      46.849  27.496  34.561  1.00  0.00     0.198 A 
ATOM     45  C   UNL A   1      45.441  25.667  35.222  1.00  0.00     0.198 A 
ATOM     46  F   UNL A   1      43.133  25.734  34.775  1.00  0.00    -0.203 F 
ATOM     47  F   UNL A   1      48.069  28.036  34.440  1.00  0.00    -0.200 F 
ATOM     48  C   UNL A   1      46.699  26.242  35.135  1.00  0.00     0.200 A 
ATOM     49  F   UNL A   1      45.296  24.454  35.774  1.00  0.00    -0.200 F 
ATOM     50  F   UNL A   1      47.773  25.579  35.585  1.00  0.00    -0.200 F 
ENDBRANCH  26  40
BRANCH  27  51
ATOM     51  C   UNL A   1      36.604  31.708  29.397  1.00  0.00     0.064 A 
ATOM     52  C   UNL A   1      36.619  33.082  29.119  1.00  0.00     0.173 A 
ATOM     53  C   UNL A   1      35.478  30.978  28.981  1.00  0.00     0.173 A 
ATOM     54  F   UNL A   1      37.659  33.834  29.510  1.00  0.00    -0.203 F 
ATOM     55  C   UNL A   1      35.550  33.702  28.473  1.00  0.00     0.198 A 
ATOM     56  C   UNL A   1      34.425  31.592  28.305  1.00  0.00     0.198 A 
ATOM     57  F   UNL A   1      35.405  29.661  29.221  1.00  0.00    -0.203 F 
ATOM     58  F   UNL A   1      35.572  35.025  28.261  1.00  0.00    -0.200 F 
ATOM     59  C   UNL A   1      34.456  32.955  28.060  1.00  0.00     0.200 A 
ATOM     60  F   UNL A   1      33.379  30.861  27.895  1.00  0.00    -0.200 F 
ATOM     61  F   UNL A   1      33.432  33.550  27.434  1.00  0.00    -0.200 F 
ENDBRANCH  27  51
BRANCH  39  62
ATOM     62  C   UNL A   1      39.075  32.089  35.903  1.00  0.00     0.064 A 
ATOM     63  C   UNL A   1      39.467  33.416  36.125  1.00  0.00     0.173 A 
ATOM     64  C   UNL A   1      38.205  31.491  36.827  1.00  0.00     0.173 A 
ATOM     65  F   UNL A   1      40.310  34.023  35.276  1.00  0.00    -0.203 F 
ATOM     66  C   UNL A   1      39.028  34.111  37.248  1.00  0.00     0.198 A 
ATOM     67  C   UNL A   1      37.744  32.199  37.932  1.00  0.00     0.198 A 
ATOM     68  F   UNL A   1      37.799  30.225  36.653  1.00  0.00    -0.203 F 
ATOM     69  F   UNL A   1      39.455  35.361  37.470  1.00  0.00    -0.200 F 
ATOM     70  C   UNL A   1      38.160  33.504  38.145  1.00  0.00     0.200 A 
ATOM     71  F   UNL A   1      36.897  31.616  38.792  1.00  0.00    -0.200 F 
ATOM     72  F   UNL A   1      37.734  34.176  39.223  1.00  0.00    -0.200 F 
ENDBRANCH  39  62
ENDBRANCH  13  14
ENDBRANCH   6   8
ENDBRANCH   5   6
ENDBRANCH   4   5
ENDBRANCH   3   4
ENDBRANCH   2   3
ENDBRANCH   1   2
BRANCH   1  73
ATOM     73  C   UNL A   1      39.649  21.963  26.250  1.00  0.00     0.188 C 
BRANCH  73  74
ATOM     74  O   UNL A   1      38.648  21.073  25.778  1.00  0.00    -0.376 OA
BRANCH  74  75
ATOM     75  C   UNL A   1      37.631  21.510  24.897  1.00  0.00     0.202 C 
BRANCH  75  76
ATOM     76  C   UNL A   1      36.949  22.818  25.275  1.00  0.00     0.261 C 
BRANCH  76  77
ATOM     77  O   UNL A   1      35.585  22.640  25.680  1.00  0.00    -0.463 OA
BRANCH  77  78
ATOM     78  C   UNL A   1      34.784  23.710  25.612  1.00  0.00     0.310 C 
ATOM     79  O   UNL A   1      35.202  24.858  25.481  1.00  0.00    -0.252 OA
BRANCH  78  80
ATOM     80  C   UNL A   1      33.302  23.466  25.828  1.00  0.00     0.119 C 
ATOM     81  C   UNL A   1      32.636  23.059  24.511  1.00  0.00     0.100 C 
ATOM     82  C   UNL A   1      32.125  24.161  26.573  1.00  0.00     0.027 C 
ATOM     83  C   UNL A   1      31.120  23.167  24.812  1.00  0.00     0.025 C 
ATOM     84  C   UNL A   1      31.309  25.182  25.797  1.00  0.00    -0.027 C 
ATOM     85  C   UNL A   1      31.079  23.034  26.355  1.00  0.00     0.017 C 
ATOM     86  C   UNL A   1      30.714  24.596  24.749  1.00  0.00    -0.027 C 
BRANCH  81  87
ATOM     87  C   UNL A   1      33.178  23.695  23.229  1.00  0.00     0.229 C 
ATOM     88  O   UNL A   1      33.675  22.897  22.409  1.00  0.00    -0.274 OA
ATOM     89  N   UNL A   1      33.158  24.958  22.745  1.00  0.00    -0.323 N 
ATOM     90  H   UNL A   1      33.516  24.925  21.829  1.00  0.00     0.170 HD
BRANCH  89  91
ATOM     91  C   UNL A   1      32.829  26.312  23.019  1.00  0.00     0.078 A 
ATOM     92  C   UNL A   1      33.650  26.896  24.006  1.00  0.00     0.029 A 
ATOM     93  C   UNL A   1      31.825  27.140  22.508  1.00  0.00     0.165 A 
ATOM     94  C   UNL A   1      33.539  28.242  24.382  1.00  0.00     0.004 A 
ATOM     95  C   UNL A   1      31.709  28.493  22.872  1.00  0.00     0.078 A 
ATOM     96  F   UNL A   1      30.900  26.694  21.660  1.00  0.00    -0.203 F 
ATOM     97  C   UNL A   1      32.575  29.052  23.798  1.00  0.00     0.024 A 
ATOM     98  Cl  UNL A   1      30.491  29.488  22.157  1.00  0.00    -0.081 Cl
ENDBRANCH  89  91
ENDBRANCH  81  87
ENDBRANCH  78  80
ENDBRANCH  77  78
ENDBRANCH  76  77
ENDBRANCH  75  76
ENDBRANCH  74  75
ENDBRANCH  73  74
ENDBRANCH   1  73
TORSDOF 19
ENDMDL
MODEL 2
REMARK VINA RESULT:     -11.3      5.223      9.818
REMARK SMILES O=C(OCCOCCOCCOC(=O)[C@@H]1[C@H](C(=O)Nc2cccc(Cl)c2F)[C@@H]2C=C[C@H]1C2)c1ccc(-c2c3nc(c(-c4c(F)c(F)c(F)c(F)c4F)c4ccc([nH]4)c(-c4c(F)c(F)c(F)c(F)c4F)c4nc(c(-c5c(F)c(F)c(F)c(F)c5F)c5ccc2[nH]5)C=C4)C=C3)cc1
REMARK SMILES IDX 7 1 6 2 5 3 4 4 3 5 2 6 1 7 33 8 34 9 95 10 35 11 94 12
REMARK SMILES IDX 36 13 37 14 38 15 88 16 39 17 93 18 87 19 89 20 40 21 92 22
REMARK SMILES IDX 86 23 85 24 41 26 73 27 53 28 72 29 54 30 57 31 71 32 90 33
REMARK SMILES IDX 55 34 56 35 70 37 91 38 58 39 42 40 43 41 51 42 44 43 45 44
REMARK SMILES IDX 49 45 52 46 46 47 47 48 50 49 48 50 74 51 75 52 83 53 76 54
REMARK SMILES IDX 77 55 81 56 84 57 78 58 79 59 82 60 80 61 59 62 60 63 68 64
REMARK SMILES IDX 61 65 62 66 66 67 69 68 63 69 64 70 67 71 65 72 8 73 9 74
REMARK SMILES IDX 10 75 11 76 12 77 13 78 14 79 15 80 16 81 31 82 28 83 30 84
REMARK SMILES IDX 32 85 29 86 17 87 18 88 19 89 20 91 21 92 26 93 22 94 24 95
REMARK SMILES IDX 27 96 23 97 25 98
REMARK H PARENT 89 25 57 36 19 90
REMARK Flexibility Score: inf
ROOT
ATOM      1  C   UNL A   1      41.501  21.254  26.119  1.00  0.00     0.188 C 
ENDROOT
BRANCH   1   2
ATOM      2  O   UNL A   1      41.943  20.048  26.736  1.00  0.00    -0.376 OA
BRANCH   2   3
ATOM      3  C   UNL A   1      42.161  18.914  25.907  1.00  0.00     0.202 C 
BRANCH   3   4
ATOM      4  C   UNL A   1      43.584  18.357  25.892  1.00  0.00     0.261 C 
BRANCH   4   5
ATOM      5  O   UNL A   1      44.243  18.582  24.640  1.00  0.00    -0.460 OA
BRANCH   5   6
ATOM      6  C   UNL A   1      45.159  19.546  24.369  1.00  0.00     0.338 C 
ATOM      7  O   UNL A   1      46.247  19.208  23.924  1.00  0.00    -0.246 OA
BRANCH   6   8
ATOM      8  C   UNL A   1      44.971  20.995  24.746  1.00  0.00     0.060 A 
ATOM      9  C   UNL A   1      44.583  22.032  23.896  1.00  0.00     0.016 A 
ATOM     10  C   UNL A   1      45.223  21.323  26.096  1.00  0.00     0.016 A 
ATOM     11  C   UNL A   1      44.536  23.351  24.335  1.00  0.00     0.010 A 
ATOM     12  C   UNL A   1      45.172  22.647  26.550  1.00  0.00     0.010 A 
ATOM     13  C   UNL A   1      44.885  23.671  25.646  1.00  0.00    -0.014 A 
BRANCH  13  14
ATOM     14  C   UNL A   1      45.179  25.090  25.933  1.00  0.00     0.031 A 
ATOM     15  C   UNL A   1      44.097  25.904  26.569  1.00  0.00     0.074 A 
ATOM     16  C   UNL A   1      46.426  25.571  25.817  1.00  0.00     0.049 A 
ATOM     17  N   UNL A   1      44.159  27.104  27.082  1.00  0.00    -0.248 NA
ATOM     18  C   UNL A   1      42.774  25.267  26.672  1.00  0.00     0.031 C 
ATOM     19  C   UNL A   1      47.549  24.810  25.292  1.00  0.00     0.029 A 
ATOM     20  N   UNL A   1      46.971  26.776  26.171  1.00  0.00    -0.354 N 
ATOM     21  C   UNL A   1      42.888  27.362  27.569  1.00  0.00     0.074 A 
ATOM     22  C   UNL A   1      42.069  26.206  27.281  1.00  0.00     0.031 C 
ATOM     23  C   UNL A   1      48.667  25.545  25.401  1.00  0.00     0.029 A 
ATOM     24  C   UNL A   1      48.328  26.845  25.964  1.00  0.00     0.049 A 
ATOM     25  H   UNL A   1      46.443  27.522  26.538  1.00  0.00     0.167 HD
ATOM     26  C   UNL A   1      42.445  28.474  28.198  1.00  0.00     0.037 A 
ATOM     27  C   UNL A   1      49.195  27.846  26.203  1.00  0.00     0.037 A 
ATOM     28  C   UNL A   1      43.265  29.629  28.438  1.00  0.00     0.049 A 
ATOM     29  C   UNL A   1      48.654  29.110  26.812  1.00  0.00     0.074 A 
ATOM     30  C   UNL A   1      42.907  30.844  28.988  1.00  0.00     0.029 A 
ATOM     31  N   UNL A   1      44.616  29.709  28.123  1.00  0.00    -0.354 N 
ATOM     32  N   UNL A   1      47.441  29.362  27.247  1.00  0.00    -0.248 NA
ATOM     33  C   UNL A   1      49.591  30.231  26.956  1.00  0.00     0.031 C 
ATOM     34  C   UNL A   1      44.031  31.679  28.959  1.00  0.00     0.029 A 
ATOM     35  C   UNL A   1      45.103  30.964  28.444  1.00  0.00     0.049 A 
ATOM     36  H   UNL A   1      45.149  28.979  27.731  1.00  0.00     0.167 HD
ATOM     37  C   UNL A   1      47.472  30.661  27.731  1.00  0.00     0.074 A 
ATOM     38  C   UNL A   1      48.831  31.135  27.558  1.00  0.00     0.031 C 
ATOM     39  C   UNL A   1      46.466  31.399  28.263  1.00  0.00     0.037 A 
BRANCH  26  40
ATOM     40  C   UNL A   1      40.995  28.498  28.567  1.00  0.00     0.064 A 
ATOM     41  C   UNL A   1      40.011  28.962  27.681  1.00  0.00     0.173 A 
ATOM     42  C   UNL A   1      40.595  28.120  29.856  1.00  0.00     0.173 A 
ATOM     43  F   UNL A   1      40.350  29.373  26.449  1.00  0.00    -0.203 F 
ATOM     44  C   UNL A   1      38.683  29.079  28.086  1.00  0.00     0.198 A 
ATOM     45  C   UNL A   1      39.264  28.214  30.249  1.00  0.00     0.198 A 
ATOM     46  F   UNL A   1      41.501  27.685  30.745  1.00  0.00    -0.203 F 
ATOM     47  F   UNL A   1      37.771  29.590  27.247  1.00  0.00    -0.200 F 
ATOM     48  C   UNL A   1      38.311  28.703  29.369  1.00  0.00     0.200 A 
ATOM     49  F   UNL A   1      38.906  27.853  31.489  1.00  0.00    -0.200 F 
ATOM     50  F   UNL A   1      37.037  28.832  29.762  1.00  0.00    -0.200 F 
ENDBRANCH  26  40
BRANCH  27  51
ATOM     51  C   UNL A   1      50.638  27.703  25.863  1.00  0.00     0.064 A 
ATOM     52  C   UNL A   1      51.107  27.918  24.559  1.00  0.00     0.173 A 
ATOM     53  C   UNL A   1      51.582  27.333  26.835  1.00  0.00     0.173 A 
ATOM     54  F   UNL A   1      50.249  28.255  23.585  1.00  0.00    -0.203 F 
ATOM     55  C   UNL A   1      52.454  27.751  24.238  1.00  0.00     0.198 A 
ATOM     56  C   UNL A   1      52.933  27.198  26.520  1.00  0.00     0.198 A 
ATOM     57  F   UNL A   1      51.193  27.111  28.099  1.00  0.00    -0.203 F 
ATOM     58  F   UNL A   1      52.866  27.920  22.974  1.00  0.00    -0.200 F 
ATOM     59  C   UNL A   1      53.367  27.398  25.220  1.00  0.00     0.200 A 
ATOM     60  F   UNL A   1      53.812  26.873  27.478  1.00  0.00    -0.200 F 
ATOM     61  F   UNL A   1      54.662  27.244  24.912  1.00  0.00    -0.200 F 
ENDBRANCH  27  51
BRANCH  39  62
ATOM     62  C   UNL A   1      46.815  32.782  28.721  1.00  0.00     0.064 A 
ATOM     63  C   UNL A   1      47.281  33.031  30.019  1.00  0.00     0.173 A 
ATOM     64  C   UNL A   1      46.713  33.865  27.834  1.00  0.00     0.173 A 
ATOM     65  F   UNL A   1      47.380  32.030  30.906  1.00  0.00    -0.203 F 
ATOM     66  C   UNL A   1      47.605  34.322  30.424  1.00  0.00     0.198 A 
ATOM     67  C   UNL A   1      47.067  35.148  28.234  1.00  0.00     0.198 A 
ATOM     68  F   UNL A   1      46.277  33.673  26.580  1.00  0.00    -0.203 F 
ATOM     69  F   UNL A   1      47.999  34.548  31.685  1.00  0.00    -0.200 F 
ATOM     70  C   UNL A   1      47.505  35.378  29.529  1.00  0.00     0.200 A 
ATOM     71  F   UNL A   1      46.981  36.165  27.364  1.00  0.00    -0.200 F 
ATOM     72  F   UNL A   1      47.822  36.620  29.919  1.00  0.00    -0.200 F 
ENDBRANCH  39  62
ENDBRANCH  13  14
ENDBRANCH   6   8
ENDBRANCH   5   6
ENDBRANCH   4   5
ENDBRANCH   3   4
ENDBRANCH   2   3
ENDBRANCH   1   2
BRANCH   1  73
ATOM     73  C   UNL A   1      40.196  21.912  26.585  1.00  0.00     0.188 C 
BRANCH  73  74
ATOM     74  O   UNL A   1      39.086  22.123  25.724  1.00  0.00    -0.376 OA
BRANCH  74  75
ATOM     75  C   UNL A   1      37.956  21.273  25.759  1.00  0.00     0.202 C 
BRANCH  75  76
ATOM     76  C   UNL A   1      36.951  21.465  24.633  1.00  0.00     0.261 C 
BRANCH  76  77
ATOM     77  O   UNL A   1      35.604  21.170  25.028  1.00  0.00    -0.463 OA
BRANCH  77  78
ATOM     78  C   UNL A   1      35.074  21.924  25.998  1.00  0.00     0.310 C 
ATOM     79  O   UNL A   1      34.777  21.485  27.107  1.00  0.00    -0.252 OA
BRANCH  78  80
ATOM     80  C   UNL A   1      34.729  23.357  25.637  1.00  0.00     0.119 C 
ATOM     81  C   UNL A   1      33.526  23.833  26.455  1.00  0.00     0.100 C 
ATOM     82  C   UNL A   1      34.583  24.206  24.341  1.00  0.00     0.027 C 
ATOM     83  C   UNL A   1      33.101  25.150  25.759  1.00  0.00     0.025 C 
ATOM     84  C   UNL A   1      33.208  24.265  23.692  1.00  0.00    -0.027 C 
ATOM     85  C   UNL A   1      34.404  25.580  25.041  1.00  0.00     0.017 C 
ATOM     86  C   UNL A   1      32.326  24.822  24.533  1.00  0.00    -0.027 C 
BRANCH  81  87
ATOM     87  C   UNL A   1      32.450  22.795  26.784  1.00  0.00     0.229 C 
ATOM     88  O   UNL A   1      31.817  23.001  27.839  1.00  0.00    -0.274 OA
ATOM     89  N   UNL A   1      31.970  21.720  26.118  1.00  0.00    -0.323 N 
ATOM     90  H   UNL A   1      31.197  21.383  26.626  1.00  0.00     0.170 HD
BRANCH  89  91
ATOM     91  C   UNL A   1      32.125  20.881  24.983  1.00  0.00     0.078 A 
ATOM     92  C   UNL A   1      31.841  21.531  23.765  1.00  0.00     0.029 A 
ATOM     93  C   UNL A   1      32.475  19.531  24.874  1.00  0.00     0.165 A 
ATOM     94  C   UNL A   1      31.993  20.904  22.520  1.00  0.00     0.004 A 
ATOM     95  C   UNL A   1      32.638  18.896  23.631  1.00  0.00     0.078 A 
ATOM     96  F   UNL A   1      32.655  18.756  25.942  1.00  0.00    -0.203 F 
ATOM     97  C   UNL A   1      32.412  19.584  22.450  1.00  0.00     0.024 A 
ATOM     98  Cl  UNL A   1      33.138  17.243  23.555  1.00  0.00    -0.081 Cl
ENDBRANCH  89  91
ENDBRANCH  81  87
ENDBRANCH  78  80
ENDBRANCH  77  78
ENDBRANCH  76  77
ENDBRANCH  75  76
ENDBRANCH  74  75
ENDBRANCH  73  74
ENDBRANCH   1  73
TORSDOF 19
ENDMDL
MODEL 3
REMARK VINA RESULT:     -11.3      4.571      9.407
REMARK SMILES O=C(OCCOCCOCCOC(=O)[C@@H]1[C@H](C(=O)Nc2cccc(Cl)c2F)[C@@H]2C=C[C@H]1C2)c1ccc(-c2c3nc(c(-c4c(F)c(F)c(F)c(F)c4F)c4ccc([nH]4)c(-c4c(F)c(F)c(F)c(F)c4F)c4nc(c(-c5c(F)c(F)c(F)c(F)c5F)c5ccc2[nH]5)C=C4)C=C3)cc1
REMARK SMILES IDX 7 1 6 2 5 3 4 4 3 5 2 6 1 7 33 8 34 9 95 10 35 11 94 12
REMARK SMILES IDX 36 13 37 14 38 15 88 16 39 17 93 18 87 19 89 20 40 21 92 22
REMARK SMILES IDX 86 23 85 24 41 26 73 27 53 28 72 29 54 30 57 31 71 32 90 33
REMARK SMILES IDX 55 34 56 35 70 37 91 38 58 39 42 40 43 41 51 42 44 43 45 44
REMARK SMILES IDX 49 45 52 46 46 47 47 48 50 49 48 50 74 51 75 52 83 53 76 54
REMARK SMILES IDX 77 55 81 56 84 57 78 58 79 59 82 60 80 61 59 62 60 63 68 64
REMARK SMILES IDX 61 65 62 66 66 67 69 68 63 69 64 70 67 71 65 72 8 73 9 74
REMARK SMILES IDX 10 75 11 76 12 77 13 78 14 79 15 80 16 81 31 82 28 83 30 84
REMARK SMILES IDX 32 85 29 86 17 87 18 88 19 89 20 91 21 92 26 93 22 94 24 95
REMARK SMILES IDX 27 96 23 97 25 98
REMARK H PARENT 89 25 57 36 19 90
REMARK Flexibility Score: inf
ROOT
ATOM      1  C   UNL A   1      36.013  21.448  24.659  1.00  0.00     0.188 C 
ENDROOT
BRANCH   1   2
ATOM      2  O   UNL A   1      37.378  21.221  24.318  1.00  0.00    -0.376 OA
BRANCH   2   3
ATOM      3  C   UNL A   1      38.074  20.186  25.001  1.00  0.00     0.202 C 
BRANCH   3   4
ATOM      4  C   UNL A   1      39.293  20.620  25.815  1.00  0.00     0.261 C 
BRANCH   4   5
ATOM      5  O   UNL A   1      40.159  19.523  26.126  1.00  0.00    -0.460 OA
BRANCH   5   6
ATOM      6  C   UNL A   1      41.516  19.537  26.126  1.00  0.00     0.338 C 
ATOM      7  O   UNL A   1      42.109  18.470  26.058  1.00  0.00    -0.246 OA
BRANCH   6   8
ATOM      8  C   UNL A   1      42.329  20.782  26.378  1.00  0.00     0.060 A 
ATOM      9  C   UNL A   1      42.505  21.427  27.605  1.00  0.00     0.016 A 
ATOM     10  C   UNL A   1      42.966  21.346  25.252  1.00  0.00     0.016 A 
ATOM     11  C   UNL A   1      43.201  22.628  27.700  1.00  0.00     0.010 A 
ATOM     12  C   UNL A   1      43.674  22.551  25.338  1.00  0.00     0.010 A 
ATOM     13  C   UNL A   1      43.738  23.223  26.559  1.00  0.00    -0.014 A 
BRANCH  13  14
ATOM     14  C   UNL A   1      44.119  24.648  26.664  1.00  0.00     0.031 A 
ATOM     15  C   UNL A   1      43.097  25.597  27.205  1.00  0.00     0.074 A 
ATOM     16  C   UNL A   1      45.389  25.035  26.476  1.00  0.00     0.049 A 
ATOM     17  N   UNL A   1      43.238  26.844  27.564  1.00  0.00    -0.248 NA
ATOM     18  C   UNL A   1      41.742  25.057  27.400  1.00  0.00     0.031 C 
ATOM     19  C   UNL A   1      46.457  24.150  26.038  1.00  0.00     0.029 A 
ATOM     20  N   UNL A   1      46.009  26.240  26.672  1.00  0.00    -0.354 N 
ATOM     21  C   UNL A   1      41.992  27.236  28.029  1.00  0.00     0.074 A 
ATOM     22  C   UNL A   1      41.103  26.104  27.895  1.00  0.00     0.031 C 
ATOM     23  C   UNL A   1      47.618  24.825  26.044  1.00  0.00     0.029 A 
ATOM     24  C   UNL A   1      47.364  26.202  26.444  1.00  0.00     0.049 A 
ATOM     25  H   UNL A   1      45.531  27.056  26.949  1.00  0.00     0.167 HD
ATOM     26  C   UNL A   1      41.626  28.442  28.518  1.00  0.00     0.037 A 
ATOM     27  C   UNL A   1      48.292  27.172  26.547  1.00  0.00     0.037 A 
ATOM     28  C   UNL A   1      42.515  29.566  28.605  1.00  0.00     0.049 A 
ATOM     29  C   UNL A   1      47.836  28.531  27.000  1.00  0.00     0.074 A 
ATOM     30  C   UNL A   1      42.238  30.860  29.003  1.00  0.00     0.029 A 
ATOM     31  N   UNL A   1      43.863  29.526  28.269  1.00  0.00    -0.354 N 
ATOM     32  N   UNL A   1      46.647  28.907  27.413  1.00  0.00    -0.248 NA
ATOM     33  C   UNL A   1      48.838  29.603  26.994  1.00  0.00     0.031 C 
ATOM     34  C   UNL A   1      43.408  31.616  28.859  1.00  0.00     0.029 A 
ATOM     35  C   UNL A   1      44.427  30.781  28.426  1.00  0.00     0.049 A 
ATOM     36  H   UNL A   1      44.345  28.724  27.965  1.00  0.00     0.167 HD
ATOM     37  C   UNL A   1      46.761  30.251  27.731  1.00  0.00     0.074 A 
ATOM     38  C   UNL A   1      48.142  30.618  27.487  1.00  0.00     0.031 C 
ATOM     39  C   UNL A   1      45.809  31.107  28.178  1.00  0.00     0.037 A 
BRANCH  26  40
ATOM     40  C   UNL A   1      40.186  28.597  28.897  1.00  0.00     0.064 A 
ATOM     41  C   UNL A   1      39.223  29.050  27.982  1.00  0.00     0.173 A 
ATOM     42  C   UNL A   1      39.780  28.361  30.218  1.00  0.00     0.173 A 
ATOM     43  F   UNL A   1      39.571  29.328  26.717  1.00  0.00    -0.203 F 
ATOM     44  C   UNL A   1      37.912  29.293  28.387  1.00  0.00     0.198 A 
ATOM     45  C   UNL A   1      38.464  28.580  30.613  1.00  0.00     0.198 A 
ATOM     46  F   UNL A   1      40.668  27.943  31.133  1.00  0.00    -0.203 F 
ATOM     47  F   UNL A   1      37.024  29.790  27.515  1.00  0.00    -0.200 F 
ATOM     48  C   UNL A   1      37.534  29.056  29.701  1.00  0.00     0.200 A 
ATOM     49  F   UNL A   1      38.101  28.353  31.883  1.00  0.00    -0.200 F 
ATOM     50  F   UNL A   1      36.278  29.305  30.093  1.00  0.00    -0.200 F 
ENDBRANCH  26  40
BRANCH  27  51
ATOM     51  C   UNL A   1      49.717  26.902  26.213  1.00  0.00     0.064 A 
ATOM     52  C   UNL A   1      50.190  26.995  24.896  1.00  0.00     0.173 A 
ATOM     53  C   UNL A   1      50.640  26.530  27.205  1.00  0.00     0.173 A 
ATOM     54  F   UNL A   1      49.351  27.328  23.904  1.00  0.00    -0.203 F 
ATOM     55  C   UNL A   1      51.519  26.710  24.582  1.00  0.00     0.198 A 
ATOM     56  C   UNL A   1      51.975  26.277  26.895  1.00  0.00     0.198 A 
ATOM     57  F   UNL A   1      50.247  26.421  28.482  1.00  0.00    -0.203 F 
ATOM     58  F   UNL A   1      51.931  26.764  23.308  1.00  0.00    -0.200 F 
ATOM     59  C   UNL A   1      52.413  26.357  25.583  1.00  0.00     0.200 A 
ATOM     60  F   UNL A   1      52.837  25.953  27.869  1.00  0.00    -0.200 F 
ATOM     61  F   UNL A   1      53.690  26.090  25.281  1.00  0.00    -0.200 F 
ENDBRANCH  27  51
BRANCH  39  62
ATOM     62  C   UNL A   1      46.246  32.514  28.457  1.00  0.00     0.064 A 
ATOM     63  C   UNL A   1      46.198  33.507  27.470  1.00  0.00     0.173 A 
ATOM     64  C   UNL A   1      46.686  32.874  29.739  1.00  0.00     0.173 A 
ATOM     65  F   UNL A   1      45.800  33.205  26.224  1.00  0.00    -0.203 F 
ATOM     66  C   UNL A   1      46.604  34.809  27.748  1.00  0.00     0.198 A 
ATOM     67  C   UNL A   1      47.061  34.182  30.022  1.00  0.00     0.198 A 
ATOM     68  F   UNL A   1      46.743  31.958  30.717  1.00  0.00    -0.203 F 
ATOM     69  F   UNL A   1      46.600  35.732  26.777  1.00  0.00    -0.200 F 
ATOM     70  C   UNL A   1      47.027  35.147  29.026  1.00  0.00     0.200 A 
ATOM     71  F   UNL A   1      47.459  34.510  31.259  1.00  0.00    -0.200 F 
ATOM     72  F   UNL A   1      47.413  36.401  29.294  1.00  0.00    -0.200 F 
ENDBRANCH  39  62
ENDBRANCH  13  14
ENDBRANCH   6   8
ENDBRANCH   5   6
ENDBRANCH   4   5
ENDBRANCH   3   4
ENDBRANCH   2   3
ENDBRANCH   1   2
BRANCH   1  73
ATOM     73  C   UNL A   1      35.108  20.257  25.001  1.00  0.00     0.188 C 
BRANCH  73  74
ATOM     74  O   UNL A   1      33.711  20.387  25.222  1.00  0.00    -0.376 OA
BRANCH  74  75
ATOM     75  C   UNL A   1      32.770  19.946  24.262  1.00  0.00     0.202 C 
BRANCH  75  76
ATOM     76  C   UNL A   1      32.152  21.035  23.396  1.00  0.00     0.261 C 
BRANCH  76  77
ATOM     77  O   UNL A   1      31.361  21.965  24.147  1.00  0.00    -0.463 OA
BRANCH  77  78
ATOM     78  C   UNL A   1      31.593  23.267  23.944  1.00  0.00     0.310 C 
ATOM     79  O   UNL A   1      30.792  24.017  23.390  1.00  0.00    -0.252 OA
BRANCH  78  80
ATOM     80  C   UNL A   1      32.969  23.782  24.325  1.00  0.00     0.119 C 
ATOM     81  C   UNL A   1      33.024  24.083  25.825  1.00  0.00     0.100 C 
ATOM     82  C   UNL A   1      34.007  24.796  23.763  1.00  0.00     0.027 C 
ATOM     83  C   UNL A   1      34.338  24.885  25.995  1.00  0.00     0.025 C 
ATOM     84  C   UNL A   1      33.912  26.236  24.245  1.00  0.00    -0.027 C 
ATOM     85  C   UNL A   1      35.154  24.453  24.752  1.00  0.00     0.017 C 
ATOM     86  C   UNL A   1      34.104  26.292  25.570  1.00  0.00    -0.027 C 
BRANCH  81  87
ATOM     87  C   UNL A   1      31.747  24.615  26.477  1.00  0.00     0.229 C 
ATOM     88  O   UNL A   1      31.173  23.822  27.251  1.00  0.00    -0.274 OA
ATOM     89  N   UNL A   1      31.135  25.822  26.461  1.00  0.00    -0.323 N 
ATOM     90  H   UNL A   1      30.394  25.783  27.107  1.00  0.00     0.170 HD
BRANCH  89  91
ATOM     91  C   UNL A   1      31.128  27.123  25.892  1.00  0.00     0.078 A 
ATOM     92  C   UNL A   1      31.637  28.113  26.757  1.00  0.00     0.029 A 
ATOM     93  C   UNL A   1      30.680  27.585  24.650  1.00  0.00     0.165 A 
ATOM     94  C   UNL A   1      31.778  29.454  26.372  1.00  0.00     0.004 A 
ATOM     95  C   UNL A   1      30.824  28.925  24.251  1.00  0.00     0.078 A 
ATOM     96  F   UNL A   1      30.067  26.790  23.776  1.00  0.00    -0.203 F 
ATOM     97  C   UNL A   1      31.388  29.860  25.104  1.00  0.00     0.024 A 
ATOM     98  Cl  UNL A   1      30.314  29.426  22.678  1.00  0.00    -0.081 Cl
ENDBRANCH  89  91
ENDBRANCH  81  87
ENDBRANCH  78  80
ENDBRANCH  77  78
ENDBRANCH  76  77
ENDBRANCH  75  76
ENDBRANCH  74  75
ENDBRANCH  73  74
ENDBRANCH   1  73
TORSDOF 19
ENDMDL
