MODEL 1
REMARK VINA RESULT:     -11.8      0.000      0.000
REMARK SMILES O=C(OCCOCCOCCOC(=O)[C@@H]1Cc2ccccc2CN1C(=O)COc1ccccc1)c1ccc(-c2c3nc(c(-c4c(F)c(F)c(F)c(F)c4F)c4ccc([nH]4)c(-c4c(F)c(F)c(F)c(F)c4F)c4nc(c(-c5c(F)c(F)c(F)c(F)c5F)c5ccc2[nH]5)C=C4)C=C3)cc1
REMARK SMILES IDX 8 1 7 2 6 3 5 4 4 5 3 6 2 7 1 8 35 9 36 10 97 11 37 12 96 13
REMARK SMILES IDX 38 14 39 15 40 16 90 17 41 18 95 19 89 20 91 21 42 22 94 23
REMARK SMILES IDX 88 24 87 25 43 27 75 28 55 29 74 30 56 31 59 32 73 33 92 34
REMARK SMILES IDX 57 35 58 36 72 38 93 39 60 40 44 41 45 42 53 43 46 44 47 45
REMARK SMILES IDX 51 46 54 47 48 48 49 49 52 50 50 51 76 52 77 53 85 54 78 55
REMARK SMILES IDX 79 56 83 57 86 58 80 59 81 60 84 61 82 62 61 63 62 64 70 65
REMARK SMILES IDX 63 66 64 67 68 68 71 69 65 70 66 71 69 72 67 73 9 74 10 75
REMARK SMILES IDX 11 76 12 77 13 78 14 79 15 80 16 81 24 82 17 83 23 84 18 85
REMARK SMILES IDX 22 86 19 87 21 88 20 89 25 90 26 91 27 92 28 93 29 94 30 95
REMARK SMILES IDX 34 96 31 97 33 98 32 99
REMARK H PARENT 91 26 59 37
REMARK Flexibility Score: inf
ROOT
ATOM      1  C   UNL A   1      38.254  21.043  25.480  1.00  0.00     0.188 C 
ENDROOT
BRANCH   1   2
ATOM      2  C   UNL A   1      39.744  20.930  25.780  1.00  0.00     0.188 C 
BRANCH   2   3
ATOM      3  O   UNL A   1      40.050  20.871  27.177  1.00  0.00    -0.376 OA
BRANCH   3   4
ATOM      4  C   UNL A   1      41.304  20.236  27.438  1.00  0.00     0.202 C 
BRANCH   4   5
ATOM      5  C   UNL A   1      42.312  20.284  26.275  1.00  0.00     0.261 C 
BRANCH   5   6
ATOM      6  O   UNL A   1      43.162  21.445  26.262  1.00  0.00    -0.460 OA
BRANCH   6   7
ATOM      7  C   UNL A   1      42.982  22.656  25.672  1.00  0.00     0.338 C 
ATOM      8  O   UNL A   1      43.116  22.730  24.457  1.00  0.00    -0.246 OA
BRANCH   7   9
ATOM      9  C   UNL A   1      42.670  23.923  26.416  1.00  0.00     0.060 A 
ATOM     10  C   UNL A   1      43.337  25.139  26.270  1.00  0.00     0.016 A 
ATOM     11  C   UNL A   1      41.588  23.891  27.313  1.00  0.00     0.016 A 
ATOM     12  C   UNL A   1      42.994  26.274  26.995  1.00  0.00     0.010 A 
ATOM     13  C   UNL A   1      41.217  25.033  28.034  1.00  0.00     0.010 A 
ATOM     14  C   UNL A   1      41.944  26.229  27.893  1.00  0.00    -0.014 A 
BRANCH  14  15
ATOM     15  C   UNL A   1      41.744  27.345  28.838  1.00  0.00     0.031 A 
ATOM     16  C   UNL A   1      42.491  27.265  30.132  1.00  0.00     0.074 A 
ATOM     17  C   UNL A   1      40.990  28.423  28.544  1.00  0.00     0.049 A 
ATOM     18  N   UNL A   1      42.327  27.956  31.223  1.00  0.00    -0.248 NA
ATOM     19  C   UNL A   1      43.625  26.320  30.179  1.00  0.00     0.031 C 
ATOM     20  C   UNL A   1      40.457  28.787  27.231  1.00  0.00     0.029 A 
ATOM     21  N   UNL A   1      40.429  29.357  29.384  1.00  0.00    -0.354 N 
ATOM     22  C   UNL A   1      43.371  27.580  32.055  1.00  0.00     0.074 A 
ATOM     23  C   UNL A   1      44.113  26.537  31.390  1.00  0.00     0.031 C 
ATOM     24  C   UNL A   1      39.481  29.701  27.385  1.00  0.00     0.029 A 
ATOM     25  C   UNL A   1      39.326  29.961  28.807  1.00  0.00     0.049 A 
ATOM     26  H   UNL A   1      40.769  29.570  30.282  1.00  0.00     0.167 HD
ATOM     27  C   UNL A   1      43.695  28.123  33.248  1.00  0.00     0.037 A 
ATOM     28  C   UNL A   1      38.258  30.515  29.412  1.00  0.00     0.037 A 
ATOM     29  C   UNL A   1      42.902  29.149  33.862  1.00  0.00     0.049 A 
ATOM     30  C   UNL A   1      38.371  30.757  30.887  1.00  0.00     0.074 A 
ATOM     31  C   UNL A   1      43.124  29.845  35.032  1.00  0.00     0.029 A 
ATOM     32  N   UNL A   1      41.696  29.602  33.341  1.00  0.00    -0.354 N 
ATOM     33  N   UNL A   1      39.353  30.439  31.693  1.00  0.00    -0.248 NA
ATOM     34  C   UNL A   1      37.279  31.501  31.522  1.00  0.00     0.031 C 
ATOM     35  C   UNL A   1      42.012  30.665  35.256  1.00  0.00     0.029 A 
ATOM     36  C   UNL A   1      41.125  30.521  34.198  1.00  0.00     0.049 A 
ATOM     37  H   UNL A   1      41.305  29.309  32.486  1.00  0.00     0.167 HD
ATOM     38  C   UNL A   1      39.064  31.052  32.898  1.00  0.00     0.074 A 
ATOM     39  C   UNL A   1      37.768  31.684  32.741  1.00  0.00     0.031 C 
ATOM     40  C   UNL A   1      39.842  31.146  34.003  1.00  0.00     0.037 A 
BRANCH  27  41
ATOM     41  C   UNL A   1      44.922  27.619  33.939  1.00  0.00     0.064 A 
ATOM     42  C   UNL A   1      44.885  26.499  34.786  1.00  0.00     0.173 A 
ATOM     43  C   UNL A   1      46.159  28.248  33.739  1.00  0.00     0.173 A 
ATOM     44  F   UNL A   1      43.723  25.874  35.029  1.00  0.00    -0.203 F 
ATOM     45  C   UNL A   1      46.038  26.037  35.416  1.00  0.00     0.198 A 
ATOM     46  C   UNL A   1      47.313  27.771  34.353  1.00  0.00     0.198 A 
ATOM     47  F   UNL A   1      46.246  29.329  32.948  1.00  0.00    -0.203 F 
ATOM     48  F   UNL A   1      45.973  24.990  36.249  1.00  0.00    -0.200 F 
ATOM     49  C   UNL A   1      47.252  26.669  35.193  1.00  0.00     0.200 A 
ATOM     50  F   UNL A   1      48.487  28.381  34.135  1.00  0.00    -0.200 F 
ATOM     51  F   UNL A   1      48.363  26.220  35.794  1.00  0.00    -0.200 F 
ENDBRANCH  27  41
BRANCH  28  52
ATOM     52  C   UNL A   1      36.979  30.795  28.700  1.00  0.00     0.064 A 
ATOM     53  C   UNL A   1      36.566  32.091  28.384  1.00  0.00     0.173 A 
ATOM     54  C   UNL A   1      36.067  29.756  28.450  1.00  0.00     0.173 A 
ATOM     55  F   UNL A   1      37.358  33.132  28.677  1.00  0.00    -0.203 F 
ATOM     56  C   UNL A   1      35.298  32.333  27.847  1.00  0.00     0.198 A 
ATOM     57  C   UNL A   1      34.820  29.989  27.871  1.00  0.00     0.198 A 
ATOM     58  F   UNL A   1      36.346  28.516  28.857  1.00  0.00    -0.203 F 
ATOM     59  F   UNL A   1      34.895  33.594  27.632  1.00  0.00    -0.200 F 
ATOM     60  C   UNL A   1      34.431  31.283  27.580  1.00  0.00     0.200 A 
ATOM     61  F   UNL A   1      33.981  28.967  27.651  1.00  0.00    -0.200 F 
ATOM     62  F   UNL A   1      33.207  31.521  27.089  1.00  0.00    -0.200 F 
ENDBRANCH  28  52
BRANCH  40  63
ATOM     63  C   UNL A   1      39.362  32.059  35.083  1.00  0.00     0.064 A 
ATOM     64  C   UNL A   1      38.635  31.589  36.180  1.00  0.00     0.173 A 
ATOM     65  C   UNL A   1      39.696  33.421  35.033  1.00  0.00     0.173 A 
ATOM     66  F   UNL A   1      38.268  30.301  36.247  1.00  0.00    -0.203 F 
ATOM     67  C   UNL A   1      38.252  32.457  37.195  1.00  0.00     0.198 A 
ATOM     68  C   UNL A   1      39.346  34.277  36.067  1.00  0.00     0.198 A 
ATOM     69  F   UNL A   1      40.389  33.911  33.993  1.00  0.00    -0.203 F 
ATOM     70  F   UNL A   1      37.519  32.002  38.221  1.00  0.00    -0.200 F 
ATOM     71  C   UNL A   1      38.621  33.796  37.146  1.00  0.00     0.200 A 
ATOM     72  F   UNL A   1      39.717  35.564  36.024  1.00  0.00    -0.200 F 
ATOM     73  F   UNL A   1      38.272  34.624  38.139  1.00  0.00    -0.200 F 
ENDBRANCH  40  63
ENDBRANCH  14  15
ENDBRANCH   7   9
ENDBRANCH   6   7
ENDBRANCH   5   6
ENDBRANCH   4   5
ENDBRANCH   3   4
ENDBRANCH   2   3
ENDBRANCH   1   2
BRANCH   1  74
ATOM     74  O   UNL A   1      37.607  22.285  25.730  1.00  0.00    -0.376 OA
BRANCH  74  75
ATOM     75  C   UNL A   1      36.222  22.366  25.411  1.00  0.00     0.202 C 
BRANCH  75  76
ATOM     76  C   UNL A   1      35.370  23.421  26.144  1.00  0.00     0.261 C 
BRANCH  76  77
ATOM     77  O   UNL A   1      34.627  22.913  27.274  1.00  0.00    -0.462 OA
BRANCH  77  78
ATOM     78  C   UNL A   1      33.276  23.088  27.226  1.00  0.00     0.329 C 
ATOM     79  O   UNL A   1      32.501  22.571  28.027  1.00  0.00    -0.250 OA
BRANCH  78  80
ATOM     80  C   UNL A   1      32.777  23.838  25.964  1.00  0.00     0.200 C 
ATOM     81  C   UNL A   1      31.981  25.037  26.525  1.00  0.00     0.073 C 
ATOM     82  N   UNL A   1      32.007  23.119  24.897  1.00  0.00    -0.321 N 
ATOM     83  C   UNL A   1      31.501  25.935  25.421  1.00  0.00    -0.040 A 
ATOM     84  C   UNL A   1      30.935  23.846  24.200  1.00  0.00     0.156 C 
ATOM     85  C   UNL A   1      31.419  27.317  25.548  1.00  0.00     0.004 A 
ATOM     86  C   UNL A   1      31.076  25.343  24.235  1.00  0.00    -0.025 A 
ATOM     87  C   UNL A   1      30.967  28.119  24.504  1.00  0.00     0.000 A 
ATOM     88  C   UNL A   1      30.698  26.153  23.152  1.00  0.00     0.006 A 
ATOM     89  C   UNL A   1      30.652  27.540  23.286  1.00  0.00     0.000 A 
BRANCH  82  90
ATOM     90  C   UNL A   1      32.412  21.970  24.227  1.00  0.00     0.261 C 
ATOM     91  O   UNL A   1      32.583  21.981  23.001  1.00  0.00    -0.271 OA
BRANCH  90  92
ATOM     92  C   UNL A   1      32.619  20.647  24.969  1.00  0.00     0.329 C 
BRANCH  92  93
ATOM     93  O   UNL A   1      31.929  19.495  24.543  1.00  0.00    -0.484 OA
BRANCH  93  94
ATOM     94  C   UNL A   1      32.647  18.335  24.580  1.00  0.00     0.120 A 
ATOM     95  C   UNL A   1      33.281  17.989  23.390  1.00  0.00     0.046 A 
ATOM     96  C   UNL A   1      32.674  17.460  25.667  1.00  0.00     0.046 A 
ATOM     97  C   UNL A   1      33.967  16.781  23.289  1.00  0.00     0.004 A 
ATOM     98  C   UNL A   1      33.347  16.242  25.559  1.00  0.00     0.004 A 
ATOM     99  C   UNL A   1      33.995  15.906  24.373  1.00  0.00     0.000 A 
ENDBRANCH  93  94
ENDBRANCH  92  93
ENDBRANCH  90  92
ENDBRANCH  82  90
ENDBRANCH  78  80
ENDBRANCH  77  78
ENDBRANCH  76  77
ENDBRANCH  75  76
ENDBRANCH  74  75
ENDBRANCH   1  74
TORSDOF 21
ENDMDL
MODEL 2
REMARK VINA RESULT:     -11.2      3.948      9.076
REMARK SMILES O=C(OCCOCCOCCOC(=O)[C@@H]1Cc2ccccc2CN1C(=O)COc1ccccc1)c1ccc(-c2c3nc(c(-c4c(F)c(F)c(F)c(F)c4F)c4ccc([nH]4)c(-c4c(F)c(F)c(F)c(F)c4F)c4nc(c(-c5c(F)c(F)c(F)c(F)c5F)c5ccc2[nH]5)C=C4)C=C3)cc1
REMARK SMILES IDX 8 1 7 2 6 3 5 4 4 5 3 6 2 7 1 8 35 9 36 10 97 11 37 12 96 13
REMARK SMILES IDX 38 14 39 15 40 16 90 17 41 18 95 19 89 20 91 21 42 22 94 23
REMARK SMILES IDX 88 24 87 25 43 27 75 28 55 29 74 30 56 31 59 32 73 33 92 34
REMARK SMILES IDX 57 35 58 36 72 38 93 39 60 40 44 41 45 42 53 43 46 44 47 45
REMARK SMILES IDX 51 46 54 47 48 48 49 49 52 50 50 51 76 52 77 53 85 54 78 55
REMARK SMILES IDX 79 56 83 57 86 58 80 59 81 60 84 61 82 62 61 63 62 64 70 65
REMARK SMILES IDX 63 66 64 67 68 68 71 69 65 70 66 71 69 72 67 73 9 74 10 75
REMARK SMILES IDX 11 76 12 77 13 78 14 79 15 80 16 81 24 82 17 83 23 84 18 85
REMARK SMILES IDX 22 86 19 87 21 88 20 89 25 90 26 91 27 92 28 93 29 94 30 95
REMARK SMILES IDX 34 96 31 97 33 98 32 99
REMARK H PARENT 91 26 59 37
REMARK Flexibility Score: inf
ROOT
ATOM      1  C   UNL A   1      35.574  32.534  28.597  1.00  0.00     0.188 C 
ENDROOT
BRANCH   1   2
ATOM      2  C   UNL A   1      35.529  33.929  27.983  1.00  0.00     0.188 C 
BRANCH   2   3
ATOM      3  O   UNL A   1      34.228  34.524  27.995  1.00  0.00    -0.376 OA
BRANCH   3   4
ATOM      4  C   UNL A   1      34.277  35.948  28.118  1.00  0.00     0.202 C 
BRANCH   4   5
ATOM      5  C   UNL A   1      33.289  36.547  29.136  1.00  0.00     0.261 C 
BRANCH   5   6
ATOM      6  O   UNL A   1      32.650  35.584  29.993  1.00  0.00    -0.460 OA
BRANCH   6   7
ATOM      7  C   UNL A   1      32.825  35.339  31.318  1.00  0.00     0.338 C 
ATOM      8  O   UNL A   1      31.960  35.722  32.095  1.00  0.00    -0.246 OA
BRANCH   7   9
ATOM      9  C   UNL A   1      34.034  34.663  31.902  1.00  0.00     0.060 A 
ATOM     10  C   UNL A   1      35.350  34.839  31.478  1.00  0.00     0.016 A 
ATOM     11  C   UNL A   1      33.824  33.804  32.995  1.00  0.00     0.016 A 
ATOM     12  C   UNL A   1      36.423  34.177  32.064  1.00  0.00     0.010 A 
ATOM     13  C   UNL A   1      34.897  33.147  33.610  1.00  0.00     0.010 A 
ATOM     14  C   UNL A   1      36.206  33.315  33.123  1.00  0.00    -0.014 A 
BRANCH  14  15
ATOM     15  C   UNL A   1      37.295  32.429  33.577  1.00  0.00     0.031 A 
ATOM     16  C   UNL A   1      38.105  32.909  34.740  1.00  0.00     0.074 A 
ATOM     17  C   UNL A   1      37.523  31.217  33.034  1.00  0.00     0.049 A 
ATOM     18  N   UNL A   1      39.246  32.471  35.188  1.00  0.00    -0.248 NA
ATOM     19  C   UNL A   1      37.511  33.990  35.552  1.00  0.00     0.031 C 
ATOM     20  C   UNL A   1      36.645  30.489  32.117  1.00  0.00     0.029 A 
ATOM     21  N   UNL A   1      38.651  30.430  33.083  1.00  0.00    -0.354 N 
ATOM     22  C   UNL A   1      39.471  33.171  36.363  1.00  0.00     0.074 A 
ATOM     23  C   UNL A   1      38.403  34.128  36.520  1.00  0.00     0.031 C 
ATOM     24  C   UNL A   1      37.343  29.505  31.519  1.00  0.00     0.029 A 
ATOM     25  C   UNL A   1      38.711  29.560  32.009  1.00  0.00     0.049 A 
ATOM     26  H   UNL A   1      39.330  30.480  33.793  1.00  0.00     0.167 HD
ATOM     27  C   UNL A   1      40.468  32.969  37.252  1.00  0.00     0.037 A 
ATOM     28  C   UNL A   1      39.797  29.013  31.428  1.00  0.00     0.037 A 
ATOM     29  C   UNL A   1      41.510  32.009  37.025  1.00  0.00     0.049 A 
ATOM     30  C   UNL A   1      41.091  29.135  32.175  1.00  0.00     0.074 A 
ATOM     31  C   UNL A   1      42.554  31.639  37.849  1.00  0.00     0.029 A 
ATOM     32  N   UNL A   1      41.643  31.283  35.848  1.00  0.00    -0.354 N 
ATOM     33  N   UNL A   1      41.329  29.766  33.298  1.00  0.00    -0.248 NA
ATOM     34  C   UNL A   1      42.241  28.410  31.628  1.00  0.00     0.031 C 
ATOM     35  C   UNL A   1      43.360  30.743  37.137  1.00  0.00     0.029 A 
ATOM     36  C   UNL A   1      42.788  30.514  35.893  1.00  0.00     0.049 A 
ATOM     37  H   UNL A   1      41.012  31.313  35.093  1.00  0.00     0.167 HD
ATOM     38  C   UNL A   1      42.615  29.411  33.663  1.00  0.00     0.074 A 
ATOM     39  C   UNL A   1      43.135  28.583  32.591  1.00  0.00     0.031 C 
ATOM     40  C   UNL A   1      43.269  29.685  34.817  1.00  0.00     0.037 A 
BRANCH  27  41
ATOM     41  C   UNL A   1      40.470  33.787  38.504  1.00  0.00     0.064 A 
ATOM     42  C   UNL A   1      39.683  33.438  39.614  1.00  0.00     0.173 A 
ATOM     43  C   UNL A   1      41.285  34.923  38.609  1.00  0.00     0.173 A 
ATOM     44  F   UNL A   1      38.869  32.373  39.558  1.00  0.00    -0.203 F 
ATOM     45  C   UNL A   1      39.703  34.205  40.777  1.00  0.00     0.198 A 
ATOM     46  C   UNL A   1      41.318  35.675  39.780  1.00  0.00     0.198 A 
ATOM     47  F   UNL A   1      42.046  35.305  37.573  1.00  0.00    -0.203 F 
ATOM     48  F   UNL A   1      38.916  33.875  41.810  1.00  0.00    -0.200 F 
ATOM     49  C   UNL A   1      40.526  35.318  40.861  1.00  0.00     0.200 A 
ATOM     50  F   UNL A   1      42.116  36.749  39.862  1.00  0.00    -0.200 F 
ATOM     51  F   UNL A   1      40.550  36.052  41.982  1.00  0.00    -0.200 F 
ENDBRANCH  27  41
BRANCH  28  52
ATOM     52  C   UNL A   1      39.766  28.400  30.071  1.00  0.00     0.064 A 
ATOM     53  C   UNL A   1      39.285  27.108  29.845  1.00  0.00     0.173 A 
ATOM     54  C   UNL A   1      40.363  29.057  28.984  1.00  0.00     0.173 A 
ATOM     55  F   UNL A   1      38.781  26.398  30.864  1.00  0.00    -0.203 F 
ATOM     56  C   UNL A   1      39.401  26.505  28.589  1.00  0.00     0.198 A 
ATOM     57  C   UNL A   1      40.439  28.478  27.718  1.00  0.00     0.198 A 
ATOM     58  F   UNL A   1      40.965  30.235  29.169  1.00  0.00    -0.203 F 
ATOM     59  F   UNL A   1      39.008  25.235  28.421  1.00  0.00    -0.200 F 
ATOM     60  C   UNL A   1      39.967  27.193  27.524  1.00  0.00     0.200 A 
ATOM     61  F   UNL A   1      41.018  29.142  26.708  1.00  0.00    -0.200 F 
ATOM     62  F   UNL A   1      40.099  26.602  26.328  1.00  0.00    -0.200 F 
ENDBRANCH  28  52
BRANCH  40  63
ATOM     63  C   UNL A   1      44.570  28.986  35.030  1.00  0.00     0.064 A 
ATOM     64  C   UNL A   1      45.791  29.574  34.688  1.00  0.00     0.173 A 
ATOM     65  C   UNL A   1      44.583  27.724  35.645  1.00  0.00     0.173 A 
ATOM     66  F   UNL A   1      45.818  30.764  34.068  1.00  0.00    -0.203 F 
ATOM     67  C   UNL A   1      46.988  28.918  34.951  1.00  0.00     0.198 A 
ATOM     68  C   UNL A   1      45.781  27.090  35.942  1.00  0.00     0.198 A 
ATOM     69  F   UNL A   1      43.431  27.124  35.984  1.00  0.00    -0.203 F 
ATOM     70  F   UNL A   1      48.149  29.475  34.580  1.00  0.00    -0.200 F 
ATOM     71  C   UNL A   1      46.983  27.685  35.592  1.00  0.00     0.200 A 
ATOM     72  F   UNL A   1      45.772  25.909  36.574  1.00  0.00    -0.200 F 
ATOM     73  F   UNL A   1      48.139  27.069  35.867  1.00  0.00    -0.200 F 
ENDBRANCH  40  63
ENDBRANCH  14  15
ENDBRANCH   7   9
ENDBRANCH   6   7
ENDBRANCH   5   6
ENDBRANCH   4   5
ENDBRANCH   3   4
ENDBRANCH   2   3
ENDBRANCH   1   2
BRANCH   1  74
ATOM     74  O   UNL A   1      34.343  31.857  28.825  1.00  0.00    -0.376 OA
BRANCH  74  75
ATOM     75  C   UNL A   1      33.785  31.147  27.724  1.00  0.00     0.202 C 
BRANCH  75  76
ATOM     76  C   UNL A   1      34.309  29.726  27.438  1.00  0.00     0.261 C 
BRANCH  76  77
ATOM     77  O   UNL A   1      34.004  29.228  26.116  1.00  0.00    -0.462 OA
BRANCH  77  78
ATOM     78  C   UNL A   1      32.815  28.574  25.984  1.00  0.00     0.329 C 
ATOM     79  O   UNL A   1      31.805  28.882  26.610  1.00  0.00    -0.250 OA
BRANCH  78  80
ATOM     80  C   UNL A   1      32.891  27.288  25.120  1.00  0.00     0.200 C 
ATOM     81  C   UNL A   1      34.173  26.578  25.607  1.00  0.00     0.073 C 
ATOM     82  N   UNL A   1      32.840  27.364  23.624  1.00  0.00    -0.321 N 
ATOM     83  C   UNL A   1      34.348  25.248  24.931  1.00  0.00    -0.040 A 
ATOM     84  C   UNL A   1      33.645  26.408  22.849  1.00  0.00     0.156 C 
ATOM     85  C   UNL A   1      34.889  24.138  25.570  1.00  0.00     0.004 A 
ATOM     86  C   UNL A   1      33.991  25.145  23.590  1.00  0.00    -0.025 A 
ATOM     87  C   UNL A   1      35.038  22.921  24.911  1.00  0.00     0.000 A 
ATOM     88  C   UNL A   1      34.064  23.899  22.947  1.00  0.00     0.006 A 
ATOM     89  C   UNL A   1      34.579  22.787  23.611  1.00  0.00     0.000 A 
BRANCH  82  90
ATOM     90  C   UNL A   1      31.851  27.985  22.868  1.00  0.00     0.261 C 
ATOM     91  O   UNL A   1      31.984  29.158  22.496  1.00  0.00    -0.271 OA
BRANCH  90  92
ATOM     92  C   UNL A   1      30.553  27.260  22.507  1.00  0.00     0.329 C 
BRANCH  92  93
ATOM     93  O   UNL A   1      29.706  26.797  23.533  1.00  0.00    -0.484 OA
BRANCH  93  94
ATOM     94  C   UNL A   1      30.054  25.598  24.084  1.00  0.00     0.120 A 
ATOM     95  C   UNL A   1      30.144  25.585  25.473  1.00  0.00     0.046 A 
ATOM     96  C   UNL A   1      30.423  24.471  23.349  1.00  0.00     0.046 A 
ATOM     97  C   UNL A   1      30.578  24.439  26.135  1.00  0.00     0.004 A 
ATOM     98  C   UNL A   1      30.875  23.328  24.011  1.00  0.00     0.004 A 
ATOM     99  C   UNL A   1      30.948  23.312  25.402  1.00  0.00     0.000 A 
ENDBRANCH  93  94
ENDBRANCH  92  93
ENDBRANCH  90  92
ENDBRANCH  82  90
ENDBRANCH  78  80
ENDBRANCH  77  78
ENDBRANCH  76  77
ENDBRANCH  75  76
ENDBRANCH  74  75
ENDBRANCH   1  74
TORSDOF 21
ENDMDL
MODEL 3
REMARK VINA RESULT:     -11.1      4.782      9.196
REMARK SMILES O=C(OCCOCCOCCOC(=O)[C@@H]1Cc2ccccc2CN1C(=O)COc1ccccc1)c1ccc(-c2c3nc(c(-c4c(F)c(F)c(F)c(F)c4F)c4ccc([nH]4)c(-c4c(F)c(F)c(F)c(F)c4F)c4nc(c(-c5c(F)c(F)c(F)c(F)c5F)c5ccc2[nH]5)C=C4)C=C3)cc1
REMARK SMILES IDX 8 1 7 2 6 3 5 4 4 5 3 6 2 7 1 8 35 9 36 10 97 11 37 12 96 13
REMARK SMILES IDX 38 14 39 15 40 16 90 17 41 18 95 19 89 20 91 21 42 22 94 23
REMARK SMILES IDX 88 24 87 25 43 27 75 28 55 29 74 30 56 31 59 32 73 33 92 34
REMARK SMILES IDX 57 35 58 36 72 38 93 39 60 40 44 41 45 42 53 43 46 44 47 45
REMARK SMILES IDX 51 46 54 47 48 48 49 49 52 50 50 51 76 52 77 53 85 54 78 55
REMARK SMILES IDX 79 56 83 57 86 58 80 59 81 60 84 61 82 62 61 63 62 64 70 65
REMARK SMILES IDX 63 66 64 67 68 68 71 69 65 70 66 71 69 72 67 73 9 74 10 75
REMARK SMILES IDX 11 76 12 77 13 78 14 79 15 80 16 81 24 82 17 83 23 84 18 85
REMARK SMILES IDX 22 86 19 87 21 88 20 89 25 90 26 91 27 92 28 93 29 94 30 95
REMARK SMILES IDX 34 96 31 97 33 98 32 99
REMARK H PARENT 91 26 59 37
REMARK Flexibility Score: inf
ROOT
ATOM      1  C   UNL A   1      39.978  22.436  26.777  1.00  0.00     0.188 C 
ENDROOT
BRANCH   1   2
ATOM      2  C   UNL A   1      40.003  20.937  26.504  1.00  0.00     0.188 C 
BRANCH   2   3
ATOM      3  O   UNL A   1      41.244  20.308  26.842  1.00  0.00    -0.376 OA
BRANCH   3   4
ATOM      4  C   UNL A   1      41.580  19.241  25.951  1.00  0.00     0.202 C 
BRANCH   4   5
ATOM      5  C   UNL A   1      42.979  18.634  26.161  1.00  0.00     0.261 C 
BRANCH   5   6
ATOM      6  O   UNL A   1      43.874  18.783  25.045  1.00  0.00    -0.460 OA
BRANCH   6   7
ATOM      7  C   UNL A   1      44.241  19.897  24.358  1.00  0.00     0.338 C 
ATOM      8  O   UNL A   1      44.556  19.771  23.182  1.00  0.00    -0.246 OA
BRANCH   7   9
ATOM      9  C   UNL A   1      44.326  21.272  24.958  1.00  0.00     0.060 A 
ATOM     10  C   UNL A   1      44.334  22.471  24.247  1.00  0.00     0.016 A 
ATOM     11  C   UNL A   1      44.364  21.360  26.360  1.00  0.00     0.016 A 
ATOM     12  C   UNL A   1      44.417  23.712  24.869  1.00  0.00     0.010 A 
ATOM     13  C   UNL A   1      44.425  22.603  27.002  1.00  0.00     0.010 A 
ATOM     14  C   UNL A   1      44.479  23.789  26.248  1.00  0.00    -0.014 A 
BRANCH  14  15
ATOM     15  C   UNL A   1      44.819  25.073  26.891  1.00  0.00     0.031 A 
ATOM     16  C   UNL A   1      43.674  25.982  27.213  1.00  0.00     0.074 A 
ATOM     17  C   UNL A   1      46.078  25.402  27.243  1.00  0.00     0.049 A 
ATOM     18  N   UNL A   1      43.688  27.240  27.546  1.00  0.00    -0.248 NA
ATOM     19  C   UNL A   1      42.332  25.366  27.227  1.00  0.00     0.031 C 
ATOM     20  C   UNL A   1      47.238  24.512  27.276  1.00  0.00     0.029 A 
ATOM     21  N   UNL A   1      46.617  26.636  27.522  1.00  0.00    -0.354 N 
ATOM     22  C   UNL A   1      42.375  27.546  27.872  1.00  0.00     0.074 A 
ATOM     23  C   UNL A   1      41.570  26.377  27.614  1.00  0.00     0.031 C 
ATOM     24  C   UNL A   1      48.364  25.249  27.326  1.00  0.00     0.029 A 
ATOM     25  C   UNL A   1      47.985  26.653  27.311  1.00  0.00     0.049 A 
ATOM     26  H   UNL A   1      46.096  27.411  27.834  1.00  0.00     0.167 HD
ATOM     27  C   UNL A   1      41.917  28.702  28.400  1.00  0.00     0.037 A 
ATOM     28  C   UNL A   1      48.774  27.697  26.993  1.00  0.00     0.037 A 
ATOM     29  C   UNL A   1      42.772  29.834  28.617  1.00  0.00     0.049 A 
ATOM     30  C   UNL A   1      48.173  29.062  27.135  1.00  0.00     0.074 A 
ATOM     31  C   UNL A   1      42.482  31.052  29.197  1.00  0.00     0.029 A 
ATOM     32  N   UNL A   1      44.103  29.879  28.220  1.00  0.00    -0.354 N 
ATOM     33  N   UNL A   1      46.947  29.383  27.467  1.00  0.00    -0.248 NA
ATOM     34  C   UNL A   1      49.071  30.205  26.942  1.00  0.00     0.031 C 
ATOM     35  C   UNL A   1      43.619  31.860  29.082  1.00  0.00     0.029 A 
ATOM     36  C   UNL A   1      44.633  31.126  28.481  1.00  0.00     0.049 A 
ATOM     37  H   UNL A   1      44.595  29.131  27.812  1.00  0.00     0.167 HD
ATOM     38  C   UNL A   1      46.955  30.754  27.651  1.00  0.00     0.074 A 
ATOM     39  C   UNL A   1      48.287  31.211  27.302  1.00  0.00     0.031 C 
ATOM     40  C   UNL A   1      45.969  31.544  28.139  1.00  0.00     0.037 A 
BRANCH  27  41
ATOM     41  C   UNL A   1      40.467  28.786  28.759  1.00  0.00     0.064 A 
ATOM     42  C   UNL A   1      39.501  29.206  27.831  1.00  0.00     0.173 A 
ATOM     43  C   UNL A   1      40.032  28.421  30.040  1.00  0.00     0.173 A 
ATOM     44  F   UNL A   1      39.868  29.587  26.598  1.00  0.00    -0.203 F 
ATOM     45  C   UNL A   1      38.154  29.270  28.178  1.00  0.00     0.198 A 
ATOM     46  C   UNL A   1      38.681  28.466  30.377  1.00  0.00     0.198 A 
ATOM     47  F   UNL A   1      40.916  28.023  30.967  1.00  0.00    -0.203 F 
ATOM     48  F   UNL A   1      37.253  29.710  27.288  1.00  0.00    -0.200 F 
ATOM     49  C   UNL A   1      37.744  28.893  29.447  1.00  0.00     0.200 A 
ATOM     50  F   UNL A   1      38.286  28.099  31.604  1.00  0.00    -0.200 F 
ATOM     51  F   UNL A   1      36.447  28.949  29.779  1.00  0.00    -0.200 F 
ENDBRANCH  27  41
BRANCH  28  52
ATOM     52  C   UNL A   1      50.145  27.532  26.432  1.00  0.00     0.064 A 
ATOM     53  C   UNL A   1      50.380  27.374  25.065  1.00  0.00     0.173 A 
ATOM     54  C   UNL A   1      51.247  27.384  27.290  1.00  0.00     0.173 A 
ATOM     55  F   UNL A   1      49.353  27.420  24.204  1.00  0.00    -0.203 F 
ATOM     56  C   UNL A   1      51.658  27.077  24.582  1.00  0.00     0.198 A 
ATOM     57  C   UNL A   1      52.531  27.135  26.809  1.00  0.00     0.198 A 
ATOM     58  F   UNL A   1      51.064  27.385  28.613  1.00  0.00    -0.203 F 
ATOM     59  F   UNL A   1      51.839  26.847  23.274  1.00  0.00    -0.200 F 
ATOM     60  C   UNL A   1      52.735  26.969  25.452  1.00  0.00     0.200 A 
ATOM     61  F   UNL A   1      53.555  27.000  27.664  1.00  0.00    -0.200 F 
ATOM     62  F   UNL A   1      53.954  26.660  24.988  1.00  0.00    -0.200 F 
ENDBRANCH  28  52
BRANCH  40  63
ATOM     63  C   UNL A   1      46.332  32.961  28.436  1.00  0.00     0.064 A 
ATOM     64  C   UNL A   1      46.121  33.989  27.513  1.00  0.00     0.173 A 
ATOM     65  C   UNL A   1      46.849  33.290  29.700  1.00  0.00     0.173 A 
ATOM     66  F   UNL A   1      45.661  33.710  26.284  1.00  0.00    -0.203 F 
ATOM     67  C   UNL A   1      46.419  35.305  27.844  1.00  0.00     0.198 A 
ATOM     68  C   UNL A   1      47.109  34.610  30.039  1.00  0.00     0.198 A 
ATOM     69  F   UNL A   1      47.071  32.330  30.611  1.00  0.00    -0.203 F 
ATOM     70  F   UNL A   1      46.251  36.276  26.935  1.00  0.00    -0.200 F 
ATOM     71  C   UNL A   1      46.897  35.617  29.111  1.00  0.00     0.200 A 
ATOM     72  F   UNL A   1      47.555  34.907  31.267  1.00  0.00    -0.200 F 
ATOM     73  F   UNL A   1      47.159  36.889  29.434  1.00  0.00    -0.200 F 
ENDBRANCH  40  63
ENDBRANCH  14  15
ENDBRANCH   7   9
ENDBRANCH   6   7
ENDBRANCH   5   6
ENDBRANCH   4   5
ENDBRANCH   3   4
ENDBRANCH   2   3
ENDBRANCH   1   2
BRANCH   1  74
ATOM     74  O   UNL A   1      38.811  23.168  26.421  1.00  0.00    -0.376 OA
BRANCH  74  75
ATOM     75  C   UNL A   1      37.822  22.476  25.665  1.00  0.00     0.202 C 
BRANCH  75  76
ATOM     76  C   UNL A   1      36.968  23.289  24.673  1.00  0.00     0.261 C 
BRANCH  76  77
ATOM     77  O   UNL A   1      35.553  23.294  24.963  1.00  0.00    -0.462 OA
BRANCH  77  78
ATOM     78  C   UNL A   1      34.755  23.891  24.031  1.00  0.00     0.329 C 
ATOM     79  O   UNL A   1      34.962  23.820  22.823  1.00  0.00    -0.250 OA
BRANCH  78  80
ATOM     80  C   UNL A   1      33.673  24.828  24.629  1.00  0.00     0.200 C 
ATOM     81  C   UNL A   1      34.464  25.781  25.552  1.00  0.00     0.073 C 
ATOM     82  N   UNL A   1      32.469  24.266  25.322  1.00  0.00    -0.321 N 
ATOM     83  C   UNL A   1      33.568  26.830  26.145  1.00  0.00    -0.040 A 
ATOM     84  C   UNL A   1      31.927  24.994  26.480  1.00  0.00     0.156 C 
ATOM     85  C   UNL A   1      33.983  28.135  26.385  1.00  0.00     0.004 A 
ATOM     86  C   UNL A   1      32.278  26.456  26.512  1.00  0.00    -0.025 A 
ATOM     87  C   UNL A   1      33.125  29.081  26.939  1.00  0.00     0.000 A 
ATOM     88  C   UNL A   1      31.385  27.427  26.994  1.00  0.00     0.006 A 
ATOM     89  C   UNL A   1      31.808  28.740  27.199  1.00  0.00     0.000 A 
BRANCH  82  90
ATOM     90  C   UNL A   1      31.577  23.339  24.794  1.00  0.00     0.261 C 
ATOM     91  O   UNL A   1      31.263  22.328  25.436  1.00  0.00    -0.271 OA
BRANCH  90  92
ATOM     92  C   UNL A   1      30.988  23.510  23.392  1.00  0.00     0.329 C 
BRANCH  92  93
ATOM     93  O   UNL A   1      29.950  24.439  23.182  1.00  0.00    -0.484 OA
BRANCH  93  94
ATOM     94  C   UNL A   1      30.337  25.746  23.121  1.00  0.00     0.120 A 
ATOM     95  C   UNL A   1      31.498  25.991  22.394  1.00  0.00     0.046 A 
ATOM     96  C   UNL A   1      29.718  26.784  23.820  1.00  0.00     0.046 A 
ATOM     97  C   UNL A   1      32.032  27.277  22.341  1.00  0.00     0.004 A 
ATOM     98  C   UNL A   1      30.263  28.068  23.781  1.00  0.00     0.004 A 
ATOM     99  C   UNL A   1      31.416  28.314  23.040  1.00  0.00     0.000 A 
ENDBRANCH  93  94
ENDBRANCH  92  93
ENDBRANCH  90  92
ENDBRANCH  82  90
ENDBRANCH  78  80
ENDBRANCH  77  78
ENDBRANCH  76  77
ENDBRANCH  75  76
ENDBRANCH  74  75
ENDBRANCH   1  74
TORSDOF 21
ENDMDL
