MODEL 1
REMARK VINA RESULT:     -11.5      0.000      0.000
REMARK SMILES CCOc1ccc(C(=O)NC(=S)Nc2cccc(C(=O)OCCOCCOCCOC(=O)c3ccc(-c4c5nc(c(-c6c(F)c(F)c(F)c(F)c6F)c6ccc([nH]6)c(-c6c(F)c(F)c(F)c(F)c6F)c6nc(c(-c7c(F)c(F)c(F)c(F)c7F)c7ccc4[nH]7)C=C6)C=C5)cc3)c2C)cc1Br
REMARK SMILES IDX 23 1 22 2 21 3 19 4 20 5 18 6 14 7 15 8 96 9 16 10 97 11
REMARK SMILES IDX 17 12 13 13 11 15 12 16 10 17 8 18 9 19 7 21 4 22 5 23 99 24
REMARK SMILES IDX 6 25 98 26 100 27 3 28 2 29 1 30 24 31 25 32 26 33 27 34
REMARK SMILES IDX 28 35 29 36 30 37 31 38 32 39 33 40 34 41 95 42 35 43 94 44
REMARK SMILES IDX 36 45 37 46 38 47 88 48 39 49 93 50 87 51 89 52 40 53 92 54
REMARK SMILES IDX 86 55 85 56 41 58 73 59 53 60 72 61 54 62 57 63 71 64 90 65
REMARK SMILES IDX 55 66 56 67 70 69 91 70 58 71 42 72 43 73 51 74 44 75 45 76
REMARK SMILES IDX 49 77 52 78 46 79 47 80 50 81 48 82 74 83 75 84 83 85 76 86
REMARK SMILES IDX 77 87 81 88 84 89 78 90 79 91 82 92 80 93 59 94 60 95 68 96
REMARK SMILES IDX 61 97 62 98 66 99 69 100 63 101 64 102 67 103 65 104
REMARK H PARENT 13 14 10 20 89 57 57 68
REMARK Flexibility Score: inf
ROOT
ATOM      1  C   UNL A   1      37.117  32.638  34.467  1.00  0.00     0.202 C 
ENDROOT
BRANCH   1   2
ATOM      2  C   UNL A   1      38.134  31.324  34.999  1.00  0.00     0.261 C 
BRANCH   2   3
ATOM      3  O   UNL A   1      38.620  29.564  34.337  1.00  0.00    -0.460 OA
BRANCH   3   4
ATOM      4  C   UNL A   1      39.547  28.634  33.145  1.00  0.00     0.338 C 
ATOM      5  O   UNL A   1      40.336  27.733  33.463  1.00  0.00    -0.246 OA
BRANCH   4   6
ATOM      6  C   UNL A   1      39.310  28.567  31.268  1.00  0.00     0.065 A 
ATOM      7  C   UNL A   1      37.843  29.860  28.777  1.00  0.00     0.044 A 
ATOM      8  C   UNL A   1      39.167  29.361  27.671  1.00  0.00     0.026 A 
ATOM      9  C   UNL A   1      37.876  29.526  30.579  1.00  0.00    -0.013 A 
ATOM     10  C   UNL A   1      40.586  28.489  28.184  1.00  0.00     0.003 A 
ATOM     11  C   UNL A   1      36.602  29.950  31.268  1.00  0.00     0.047 C 
ATOM     12  C   UNL A   1      40.721  28.076  29.905  1.00  0.00     0.016 A 
BRANCH   7  13
ATOM     13  N   UNL A   1      36.635  29.314  28.155  1.00  0.00    -0.332 N 
ATOM     14  H   UNL A   1      36.686  28.390  27.816  1.00  0.00     0.169 HD
BRANCH  13  15
ATOM     15  C   UNL A   1      35.401  29.989  27.994  1.00  0.00     0.177 C 
ATOM     16  S   UNL A   1      35.464  31.664  27.937  1.00  0.00    -0.040 S 
BRANCH  15  17
ATOM     17  N   UNL A   1      34.054  29.324  27.917  1.00  0.00    -0.299 N 
ATOM     18  C   UNL A   1      32.924  28.470  27.150  1.00  0.00     0.257 C 
ATOM     19  O   UNL A   1      31.975  28.057  27.808  1.00  0.00    -0.269 OA
ATOM     20  H   UNL A   1      33.654  29.505  28.798  1.00  0.00     0.172 HD
BRANCH  18  21
ATOM     21  C   UNL A   1      32.976  28.294  25.599  1.00  0.00     0.041 A 
ATOM     22  C   UNL A   1      31.877  26.745  22.278  1.00  0.00     0.133 A 
ATOM     23  C   UNL A   1      33.291  27.954  22.477  1.00  0.00     0.048 A 
ATOM     24  C   UNL A   1      31.191  26.212  23.806  1.00  0.00     0.060 A 
ATOM     25  C   UNL A   1      33.745  28.739  24.089  1.00  0.00     0.018 A 
ATOM     26  C   UNL A   1      31.851  27.132  25.441  1.00  0.00     0.033 A 
ATOM     27  Br  UNL A   1      30.475  24.355  23.354  1.00  0.00    -0.047 Br
BRANCH  22  28
ATOM     28  O   UNL A   1      30.429  27.582  22.006  1.00  0.00    -0.493 OA
BRANCH  28  29
ATOM     29  C   UNL A   1      29.662  28.769  22.486  1.00  0.00     0.226 C 
ATOM     30  C   UNL A   1      28.194  28.801  22.838  1.00  0.00     0.049 C 
ENDBRANCH  28  29
ENDBRANCH  22  28
ENDBRANCH  18  21
ENDBRANCH  15  17
ENDBRANCH  13  15
ENDBRANCH   7  13
ENDBRANCH   4   6
ENDBRANCH   3   4
ENDBRANCH   2   3
ENDBRANCH   1   2
BRANCH   1  31
ATOM     31  O   UNL A   1      35.829  33.004  34.917  1.00  0.00    -0.376 OA
BRANCH  31  32
ATOM     32  C   UNL A   1      35.365  34.298  34.657  1.00  0.00     0.188 C 
BRANCH  32  33
ATOM     33  C   UNL A   1      34.458  34.488  33.414  1.00  0.00     0.188 C 
BRANCH  33  34
ATOM     34  O   UNL A   1      33.871  33.289  32.979  1.00  0.00    -0.376 OA
BRANCH  34  35
ATOM     35  C   UNL A   1      34.481  32.899  31.764  1.00  0.00     0.202 C 
BRANCH  35  36
ATOM     36  C   UNL A   1      35.403  33.928  31.010  1.00  0.00     0.261 C 
BRANCH  36  37
ATOM     37  O   UNL A   1      36.866  33.787  30.589  1.00  0.00    -0.460 OA
BRANCH  37  38
ATOM     38  C   UNL A   1      38.093  33.719  30.049  1.00  0.00     0.338 C 
ATOM     39  O   UNL A   1      38.224  33.688  28.826  1.00  0.00    -0.246 OA
BRANCH  38  40
ATOM     40  C   UNL A   1      39.274  33.296  30.834  1.00  0.00     0.060 A 
ATOM     41  C   UNL A   1      40.382  33.955  30.406  1.00  0.00     0.016 A 
ATOM     42  C   UNL A   1      39.546  32.290  31.749  1.00  0.00     0.016 A 
ATOM     43  C   UNL A   1      41.600  33.191  30.395  1.00  0.00     0.010 A 
ATOM     44  C   UNL A   1      40.851  31.636  31.673  1.00  0.00     0.010 A 
ATOM     45  C   UNL A   1      41.904  31.849  30.628  1.00  0.00    -0.014 A 
BRANCH  45  46
ATOM     46  C   UNL A   1      43.370  30.804  30.025  1.00  0.00     0.031 A 
ATOM     47  C   UNL A   1      44.192  29.316  30.962  1.00  0.00     0.074 A 
ATOM     48  C   UNL A   1      43.908  30.867  28.780  1.00  0.00     0.049 A 
ATOM     49  N   UNL A   1      45.458  28.967  31.079  1.00  0.00    -0.248 NA
ATOM     50  C   UNL A   1      43.537  28.436  32.239  1.00  0.00     0.031 C 
ATOM     51  C   UNL A   1      44.525  29.688  28.143  1.00  0.00     0.029 A 
ATOM     52  N   UNL A   1      43.885  31.821  27.759  1.00  0.00    -0.354 N 
ATOM     53  C   UNL A   1      45.552  27.950  32.090  1.00  0.00     0.074 A 
ATOM     54  C   UNL A   1      44.543  28.158  33.023  1.00  0.00     0.031 C 
ATOM     55  C   UNL A   1      44.994  30.016  26.934  1.00  0.00     0.029 A 
ATOM     56  C   UNL A   1      44.915  31.448  26.847  1.00  0.00     0.049 A 
ATOM     57  H   UNL A   1      43.279  32.593  27.685  1.00  0.00     0.167 HD
ATOM     58  C   UNL A   1      46.097  26.717  31.860  1.00  0.00     0.037 A 
ATOM     59  C   UNL A   1      46.012  32.235  26.629  1.00  0.00     0.037 A 
ATOM     60  C   UNL A   1      46.754  26.833  30.591  1.00  0.00     0.049 A 
ATOM     61  C   UNL A   1      47.308  31.603  27.144  1.00  0.00     0.074 A 
ATOM     62  C   UNL A   1      46.381  26.527  29.298  1.00  0.00     0.029 A 
ATOM     63  N   UNL A   1      47.698  27.831  30.514  1.00  0.00    -0.354 N 
ATOM     64  N   UNL A   1      47.362  30.541  27.912  1.00  0.00    -0.248 NA
ATOM     65  C   UNL A   1      48.647  32.073  26.795  1.00  0.00     0.031 C 
ATOM     66  C   UNL A   1      47.130  27.387  28.439  1.00  0.00     0.029 A 
ATOM     67  C   UNL A   1      47.973  28.165  29.217  1.00  0.00     0.049 A 
ATOM     68  H   UNL A   1      48.123  28.253  31.295  1.00  0.00     0.167 HD
ATOM     69  C   UNL A   1      48.666  30.205  28.190  1.00  0.00     0.074 A 
ATOM     70  C   UNL A   1      49.426  31.185  27.441  1.00  0.00     0.031 C 
ATOM     71  C   UNL A   1      49.015  29.151  28.999  1.00  0.00     0.037 A 
BRANCH  58  72
ATOM     72  C   UNL A   1      45.779  25.382  32.586  1.00  0.00     0.064 A 
ATOM     73  C   UNL A   1      44.676  24.621  32.142  1.00  0.00     0.173 A 
ATOM     74  C   UNL A   1      46.426  24.797  33.712  1.00  0.00     0.173 A 
ATOM     75  F   UNL A   1      43.995  24.978  31.045  1.00  0.00    -0.203 F 
ATOM     76  C   UNL A   1      44.226  23.456  32.789  1.00  0.00     0.198 A 
ATOM     77  C   UNL A   1      45.947  23.664  34.391  1.00  0.00     0.198 A 
ATOM     78  F   UNL A   1      47.591  25.228  34.199  1.00  0.00    -0.203 F 
ATOM     79  F   UNL A   1      43.175  22.788  32.296  1.00  0.00    -0.200 F 
ATOM     80  C   UNL A   1      44.845  22.991  33.930  1.00  0.00     0.200 A 
ATOM     81  F   UNL A   1      46.583  23.230  35.492  1.00  0.00    -0.200 F 
ATOM     82  F   UNL A   1      44.406  21.892  34.557  1.00  0.00    -0.200 F 
ENDBRANCH  58  72
BRANCH  59  83
ATOM     83  C   UNL A   1      45.605  33.666  26.527  1.00  0.00     0.064 A 
ATOM     84  C   UNL A   1      44.562  33.941  25.606  1.00  0.00     0.173 A 
ATOM     85  C   UNL A   1      45.782  34.567  27.575  1.00  0.00     0.173 A 
ATOM     86  F   UNL A   1      44.400  33.160  24.524  1.00  0.00    -0.203 F 
ATOM     87  C   UNL A   1      43.567  34.867  25.900  1.00  0.00     0.198 A 
ATOM     88  C   UNL A   1      44.829  35.562  27.811  1.00  0.00     0.198 A 
ATOM     89  F   UNL A   1      46.804  34.429  28.428  1.00  0.00    -0.203 F 
ATOM     90  F   UNL A   1      42.458  34.921  25.148  1.00  0.00    -0.200 F 
ATOM     91  C   UNL A   1      43.679  35.648  27.033  1.00  0.00     0.200 A 
ATOM     92  F   UNL A   1      44.979  36.388  28.857  1.00  0.00    -0.200 F 
ATOM     93  F   UNL A   1      42.671  36.452  27.397  1.00  0.00    -0.200 F 
ENDBRANCH  59  83
BRANCH  71  94
ATOM     94  C   UNL A   1      50.376  28.873  29.666  1.00  0.00     0.064 A 
ATOM     95  C   UNL A   1      51.190  27.776  29.365  1.00  0.00     0.173 A 
ATOM     96  C   UNL A   1      50.974  29.795  30.586  1.00  0.00     0.173 A 
ATOM     97  F   UNL A   1      50.887  26.922  28.383  1.00  0.00    -0.203 F 
ATOM     98  C   UNL A   1      52.402  27.540  30.027  1.00  0.00     0.198 A 
ATOM     99  C   UNL A   1      52.240  29.621  31.141  1.00  0.00     0.198 A 
ATOM    100  F   UNL A   1      50.377  30.922  30.993  1.00  0.00    -0.203 F 
ATOM    101  F   UNL A   1      53.067  26.401  29.789  1.00  0.00    -0.200 F 
ATOM    102  C   UNL A   1      52.931  28.463  30.907  1.00  0.00     0.200 A 
ATOM    103  F   UNL A   1      52.769  30.588  31.907  1.00  0.00    -0.200 F 
ATOM    104  F   UNL A   1      54.101  28.241  31.517  1.00  0.00    -0.200 F 
ENDBRANCH  71  94
ENDBRANCH  45  46
ENDBRANCH  38  40
ENDBRANCH  37  38
ENDBRANCH  36  37
ENDBRANCH  35  36
ENDBRANCH  34  35
ENDBRANCH  33  34
ENDBRANCH  32  33
ENDBRANCH  31  32
ENDBRANCH   1  31
TORSDOF 23
ENDMDL
MODEL 2
REMARK VINA RESULT:     -11.0      4.222      9.758
REMARK SMILES CCOc1ccc(C(=O)NC(=S)Nc2cccc(C(=O)OCCOCCOCCOC(=O)c3ccc(-c4c5nc(c(-c6c(F)c(F)c(F)c(F)c6F)c6ccc([nH]6)c(-c6c(F)c(F)c(F)c(F)c6F)c6nc(c(-c7c(F)c(F)c(F)c(F)c7F)c7ccc4[nH]7)C=C6)C=C5)cc3)c2C)cc1Br
REMARK SMILES IDX 23 1 22 2 21 3 19 4 20 5 18 6 14 7 15 8 96 9 16 10 97 11
REMARK SMILES IDX 17 12 13 13 11 15 12 16 10 17 8 18 9 19 7 21 4 22 5 23 99 24
REMARK SMILES IDX 6 25 98 26 100 27 3 28 2 29 1 30 24 31 25 32 26 33 27 34
REMARK SMILES IDX 28 35 29 36 30 37 31 38 32 39 33 40 34 41 95 42 35 43 94 44
REMARK SMILES IDX 36 45 37 46 38 47 88 48 39 49 93 50 87 51 89 52 40 53 92 54
REMARK SMILES IDX 86 55 85 56 41 58 73 59 53 60 72 61 54 62 57 63 71 64 90 65
REMARK SMILES IDX 55 66 56 67 70 69 91 70 58 71 42 72 43 73 51 74 44 75 45 76
REMARK SMILES IDX 49 77 52 78 46 79 47 80 50 81 48 82 74 83 75 84 83 85 76 86
REMARK SMILES IDX 77 87 81 88 84 89 78 90 79 91 82 92 80 93 59 94 60 95 68 96
REMARK SMILES IDX 61 97 62 98 66 99 69 100 63 101 64 102 67 103 65 104
REMARK H PARENT 13 14 10 20 89 57 57 68
REMARK Flexibility Score: inf
ROOT
ATOM      1  C   UNL A   1      35.490  21.561  25.458  1.00  0.00     0.202 C 
ENDROOT
BRANCH   1   2
ATOM      2  C   UNL A   1      34.543  21.955  26.868  1.00  0.00     0.261 C 
BRANCH   2   3
ATOM      3  O   UNL A   1      32.662  22.209  27.274  1.00  0.00    -0.460 OA
BRANCH   3   4
ATOM      4  C   UNL A   1      31.181  23.121  26.924  1.00  0.00     0.338 C 
ATOM      5  O   UNL A   1      30.155  23.023  27.611  1.00  0.00    -0.246 OA
BRANCH   4   6
ATOM      6  C   UNL A   1      30.955  24.582  25.741  1.00  0.00     0.065 A 
ATOM      7  C   UNL A   1      31.719  25.792  22.916  1.00  0.00     0.044 A 
ATOM      8  C   UNL A   1      30.185  26.724  22.841  1.00  0.00     0.026 A 
ATOM      9  C   UNL A   1      32.140  24.683  24.314  1.00  0.00    -0.013 A 
ATOM     10  C   UNL A   1      28.969  26.696  24.089  1.00  0.00     0.003 A 
ATOM     11  C   UNL A   1      33.526  24.100  24.191  1.00  0.00     0.047 C 
ATOM     12  C   UNL A   1      29.274  25.683  25.514  1.00  0.00     0.016 A 
BRANCH   7  13
ATOM     13  N   UNL A   1      32.758  26.801  22.703  1.00  0.00    -0.332 N 
ATOM     14  H   UNL A   1      33.288  26.729  21.876  1.00  0.00     0.169 HD
BRANCH  13  15
ATOM     15  C   UNL A   1      33.074  27.872  23.575  1.00  0.00     0.177 C 
ATOM     16  S   UNL A   1      34.257  28.940  23.053  1.00  0.00    -0.040 S 
BRANCH  15  17
ATOM     17  N   UNL A   1      32.466  28.091  24.932  1.00  0.00    -0.299 N 
ATOM     18  C   UNL A   1      32.435  28.774  26.390  1.00  0.00     0.257 C 
ATOM     19  O   UNL A   1      31.417  28.642  27.063  1.00  0.00    -0.269 OA
ATOM     20  H   UNL A   1      31.667  27.516  24.925  1.00  0.00     0.172 HD
BRANCH  18  21
ATOM     21  C   UNL A   1      33.709  29.466  26.972  1.00  0.00     0.041 A 
ATOM     22  C   UNL A   1      35.625  32.387  28.531  1.00  0.00     0.133 A 
ATOM     23  C   UNL A   1      36.395  30.769  27.996  1.00  0.00     0.048 A 
ATOM     24  C   UNL A   1      33.934  32.543  28.077  1.00  0.00     0.060 A 
ATOM     25  C   UNL A   1      35.424  29.350  27.314  1.00  0.00     0.018 A 
ATOM     26  C   UNL A   1      33.075  30.925  27.299  1.00  0.00     0.033 A 
ATOM     27  Br  UNL A   1      33.701  34.562  27.891  1.00  0.00    -0.047 Br
BRANCH  22  28
ATOM     28  O   UNL A   1      35.104  32.280  30.140  1.00  0.00    -0.493 OA
BRANCH  28  29
ATOM     29  C   UNL A   1      34.797  33.135  31.325  1.00  0.00     0.226 C 
ATOM     30  C   UNL A   1      34.835  32.704  32.771  1.00  0.00     0.049 C 
ENDBRANCH  28  29
ENDBRANCH  22  28
ENDBRANCH  18  21
ENDBRANCH  15  17
ENDBRANCH  13  15
ENDBRANCH   7  13
ENDBRANCH   4   6
ENDBRANCH   3   4
ENDBRANCH   2   3
ENDBRANCH   1   2
BRANCH   1  31
ATOM     31  O   UNL A   1      36.658  20.771  25.362  1.00  0.00    -0.376 OA
BRANCH  31  32
ATOM     32  C   UNL A   1      37.907  21.399  25.437  1.00  0.00     0.188 C 
BRANCH  32  33
ATOM     33  C   UNL A   1      39.159  20.484  25.447  1.00  0.00     0.188 C 
BRANCH  33  34
ATOM     34  O   UNL A   1      40.247  21.057  26.127  1.00  0.00    -0.376 OA
BRANCH  34  35
ATOM     35  C   UNL A   1      41.024  20.021  26.694  1.00  0.00     0.202 C 
BRANCH  35  36
ATOM     36  C   UNL A   1      42.455  19.733  26.108  1.00  0.00     0.261 C 
BRANCH  36  37
ATOM     37  O   UNL A   1      43.407  20.679  25.375  1.00  0.00    -0.460 OA
BRANCH  37  38
ATOM     38  C   UNL A   1      44.140  21.648  24.805  1.00  0.00     0.338 C 
ATOM     39  O   UNL A   1      44.157  21.765  23.581  1.00  0.00    -0.246 OA
BRANCH  38  40
ATOM     40  C   UNL A   1      45.226  22.343  25.533  1.00  0.00     0.060 A 
ATOM     41  C   UNL A   1      44.924  22.429  26.854  1.00  0.00     0.016 A 
ATOM     42  C   UNL A   1      46.355  23.063  25.174  1.00  0.00     0.016 A 
ATOM     43  C   UNL A   1      45.322  23.645  27.509  1.00  0.00     0.010 A 
ATOM     44  C   UNL A   1      46.688  24.246  25.966  1.00  0.00     0.010 A 
ATOM     45  C   UNL A   1      45.870  24.849  27.068  1.00  0.00    -0.014 A 
BRANCH  45  46
ATOM     46  C   UNL A   1      45.809  26.581  27.844  1.00  0.00     0.031 A 
ATOM     47  C   UNL A   1      44.223  27.521  28.449  1.00  0.00     0.074 A 
ATOM     48  C   UNL A   1      46.896  27.298  28.227  1.00  0.00     0.049 A 
ATOM     49  N   UNL A   1      43.889  28.793  28.355  1.00  0.00    -0.248 NA
ATOM     50  C   UNL A   1      42.712  26.855  28.773  1.00  0.00     0.031 C 
ATOM     51  C   UNL A   1      46.840  28.246  29.356  1.00  0.00     0.029 A 
ATOM     52  N   UNL A   1      48.255  27.253  27.900  1.00  0.00    -0.354 N 
ATOM     53  C   UNL A   1      42.505  28.922  28.721  1.00  0.00     0.074 A 
ATOM     54  C   UNL A   1      41.844  27.747  28.379  1.00  0.00     0.031 C 
ATOM     55  C   UNL A   1      48.029  28.836  29.516  1.00  0.00     0.029 A 
ATOM     56  C   UNL A   1      48.815  28.478  28.367  1.00  0.00     0.049 A 
ATOM     57  H   UNL A   1      48.728  26.522  27.442  1.00  0.00     0.167 HD
ATOM     58  C   UNL A   1      42.071  29.742  29.726  1.00  0.00     0.037 A 
ATOM     59  C   UNL A   1      49.339  29.409  27.513  1.00  0.00     0.037 A 
ATOM     60  C   UNL A   1      43.199  30.567  30.044  1.00  0.00     0.049 A 
ATOM     61  C   UNL A   1      48.518  30.701  27.466  1.00  0.00     0.074 A 
ATOM     62  C   UNL A   1      44.191  30.492  31.001  1.00  0.00     0.029 A 
ATOM     63  N   UNL A   1      43.713  31.283  28.986  1.00  0.00    -0.354 N 
ATOM     64  N   UNL A   1      47.325  30.841  27.993  1.00  0.00    -0.248 NA
ATOM     65  C   UNL A   1      48.988  31.952  26.877  1.00  0.00     0.031 C 
ATOM     66  C   UNL A   1      45.324  31.182  30.475  1.00  0.00     0.029 A 
ATOM     67  C   UNL A   1      44.991  31.699  29.234  1.00  0.00     0.049 A 
ATOM     68  H   UNL A   1      43.221  31.471  28.154  1.00  0.00     0.167 HD
ATOM     69  C   UNL A   1      46.855  32.120  27.803  1.00  0.00     0.074 A 
ATOM     70  C   UNL A   1      47.951  32.777  27.122  1.00  0.00     0.031 C 
ATOM     71  C   UNL A   1      45.616  32.537  28.226  1.00  0.00     0.037 A 
BRANCH  58  72
ATOM     72  C   UNL A   1      40.799  29.588  30.602  1.00  0.00     0.064 A 
ATOM     73  C   UNL A   1      40.788  28.596  31.605  1.00  0.00     0.173 A 
ATOM     74  C   UNL A   1      39.563  30.292  30.519  1.00  0.00     0.173 A 
ATOM     75  F   UNL A   1      41.891  27.886  31.878  1.00  0.00    -0.203 F 
ATOM     76  C   UNL A   1      39.657  28.291  32.383  1.00  0.00     0.198 A 
ATOM     77  C   UNL A   1      38.416  29.954  31.257  1.00  0.00     0.198 A 
ATOM     78  F   UNL A   1      39.387  31.388  29.778  1.00  0.00    -0.203 F 
ATOM     79  F   UNL A   1      39.735  27.338  33.322  1.00  0.00    -0.200 F 
ATOM     80  C   UNL A   1      38.462  28.952  32.192  1.00  0.00     0.200 A 
ATOM     81  F   UNL A   1      37.272  30.628  31.055  1.00  0.00    -0.200 F 
ATOM     82  F   UNL A   1      37.379  28.650  32.920  1.00  0.00    -0.200 F 
ENDBRANCH  58  72
BRANCH  59  83
ATOM     83  C   UNL A   1      50.151  28.737  26.459  1.00  0.00     0.064 A 
ATOM     84  C   UNL A   1      51.498  28.461  26.807  1.00  0.00     0.173 A 
ATOM     85  C   UNL A   1      49.576  27.947  25.466  1.00  0.00     0.173 A 
ATOM     86  F   UNL A   1      52.136  29.247  27.692  1.00  0.00    -0.203 F 
ATOM     87  C   UNL A   1      52.112  27.273  26.424  1.00  0.00     0.198 A 
ATOM     88  C   UNL A   1      50.240  26.804  25.009  1.00  0.00     0.198 A 
ATOM     89  F   UNL A   1      48.344  28.208  25.013  1.00  0.00    -0.203 F 
ATOM     90  F   UNL A   1      53.279  26.913  26.979  1.00  0.00    -0.200 F 
ATOM     91  C   UNL A   1      51.459  26.419  25.557  1.00  0.00     0.200 A 
ATOM     92  F   UNL A   1      49.653  26.017  24.096  1.00  0.00    -0.200 F 
ATOM     93  F   UNL A   1      51.980  25.217  25.280  1.00  0.00    -0.200 F 
ENDBRANCH  59  83
BRANCH  71  94
ATOM     94  C   UNL A   1      44.834  33.791  27.791  1.00  0.00     0.064 A 
ATOM     95  C   UNL A   1      44.919  35.032  28.432  1.00  0.00     0.173 A 
ATOM     96  C   UNL A   1      44.027  33.812  26.607  1.00  0.00     0.173 A 
ATOM     97  F   UNL A   1      45.779  35.252  29.430  1.00  0.00    -0.203 F 
ATOM     98  C   UNL A   1      44.158  36.136  28.028  1.00  0.00     0.198 A 
ATOM     99  C   UNL A   1      43.378  34.950  26.135  1.00  0.00     0.198 A 
ATOM    100  F   UNL A   1      43.829  32.739  25.831  1.00  0.00    -0.203 F 
ATOM    101  F   UNL A   1      44.184  37.254  28.766  1.00  0.00    -0.200 F 
ATOM    102  C   UNL A   1      43.395  36.100  26.878  1.00  0.00     0.200 A 
ATOM    103  F   UNL A   1      42.734  34.908  24.958  1.00  0.00    -0.200 F 
ATOM    104  F   UNL A   1      42.689  37.167  26.485  1.00  0.00    -0.200 F 
ENDBRANCH  71  94
ENDBRANCH  45  46
ENDBRANCH  38  40
ENDBRANCH  37  38
ENDBRANCH  36  37
ENDBRANCH  35  36
ENDBRANCH  34  35
ENDBRANCH  33  34
ENDBRANCH  32  33
ENDBRANCH  31  32
ENDBRANCH   1  31
TORSDOF 23
ENDMDL
MODEL 3
REMARK VINA RESULT:      -9.9      5.899     10.823
REMARK SMILES CCOc1ccc(C(=O)NC(=S)Nc2cccc(C(=O)OCCOCCOCCOC(=O)c3ccc(-c4c5nc(c(-c6c(F)c(F)c(F)c(F)c6F)c6ccc([nH]6)c(-c6c(F)c(F)c(F)c(F)c6F)c6nc(c(-c7c(F)c(F)c(F)c(F)c7F)c7ccc4[nH]7)C=C6)C=C5)cc3)c2C)cc1Br
REMARK SMILES IDX 23 1 22 2 21 3 19 4 20 5 18 6 14 7 15 8 96 9 16 10 97 11
REMARK SMILES IDX 17 12 13 13 11 15 12 16 10 17 8 18 9 19 7 21 4 22 5 23 99 24
REMARK SMILES IDX 6 25 98 26 100 27 3 28 2 29 1 30 24 31 25 32 26 33 27 34
REMARK SMILES IDX 28 35 29 36 30 37 31 38 32 39 33 40 34 41 95 42 35 43 94 44
REMARK SMILES IDX 36 45 37 46 38 47 88 48 39 49 93 50 87 51 89 52 40 53 92 54
REMARK SMILES IDX 86 55 85 56 41 58 73 59 53 60 72 61 54 62 57 63 71 64 90 65
REMARK SMILES IDX 55 66 56 67 70 69 91 70 58 71 42 72 43 73 51 74 44 75 45 76
REMARK SMILES IDX 49 77 52 78 46 79 47 80 50 81 48 82 74 83 75 84 83 85 76 86
REMARK SMILES IDX 77 87 81 88 84 89 78 90 79 91 82 92 80 93 59 94 60 95 68 96
REMARK SMILES IDX 61 97 62 98 66 99 69 100 63 101 64 102 67 103 65 104
REMARK H PARENT 13 14 10 20 89 57 57 68
REMARK Flexibility Score: inf
ROOT
ATOM      1  C   UNL A   1      43.834  42.376  38.906  1.00  0.00     0.202 C 
ENDROOT
BRANCH   1   2
ATOM      2  C   UNL A   1      43.551  42.132  37.202  1.00  0.00     0.261 C 
BRANCH   2   3
ATOM      3  O   UNL A   1      44.307  42.796  35.541  1.00  0.00    -0.460 OA
BRANCH   3   4
ATOM      4  C   UNL A   1      44.086  43.009  33.794  1.00  0.00     0.338 C 
ATOM      5  O   UNL A   1      43.717  44.079  33.290  1.00  0.00    -0.246 OA
BRANCH   4   6
ATOM      6  C   UNL A   1      44.647  41.866  32.393  1.00  0.00     0.065 A 
ATOM      7  C   UNL A   1      44.017  40.819  29.471  1.00  0.00     0.044 A 
ATOM      8  C   UNL A   1      45.753  40.482  29.160  1.00  0.00     0.026 A 
ATOM      9  C   UNL A   1      43.412  41.541  31.044  1.00  0.00    -0.013 A 
ATOM     10  C   UNL A   1      47.022  40.771  30.319  1.00  0.00     0.003 A 
ATOM     11  C   UNL A   1      41.907  41.627  31.098  1.00  0.00     0.047 C 
ATOM     12  C   UNL A   1      46.561  41.439  31.897  1.00  0.00     0.016 A 
BRANCH   7  13
ATOM     13  N   UNL A   1      43.349  39.550  29.175  1.00  0.00    -0.332 N 
ATOM     14  H   UNL A   1      43.397  38.848  29.865  1.00  0.00     0.169 HD
BRANCH  13  15
ATOM     15  C   UNL A   1      42.642  39.236  27.989  1.00  0.00     0.177 C 
ATOM     16  S   UNL A   1      41.560  40.391  27.433  1.00  0.00    -0.040 S 
BRANCH  15  17
ATOM     17  N   UNL A   1      42.754  37.942  27.231  1.00  0.00    -0.299 N 
ATOM     18  C   UNL A   1      42.529  36.356  27.071  1.00  0.00     0.257 C 
ATOM     19  O   UNL A   1      42.724  35.858  25.966  1.00  0.00    -0.269 OA
ATOM     20  H   UNL A   1      43.198  38.202  26.391  1.00  0.00     0.172 HD
BRANCH  18  21
ATOM     21  C   UNL A   1      42.203  35.468  28.315  1.00  0.00     0.041 A 
ATOM     22  C   UNL A   1      43.030  32.857  30.985  1.00  0.00     0.133 A 
ATOM     23  C   UNL A   1      41.351  33.648  30.748  1.00  0.00     0.048 A 
ATOM     24  C   UNL A   1      44.186  33.277  29.730  1.00  0.00     0.060 A 
ATOM     25  C   UNL A   1      41.009  34.963  29.493  1.00  0.00     0.018 A 
ATOM     26  C   UNL A   1      43.613  34.670  28.429  1.00  0.00     0.033 A 
ATOM     27  Br  UNL A   1      45.420  31.652  29.692  1.00  0.00    -0.047 Br
BRANCH  22  28
ATOM     28  O   UNL A   1      43.965  33.785  32.051  1.00  0.00    -0.493 OA
BRANCH  28  29
ATOM     29  C   UNL A   1      44.221  35.202  32.446  1.00  0.00     0.226 C 
ATOM     30  C   UNL A   1      43.763  36.432  31.701  1.00  0.00     0.049 C 
ENDBRANCH  28  29
ENDBRANCH  22  28
ENDBRANCH  18  21
ENDBRANCH  15  17
ENDBRANCH  13  15
ENDBRANCH   7  13
ENDBRANCH   4   6
ENDBRANCH   3   4
ENDBRANCH   2   3
ENDBRANCH   1   2
BRANCH   1  31
ATOM     31  O   UNL A   1      43.635  41.478  39.978  1.00  0.00    -0.376 OA
BRANCH  31  32
ATOM     32  C   UNL A   1      42.530  40.619  39.945  1.00  0.00     0.188 C 
BRANCH  32  33
ATOM     33  C   UNL A   1      41.341  40.959  40.880  1.00  0.00     0.188 C 
BRANCH  33  34
ATOM     34  O   UNL A   1      40.146  40.330  40.493  1.00  0.00    -0.376 OA
BRANCH  34  35
ATOM     35  C   UNL A   1      40.247  38.950  40.782  1.00  0.00     0.202 C 
BRANCH  35  36
ATOM     36  C   UNL A   1      39.725  37.909  39.724  1.00  0.00     0.261 C 
BRANCH  36  37
ATOM     37  O   UNL A   1      40.481  37.229  38.583  1.00  0.00    -0.460 OA
BRANCH  37  38
ATOM     38  C   UNL A   1      41.301  36.704  37.658  1.00  0.00     0.338 C 
ATOM     39  O   UNL A   1      42.519  36.733  37.831  1.00  0.00    -0.246 OA
BRANCH  38  40
ATOM     40  C   UNL A   1      40.854  36.438  36.273  1.00  0.00     0.060 A 
ATOM     41  C   UNL A   1      39.565  36.009  36.270  1.00  0.00     0.016 A 
ATOM     42  C   UNL A   1      41.469  36.349  35.034  1.00  0.00     0.016 A 
ATOM     43  C   UNL A   1      39.244  34.994  35.304  1.00  0.00     0.010 A 
ATOM     44  C   UNL A   1      41.003  35.313  34.114  1.00  0.00     0.010 A 
ATOM     45  C   UNL A   1      39.998  34.240  34.405  1.00  0.00    -0.014 A 
BRANCH  45  46
ATOM     46  C   UNL A   1      39.636  32.549  33.619  1.00  0.00     0.031 A 
ATOM     47  C   UNL A   1      40.873  31.064  33.452  1.00  0.00     0.074 A 
ATOM     48  C   UNL A   1      38.407  32.120  33.235  1.00  0.00     0.049 A 
ATOM     49  N   UNL A   1      41.062  30.209  32.465  1.00  0.00    -0.248 NA
ATOM     50  C   UNL A   1      42.311  30.841  34.298  1.00  0.00     0.031 C 
ATOM     51  C   UNL A   1      38.040  30.691  33.270  1.00  0.00     0.029 A 
ATOM     52  N   UNL A   1      37.203  32.763  32.935  1.00  0.00    -0.354 N 
ATOM     53  C   UNL A   1      42.270  29.476  32.731  1.00  0.00     0.074 A 
ATOM     54  C   UNL A   1      43.137  30.295  33.447  1.00  0.00     0.031 C 
ATOM     55  C   UNL A   1      36.789  30.530  32.826  1.00  0.00     0.029 A 
ATOM     56  C   UNL A   1      36.392  31.796  32.272  1.00  0.00     0.049 A 
ATOM     57  H   UNL A   1      36.963  33.695  33.141  1.00  0.00     0.167 HD
ATOM     58  C   UNL A   1      42.313  28.112  32.813  1.00  0.00     0.037 A 
ATOM     59  C   UNL A   1      36.008  31.941  30.968  1.00  0.00     0.037 A 
ATOM     60  C   UNL A   1      41.049  27.670  32.302  1.00  0.00     0.049 A 
ATOM     61  C   UNL A   1      36.647  30.904  30.040  1.00  0.00     0.074 A 
ATOM     62  C   UNL A   1      39.853  27.323  32.897  1.00  0.00     0.029 A 
ATOM     63  N   UNL A   1      40.756  28.096  31.026  1.00  0.00    -0.354 N 
ATOM     64  N   UNL A   1      37.627  30.104  30.386  1.00  0.00    -0.248 NA
ATOM     65  C   UNL A   1      36.204  30.639  28.674  1.00  0.00     0.031 C 
ATOM     66  C   UNL A   1      38.828  27.565  31.934  1.00  0.00     0.029 A 
ATOM     67  C   UNL A   1      39.417  28.012  30.762  1.00  0.00     0.049 A 
ATOM     68  H   UNL A   1      41.427  28.422  30.383  1.00  0.00     0.167 HD
ATOM     69  C   UNL A   1      37.971  29.274  29.344  1.00  0.00     0.074 A 
ATOM     70  C   UNL A   1      37.027  29.638  28.307  1.00  0.00     0.031 C 
ATOM     71  C   UNL A   1      38.990  28.355  29.418  1.00  0.00     0.037 A 
BRANCH  58  72
ATOM     72  C   UNL A   1      43.312  27.235  33.615  1.00  0.00     0.064 A 
ATOM     73  C   UNL A   1      44.177  26.378  32.901  1.00  0.00     0.173 A 
ATOM     74  C   UNL A   1      43.470  27.117  35.025  1.00  0.00     0.173 A 
ATOM     75  F   UNL A   1      44.221  26.408  31.563  1.00  0.00    -0.203 F 
ATOM     76  C   UNL A   1      45.043  25.459  33.521  1.00  0.00     0.198 A 
ATOM     77  C   UNL A   1      44.296  26.164  35.645  1.00  0.00     0.198 A 
ATOM     78  F   UNL A   1      42.901  27.945  35.903  1.00  0.00    -0.203 F 
ATOM     79  F   UNL A   1      45.838  24.686  32.768  1.00  0.00    -0.200 F 
ATOM     80  C   UNL A   1      45.085  25.333  34.893  1.00  0.00     0.200 A 
ATOM     81  F   UNL A   1      44.322  26.078  36.986  1.00  0.00    -0.200 F 
ATOM     82  F   UNL A   1      45.896  24.446  35.483  1.00  0.00    -0.200 F 
ENDBRANCH  58  72
BRANCH  59  83
ATOM     83  C   UNL A   1      35.598  33.351  30.708  1.00  0.00     0.064 A 
ATOM     84  C   UNL A   1      35.898  33.847  29.414  1.00  0.00     0.173 A 
ATOM     85  C   UNL A   1      34.551  33.961  31.396  1.00  0.00     0.173 A 
ATOM     86  F   UNL A   1      36.955  33.362  28.739  1.00  0.00    -0.203 F 
ATOM     87  C   UNL A   1      35.007  34.668  28.732  1.00  0.00     0.198 A 
ATOM     88  C   UNL A   1      33.712  34.864  30.736  1.00  0.00     0.198 A 
ATOM     89  F   UNL A   1      34.270  33.616  32.658  1.00  0.00    -0.203 F 
ATOM     90  F   UNL A   1      35.181  34.907  27.424  1.00  0.00    -0.200 F 
ATOM     91  C   UNL A   1      33.884  35.140  29.383  1.00  0.00     0.200 A 
ATOM     92  F   UNL A   1      32.672  35.401  31.389  1.00  0.00    -0.200 F 
ATOM     93  F   UNL A   1      32.953  35.825  28.705  1.00  0.00    -0.200 F 
ENDBRANCH  59  83
BRANCH  71  94
ATOM     94  C   UNL A   1      39.700  27.627  28.262  1.00  0.00     0.064 A 
ATOM     95  C   UNL A   1      39.623  26.248  28.035  1.00  0.00     0.173 A 
ATOM     96  C   UNL A   1      40.420  28.334  27.245  1.00  0.00     0.173 A 
ATOM     97  F   UNL A   1      38.830  25.457  28.764  1.00  0.00    -0.203 F 
ATOM     98  C   UNL A   1      40.320  25.620  26.995  1.00  0.00     0.198 A 
ATOM     99  C   UNL A   1      41.000  27.719  26.138  1.00  0.00     0.198 A 
ATOM    100  F   UNL A   1      40.596  29.662  27.255  1.00  0.00    -0.203 F 
ATOM    101  F   UNL A   1      40.313  24.283  26.916  1.00  0.00    -0.200 F 
ATOM    102  C   UNL A   1      41.001  26.353  26.043  1.00  0.00     0.200 A 
ATOM    103  F   UNL A   1      41.561  28.469  25.177  1.00  0.00    -0.200 F 
ATOM    104  F   UNL A   1      41.644  25.748  25.038  1.00  0.00    -0.200 F 
ENDBRANCH  71  94
ENDBRANCH  45  46
ENDBRANCH  38  40
ENDBRANCH  37  38
ENDBRANCH  36  37
ENDBRANCH  35  36
ENDBRANCH  34  35
ENDBRANCH  33  34
ENDBRANCH  32  33
ENDBRANCH  31  32
ENDBRANCH   1  31
TORSDOF 23
ENDMDL
