MODEL 1
REMARK VINA RESULT:     -10.6      0.000      0.000
REMARK SMILES CCOc1ccc(NC(=O)N2CC[C@@H](C(=O)OCCOCCOCCOC(=O)c3ccc(-c4c5nc(c(-c6c(F)c(F)c(F)c(F)c6F)c6ccc([nH]6)c(-c6c(F)c(F)c(F)c(F)c6F)c6nc(c(-c7c(F)c(F)c(F)c(F)c7F)c7ccc4[nH]7)C=C6)C=C5)cc3)[C@@H]2C)cc1
REMARK SMILES IDX 21 1 20 2 19 3 18 4 17 5 15 6 16 7 14 8 11 9 12 10 92 11
REMARK SMILES IDX 13 12 93 13 9 14 8 15 10 17 7 18 4 19 5 20 95 21 6 22 94 23
REMARK SMILES IDX 3 24 2 25 1 26 22 27 23 28 24 29 25 30 26 31 27 32 28 33
REMARK SMILES IDX 29 34 30 35 91 36 31 37 90 38 32 39 33 40 34 41 84 42 35 43
REMARK SMILES IDX 89 44 83 45 85 46 36 47 88 48 82 49 81 50 37 52 69 53 49 54
REMARK SMILES IDX 68 55 50 56 53 57 67 58 86 59 51 60 52 61 66 63 87 64 54 65
REMARK SMILES IDX 38 66 39 67 47 68 40 69 41 70 45 71 48 72 42 73 43 74 46 75
REMARK SMILES IDX 44 76 70 77 71 78 79 79 72 80 73 81 77 82 80 83 74 84 75 85
REMARK SMILES IDX 78 86 76 87 55 88 56 89 64 90 57 91 58 92 62 93 65 94 59 95
REMARK SMILES IDX 60 96 63 97 61 98
REMARK H PARENT 8 16 85 51 53 62
REMARK Flexibility Score: inf
ROOT
ATOM      1  C   UNL A   1      35.992  21.564  24.510  1.00  0.00     0.188 C 
ENDROOT
BRANCH   1   2
ATOM      2  O   UNL A   1      34.989  22.556  24.388  1.00  0.00    -0.376 OA
BRANCH   2   3
ATOM      3  C   UNL A   1      34.942  23.273  23.154  1.00  0.00     0.202 C 
BRANCH   3   4
ATOM      4  C   UNL A   1      33.678  24.099  22.911  1.00  0.00     0.261 C 
BRANCH   4   5
ATOM      5  O   UNL A   1      33.950  25.269  22.107  1.00  0.00    -0.463 OA
BRANCH   5   6
ATOM      6  C   UNL A   1      32.871  25.984  21.708  1.00  0.00     0.311 C 
ATOM      7  O   UNL A   1      32.224  25.757  20.690  1.00  0.00    -0.252 OA
BRANCH   6   8
ATOM      8  C   UNL A   1      32.503  27.130  22.626  1.00  0.00     0.123 C 
ATOM      9  N   UNL A   1      32.503  27.181  25.007  1.00  0.00    -0.321 N 
ATOM     10  C   UNL A   1      33.501  28.135  24.577  1.00  0.00     0.122 C 
ATOM     11  C   UNL A   1      31.635  26.835  23.871  1.00  0.00     0.098 C 
ATOM     12  C   UNL A   1      33.813  27.718  23.161  1.00  0.00     0.039 C 
ATOM     13  C   UNL A   1      30.387  27.737  23.879  1.00  0.00     0.032 C 
BRANCH   9  14
ATOM     14  C   UNL A   1      32.270  27.053  26.343  1.00  0.00     0.322 C 
ATOM     15  N   UNL A   1      31.740  25.939  26.889  1.00  0.00    -0.308 N 
ATOM     16  H   UNL A   1      31.223  26.125  27.706  1.00  0.00     0.171 HD
ATOM     17  O   UNL A   1      32.495  27.994  27.113  1.00  0.00    -0.248 OA
BRANCH  15  18
ATOM     18  C   UNL A   1      31.760  24.577  26.559  1.00  0.00     0.043 A 
ATOM     19  C   UNL A   1      31.679  21.909  25.697  1.00  0.00     0.119 A 
ATOM     20  C   UNL A   1      32.683  22.338  26.560  1.00  0.00     0.048 A 
ATOM     21  C   UNL A   1      30.650  22.780  25.356  1.00  0.00     0.048 A 
ATOM     22  C   UNL A   1      32.709  23.663  27.010  1.00  0.00     0.030 A 
ATOM     23  C   UNL A   1      30.696  24.108  25.780  1.00  0.00     0.030 A 
BRANCH  19  24
ATOM     24  O   UNL A   1      31.723  20.607  25.283  1.00  0.00    -0.494 OA
BRANCH  24  25
ATOM     25  C   UNL A   1      32.384  20.416  24.027  1.00  0.00     0.226 C 
ATOM     26  C   UNL A   1      33.225  19.153  24.051  1.00  0.00     0.049 C 
ENDBRANCH  24  25
ENDBRANCH  19  24
ENDBRANCH  15  18
ENDBRANCH   9  14
ENDBRANCH   6   8
ENDBRANCH   5   6
ENDBRANCH   4   5
ENDBRANCH   3   4
ENDBRANCH   2   3
ENDBRANCH   1   2
BRANCH   1  27
ATOM     27  C   UNL A   1      37.433  22.024  24.735  1.00  0.00     0.188 C 
BRANCH  27  28
ATOM     28  O   UNL A   1      38.264  21.256  25.591  1.00  0.00    -0.376 OA
BRANCH  28  29
ATOM     29  C   UNL A   1      38.499  19.921  25.135  1.00  0.00     0.202 C 
BRANCH  29  30
ATOM     30  C   UNL A   1      39.742  19.293  25.780  1.00  0.00     0.261 C 
BRANCH  30  31
ATOM     31  O   UNL A   1      40.881  20.153  25.598  1.00  0.00    -0.460 OA
BRANCH  31  32
ATOM     32  C   UNL A   1      41.719  20.248  26.664  1.00  0.00     0.338 C 
ATOM     33  O   UNL A   1      42.482  19.406  27.082  1.00  0.00    -0.246 OA
BRANCH  32  34
ATOM     34  C   UNL A   1      41.742  21.667  27.102  1.00  0.00     0.060 A 
ATOM     35  C   UNL A   1      41.238  22.627  26.211  1.00  0.00     0.016 A 
ATOM     36  C   UNL A   1      42.168  22.044  28.379  1.00  0.00     0.016 A 
ATOM     37  C   UNL A   1      41.231  23.973  26.564  1.00  0.00     0.010 A 
ATOM     38  C   UNL A   1      42.166  23.395  28.733  1.00  0.00     0.010 A 
ATOM     39  C   UNL A   1      41.753  24.365  27.803  1.00  0.00    -0.014 A 
BRANCH  39  40
ATOM     40  C   UNL A   1      42.148  25.779  27.995  1.00  0.00     0.031 A 
ATOM     41  C   UNL A   1      43.460  26.214  27.399  1.00  0.00     0.074 A 
ATOM     42  C   UNL A   1      41.357  26.658  28.630  1.00  0.00     0.049 A 
ATOM     43  N   UNL A   1      44.049  27.381  27.426  1.00  0.00    -0.248 NA
ATOM     44  C   UNL A   1      44.216  25.179  26.673  1.00  0.00     0.031 C 
ATOM     45  C   UNL A   1      40.047  26.361  29.203  1.00  0.00     0.029 A 
ATOM     46  N   UNL A   1      41.546  27.992  28.890  1.00  0.00    -0.354 N 
ATOM     47  C   UNL A   1      45.247  27.211  26.743  1.00  0.00     0.074 A 
ATOM     48  C   UNL A   1      45.321  25.825  26.344  1.00  0.00     0.031 C 
ATOM     49  C   UNL A   1      39.543  27.485  29.743  1.00  0.00     0.029 A 
ATOM     50  C   UNL A   1      40.509  28.570  29.580  1.00  0.00     0.049 A 
ATOM     51  H   UNL A   1      42.348  28.487  28.610  1.00  0.00     0.167 HD
ATOM     52  C   UNL A   1      46.198  28.133  26.463  1.00  0.00     0.037 A 
ATOM     53  C   UNL A   1      40.372  29.832  30.029  1.00  0.00     0.037 A 
ATOM     54  C   UNL A   1      46.109  29.512  26.857  1.00  0.00     0.049 A 
ATOM     55  C   UNL A   1      41.471  30.830  29.754  1.00  0.00     0.074 A 
ATOM     56  C   UNL A   1      47.003  30.539  26.617  1.00  0.00     0.029 A 
ATOM     57  N   UNL A   1      45.060  30.054  27.587  1.00  0.00    -0.354 N 
ATOM     58  N   UNL A   1      42.593  30.671  29.092  1.00  0.00    -0.248 NA
ATOM     59  C   UNL A   1      41.275  32.186  30.281  1.00  0.00     0.031 C 
ATOM     60  C   UNL A   1      46.523  31.690  27.254  1.00  0.00     0.029 A 
ATOM     61  C   UNL A   1      45.295  31.398  27.826  1.00  0.00     0.049 A 
ATOM     62  H   UNL A   1      44.265  29.557  27.888  1.00  0.00     0.167 HD
ATOM     63  C   UNL A   1      43.214  31.914  29.086  1.00  0.00     0.074 A 
ATOM     64  C   UNL A   1      42.337  32.817  29.802  1.00  0.00     0.031 C 
ATOM     65  C   UNL A   1      44.400  32.279  28.533  1.00  0.00     0.037 A 
BRANCH  52  66
ATOM     66  C   UNL A   1      47.428  27.656  25.743  1.00  0.00     0.064 A 
ATOM     67  C   UNL A   1      48.582  27.242  26.428  1.00  0.00     0.173 A 
ATOM     68  C   UNL A   1      47.458  27.632  24.341  1.00  0.00     0.173 A 
ATOM     69  F   UNL A   1      48.617  27.267  27.769  1.00  0.00    -0.203 F 
ATOM     70  C   UNL A   1      49.730  26.863  25.736  1.00  0.00     0.198 A 
ATOM     71  C   UNL A   1      48.595  27.217  23.653  1.00  0.00     0.198 A 
ATOM     72  F   UNL A   1      46.385  28.020  23.635  1.00  0.00    -0.203 F 
ATOM     73  F   UNL A   1      50.842  26.542  26.412  1.00  0.00    -0.200 F 
ATOM     74  C   UNL A   1      49.733  26.845  24.350  1.00  0.00     0.200 A 
ATOM     75  F   UNL A   1      48.591  27.191  22.313  1.00  0.00    -0.200 F 
ATOM     76  F   UNL A   1      50.839  26.483  23.684  1.00  0.00    -0.200 F 
ENDBRANCH  52  66
BRANCH  53  77
ATOM     77  C   UNL A   1      39.144  30.236  30.765  1.00  0.00     0.064 A 
ATOM     78  C   UNL A   1      39.074  30.138  32.162  1.00  0.00     0.173 A 
ATOM     79  C   UNL A   1      38.008  30.709  30.090  1.00  0.00     0.173 A 
ATOM     80  F   UNL A   1      40.123  29.667  32.853  1.00  0.00    -0.203 F 
ATOM     81  C   UNL A   1      37.913  30.478  32.853  1.00  0.00     0.198 A 
ATOM     82  C   UNL A   1      36.857  31.077  30.785  1.00  0.00     0.198 A 
ATOM     83  F   UNL A   1      38.019  30.818  28.754  1.00  0.00    -0.203 F 
ATOM     84  F   UNL A   1      37.858  30.326  34.184  1.00  0.00    -0.200 F 
ATOM     85  C   UNL A   1      36.807  30.954  32.165  1.00  0.00     0.200 A 
ATOM     86  F   UNL A   1      35.795  31.546  30.116  1.00  0.00    -0.200 F 
ATOM     87  F   UNL A   1      35.692  31.284  32.830  1.00  0.00    -0.200 F 
ENDBRANCH  53  77
BRANCH  65  88
ATOM     88  C   UNL A   1      44.780  33.731  28.623  1.00  0.00     0.064 A 
ATOM     89  C   UNL A   1      45.567  34.233  29.670  1.00  0.00     0.173 A 
ATOM     90  C   UNL A   1      44.358  34.632  27.632  1.00  0.00     0.173 A 
ATOM     91  F   UNL A   1      45.990  33.417  30.648  1.00  0.00    -0.203 F 
ATOM     92  C   UNL A   1      45.877  35.588  29.747  1.00  0.00     0.198 A 
ATOM     93  C   UNL A   1      44.703  35.978  27.691  1.00  0.00     0.198 A 
ATOM     94  F   UNL A   1      43.614  34.204  26.601  1.00  0.00    -0.203 F 
ATOM     95  F   UNL A   1      46.570  36.057  30.794  1.00  0.00    -0.200 F 
ATOM     96  C   UNL A   1      45.450  36.459  28.755  1.00  0.00     0.200 A 
ATOM     97  F   UNL A   1      44.307  36.813  26.720  1.00  0.00    -0.200 F 
ATOM     98  F   UNL A   1      45.748  37.763  28.832  1.00  0.00    -0.200 F 
ENDBRANCH  65  88
ENDBRANCH  39  40
ENDBRANCH  32  34
ENDBRANCH  31  32
ENDBRANCH  30  31
ENDBRANCH  29  30
ENDBRANCH  28  29
ENDBRANCH  27  28
ENDBRANCH   1  27
TORSDOF 21
ENDMDL
MODEL 2
REMARK VINA RESULT:     -10.5      2.060      7.413
REMARK SMILES CCOc1ccc(NC(=O)N2CC[C@@H](C(=O)OCCOCCOCCOC(=O)c3ccc(-c4c5nc(c(-c6c(F)c(F)c(F)c(F)c6F)c6ccc([nH]6)c(-c6c(F)c(F)c(F)c(F)c6F)c6nc(c(-c7c(F)c(F)c(F)c(F)c7F)c7ccc4[nH]7)C=C6)C=C5)cc3)[C@@H]2C)cc1
REMARK SMILES IDX 21 1 20 2 19 3 18 4 17 5 15 6 16 7 14 8 11 9 12 10 92 11
REMARK SMILES IDX 13 12 93 13 9 14 8 15 10 17 7 18 4 19 5 20 95 21 6 22 94 23
REMARK SMILES IDX 3 24 2 25 1 26 22 27 23 28 24 29 25 30 26 31 27 32 28 33
REMARK SMILES IDX 29 34 30 35 91 36 31 37 90 38 32 39 33 40 34 41 84 42 35 43
REMARK SMILES IDX 89 44 83 45 85 46 36 47 88 48 82 49 81 50 37 52 69 53 49 54
REMARK SMILES IDX 68 55 50 56 53 57 67 58 86 59 51 60 52 61 66 63 87 64 54 65
REMARK SMILES IDX 38 66 39 67 47 68 40 69 41 70 45 71 48 72 42 73 43 74 46 75
REMARK SMILES IDX 44 76 70 77 71 78 79 79 72 80 73 81 77 82 80 83 74 84 75 85
REMARK SMILES IDX 78 86 76 87 55 88 56 89 64 90 57 91 58 92 62 93 65 94 59 95
REMARK SMILES IDX 60 96 63 97 61 98
REMARK H PARENT 8 16 85 51 53 62
REMARK Flexibility Score: inf
ROOT
ATOM      1  C   UNL A   1      35.924  23.785  25.368  1.00  0.00     0.188 C 
ENDROOT
BRANCH   1   2
ATOM      2  O   UNL A   1      34.622  24.135  25.802  1.00  0.00    -0.376 OA
BRANCH   2   3
ATOM      3  C   UNL A   1      34.267  25.516  25.721  1.00  0.00     0.202 C 
BRANCH   3   4
ATOM      4  C   UNL A   1      32.796  25.843  25.983  1.00  0.00     0.261 C 
BRANCH   4   5
ATOM      5  O   UNL A   1      32.646  27.075  26.722  1.00  0.00    -0.463 OA
BRANCH   5   6
ATOM      6  C   UNL A   1      33.490  28.081  26.384  1.00  0.00     0.311 C 
ATOM      7  O   UNL A   1      34.547  28.325  26.958  1.00  0.00    -0.252 OA
BRANCH   6   8
ATOM      8  C   UNL A   1      33.026  28.922  25.215  1.00  0.00     0.123 C 
ATOM      9  N   UNL A   1      31.505  28.338  23.479  1.00  0.00    -0.321 N 
ATOM     10  C   UNL A   1      30.888  29.417  24.217  1.00  0.00     0.122 C 
ATOM     11  C   UNL A   1      32.934  28.267  23.817  1.00  0.00     0.098 C 
ATOM     12  C   UNL A   1      31.609  29.407  25.542  1.00  0.00     0.039 C 
ATOM     13  C   UNL A   1      33.751  29.075  22.792  1.00  0.00     0.032 C 
BRANCH   9  14
ATOM     14  C   UNL A   1      30.850  27.849  22.389  1.00  0.00     0.322 C 
ATOM     15  N   UNL A   1      31.180  26.679  21.802  1.00  0.00    -0.308 N 
ATOM     16  H   UNL A   1      30.977  26.667  20.838  1.00  0.00     0.171 HD
ATOM     17  O   UNL A   1      29.941  28.497  21.857  1.00  0.00    -0.248 OA
BRANCH  15  18
ATOM     18  C   UNL A   1      31.743  25.477  22.252  1.00  0.00     0.043 A 
ATOM     19  C   UNL A   1      32.647  22.981  23.157  1.00  0.00     0.119 A 
ATOM     20  C   UNL A   1      33.495  23.815  22.436  1.00  0.00     0.048 A 
ATOM     21  C   UNL A   1      31.387  23.438  23.527  1.00  0.00     0.048 A 
ATOM     22  C   UNL A   1      33.052  25.072  22.006  1.00  0.00     0.030 A 
ATOM     23  C   UNL A   1      30.937  24.677  23.070  1.00  0.00     0.030 A 
BRANCH  19  24
ATOM     24  O   UNL A   1      33.138  21.762  23.533  1.00  0.00    -0.494 OA
BRANCH  24  25
ATOM     25  C   UNL A   1      32.219  20.975  24.301  1.00  0.00     0.226 C 
ATOM     26  C   UNL A   1      32.709  19.544  24.420  1.00  0.00     0.049 C 
ENDBRANCH  24  25
ENDBRANCH  19  24
ENDBRANCH  15  18
ENDBRANCH   9  14
ENDBRANCH   6   8
ENDBRANCH   5   6
ENDBRANCH   4   5
ENDBRANCH   3   4
ENDBRANCH   2   3
ENDBRANCH   1   2
BRANCH   1  27
ATOM     27  C   UNL A   1      36.433  22.379  25.688  1.00  0.00     0.188 C 
BRANCH  27  28
ATOM     28  O   UNL A   1      36.903  21.570  24.622  1.00  0.00    -0.376 OA
BRANCH  28  29
ATOM     29  C   UNL A   1      37.925  20.642  24.997  1.00  0.00     0.202 C 
BRANCH  29  30
ATOM     30  C   UNL A   1      39.068  21.311  25.772  1.00  0.00     0.261 C 
BRANCH  30  31
ATOM     31  O   UNL A   1      39.710  20.352  26.632  1.00  0.00    -0.460 OA
BRANCH  31  32
ATOM     32  C   UNL A   1      40.987  20.030  26.295  1.00  0.00     0.338 C 
ATOM     33  O   UNL A   1      41.364  19.069  25.662  1.00  0.00    -0.246 OA
BRANCH  32  34
ATOM     34  C   UNL A   1      41.852  21.194  26.614  1.00  0.00     0.060 A 
ATOM     35  C   UNL A   1      42.069  21.486  27.970  1.00  0.00     0.016 A 
ATOM     36  C   UNL A   1      42.501  21.933  25.621  1.00  0.00     0.016 A 
ATOM     37  C   UNL A   1      42.872  22.564  28.333  1.00  0.00     0.010 A 
ATOM     38  C   UNL A   1      43.302  23.017  25.983  1.00  0.00     0.010 A 
ATOM     39  C   UNL A   1      43.439  23.369  27.338  1.00  0.00    -0.014 A 
BRANCH  39  40
ATOM     40  C   UNL A   1      43.905  24.727  27.698  1.00  0.00     0.031 A 
ATOM     41  C   UNL A   1      42.853  25.741  28.063  1.00  0.00     0.074 A 
ATOM     42  C   UNL A   1      45.209  25.041  27.751  1.00  0.00     0.049 A 
ATOM     43  N   UNL A   1      42.980  26.996  28.404  1.00  0.00    -0.248 NA
ATOM     44  C   UNL A   1      41.459  25.268  28.028  1.00  0.00     0.031 C 
ATOM     45  C   UNL A   1      46.314  24.128  27.467  1.00  0.00     0.029 A 
ATOM     46  N   UNL A   1      45.823  26.226  28.071  1.00  0.00    -0.354 N 
ATOM     47  C   UNL A   1      41.686  27.462  28.603  1.00  0.00     0.074 A 
ATOM     48  C   UNL A   1      40.787  26.371  28.310  1.00  0.00     0.031 C 
ATOM     49  C   UNL A   1      47.475  24.785  27.635  1.00  0.00     0.029 A 
ATOM     50  C   UNL A   1      47.193  26.171  28.005  1.00  0.00     0.049 A 
ATOM     51  H   UNL A   1      45.327  27.038  28.323  1.00  0.00     0.167 HD
ATOM     52  C   UNL A   1      41.283  28.690  29.006  1.00  0.00     0.037 A 
ATOM     53  C   UNL A   1      48.104  27.140  28.217  1.00  0.00     0.037 A 
ATOM     54  C   UNL A   1      42.188  29.767  29.304  1.00  0.00     0.049 A 
ATOM     55  C   UNL A   1      47.629  28.517  28.611  1.00  0.00     0.074 A 
ATOM     56  C   UNL A   1      41.896  31.047  29.734  1.00  0.00     0.029 A 
ATOM     57  N   UNL A   1      43.569  29.685  29.192  1.00  0.00    -0.354 N 
ATOM     58  N   UNL A   1      46.406  28.949  28.817  1.00  0.00    -0.248 NA
ATOM     59  C   UNL A   1      48.664  29.538  28.813  1.00  0.00     0.031 C 
ATOM     60  C   UNL A   1      43.098  31.759  29.825  1.00  0.00     0.029 A 
ATOM     61  C   UNL A   1      44.143  30.901  29.523  1.00  0.00     0.049 A 
ATOM     62  H   UNL A   1      44.067  28.880  28.919  1.00  0.00     0.167 HD
ATOM     63  C   UNL A   1      46.529  30.275  29.212  1.00  0.00     0.074 A 
ATOM     64  C   UNL A   1      47.947  30.572  29.227  1.00  0.00     0.031 C 
ATOM     65  C   UNL A   1      45.560  31.168  29.541  1.00  0.00     0.037 A 
BRANCH  52  66
ATOM     66  C   UNL A   1      39.803  28.935  29.092  1.00  0.00     0.064 A 
ATOM     67  C   UNL A   1      39.044  29.330  27.978  1.00  0.00     0.173 A 
ATOM     68  C   UNL A   1      39.136  28.789  30.317  1.00  0.00     0.173 A 
ATOM     69  F   UNL A   1      39.635  29.507  26.787  1.00  0.00    -0.203 F 
ATOM     70  C   UNL A   1      37.685  29.609  28.098  1.00  0.00     0.198 A 
ATOM     71  C   UNL A   1      37.769  29.033  30.426  1.00  0.00     0.198 A 
ATOM     72  F   UNL A   1      39.811  28.417  31.416  1.00  0.00    -0.203 F 
ATOM     73  F   UNL A   1      36.998  30.055  27.037  1.00  0.00    -0.200 F 
ATOM     74  C   UNL A   1      37.048  29.455  29.320  1.00  0.00     0.200 A 
ATOM     75  F   UNL A   1      37.154  28.873  31.606  1.00  0.00    -0.200 F 
ATOM     76  F   UNL A   1      35.740  29.727  29.436  1.00  0.00    -0.200 F 
ENDBRANCH  52  66
BRANCH  53  77
ATOM     77  C   UNL A   1      49.556  26.845  28.085  1.00  0.00     0.064 A 
ATOM     78  C   UNL A   1      50.326  26.492  29.202  1.00  0.00     0.173 A 
ATOM     79  C   UNL A   1      50.210  26.928  26.846  1.00  0.00     0.173 A 
ATOM     80  F   UNL A   1      49.754  26.425  30.414  1.00  0.00    -0.203 F 
ATOM     81  C   UNL A   1      51.694  26.253  29.092  1.00  0.00     0.198 A 
ATOM     82  C   UNL A   1      51.573  26.659  26.731  1.00  0.00     0.198 A 
ATOM     83  F   UNL A   1      49.523  27.265  25.746  1.00  0.00    -0.203 F 
ATOM     84  F   UNL A   1      52.414  25.967  30.186  1.00  0.00    -0.200 F 
ATOM     85  C   UNL A   1      52.316  26.329  27.855  1.00  0.00     0.200 A 
ATOM     86  F   UNL A   1      52.167  26.725  25.531  1.00  0.00    -0.200 F 
ATOM     87  F   UNL A   1      53.631  26.096  27.747  1.00  0.00    -0.200 F 
ENDBRANCH  53  77
BRANCH  65  88
ATOM     88  C   UNL A   1      46.006  32.525  30.010  1.00  0.00     0.064 A 
ATOM     89  C   UNL A   1      46.277  32.796  31.360  1.00  0.00     0.173 A 
ATOM     90  C   UNL A   1      46.179  33.567  29.086  1.00  0.00     0.173 A 
ATOM     91  F   UNL A   1      46.119  31.837  32.286  1.00  0.00    -0.203 F 
ATOM     92  C   UNL A   1      46.657  34.070  31.771  1.00  0.00     0.198 A 
ATOM     93  C   UNL A   1      46.598  34.828  29.496  1.00  0.00     0.198 A 
ATOM     94  F   UNL A   1      45.947  33.359  27.781  1.00  0.00    -0.203 F 
ATOM     95  F   UNL A   1      46.841  34.324  33.075  1.00  0.00    -0.200 F 
ATOM     96  C   UNL A   1      46.823  35.084  30.839  1.00  0.00     0.200 A 
ATOM     97  F   UNL A   1      46.778  35.800  28.590  1.00  0.00    -0.200 F 
ATOM     98  F   UNL A   1      47.188  36.310  31.238  1.00  0.00    -0.200 F 
ENDBRANCH  65  88
ENDBRANCH  39  40
ENDBRANCH  32  34
ENDBRANCH  31  32
ENDBRANCH  30  31
ENDBRANCH  29  30
ENDBRANCH  28  29
ENDBRANCH  27  28
ENDBRANCH   1  27
TORSDOF 21
ENDMDL
MODEL 3
REMARK VINA RESULT:     -10.5      1.167      3.371
REMARK SMILES CCOc1ccc(NC(=O)N2CC[C@@H](C(=O)OCCOCCOCCOC(=O)c3ccc(-c4c5nc(c(-c6c(F)c(F)c(F)c(F)c6F)c6ccc([nH]6)c(-c6c(F)c(F)c(F)c(F)c6F)c6nc(c(-c7c(F)c(F)c(F)c(F)c7F)c7ccc4[nH]7)C=C6)C=C5)cc3)[C@@H]2C)cc1
REMARK SMILES IDX 21 1 20 2 19 3 18 4 17 5 15 6 16 7 14 8 11 9 12 10 92 11
REMARK SMILES IDX 13 12 93 13 9 14 8 15 10 17 7 18 4 19 5 20 95 21 6 22 94 23
REMARK SMILES IDX 3 24 2 25 1 26 22 27 23 28 24 29 25 30 26 31 27 32 28 33
REMARK SMILES IDX 29 34 30 35 91 36 31 37 90 38 32 39 33 40 34 41 84 42 35 43
REMARK SMILES IDX 89 44 83 45 85 46 36 47 88 48 82 49 81 50 37 52 69 53 49 54
REMARK SMILES IDX 68 55 50 56 53 57 67 58 86 59 51 60 52 61 66 63 87 64 54 65
REMARK SMILES IDX 38 66 39 67 47 68 40 69 41 70 45 71 48 72 42 73 43 74 46 75
REMARK SMILES IDX 44 76 70 77 71 78 79 79 72 80 73 81 77 82 80 83 74 84 75 85
REMARK SMILES IDX 78 86 76 87 55 88 56 89 64 90 57 91 58 92 62 93 65 94 59 95
REMARK SMILES IDX 60 96 63 97 61 98
REMARK H PARENT 8 16 85 51 53 62
REMARK Flexibility Score: inf
ROOT
ATOM      1  C   UNL A   1      36.092  20.815  25.130  1.00  0.00     0.188 C 
ENDROOT
BRANCH   1   2
ATOM      2  O   UNL A   1      34.997  21.207  25.937  1.00  0.00    -0.376 OA
BRANCH   2   3
ATOM      3  C   UNL A   1      35.028  22.534  26.465  1.00  0.00     0.202 C 
BRANCH   3   4
ATOM      4  C   UNL A   1      33.775  22.981  27.220  1.00  0.00     0.261 C 
BRANCH   4   5
ATOM      5  O   UNL A   1      33.065  24.019  26.508  1.00  0.00    -0.463 OA
BRANCH   5   6
ATOM      6  C   UNL A   1      31.740  23.813  26.316  1.00  0.00     0.311 C 
ATOM      7  O   UNL A   1      30.932  23.599  27.215  1.00  0.00    -0.252 OA
BRANCH   6   8
ATOM      8  C   UNL A   1      31.300  23.857  24.868  1.00  0.00     0.123 C 
ATOM      9  N   UNL A   1      32.258  25.083  23.065  1.00  0.00    -0.321 N 
ATOM     10  C   UNL A   1      32.425  23.683  22.743  1.00  0.00     0.122 C 
ATOM     11  C   UNL A   1      31.267  25.222  24.143  1.00  0.00     0.098 C 
ATOM     12  C   UNL A   1      32.280  22.986  24.073  1.00  0.00     0.039 C 
ATOM     13  C   UNL A   1      29.874  25.473  23.537  1.00  0.00     0.032 C 
BRANCH   9  14
ATOM     14  C   UNL A   1      32.684  26.006  22.158  1.00  0.00     0.322 C 
ATOM     15  N   UNL A   1      32.516  27.333  22.333  1.00  0.00    -0.308 N 
ATOM     16  H   UNL A   1      32.436  27.821  21.481  1.00  0.00     0.171 HD
ATOM     17  O   UNL A   1      33.208  25.649  21.097  1.00  0.00    -0.248 OA
BRANCH  15  18
ATOM     18  C   UNL A   1      32.431  28.176  23.450  1.00  0.00     0.043 A 
ATOM     19  C   UNL A   1      32.500  29.891  25.668  1.00  0.00     0.119 A 
ATOM     20  C   UNL A   1      31.337  29.763  24.915  1.00  0.00     0.048 A 
ATOM     21  C   UNL A   1      33.592  29.077  25.386  1.00  0.00     0.048 A 
ATOM     22  C   UNL A   1      31.295  28.889  23.823  1.00  0.00     0.030 A 
ATOM     23  C   UNL A   1      33.558  28.230  24.278  1.00  0.00     0.030 A 
BRANCH  19  24
ATOM     24  O   UNL A   1      32.478  30.774  26.711  1.00  0.00    -0.494 OA
BRANCH  24  25
ATOM     25  C   UNL A   1      33.562  30.613  27.635  1.00  0.00     0.226 C 
ATOM     26  C   UNL A   1      34.491  31.812  27.583  1.00  0.00     0.049 C 
ENDBRANCH  24  25
ENDBRANCH  19  24
ENDBRANCH  15  18
ENDBRANCH   9  14
ENDBRANCH   6   8
ENDBRANCH   5   6
ENDBRANCH   4   5
ENDBRANCH   3   4
ENDBRANCH   2   3
ENDBRANCH   1   2
BRANCH   1  27
ATOM     27  C   UNL A   1      37.309  21.740  25.075  1.00  0.00     0.188 C 
BRANCH  27  28
ATOM     28  O   UNL A   1      38.593  21.185  25.309  1.00  0.00    -0.376 OA
BRANCH  28  29
ATOM     29  C   UNL A   1      38.635  19.757  25.237  1.00  0.00     0.202 C 
BRANCH  29  30
ATOM     30  C   UNL A   1      39.902  19.176  25.880  1.00  0.00     0.261 C 
BRANCH  30  31
ATOM     31  O   UNL A   1      41.045  19.977  25.531  1.00  0.00    -0.460 OA
BRANCH  31  32
ATOM     32  C   UNL A   1      41.972  20.131  26.514  1.00  0.00     0.338 C 
ATOM     33  O   UNL A   1      42.817  19.338  26.864  1.00  0.00    -0.246 OA
BRANCH  32  34
ATOM     34  C   UNL A   1      41.955  21.554  26.938  1.00  0.00     0.060 A 
ATOM     35  C   UNL A   1      41.577  22.510  25.982  1.00  0.00     0.016 A 
ATOM     36  C   UNL A   1      42.222  21.941  28.255  1.00  0.00     0.016 A 
ATOM     37  C   UNL A   1      41.539  23.860  26.319  1.00  0.00     0.010 A 
ATOM     38  C   UNL A   1      42.190  23.295  28.594  1.00  0.00     0.010 A 
ATOM     39  C   UNL A   1      41.907  24.260  27.610  1.00  0.00    -0.014 A 
BRANCH  39  40
ATOM     40  C   UNL A   1      42.290  25.672  27.838  1.00  0.00     0.031 A 
ATOM     41  C   UNL A   1      43.592  26.136  27.242  1.00  0.00     0.074 A 
ATOM     42  C   UNL A   1      41.495  26.526  28.502  1.00  0.00     0.049 A 
ATOM     43  N   UNL A   1      44.170  27.307  27.297  1.00  0.00    -0.248 NA
ATOM     44  C   UNL A   1      44.352  25.128  26.483  1.00  0.00     0.031 C 
ATOM     45  C   UNL A   1      40.193  26.200  29.078  1.00  0.00     0.029 A 
ATOM     46  N   UNL A   1      41.673  27.854  28.797  1.00  0.00    -0.354 N 
ATOM     47  C   UNL A   1      45.364  27.168  26.599  1.00  0.00     0.074 A 
ATOM     48  C   UNL A   1      45.448  25.794  26.162  1.00  0.00     0.031 C 
ATOM     49  C   UNL A   1      39.683  27.304  29.652  1.00  0.00     0.029 A 
ATOM     50  C   UNL A   1      40.637  28.402  29.511  1.00  0.00     0.049 A 
ATOM     51  H   UNL A   1      42.468  28.364  28.523  1.00  0.00     0.167 HD
ATOM     52  C   UNL A   1      46.303  28.106  26.337  1.00  0.00     0.037 A 
ATOM     53  C   UNL A   1      40.490  29.651  29.995  1.00  0.00     0.037 A 
ATOM     54  C   UNL A   1      46.204  29.474  26.769  1.00  0.00     0.049 A 
ATOM     55  C   UNL A   1      41.577  30.666  29.738  1.00  0.00     0.074 A 
ATOM     56  C   UNL A   1      47.086  30.516  26.549  1.00  0.00     0.029 A 
ATOM     57  N   UNL A   1      45.156  29.985  27.521  1.00  0.00    -0.354 N 
ATOM     58  N   UNL A   1      42.695  30.536  29.062  1.00  0.00    -0.248 NA
ATOM     59  C   UNL A   1      41.373  32.006  30.303  1.00  0.00     0.031 C 
ATOM     60  C   UNL A   1      46.599  31.644  27.221  1.00  0.00     0.029 A 
ATOM     61  C   UNL A   1      45.379  31.325  27.795  1.00  0.00     0.049 A 
ATOM     62  H   UNL A   1      44.368  29.472  27.815  1.00  0.00     0.167 HD
ATOM     63  C   UNL A   1      43.305  31.785  29.085  1.00  0.00     0.074 A 
ATOM     64  C   UNL A   1      42.425  32.660  29.833  1.00  0.00     0.031 C 
ATOM     65  C   UNL A   1      44.481  32.178  28.532  1.00  0.00     0.037 A 
BRANCH  52  66
ATOM     66  C   UNL A   1      47.532  27.662  25.594  1.00  0.00     0.064 A 
ATOM     67  C   UNL A   1      48.715  27.297  26.257  1.00  0.00     0.173 A 
ATOM     68  C   UNL A   1      47.529  27.619  24.193  1.00  0.00     0.173 A 
ATOM     69  F   UNL A   1      48.781  27.343  27.596  1.00  0.00    -0.203 F 
ATOM     70  C   UNL A   1      49.858  26.948  25.543  1.00  0.00     0.198 A 
ATOM     71  C   UNL A   1      48.663  27.233  23.482  1.00  0.00     0.198 A 
ATOM     72  F   UNL A   1      46.427  27.959  23.506  1.00  0.00    -0.203 F 
ATOM     73  F   UNL A   1      50.997  26.675  26.196  1.00  0.00    -0.200 F 
ATOM     74  C   UNL A   1      49.830  26.910  24.157  1.00  0.00     0.200 A 
ATOM     75  F   UNL A   1      48.629  27.187  22.144  1.00  0.00    -0.200 F 
ATOM     76  F   UNL A   1      50.932  26.576  23.470  1.00  0.00    -0.200 F 
ENDBRANCH  52  66
BRANCH  53  77
ATOM     77  C   UNL A   1      39.265  30.022  30.751  1.00  0.00     0.064 A 
ATOM     78  C   UNL A   1      38.180  30.637  30.110  1.00  0.00     0.173 A 
ATOM     79  C   UNL A   1      39.158  29.792  32.131  1.00  0.00     0.173 A 
ATOM     80  F   UNL A   1      38.242  30.904  28.797  1.00  0.00    -0.203 F 
ATOM     81  C   UNL A   1      37.045  31.023  30.821  1.00  0.00     0.198 A 
ATOM     82  C   UNL A   1      38.010  30.151  32.836  1.00  0.00     0.198 A 
ATOM     83  F   UNL A   1      40.168  29.211  32.795  1.00  0.00    -0.203 F 
ATOM     84  F   UNL A   1      36.044  31.654  30.191  1.00  0.00    -0.200 F 
ATOM     85  C   UNL A   1      36.957  30.774  32.182  1.00  0.00     0.200 A 
ATOM     86  F   UNL A   1      37.927  29.899  34.149  1.00  0.00    -0.200 F 
ATOM     87  F   UNL A   1      35.866  31.142  32.865  1.00  0.00    -0.200 F 
ENDBRANCH  53  77
BRANCH  65  88
ATOM     88  C   UNL A   1      44.848  33.631  28.659  1.00  0.00     0.064 A 
ATOM     89  C   UNL A   1      45.615  34.116  29.729  1.00  0.00     0.173 A 
ATOM     90  C   UNL A   1      44.435  34.548  27.680  1.00  0.00     0.173 A 
ATOM     91  F   UNL A   1      46.029  33.283  30.696  1.00  0.00    -0.203 F 
ATOM     92  C   UNL A   1      45.912  35.472  29.838  1.00  0.00     0.198 A 
ATOM     93  C   UNL A   1      44.768  35.895  27.772  1.00  0.00     0.198 A 
ATOM     94  F   UNL A   1      43.711  34.136  26.628  1.00  0.00    -0.203 F 
ATOM     95  F   UNL A   1      46.584  35.924  30.906  1.00  0.00    -0.200 F 
ATOM     96  C   UNL A   1      45.493  36.360  28.858  1.00  0.00     0.200 A 
ATOM     97  F   UNL A   1      44.380  36.747  26.812  1.00  0.00    -0.200 F 
ATOM     98  F   UNL A   1      45.780  37.664  28.966  1.00  0.00    -0.200 F 
ENDBRANCH  65  88
ENDBRANCH  39  40
ENDBRANCH  32  34
ENDBRANCH  31  32
ENDBRANCH  30  31
ENDBRANCH  29  30
ENDBRANCH  28  29
ENDBRANCH  27  28
ENDBRANCH   1  27
TORSDOF 21
ENDMDL
