MODEL 1
REMARK VINA RESULT:     -10.4      0.000      0.000
REMARK SMILES Cc1cc2nc(NC(=O)[C@H]3[C@@H](C(=O)OCCOCCOCCOC(=O)c4ccc(-c5c6nc(c(-c7c(F)c(F)c(F)c(F)c7F)c7ccc([nH]7)c(-c7c(F)c(F)c(F)c(F)c7F)c7nc(c(-c8c(F)c(F)c(F)c(F)c8F)c8ccc5[nH]8)C=C7)C=C6)cc4)[C@@H]4C=C[C@H]3C4)sc2cc1C
REMARK SMILES IDX 18 1 17 2 16 3 15 4 14 5 12 6 13 7 11 8 10 9 92 10 89 11
REMARK SMILES IDX 91 12 93 13 90 14 8 15 7 16 9 18 6 19 1 20 2 21 3 22 97 23
REMARK SMILES IDX 4 24 96 25 98 26 5 27 95 28 94 29 19 30 20 31 21 32 22 33
REMARK SMILES IDX 23 34 24 35 25 36 26 37 27 38 88 39 28 40 87 41 29 42 30 43
REMARK SMILES IDX 31 44 81 45 32 46 86 47 80 48 82 49 33 50 85 51 79 52 78 53
REMARK SMILES IDX 34 55 66 56 46 57 65 58 47 59 50 60 64 61 83 62 48 63 49 64
REMARK SMILES IDX 63 66 84 67 51 68 35 69 36 70 44 71 37 72 38 73 42 74 45 75
REMARK SMILES IDX 39 76 40 77 43 78 41 79 67 80 68 81 76 82 69 83 70 84 74 85
REMARK SMILES IDX 77 86 71 87 72 88 75 89 73 90 52 91 53 92 61 93 54 94 55 95
REMARK SMILES IDX 59 96 62 97 56 98 57 99 60 100 58 101
REMARK H PARENT 7 17 82 54 50 65
REMARK Flexibility Score: inf
ROOT
ATOM      1  C   UNL A   1      33.571  35.081  30.701  1.00  0.00     0.188 C 
ENDROOT
BRANCH   1   2
ATOM      2  O   UNL A   1      33.849  34.109  31.699  1.00  0.00    -0.376 OA
BRANCH   2   3
ATOM      3  C   UNL A   1      35.094  34.335  32.371  1.00  0.00     0.202 C 
BRANCH   3   4
ATOM      4  C   UNL A   1      34.960  34.338  33.904  1.00  0.00     0.261 C 
BRANCH   4   5
ATOM      5  O   UNL A   1      35.584  33.159  34.471  1.00  0.00    -0.463 OA
BRANCH   5   6
ATOM      6  C   UNL A   1      36.633  33.445  35.302  1.00  0.00     0.310 C 
ATOM      7  O   UNL A   1      36.491  33.775  36.474  1.00  0.00    -0.252 OA
BRANCH   6   8
ATOM      8  C   UNL A   1      37.990  33.362  34.579  1.00  0.00     0.119 C 
ATOM      9  C   UNL A   1      38.986  32.313  35.158  1.00  0.00     0.100 C 
ATOM     10  C   UNL A   1      40.008  33.190  35.934  1.00  0.00     0.025 C 
ATOM     11  C   UNL A   1      38.797  34.675  34.773  1.00  0.00     0.027 C 
ATOM     12  C   UNL A   1      40.911  33.748  34.836  1.00  0.00    -0.027 C 
ATOM     13  C   UNL A   1      39.284  34.505  36.215  1.00  0.00     0.017 C 
ATOM     14  C   UNL A   1      40.155  34.577  34.096  1.00  0.00    -0.027 C 
BRANCH   9  15
ATOM     15  C   UNL A   1      38.264  31.078  35.667  1.00  0.00     0.230 C 
ATOM     16  N   UNL A   1      37.970  30.044  34.817  1.00  0.00    -0.302 N 
ATOM     17  H   UNL A   1      37.551  29.243  35.208  1.00  0.00     0.172 HD
ATOM     18  O   UNL A   1      37.733  31.033  36.774  1.00  0.00    -0.274 OA
BRANCH  16  19
ATOM     19  C   UNL A   1      38.209  30.032  33.480  1.00  0.00     0.190 A 
ATOM     20  C   UNL A   1      41.717  33.336  30.242  1.00  0.00     0.044 C 
ATOM     21  C   UNL A   1      40.423  32.649  30.582  1.00  0.00    -0.046 A 
ATOM     22  C   UNL A   1      40.523  31.489  31.370  1.00  0.00     0.033 A 
ATOM     23  C   UNL A   1      39.148  33.160  30.265  1.00  0.00    -0.047 A 
ATOM     24  C   UNL A   1      39.367  30.910  31.910  1.00  0.00     0.084 A 
ATOM     25  C   UNL A   1      37.978  32.533  30.750  1.00  0.00     0.025 A 
ATOM     26  C   UNL A   1      38.928  34.418  29.473  1.00  0.00     0.044 C 
ATOM     27  N   UNL A   1      39.349  29.923  32.858  1.00  0.00    -0.220 NA
ATOM     28  C   UNL A   1      38.118  31.441  31.602  1.00  0.00     0.057 A 
ATOM     29  S   UNL A   1      36.926  30.582  32.512  1.00  0.00    -0.097 S 
ENDBRANCH  16  19
ENDBRANCH   9  15
ENDBRANCH   6   8
ENDBRANCH   5   6
ENDBRANCH   4   5
ENDBRANCH   3   4
ENDBRANCH   2   3
ENDBRANCH   1   2
BRANCH   1  30
ATOM     30  C   UNL A   1      33.512  34.465  29.313  1.00  0.00     0.188 C 
BRANCH  30  31
ATOM     31  O   UNL A   1      33.898  33.088  29.288  1.00  0.00    -0.376 OA
BRANCH  31  32
ATOM     32  C   UNL A   1      34.408  32.691  28.004  1.00  0.00     0.202 C 
BRANCH  32  33
ATOM     33  C   UNL A   1      35.839  32.102  27.995  1.00  0.00     0.261 C 
BRANCH  33  34
ATOM     34  O   UNL A   1      35.848  30.697  27.679  1.00  0.00    -0.460 OA
BRANCH  34  35
ATOM     35  C   UNL A   1      36.252  29.867  28.681  1.00  0.00     0.338 C 
ATOM     36  O   UNL A   1      35.529  29.317  29.478  1.00  0.00    -0.246 OA
BRANCH  35  37
ATOM     37  C   UNL A   1      37.701  29.514  28.505  1.00  0.00     0.060 A 
ATOM     38  C   UNL A   1      38.476  29.896  27.401  1.00  0.00     0.016 A 
ATOM     39  C   UNL A   1      38.258  28.643  29.445  1.00  0.00     0.016 A 
ATOM     40  C   UNL A   1      39.744  29.324  27.180  1.00  0.00     0.010 A 
ATOM     41  C   UNL A   1      39.526  28.083  29.231  1.00  0.00     0.010 A 
ATOM     42  C   UNL A   1      40.271  28.386  28.077  1.00  0.00    -0.014 A 
BRANCH  42  43
ATOM     43  C   UNL A   1      41.699  27.992  28.059  1.00  0.00     0.031 A 
ATOM     44  C   UNL A   1      41.877  26.717  27.358  1.00  0.00     0.074 A 
ATOM     45  C   UNL A   1      42.833  28.433  28.667  1.00  0.00     0.049 A 
ATOM     46  N   UNL A   1      42.172  25.633  27.998  1.00  0.00    -0.248 NA
ATOM     47  C   UNL A   1      41.570  26.537  25.942  1.00  0.00     0.031 C 
ATOM     48  C   UNL A   1      42.968  29.268  29.846  1.00  0.00     0.029 A 
ATOM     49  N   UNL A   1      44.169  28.212  28.327  1.00  0.00    -0.354 N 
ATOM     50  C   UNL A   1      42.372  24.689  27.027  1.00  0.00     0.074 A 
ATOM     51  C   UNL A   1      41.819  25.231  25.808  1.00  0.00     0.031 C 
ATOM     52  C   UNL A   1      44.248  29.661  30.001  1.00  0.00     0.029 A 
ATOM     53  C   UNL A   1      45.051  29.119  28.917  1.00  0.00     0.049 A 
ATOM     54  H   UNL A   1      44.461  27.486  27.730  1.00  0.00     0.167 HD
ATOM     55  C   UNL A   1      43.274  23.707  27.263  1.00  0.00     0.037 A 
ATOM     56  C   UNL A   1      46.399  29.106  29.039  1.00  0.00     0.037 A 
ATOM     57  C   UNL A   1      43.590  23.545  28.664  1.00  0.00     0.049 A 
ATOM     58  C   UNL A   1      46.807  27.787  29.541  1.00  0.00     0.074 A 
ATOM     59  C   UNL A   1      43.000  22.954  29.763  1.00  0.00     0.029 A 
ATOM     60  N   UNL A   1      44.570  24.368  29.148  1.00  0.00    -0.354 N 
ATOM     61  N   UNL A   1      46.569  27.347  30.744  1.00  0.00    -0.248 NA
ATOM     62  C   UNL A   1      47.306  26.807  28.584  1.00  0.00     0.031 C 
ATOM     63  C   UNL A   1      43.675  23.440  30.925  1.00  0.00     0.029 A 
ATOM     64  C   UNL A   1      44.661  24.324  30.519  1.00  0.00     0.049 A 
ATOM     65  H   UNL A   1      45.144  24.929  28.578  1.00  0.00     0.167 HD
ATOM     66  C   UNL A   1      46.452  25.986  30.557  1.00  0.00     0.074 A 
ATOM     67  C   UNL A   1      47.089  25.694  29.283  1.00  0.00     0.031 C 
ATOM     68  C   UNL A   1      45.479  25.293  31.204  1.00  0.00     0.037 A 
BRANCH  55  69
ATOM     69  C   UNL A   1      44.187  23.207  26.185  1.00  0.00     0.064 A 
ATOM     70  C   UNL A   1      44.161  21.851  25.828  1.00  0.00     0.173 A 
ATOM     71  C   UNL A   1      45.264  23.966  25.675  1.00  0.00     0.173 A 
ATOM     72  F   UNL A   1      43.218  21.034  26.322  1.00  0.00    -0.203 F 
ATOM     73  C   UNL A   1      45.145  21.295  25.009  1.00  0.00     0.198 A 
ATOM     74  C   UNL A   1      46.205  23.425  24.808  1.00  0.00     0.198 A 
ATOM     75  F   UNL A   1      45.506  25.218  26.087  1.00  0.00    -0.203 F 
ATOM     76  F   UNL A   1      45.139  19.979  24.763  1.00  0.00    -0.200 F 
ATOM     77  C   UNL A   1      46.157  22.085  24.488  1.00  0.00     0.200 A 
ATOM     78  F   UNL A   1      47.197  24.199  24.345  1.00  0.00    -0.200 F 
ATOM     79  F   UNL A   1      47.113  21.547  23.721  1.00  0.00    -0.200 F 
ENDBRANCH  55  69
BRANCH  56  80
ATOM     80  C   UNL A   1      47.352  30.201  28.732  1.00  0.00     0.064 A 
ATOM     81  C   UNL A   1      47.273  30.922  27.527  1.00  0.00     0.173 A 
ATOM     82  C   UNL A   1      48.249  30.697  29.696  1.00  0.00     0.173 A 
ATOM     83  F   UNL A   1      46.436  30.530  26.555  1.00  0.00    -0.203 F 
ATOM     84  C   UNL A   1      48.009  32.091  27.316  1.00  0.00     0.198 A 
ATOM     85  C   UNL A   1      48.989  31.865  29.482  1.00  0.00     0.198 A 
ATOM     86  F   UNL A   1      48.367  30.096  30.889  1.00  0.00    -0.203 F 
ATOM     87  F   UNL A   1      47.855  32.780  26.175  1.00  0.00    -0.200 F 
ATOM     88  C   UNL A   1      48.857  32.570  28.298  1.00  0.00     0.200 A 
ATOM     89  F   UNL A   1      49.791  32.336  30.448  1.00  0.00    -0.200 F 
ATOM     90  F   UNL A   1      49.517  33.723  28.118  1.00  0.00    -0.200 F 
ENDBRANCH  56  80
BRANCH  68  91
ATOM     91  C   UNL A   1      45.157  25.730  32.590  1.00  0.00     0.064 A 
ATOM     92  C   UNL A   1      45.931  25.412  33.712  1.00  0.00     0.173 A 
ATOM     93  C   UNL A   1      44.008  26.505  32.789  1.00  0.00     0.173 A 
ATOM     94  F   UNL A   1      47.071  24.727  33.578  1.00  0.00    -0.203 F 
ATOM     95  C   UNL A   1      45.552  25.824  34.989  1.00  0.00     0.198 A 
ATOM     96  C   UNL A   1      43.646  26.942  34.060  1.00  0.00     0.198 A 
ATOM     97  F   UNL A   1      43.245  26.856  31.742  1.00  0.00    -0.203 F 
ATOM     98  F   UNL A   1      46.298  25.492  36.053  1.00  0.00    -0.200 F 
ATOM     99  C   UNL A   1      44.412  26.592  35.161  1.00  0.00     0.200 A 
ATOM    100  F   UNL A   1      42.559  27.709  34.217  1.00  0.00    -0.200 F 
ATOM    101  F   UNL A   1      44.059  27.012  36.385  1.00  0.00    -0.200 F 
ENDBRANCH  68  91
ENDBRANCH  42  43
ENDBRANCH  35  37
ENDBRANCH  34  35
ENDBRANCH  33  34
ENDBRANCH  32  33
ENDBRANCH  31  32
ENDBRANCH  30  31
ENDBRANCH   1  30
TORSDOF 19
ENDMDL
MODEL 2
REMARK VINA RESULT:     -10.4      5.379     10.736
REMARK SMILES Cc1cc2nc(NC(=O)[C@H]3[C@@H](C(=O)OCCOCCOCCOC(=O)c4ccc(-c5c6nc(c(-c7c(F)c(F)c(F)c(F)c7F)c7ccc([nH]7)c(-c7c(F)c(F)c(F)c(F)c7F)c7nc(c(-c8c(F)c(F)c(F)c(F)c8F)c8ccc5[nH]8)C=C7)C=C6)cc4)[C@@H]4C=C[C@H]3C4)sc2cc1C
REMARK SMILES IDX 18 1 17 2 16 3 15 4 14 5 12 6 13 7 11 8 10 9 92 10 89 11
REMARK SMILES IDX 91 12 93 13 90 14 8 15 7 16 9 18 6 19 1 20 2 21 3 22 97 23
REMARK SMILES IDX 4 24 96 25 98 26 5 27 95 28 94 29 19 30 20 31 21 32 22 33
REMARK SMILES IDX 23 34 24 35 25 36 26 37 27 38 88 39 28 40 87 41 29 42 30 43
REMARK SMILES IDX 31 44 81 45 32 46 86 47 80 48 82 49 33 50 85 51 79 52 78 53
REMARK SMILES IDX 34 55 66 56 46 57 65 58 47 59 50 60 64 61 83 62 48 63 49 64
REMARK SMILES IDX 63 66 84 67 51 68 35 69 36 70 44 71 37 72 38 73 42 74 45 75
REMARK SMILES IDX 39 76 40 77 43 78 41 79 67 80 68 81 76 82 69 83 70 84 74 85
REMARK SMILES IDX 77 86 71 87 72 88 75 89 73 90 52 91 53 92 61 93 54 94 55 95
REMARK SMILES IDX 59 96 62 97 56 98 57 99 60 100 58 101
REMARK H PARENT 7 17 82 54 50 65
REMARK Flexibility Score: inf
ROOT
ATOM      1  C   UNL A   1      41.008  21.382  26.491  1.00  0.00     0.188 C 
ENDROOT
BRANCH   1   2
ATOM      2  O   UNL A   1      39.673  21.632  26.076  1.00  0.00    -0.376 OA
BRANCH   2   3
ATOM      3  C   UNL A   1      39.191  22.919  26.481  1.00  0.00     0.202 C 
BRANCH   3   4
ATOM      4  C   UNL A   1      37.761  23.208  25.992  1.00  0.00     0.261 C 
BRANCH   4   5
ATOM      5  O   UNL A   1      37.045  21.971  25.751  1.00  0.00    -0.463 OA
BRANCH   5   6
ATOM      6  C   UNL A   1      35.695  22.076  25.941  1.00  0.00     0.310 C 
ATOM      7  O   UNL A   1      35.193  22.730  26.849  1.00  0.00    -0.252 OA
BRANCH   6   8
ATOM      8  C   UNL A   1      34.894  21.237  24.928  1.00  0.00     0.119 C 
ATOM      9  C   UNL A   1      34.262  22.042  23.754  1.00  0.00     0.100 C 
ATOM     10  C   UNL A   1      32.758  22.108  24.144  1.00  0.00     0.025 C 
ATOM     11  C   UNL A   1      33.626  20.636  25.593  1.00  0.00     0.027 C 
ATOM     12  C   UNL A   1      32.225  20.730  23.760  1.00  0.00    -0.027 C 
ATOM     13  C   UNL A   1      32.719  21.869  25.652  1.00  0.00     0.017 C 
ATOM     14  C   UNL A   1      32.812  19.844  24.583  1.00  0.00    -0.027 C 
BRANCH   9  15
ATOM     15  C   UNL A   1      35.150  23.196  23.325  1.00  0.00     0.230 C 
ATOM     16  N   UNL A   1      34.739  24.492  23.496  1.00  0.00    -0.302 N 
ATOM     17  H   UNL A   1      35.374  25.204  23.253  1.00  0.00     0.172 HD
ATOM     18  O   UNL A   1      36.150  23.036  22.630  1.00  0.00    -0.274 OA
BRANCH  16  19
ATOM     19  C   UNL A   1      33.527  24.876  23.976  1.00  0.00     0.190 A 
ATOM     20  C   UNL A   1      30.141  29.365  22.531  1.00  0.00     0.044 C 
ATOM     21  C   UNL A   1      30.854  28.448  23.487  1.00  0.00    -0.046 A 
ATOM     22  C   UNL A   1      31.098  27.142  23.031  1.00  0.00     0.033 A 
ATOM     23  C   UNL A   1      31.382  28.855  24.729  1.00  0.00    -0.047 A 
ATOM     24  C   UNL A   1      31.937  26.291  23.762  1.00  0.00     0.084 A 
ATOM     25  C   UNL A   1      32.169  27.972  25.502  1.00  0.00     0.025 A 
ATOM     26  C   UNL A   1      31.224  30.241  25.288  1.00  0.00     0.044 C 
ATOM     27  N   UNL A   1      32.422  25.090  23.320  1.00  0.00    -0.220 NA
ATOM     28  C   UNL A   1      32.466  26.718  24.977  1.00  0.00     0.057 A 
ATOM     29  S   UNL A   1      33.541  25.495  25.558  1.00  0.00    -0.097 S 
ENDBRANCH  16  19
ENDBRANCH   9  15
ENDBRANCH   6   8
ENDBRANCH   5   6
ENDBRANCH   4   5
ENDBRANCH   3   4
ENDBRANCH   2   3
ENDBRANCH   1   2
BRANCH   1  30
ATOM     30  C   UNL A   1      41.364  19.907  26.394  1.00  0.00     0.188 C 
BRANCH  30  31
ATOM     31  O   UNL A   1      42.752  19.644  26.624  1.00  0.00    -0.376 OA
BRANCH  31  32
ATOM     32  C   UNL A   1      43.173  18.405  26.031  1.00  0.00     0.202 C 
BRANCH  32  33
ATOM     33  C   UNL A   1      44.598  18.391  25.429  1.00  0.00     0.261 C 
BRANCH  33  34
ATOM     34  O   UNL A   1      45.236  19.680  25.509  1.00  0.00    -0.460 OA
BRANCH  34  35
ATOM     35  C   UNL A   1      44.976  20.534  24.480  1.00  0.00     0.338 C 
ATOM     36  O   UNL A   1      44.884  20.230  23.314  1.00  0.00    -0.246 OA
BRANCH  35  37
ATOM     37  C   UNL A   1      44.553  21.872  25.017  1.00  0.00     0.060 A 
ATOM     38  C   UNL A   1      43.717  22.766  24.334  1.00  0.00     0.016 A 
ATOM     39  C   UNL A   1      45.143  22.287  26.215  1.00  0.00     0.016 A 
ATOM     40  C   UNL A   1      43.567  24.094  24.781  1.00  0.00     0.010 A 
ATOM     41  C   UNL A   1      44.984  23.606  26.665  1.00  0.00     0.010 A 
ATOM     42  C   UNL A   1      44.224  24.539  25.935  1.00  0.00    -0.014 A 
BRANCH  42  43
ATOM     43  C   UNL A   1      43.866  25.809  26.608  1.00  0.00     0.031 A 
ATOM     44  C   UNL A   1      44.853  26.851  26.310  1.00  0.00     0.074 A 
ATOM     45  C   UNL A   1      42.956  26.183  27.547  1.00  0.00     0.049 A 
ATOM     46  N   UNL A   1      45.684  27.267  27.210  1.00  0.00    -0.248 NA
ATOM     47  C   UNL A   1      45.089  27.362  24.963  1.00  0.00     0.031 C 
ATOM     48  C   UNL A   1      42.222  25.354  28.485  1.00  0.00     0.029 A 
ATOM     49  N   UNL A   1      42.476  27.455  27.864  1.00  0.00    -0.354 N 
ATOM     50  C   UNL A   1      46.358  28.302  26.621  1.00  0.00     0.074 A 
ATOM     51  C   UNL A   1      46.097  28.207  25.203  1.00  0.00     0.031 C 
ATOM     52  C   UNL A   1      41.259  26.075  29.096  1.00  0.00     0.029 A 
ATOM     53  C   UNL A   1      41.283  27.436  28.590  1.00  0.00     0.049 A 
ATOM     54  H   UNL A   1      42.935  28.286  27.602  1.00  0.00     0.167 HD
ATOM     55  C   UNL A   1      46.782  29.322  27.405  1.00  0.00     0.037 A 
ATOM     56  C   UNL A   1      40.640  28.407  29.279  1.00  0.00     0.037 A 
ATOM     57  C   UNL A   1      46.837  28.979  28.808  1.00  0.00     0.049 A 
ATOM     58  C   UNL A   1      41.612  29.081  30.149  1.00  0.00     0.074 A 
ATOM     59  C   UNL A   1      47.695  28.285  29.637  1.00  0.00     0.029 A 
ATOM     60  N   UNL A   1      45.664  29.122  29.498  1.00  0.00    -0.354 N 
ATOM     61  N   UNL A   1      42.172  28.537  31.194  1.00  0.00    -0.248 NA
ATOM     62  C   UNL A   1      42.172  30.352  29.708  1.00  0.00     0.031 C 
ATOM     63  C   UNL A   1      47.000  28.033  30.860  1.00  0.00     0.029 A 
ATOM     64  C   UNL A   1      45.726  28.569  30.755  1.00  0.00     0.049 A 
ATOM     65  H   UNL A   1      44.866  29.569  29.134  1.00  0.00     0.167 HD
ATOM     66  C   UNL A   1      43.403  29.155  31.239  1.00  0.00     0.074 A 
ATOM     67  C   UNL A   1      43.282  30.366  30.445  1.00  0.00     0.031 C 
ATOM     68  C   UNL A   1      44.516  28.428  31.525  1.00  0.00     0.037 A 
BRANCH  55  69
ATOM     69  C   UNL A   1      46.716  30.745  26.942  1.00  0.00     0.064 A 
ATOM     70  C   UNL A   1      47.871  31.539  26.973  1.00  0.00     0.173 A 
ATOM     71  C   UNL A   1      45.498  31.424  26.713  1.00  0.00     0.173 A 
ATOM     72  F   UNL A   1      49.064  30.995  27.256  1.00  0.00    -0.203 F 
ATOM     73  C   UNL A   1      47.810  32.920  26.781  1.00  0.00     0.198 A 
ATOM     74  C   UNL A   1      45.448  32.789  26.458  1.00  0.00     0.198 A 
ATOM     75  F   UNL A   1      44.312  30.814  26.841  1.00  0.00    -0.203 F 
ATOM     76  F   UNL A   1      48.920  33.658  26.908  1.00  0.00    -0.200 F 
ATOM     77  C   UNL A   1      46.601  33.541  26.509  1.00  0.00     0.200 A 
ATOM     78  F   UNL A   1      44.264  33.375  26.233  1.00  0.00    -0.200 F 
ATOM     79  F   UNL A   1      46.541  34.869  26.347  1.00  0.00    -0.200 F 
ENDBRANCH  55  69
BRANCH  56  80
ATOM     80  C   UNL A   1      39.204  28.775  29.207  1.00  0.00     0.064 A 
ATOM     81  C   UNL A   1      38.397  28.797  30.358  1.00  0.00     0.173 A 
ATOM     82  C   UNL A   1      38.630  29.299  28.034  1.00  0.00     0.173 A 
ATOM     83  F   UNL A   1      38.864  28.329  31.525  1.00  0.00    -0.203 F 
ATOM     84  C   UNL A   1      37.113  29.351  30.351  1.00  0.00     0.198 A 
ATOM     85  C   UNL A   1      37.343  29.849  28.026  1.00  0.00     0.198 A 
ATOM     86  F   UNL A   1      39.337  29.352  26.895  1.00  0.00    -0.203 F 
ATOM     87  F   UNL A   1      36.403  29.405  31.487  1.00  0.00    -0.200 F 
ATOM     88  C   UNL A   1      36.591  29.888  29.188  1.00  0.00     0.200 A 
ATOM     89  F   UNL A   1      36.854  30.389  26.901  1.00  0.00    -0.200 F 
ATOM     90  F   UNL A   1      35.384  30.472  29.195  1.00  0.00    -0.200 F 
ENDBRANCH  56  80
BRANCH  68  91
ATOM     91  C   UNL A   1      44.363  27.337  32.525  1.00  0.00     0.064 A 
ATOM     92  C   UNL A   1      44.272  25.980  32.198  1.00  0.00     0.173 A 
ATOM     93  C   UNL A   1      44.305  27.686  33.880  1.00  0.00     0.173 A 
ATOM     94  F   UNL A   1      44.382  25.579  30.927  1.00  0.00    -0.203 F 
ATOM     95  C   UNL A   1      44.093  25.010  33.184  1.00  0.00     0.198 A 
ATOM     96  C   UNL A   1      44.157  26.716  34.867  1.00  0.00     0.198 A 
ATOM     97  F   UNL A   1      44.412  28.972  34.247  1.00  0.00    -0.203 F 
ATOM     98  F   UNL A   1      43.987  23.717  32.846  1.00  0.00    -0.200 F 
ATOM     99  C   UNL A   1      44.040  25.379  34.518  1.00  0.00     0.200 A 
ATOM    100  F   UNL A   1      44.136  27.075  36.158  1.00  0.00    -0.200 F 
ATOM    101  F   UNL A   1      43.895  24.446  35.471  1.00  0.00    -0.200 F 
ENDBRANCH  68  91
ENDBRANCH  42  43
ENDBRANCH  35  37
ENDBRANCH  34  35
ENDBRANCH  33  34
ENDBRANCH  32  33
ENDBRANCH  31  32
ENDBRANCH  30  31
ENDBRANCH   1  30
TORSDOF 19
ENDMDL
MODEL 3
REMARK VINA RESULT:     -10.3      5.507     10.585
REMARK SMILES Cc1cc2nc(NC(=O)[C@H]3[C@@H](C(=O)OCCOCCOCCOC(=O)c4ccc(-c5c6nc(c(-c7c(F)c(F)c(F)c(F)c7F)c7ccc([nH]7)c(-c7c(F)c(F)c(F)c(F)c7F)c7nc(c(-c8c(F)c(F)c(F)c(F)c8F)c8ccc5[nH]8)C=C7)C=C6)cc4)[C@@H]4C=C[C@H]3C4)sc2cc1C
REMARK SMILES IDX 18 1 17 2 16 3 15 4 14 5 12 6 13 7 11 8 10 9 92 10 89 11
REMARK SMILES IDX 91 12 93 13 90 14 8 15 7 16 9 18 6 19 1 20 2 21 3 22 97 23
REMARK SMILES IDX 4 24 96 25 98 26 5 27 95 28 94 29 19 30 20 31 21 32 22 33
REMARK SMILES IDX 23 34 24 35 25 36 26 37 27 38 88 39 28 40 87 41 29 42 30 43
REMARK SMILES IDX 31 44 81 45 32 46 86 47 80 48 82 49 33 50 85 51 79 52 78 53
REMARK SMILES IDX 34 55 66 56 46 57 65 58 47 59 50 60 64 61 83 62 48 63 49 64
REMARK SMILES IDX 63 66 84 67 51 68 35 69 36 70 44 71 37 72 38 73 42 74 45 75
REMARK SMILES IDX 39 76 40 77 43 78 41 79 67 80 68 81 76 82 69 83 70 84 74 85
REMARK SMILES IDX 77 86 71 87 72 88 75 89 73 90 52 91 53 92 61 93 54 94 55 95
REMARK SMILES IDX 59 96 62 97 56 98 57 99 60 100 58 101
REMARK H PARENT 7 17 82 54 50 65
REMARK Flexibility Score: inf
ROOT
ATOM      1  C   UNL A   1      40.068  21.673  26.504  1.00  0.00     0.188 C 
ENDROOT
BRANCH   1   2
ATOM      2  O   UNL A   1      38.848  21.819  25.791  1.00  0.00    -0.376 OA
BRANCH   2   3
ATOM      3  C   UNL A   1      38.151  23.028  26.113  1.00  0.00     0.202 C 
BRANCH   3   4
ATOM      4  C   UNL A   1      37.017  23.351  25.125  1.00  0.00     0.261 C 
BRANCH   4   5
ATOM      5  O   UNL A   1      35.764  22.785  25.587  1.00  0.00    -0.463 OA
BRANCH   5   6
ATOM      6  C   UNL A   1      34.752  23.700  25.671  1.00  0.00     0.310 C 
ATOM      7  O   UNL A   1      34.756  24.637  26.461  1.00  0.00    -0.252 OA
BRANCH   6   8
ATOM      8  C   UNL A   1      33.592  23.380  24.709  1.00  0.00     0.119 C 
ATOM      9  C   UNL A   1      32.405  22.594  25.340  1.00  0.00     0.100 C 
ATOM     10  C   UNL A   1      32.607  21.153  24.792  1.00  0.00     0.025 C 
ATOM     11  C   UNL A   1      34.053  22.388  23.606  1.00  0.00     0.027 C 
ATOM     12  C   UNL A   1      32.069  21.231  23.365  1.00  0.00    -0.027 C 
ATOM     13  C   UNL A   1      34.079  21.074  24.393  1.00  0.00     0.017 C 
ATOM     14  C   UNL A   1      32.898  22.038  22.681  1.00  0.00    -0.027 C 
BRANCH   9  15
ATOM     15  C   UNL A   1      32.167  23.003  26.782  1.00  0.00     0.230 C 
ATOM     16  N   UNL A   1      31.525  24.177  27.077  1.00  0.00    -0.302 N 
ATOM     17  H   UNL A   1      31.346  24.369  28.026  1.00  0.00     0.172 HD
ATOM     18  O   UNL A   1      32.708  22.434  27.727  1.00  0.00    -0.274 OA
BRANCH  16  19
ATOM     19  C   UNL A   1      31.112  25.098  26.167  1.00  0.00     0.190 A 
ATOM     20  C   UNL A   1      32.499  25.761  20.569  1.00  0.00     0.044 C 
ATOM     21  C   UNL A   1      32.265  26.228  21.980  1.00  0.00    -0.046 A 
ATOM     22  C   UNL A   1      31.359  25.473  22.743  1.00  0.00     0.033 A 
ATOM     23  C   UNL A   1      32.978  27.277  22.594  1.00  0.00    -0.047 A 
ATOM     24  C   UNL A   1      31.243  25.703  24.120  1.00  0.00     0.084 A 
ATOM     25  C   UNL A   1      32.807  27.558  23.968  1.00  0.00     0.025 A 
ATOM     26  C   UNL A   1      34.006  28.114  21.885  1.00  0.00     0.044 C 
ATOM     27  N   UNL A   1      30.568  24.901  25.000  1.00  0.00    -0.220 NA
ATOM     28  C   UNL A   1      31.970  26.731  24.713  1.00  0.00     0.057 A 
ATOM     29  S   UNL A   1      31.696  26.672  26.419  1.00  0.00    -0.097 S 
ENDBRANCH  16  19
ENDBRANCH   9  15
ENDBRANCH   6   8
ENDBRANCH   5   6
ENDBRANCH   4   5
ENDBRANCH   3   4
ENDBRANCH   2   3
ENDBRANCH   1   2
BRANCH   1  30
ATOM     30  C   UNL A   1      40.629  20.265  26.384  1.00  0.00     0.188 C 
BRANCH  30  31
ATOM     31  O   UNL A   1      41.975  20.150  26.857  1.00  0.00    -0.376 OA
BRANCH  31  32
ATOM     32  C   UNL A   1      42.535  18.854  26.587  1.00  0.00     0.202 C 
BRANCH  32  33
ATOM     33  C   UNL A   1      43.419  18.747  25.322  1.00  0.00     0.261 C 
BRANCH  33  34
ATOM     34  O   UNL A   1      44.723  19.327  25.518  1.00  0.00    -0.460 OA
BRANCH  34  35
ATOM     35  C   UNL A   1      45.066  20.319  24.648  1.00  0.00     0.338 C 
ATOM     36  O   UNL A   1      45.472  20.161  23.521  1.00  0.00    -0.246 OA
BRANCH  35  37
ATOM     37  C   UNL A   1      44.620  21.649  25.184  1.00  0.00     0.060 A 
ATOM     38  C   UNL A   1      43.551  22.390  24.662  1.00  0.00     0.016 A 
ATOM     39  C   UNL A   1      45.413  22.227  26.181  1.00  0.00     0.016 A 
ATOM     40  C   UNL A   1      43.350  23.731  25.047  1.00  0.00     0.010 A 
ATOM     41  C   UNL A   1      45.205  23.557  26.572  1.00  0.00     0.010 A 
ATOM     42  C   UNL A   1      44.194  24.340  25.984  1.00  0.00    -0.014 A 
BRANCH  42  43
ATOM     43  C   UNL A   1      43.850  25.622  26.642  1.00  0.00     0.031 A 
ATOM     44  C   UNL A   1      44.852  26.648  26.337  1.00  0.00     0.074 A 
ATOM     45  C   UNL A   1      42.941  26.020  27.572  1.00  0.00     0.049 A 
ATOM     46  N   UNL A   1      45.684  27.063  27.236  1.00  0.00    -0.248 NA
ATOM     47  C   UNL A   1      45.102  27.141  24.986  1.00  0.00     0.031 C 
ATOM     48  C   UNL A   1      42.191  25.211  28.515  1.00  0.00     0.029 A 
ATOM     49  N   UNL A   1      42.476  27.301  27.872  1.00  0.00    -0.354 N 
ATOM     50  C   UNL A   1      46.375  28.082  26.639  1.00  0.00     0.074 A 
ATOM     51  C   UNL A   1      46.120  27.975  25.221  1.00  0.00     0.031 C 
ATOM     52  C   UNL A   1      41.236  25.951  29.114  1.00  0.00     0.029 A 
ATOM     53  C   UNL A   1      41.280  27.306  28.592  1.00  0.00     0.049 A 
ATOM     54  H   UNL A   1      42.947  28.123  27.603  1.00  0.00     0.167 HD
ATOM     55  C   UNL A   1      46.809  29.104  27.414  1.00  0.00     0.037 A 
ATOM     56  C   UNL A   1      40.646  28.293  29.268  1.00  0.00     0.037 A 
ATOM     57  C   UNL A   1      46.853  28.777  28.821  1.00  0.00     0.049 A 
ATOM     58  C   UNL A   1      41.624  28.964  30.136  1.00  0.00     0.074 A 
ATOM     59  C   UNL A   1      47.698  28.081  29.661  1.00  0.00     0.029 A 
ATOM     60  N   UNL A   1      45.679  28.943  29.503  1.00  0.00    -0.354 N 
ATOM     61  N   UNL A   1      42.171  28.424  31.188  1.00  0.00    -0.248 NA
ATOM     62  C   UNL A   1      42.203  30.222  29.683  1.00  0.00     0.031 C 
ATOM     63  C   UNL A   1      46.993  27.851  30.883  1.00  0.00     0.029 A 
ATOM     64  C   UNL A   1      45.728  28.403  30.766  1.00  0.00     0.049 A 
ATOM     65  H   UNL A   1      44.889  29.397  29.130  1.00  0.00     0.167 HD
ATOM     66  C   UNL A   1      43.411  29.025  31.233  1.00  0.00     0.074 A 
ATOM     67  C   UNL A   1      43.309  30.229  30.425  1.00  0.00     0.031 C 
ATOM     68  C   UNL A   1      44.512  28.287  31.532  1.00  0.00     0.037 A 
BRANCH  55  69
ATOM     69  C   UNL A   1      46.764  30.523  26.934  1.00  0.00     0.064 A 
ATOM     70  C   UNL A   1      47.925  31.307  26.980  1.00  0.00     0.173 A 
ATOM     71  C   UNL A   1      45.557  31.210  26.675  1.00  0.00     0.173 A 
ATOM     72  F   UNL A   1      49.108  30.756  27.291  1.00  0.00    -0.203 F 
ATOM     73  C   UNL A   1      47.881  32.687  26.772  1.00  0.00     0.198 A 
ATOM     74  C   UNL A   1      45.524  32.572  26.405  1.00  0.00     0.198 A 
ATOM     75  F   UNL A   1      44.363  30.612  26.787  1.00  0.00    -0.203 F 
ATOM     76  F   UNL A   1      48.994  33.417  26.913  1.00  0.00    -0.200 F 
ATOM     77  C   UNL A   1      46.683  33.315  26.471  1.00  0.00     0.200 A 
ATOM     78  F   UNL A   1      44.350  33.167  26.151  1.00  0.00    -0.200 F 
ATOM     79  F   UNL A   1      46.637  34.642  26.294  1.00  0.00    -0.200 F 
ENDBRANCH  55  69
BRANCH  56  80
ATOM     80  C   UNL A   1      39.216  28.680  29.185  1.00  0.00     0.064 A 
ATOM     81  C   UNL A   1      38.396  28.695  30.327  1.00  0.00     0.173 A 
ATOM     82  C   UNL A   1      38.662  29.227  28.013  1.00  0.00     0.173 A 
ATOM     83  F   UNL A   1      38.845  28.206  31.493  1.00  0.00    -0.203 F 
ATOM     84  C   UNL A   1      37.120  29.265  30.313  1.00  0.00     0.198 A 
ATOM     85  C   UNL A   1      37.382  29.793  27.999  1.00  0.00     0.198 A 
ATOM     86  F   UNL A   1      39.382  29.287  26.883  1.00  0.00    -0.203 F 
ATOM     87  F   UNL A   1      36.397  29.312  31.442  1.00  0.00    -0.200 F 
ATOM     88  C   UNL A   1      36.618  29.825  29.152  1.00  0.00     0.200 A 
ATOM     89  F   UNL A   1      36.912  30.355  26.875  1.00  0.00    -0.200 F 
ATOM     90  F   UNL A   1      35.418  30.423  29.153  1.00  0.00    -0.200 F 
ENDBRANCH  56  80
BRANCH  68  91
ATOM     91  C   UNL A   1      44.340  27.210  32.544  1.00  0.00     0.064 A 
ATOM     92  C   UNL A   1      44.248  25.848  32.232  1.00  0.00     0.173 A 
ATOM     93  C   UNL A   1      44.262  27.575  33.893  1.00  0.00     0.173 A 
ATOM     94  F   UNL A   1      44.376  25.431  30.969  1.00  0.00    -0.203 F 
ATOM     95  C   UNL A   1      44.051  24.892  33.227  1.00  0.00     0.198 A 
ATOM     96  C   UNL A   1      44.096  26.618  34.890  1.00  0.00     0.198 A 
ATOM     97  F   UNL A   1      44.369  28.866  34.246  1.00  0.00    -0.203 F 
ATOM     98  F   UNL A   1      43.945  23.595  32.904  1.00  0.00    -0.200 F 
ATOM     99  C   UNL A   1      43.979  25.278  34.556  1.00  0.00     0.200 A 
ATOM    100  F   UNL A   1      44.057  26.994  36.176  1.00  0.00    -0.200 F 
ATOM    101  F   UNL A   1      43.816  24.358  35.518  1.00  0.00    -0.200 F 
ENDBRANCH  68  91
ENDBRANCH  42  43
ENDBRANCH  35  37
ENDBRANCH  34  35
ENDBRANCH  33  34
ENDBRANCH  32  33
ENDBRANCH  31  32
ENDBRANCH  30  31
ENDBRANCH   1  30
TORSDOF 19
ENDMDL
