MODEL 1
REMARK VINA RESULT:     -13.4      0.000      0.000
REMARK SMILES Cc1ccc(Oc2cc(C(=O)OCCOCCOCCOC(=O)c3ccc(-c4c5nc(c(-c6c(F)c(F)c(F)c(F)c6F)c6ccc([nH]6)c(-c6c(F)c(F)c(F)c(F)c6F)c6nc(c(-c7c(F)c(F)c(F)c(F)c7F)c7ccc4[nH]7)C=C6)C=C5)cc3)nc3ccccc23)cc1
REMARK SMILES IDX 16 1 15 2 14 3 13 4 12 5 10 6 11 7 9 8 7 9 8 10 93 11 88 12
REMARK SMILES IDX 92 13 87 14 89 15 91 16 90 17 6 18 5 19 1 20 2 21 3 22 95 23
REMARK SMILES IDX 4 24 94 25 17 26 18 27 19 28 20 29 21 30 22 31 23 32 24 33
REMARK SMILES IDX 25 34 86 35 26 36 85 37 27 38 28 39 29 40 79 41 30 42 84 43
REMARK SMILES IDX 78 44 80 45 31 46 83 47 77 48 76 49 32 51 64 52 44 53 63 54
REMARK SMILES IDX 45 55 48 56 62 57 81 58 46 59 47 60 61 62 82 63 49 64 33 65
REMARK SMILES IDX 34 66 42 67 35 68 36 69 40 70 43 71 37 72 38 73 41 74 39 75
REMARK SMILES IDX 65 76 66 77 74 78 67 79 68 80 72 81 75 82 69 83 70 84 73 85
REMARK SMILES IDX 71 86 50 87 51 88 59 89 52 90 53 91 57 92 60 93 54 94 55 95
REMARK SMILES IDX 58 96 56 97
REMARK H PARENT 80 50 48 61
REMARK Flexibility Score: inf
ROOT
ATOM      1  C   UNL A   1      43.324  18.876  25.847  1.00  0.00     0.188 C 
ENDROOT
BRANCH   1   2
ATOM      2  O   UNL A   1      42.004  19.188  25.337  1.00  0.00    -0.376 OA
BRANCH   2   3
ATOM      3  C   UNL A   1      40.935  19.770  26.095  1.00  0.00     0.202 C 
BRANCH   3   4
ATOM      4  C   UNL A   1      39.376  20.155  25.518  1.00  0.00     0.261 C 
BRANCH   4   5
ATOM      5  O   UNL A   1      38.254  21.383  25.930  1.00  0.00    -0.459 OA
BRANCH   5   6
ATOM      6  C   UNL A   1      37.111  22.037  25.358  1.00  0.00     0.357 C 
ATOM      7  O   UNL A   1      37.087  22.879  24.458  1.00  0.00    -0.244 OA
BRANCH   6   8
ATOM      8  C   UNL A   1      35.671  21.818  25.657  1.00  0.00     0.152 A 
ATOM      9  C   UNL A   1      33.600  21.046  24.569  1.00  0.00     0.139 A 
ATOM     10  C   UNL A   1      34.970  20.902  24.817  1.00  0.00     0.084 A 
ATOM     11  C   UNL A   1      32.939  22.106  25.205  1.00  0.00     0.043 A 
ATOM     12  C   UNL A   1      33.745  23.011  25.959  1.00  0.00     0.075 A 
ATOM     13  C   UNL A   1      31.546  22.324  25.153  1.00  0.00     0.014 A 
ATOM     14  N   UNL A   1      35.056  22.875  26.203  1.00  0.00    -0.240 NA
ATOM     15  C   UNL A   1      33.165  24.146  26.479  1.00  0.00     0.029 A 
ATOM     16  C   UNL A   1      30.982  23.452  25.743  1.00  0.00     0.001 A 
ATOM     17  C   UNL A   1      31.798  24.380  26.377  1.00  0.00     0.002 A 
BRANCH   9  18
ATOM     18  O   UNL A   1      33.016  20.060  23.789  1.00  0.00    -0.457 OA
BRANCH  18  19
ATOM     19  C   UNL A   1      33.041  18.714  24.121  1.00  0.00     0.127 A 
ATOM     20  C   UNL A   1      32.881  14.589  25.489  1.00  0.00     0.044 C 
ATOM     21  C   UNL A   1      32.964  16.017  25.024  1.00  0.00    -0.051 A 
ATOM     22  C   UNL A   1      32.373  17.036  25.777  1.00  0.00     0.007 A 
ATOM     23  C   UNL A   1      33.636  16.370  23.844  1.00  0.00     0.007 A 
ATOM     24  C   UNL A   1      32.419  18.368  25.332  1.00  0.00     0.047 A 
ATOM     25  C   UNL A   1      33.683  17.708  23.400  1.00  0.00     0.047 A 
ENDBRANCH  18  19
ENDBRANCH   9  18
ENDBRANCH   6   8
ENDBRANCH   5   6
ENDBRANCH   4   5
ENDBRANCH   3   4
ENDBRANCH   2   3
ENDBRANCH   1   2
BRANCH   1  26
ATOM     26  C   UNL A   1      44.612  19.095  25.051  1.00  0.00     0.188 C 
BRANCH  26  27
ATOM     27  O   UNL A   1      44.983  20.457  25.117  1.00  0.00    -0.376 OA
BRANCH  27  28
ATOM     28  C   UNL A   1      44.741  21.216  23.947  1.00  0.00     0.202 C 
BRANCH  28  29
ATOM     29  C   UNL A   1      44.279  22.650  24.268  1.00  0.00     0.261 C 
BRANCH  29  30
ATOM     30  O   UNL A   1      42.941  22.640  24.827  1.00  0.00    -0.460 OA
BRANCH  30  31
ATOM     31  C   UNL A   1      42.792  22.963  26.155  1.00  0.00     0.338 C 
ATOM     32  O   UNL A   1      43.183  22.273  27.086  1.00  0.00    -0.246 OA
BRANCH  31  33
ATOM     33  C   UNL A   1      41.845  24.129  26.304  1.00  0.00     0.060 A 
ATOM     34  C   UNL A   1      42.049  25.439  25.842  1.00  0.00     0.016 A 
ATOM     35  C   UNL A   1      40.954  24.015  27.308  1.00  0.00     0.016 A 
ATOM     36  C   UNL A   1      41.496  26.608  26.542  1.00  0.00     0.010 A 
ATOM     37  C   UNL A   1      40.807  25.165  28.084  1.00  0.00     0.010 A 
ATOM     38  C   UNL A   1      40.892  26.531  27.801  1.00  0.00    -0.014 A 
BRANCH  38  39
ATOM     39  C   UNL A   1      40.618  27.742  28.875  1.00  0.00     0.031 A 
ATOM     40  C   UNL A   1      39.499  28.983  29.012  1.00  0.00     0.074 A 
ATOM     41  C   UNL A   1      41.533  27.829  29.868  1.00  0.00     0.049 A 
ATOM     42  N   UNL A   1      39.790  30.231  29.366  1.00  0.00    -0.248 NA
ATOM     43  C   UNL A   1      38.044  28.993  28.661  1.00  0.00     0.031 C 
ATOM     44  C   UNL A   1      41.500  28.685  31.052  1.00  0.00     0.029 A 
ATOM     45  N   UNL A   1      42.796  27.220  29.928  1.00  0.00    -0.354 N 
ATOM     46  C   UNL A   1      38.607  31.001  29.336  1.00  0.00     0.074 A 
ATOM     47  C   UNL A   1      37.694  30.258  28.595  1.00  0.00     0.031 C 
ATOM     48  C   UNL A   1      42.754  28.819  31.510  1.00  0.00     0.029 A 
ATOM     49  C   UNL A   1      43.632  28.144  30.572  1.00  0.00     0.049 A 
ATOM     50  H   UNL A   1      43.043  26.329  29.588  1.00  0.00     0.167 HD
ATOM     51  C   UNL A   1      38.320  32.109  30.076  1.00  0.00     0.037 A 
ATOM     52  C   UNL A   1      44.715  28.670  29.940  1.00  0.00     0.037 A 
ATOM     53  C   UNL A   1      39.509  32.501  30.780  1.00  0.00     0.049 A 
ATOM     54  C   UNL A   1      44.698  30.179  29.892  1.00  0.00     0.074 A 
ATOM     55  C   UNL A   1      39.990  32.228  32.045  1.00  0.00     0.029 A 
ATOM     56  N   UNL A   1      40.577  32.927  30.016  1.00  0.00    -0.354 N 
ATOM     57  N   UNL A   1      43.663  30.909  30.211  1.00  0.00    -0.248 NA
ATOM     58  C   UNL A   1      45.830  30.989  29.455  1.00  0.00     0.031 C 
ATOM     59  C   UNL A   1      41.402  32.389  32.000  1.00  0.00     0.029 A 
ATOM     60  C   UNL A   1      41.749  32.820  30.731  1.00  0.00     0.049 A 
ATOM     61  H   UNL A   1      40.510  33.261  29.093  1.00  0.00     0.167 HD
ATOM     62  C   UNL A   1      43.937  32.226  29.962  1.00  0.00     0.074 A 
ATOM     63  C   UNL A   1      45.320  32.230  29.532  1.00  0.00     0.031 C 
ATOM     64  C   UNL A   1      42.991  33.200  30.083  1.00  0.00     0.037 A 
BRANCH  51  65
ATOM     65  C   UNL A   1      36.880  32.597  30.382  1.00  0.00     0.064 A 
ATOM     66  C   UNL A   1      36.204  33.423  29.459  1.00  0.00     0.173 A 
ATOM     67  C   UNL A   1      36.137  32.383  31.573  1.00  0.00     0.173 A 
ATOM     68  F   UNL A   1      36.692  33.622  28.228  1.00  0.00    -0.203 F 
ATOM     69  C   UNL A   1      34.993  34.076  29.758  1.00  0.00     0.198 A 
ATOM     70  C   UNL A   1      34.974  33.096  31.907  1.00  0.00     0.198 A 
ATOM     71  F   UNL A   1      36.426  31.401  32.432  1.00  0.00    -0.203 F 
ATOM     72  F   UNL A   1      34.403  34.840  28.828  1.00  0.00    -0.200 F 
ATOM     73  C   UNL A   1      34.405  33.953  30.999  1.00  0.00     0.200 A 
ATOM     74  F   UNL A   1      34.405  32.920  33.110  1.00  0.00    -0.200 F 
ATOM     75  F   UNL A   1      33.278  34.614  31.301  1.00  0.00    -0.200 F 
ENDBRANCH  51  65
BRANCH  52  76
ATOM     76  C   UNL A   1      45.347  27.741  28.952  1.00  0.00     0.064 A 
ATOM     77  C   UNL A   1      46.074  26.637  29.456  1.00  0.00     0.173 A 
ATOM     78  C   UNL A   1      45.004  27.704  27.595  1.00  0.00     0.173 A 
ATOM     79  F   UNL A   1      46.432  26.606  30.750  1.00  0.00    -0.203 F 
ATOM     80  C   UNL A   1      46.333  25.508  28.681  1.00  0.00     0.198 A 
ATOM     81  C   UNL A   1      45.292  26.577  26.810  1.00  0.00     0.198 A 
ATOM     82  F   UNL A   1      44.268  28.685  27.054  1.00  0.00    -0.203 F 
ATOM     83  F   UNL A   1      46.898  24.427  29.241  1.00  0.00    -0.200 F 
ATOM     84  C   UNL A   1      45.929  25.473  27.361  1.00  0.00     0.200 A 
ATOM     85  F   UNL A   1      44.832  26.504  25.551  1.00  0.00    -0.200 F 
ATOM     86  F   UNL A   1      46.077  24.349  26.643  1.00  0.00    -0.200 F 
ENDBRANCH  52  76
BRANCH  64  87
ATOM     87  C   UNL A   1      43.107  34.614  29.576  1.00  0.00     0.064 A 
ATOM     88  C   UNL A   1      43.282  35.728  30.410  1.00  0.00     0.173 A 
ATOM     89  C   UNL A   1      43.255  34.853  28.186  1.00  0.00     0.173 A 
ATOM     90  F   UNL A   1      43.271  35.609  31.744  1.00  0.00    -0.203 F 
ATOM     91  C   UNL A   1      43.546  36.997  29.891  1.00  0.00     0.198 A 
ATOM     92  C   UNL A   1      43.589  36.106  27.678  1.00  0.00     0.198 A 
ATOM     93  F   UNL A   1      43.125  33.863  27.289  1.00  0.00    -0.203 F 
ATOM     94  F   UNL A   1      43.670  38.040  30.724  1.00  0.00    -0.200 F 
ATOM     95  C   UNL A   1      43.719  37.182  28.530  1.00  0.00     0.200 A 
ATOM     96  F   UNL A   1      43.811  36.256  26.366  1.00  0.00    -0.200 F 
ATOM     97  F   UNL A   1      44.032  38.391  28.046  1.00  0.00    -0.200 F 
ENDBRANCH  64  87
ENDBRANCH  38  39
ENDBRANCH  31  33
ENDBRANCH  30  31
ENDBRANCH  29  30
ENDBRANCH  28  29
ENDBRANCH  27  28
ENDBRANCH  26  27
ENDBRANCH   1  26
TORSDOF 19
ENDMDL
MODEL 2
REMARK VINA RESULT:     -13.2      2.024      4.082
REMARK SMILES Cc1ccc(Oc2cc(C(=O)OCCOCCOCCOC(=O)c3ccc(-c4c5nc(c(-c6c(F)c(F)c(F)c(F)c6F)c6ccc([nH]6)c(-c6c(F)c(F)c(F)c(F)c6F)c6nc(c(-c7c(F)c(F)c(F)c(F)c7F)c7ccc4[nH]7)C=C6)C=C5)cc3)nc3ccccc23)cc1
REMARK SMILES IDX 16 1 15 2 14 3 13 4 12 5 10 6 11 7 9 8 7 9 8 10 93 11 88 12
REMARK SMILES IDX 92 13 87 14 89 15 91 16 90 17 6 18 5 19 1 20 2 21 3 22 95 23
REMARK SMILES IDX 4 24 94 25 17 26 18 27 19 28 20 29 21 30 22 31 23 32 24 33
REMARK SMILES IDX 25 34 86 35 26 36 85 37 27 38 28 39 29 40 79 41 30 42 84 43
REMARK SMILES IDX 78 44 80 45 31 46 83 47 77 48 76 49 32 51 64 52 44 53 63 54
REMARK SMILES IDX 45 55 48 56 62 57 81 58 46 59 47 60 61 62 82 63 49 64 33 65
REMARK SMILES IDX 34 66 42 67 35 68 36 69 40 70 43 71 37 72 38 73 41 74 39 75
REMARK SMILES IDX 65 76 66 77 74 78 67 79 68 80 72 81 75 82 69 83 70 84 73 85
REMARK SMILES IDX 71 86 50 87 51 88 59 89 52 90 53 91 57 92 60 93 54 94 55 95
REMARK SMILES IDX 58 96 56 97
REMARK H PARENT 80 50 48 61
REMARK Flexibility Score: inf
ROOT
ATOM      1  C   UNL A   1      42.812  19.274  25.793  1.00  0.00     0.188 C 
ENDROOT
BRANCH   1   2
ATOM      2  O   UNL A   1      41.581  19.612  26.480  1.00  0.00    -0.376 OA
BRANCH   2   3
ATOM      3  C   UNL A   1      41.351  20.808  27.236  1.00  0.00     0.202 C 
BRANCH   3   4
ATOM      4  C   UNL A   1      40.226  22.038  26.869  1.00  0.00     0.261 C 
BRANCH   4   5
ATOM      5  O   UNL A   1      38.586  22.002  26.373  1.00  0.00    -0.459 OA
BRANCH   5   6
ATOM      6  C   UNL A   1      37.637  22.858  25.717  1.00  0.00     0.357 C 
ATOM      7  O   UNL A   1      37.589  24.090  25.728  1.00  0.00    -0.244 OA
BRANCH   6   8
ATOM      8  C   UNL A   1      36.520  22.482  24.810  1.00  0.00     0.152 A 
ATOM      9  C   UNL A   1      34.247  23.202  24.195  1.00  0.00     0.139 A 
ATOM     10  C   UNL A   1      35.582  23.505  24.483  1.00  0.00     0.084 A 
ATOM     11  C   UNL A   1      33.877  21.850  24.208  1.00  0.00     0.043 A 
ATOM     12  C   UNL A   1      34.870  20.912  24.625  1.00  0.00     0.075 A 
ATOM     13  C   UNL A   1      32.607  21.365  23.831  1.00  0.00     0.014 A 
ATOM     14  N   UNL A   1      36.150  21.197  24.898  1.00  0.00    -0.240 NA
ATOM     15  C   UNL A   1      34.513  19.594  24.794  1.00  0.00     0.029 A 
ATOM     16  C   UNL A   1      32.297  20.014  23.956  1.00  0.00     0.001 A 
ATOM     17  C   UNL A   1      33.240  19.134  24.470  1.00  0.00     0.002 A 
BRANCH   9  18
ATOM     18  O   UNL A   1      33.444  24.272  23.830  1.00  0.00    -0.457 OA
BRANCH  18  19
ATOM     19  C   UNL A   1      33.086  25.285  24.705  1.00  0.00     0.127 A 
ATOM     20  C   UNL A   1      31.693  28.199  27.619  1.00  0.00     0.044 C 
ATOM     21  C   UNL A   1      32.163  27.206  26.590  1.00  0.00    -0.051 A 
ATOM     22  C   UNL A   1      31.553  25.952  26.496  1.00  0.00     0.007 A 
ATOM     23  C   UNL A   1      33.203  27.505  25.697  1.00  0.00     0.007 A 
ATOM     24  C   UNL A   1      32.007  25.008  25.560  1.00  0.00     0.047 A 
ATOM     25  C   UNL A   1      33.656  26.557  24.756  1.00  0.00     0.047 A 
ENDBRANCH  18  19
ENDBRANCH   9  18
ENDBRANCH   6   8
ENDBRANCH   5   6
ENDBRANCH   4   5
ENDBRANCH   3   4
ENDBRANCH   2   3
ENDBRANCH   1   2
BRANCH   1  26
ATOM     26  C   UNL A   1      43.682  18.071  26.160  1.00  0.00     0.188 C 
BRANCH  26  27
ATOM     27  O   UNL A   1      44.862  18.087  25.381  1.00  0.00    -0.376 OA
BRANCH  27  28
ATOM     28  C   UNL A   1      45.038  19.226  24.558  1.00  0.00     0.202 C 
BRANCH  28  29
ATOM     29  C   UNL A   1      46.326  19.998  24.901  1.00  0.00     0.261 C 
BRANCH  29  30
ATOM     30  O   UNL A   1      46.010  21.235  25.589  1.00  0.00    -0.460 OA
BRANCH  30  31
ATOM     31  C   UNL A   1      45.438  22.252  24.862  1.00  0.00     0.338 C 
ATOM     32  O   UNL A   1      45.941  22.766  23.872  1.00  0.00    -0.246 OA
BRANCH  31  33
ATOM     33  C   UNL A   1      44.259  22.827  25.608  1.00  0.00     0.060 A 
ATOM     34  C   UNL A   1      43.364  23.802  25.137  1.00  0.00     0.016 A 
ATOM     35  C   UNL A   1      44.322  22.716  26.949  1.00  0.00     0.016 A 
ATOM     36  C   UNL A   1      42.716  24.765  26.040  1.00  0.00     0.010 A 
ATOM     37  C   UNL A   1      43.972  23.875  27.642  1.00  0.00     0.010 A 
ATOM     38  C   UNL A   1      43.068  24.911  27.385  1.00  0.00    -0.014 A 
BRANCH  38  39
ATOM     39  C   UNL A   1      42.764  26.175  28.387  1.00  0.00     0.031 A 
ATOM     40  C   UNL A   1      41.473  27.215  28.636  1.00  0.00     0.074 A 
ATOM     41  C   UNL A   1      43.808  26.533  29.172  1.00  0.00     0.049 A 
ATOM     42  N   UNL A   1      41.582  28.528  28.822  1.00  0.00    -0.248 NA
ATOM     43  C   UNL A   1      40.005  26.936  28.576  1.00  0.00     0.031 C 
ATOM     44  C   UNL A   1      43.823  27.503  30.264  1.00  0.00     0.029 A 
ATOM     45  N   UNL A   1      45.153  26.157  29.034  1.00  0.00    -0.354 N 
ATOM     46  C   UNL A   1      40.289  29.077  28.959  1.00  0.00     0.074 A 
ATOM     47  C   UNL A   1      39.416  28.107  28.475  1.00  0.00     0.031 C 
ATOM     48  C   UNL A   1      45.091  27.901  30.456  1.00  0.00     0.029 A 
ATOM     49  C   UNL A   1      45.901  27.279  29.424  1.00  0.00     0.049 A 
ATOM     50  H   UNL A   1      45.500  25.288  28.728  1.00  0.00     0.167 HD
ATOM     51  C   UNL A   1      39.932  30.199  29.646  1.00  0.00     0.037 A 
ATOM     52  C   UNL A   1      46.736  27.904  28.551  1.00  0.00     0.037 A 
ATOM     53  C   UNL A   1      41.131  30.866  30.069  1.00  0.00     0.049 A 
ATOM     54  C   UNL A   1      46.425  29.372  28.382  1.00  0.00     0.074 A 
ATOM     55  C   UNL A   1      41.872  30.830  31.234  1.00  0.00     0.029 A 
ATOM     56  N   UNL A   1      41.948  31.376  29.078  1.00  0.00    -0.354 N 
ATOM     57  N   UNL A   1      45.345  29.948  28.834  1.00  0.00    -0.248 NA
ATOM     58  C   UNL A   1      47.289  30.305  27.665  1.00  0.00     0.031 C 
ATOM     59  C   UNL A   1      43.197  31.222  30.901  1.00  0.00     0.029 A 
ATOM     60  C   UNL A   1      43.227  31.554  29.557  1.00  0.00     0.049 A 
ATOM     61  H   UNL A   1      41.657  31.582  28.162  1.00  0.00     0.167 HD
ATOM     62  C   UNL A   1      45.316  31.253  28.428  1.00  0.00     0.074 A 
ATOM     63  C   UNL A   1      46.575  31.442  27.737  1.00  0.00     0.031 C 
ATOM     64  C   UNL A   1      44.240  32.060  28.650  1.00  0.00     0.037 A 
BRANCH  51  65
ATOM     65  C   UNL A   1      38.504  30.467  30.186  1.00  0.00     0.064 A 
ATOM     66  C   UNL A   1      37.493  30.920  29.310  1.00  0.00     0.173 A 
ATOM     67  C   UNL A   1      38.069  30.397  31.536  1.00  0.00     0.173 A 
ATOM     68  F   UNL A   1      37.680  30.918  27.985  1.00  0.00    -0.203 F 
ATOM     69  C   UNL A   1      36.243  31.387  29.759  1.00  0.00     0.198 A 
ATOM     70  C   UNL A   1      36.859  30.939  31.996  1.00  0.00     0.198 A 
ATOM     71  F   UNL A   1      38.734  29.709  32.468  1.00  0.00    -0.203 F 
ATOM     72  F   UNL A   1      35.328  31.795  28.869  1.00  0.00    -0.200 F 
ATOM     73  C   UNL A   1      35.946  31.445  31.104  1.00  0.00     0.200 A 
ATOM     74  F   UNL A   1      36.584  30.941  33.310  1.00  0.00    -0.200 F 
ATOM     75  F   UNL A   1      34.775  31.936  31.535  1.00  0.00    -0.200 F 
ENDBRANCH  51  65
BRANCH  52  76
ATOM     76  C   UNL A   1      47.346  26.986  27.539  1.00  0.00     0.064 A 
ATOM     77  C   UNL A   1      46.760  26.940  26.252  1.00  0.00     0.173 A 
ATOM     78  C   UNL A   1      48.623  26.427  27.671  1.00  0.00     0.173 A 
ATOM     79  F   UNL A   1      45.538  27.462  26.054  1.00  0.00    -0.203 F 
ATOM     80  C   UNL A   1      47.459  26.477  25.139  1.00  0.00     0.198 A 
ATOM     81  C   UNL A   1      49.312  25.934  26.552  1.00  0.00     0.198 A 
ATOM     82  F   UNL A   1      49.269  26.480  28.844  1.00  0.00    -0.203 F 
ATOM     83  F   UNL A   1      46.916  26.586  23.916  1.00  0.00    -0.200 F 
ATOM     84  C   UNL A   1      48.741  25.987  25.287  1.00  0.00     0.200 A 
ATOM     85  F   UNL A   1      50.587  25.532  26.676  1.00  0.00    -0.200 F 
ATOM     86  F   UNL A   1      49.457  25.643  24.207  1.00  0.00    -0.200 F 
ENDBRANCH  52  76
BRANCH  64  87
ATOM     87  C   UNL A   1      43.994  33.404  28.013  1.00  0.00     0.064 A 
ATOM     88  C   UNL A   1      43.776  33.585  26.640  1.00  0.00     0.173 A 
ATOM     89  C   UNL A   1      43.762  34.538  28.831  1.00  0.00     0.173 A 
ATOM     90  F   UNL A   1      43.859  32.562  25.779  1.00  0.00    -0.203 F 
ATOM     91  C   UNL A   1      43.393  34.822  26.116  1.00  0.00     0.198 A 
ATOM     92  C   UNL A   1      43.312  35.749  28.313  1.00  0.00     0.198 A 
ATOM     93  F   UNL A   1      43.923  34.484  30.162  1.00  0.00    -0.203 F 
ATOM     94  F   UNL A   1      43.231  34.959  24.793  1.00  0.00    -0.200 F 
ATOM     95  C   UNL A   1      43.143  35.896  26.952  1.00  0.00     0.200 A 
ATOM     96  F   UNL A   1      43.017  36.761  29.140  1.00  0.00    -0.200 F 
ATOM     97  F   UNL A   1      42.717  37.061  26.448  1.00  0.00    -0.200 F 
ENDBRANCH  64  87
ENDBRANCH  38  39
ENDBRANCH  31  33
ENDBRANCH  30  31
ENDBRANCH  29  30
ENDBRANCH  28  29
ENDBRANCH  27  28
ENDBRANCH  26  27
ENDBRANCH   1  26
TORSDOF 19
ENDMDL
MODEL 3
REMARK VINA RESULT:     -13.1      1.773      2.880
REMARK SMILES Cc1ccc(Oc2cc(C(=O)OCCOCCOCCOC(=O)c3ccc(-c4c5nc(c(-c6c(F)c(F)c(F)c(F)c6F)c6ccc([nH]6)c(-c6c(F)c(F)c(F)c(F)c6F)c6nc(c(-c7c(F)c(F)c(F)c(F)c7F)c7ccc4[nH]7)C=C6)C=C5)cc3)nc3ccccc23)cc1
REMARK SMILES IDX 16 1 15 2 14 3 13 4 12 5 10 6 11 7 9 8 7 9 8 10 93 11 88 12
REMARK SMILES IDX 92 13 87 14 89 15 91 16 90 17 6 18 5 19 1 20 2 21 3 22 95 23
REMARK SMILES IDX 4 24 94 25 17 26 18 27 19 28 20 29 21 30 22 31 23 32 24 33
REMARK SMILES IDX 25 34 86 35 26 36 85 37 27 38 28 39 29 40 79 41 30 42 84 43
REMARK SMILES IDX 78 44 80 45 31 46 83 47 77 48 76 49 32 51 64 52 44 53 63 54
REMARK SMILES IDX 45 55 48 56 62 57 81 58 46 59 47 60 61 62 82 63 49 64 33 65
REMARK SMILES IDX 34 66 42 67 35 68 36 69 40 70 43 71 37 72 38 73 41 74 39 75
REMARK SMILES IDX 65 76 66 77 74 78 67 79 68 80 72 81 75 82 69 83 70 84 73 85
REMARK SMILES IDX 71 86 50 87 51 88 59 89 52 90 53 91 57 92 60 93 54 94 55 95
REMARK SMILES IDX 58 96 56 97
REMARK H PARENT 80 50 48 61
REMARK Flexibility Score: inf
ROOT
ATOM      1  C   UNL A   1      41.884  19.453  26.096  1.00  0.00     0.188 C 
ENDROOT
BRANCH   1   2
ATOM      2  O   UNL A   1      41.393  20.814  26.014  1.00  0.00    -0.376 OA
BRANCH   2   3
ATOM      3  C   UNL A   1      40.839  21.567  27.101  1.00  0.00     0.202 C 
BRANCH   3   4
ATOM      4  C   UNL A   1      39.724  22.853  26.979  1.00  0.00     0.261 C 
BRANCH   4   5
ATOM      5  O   UNL A   1      38.243  23.032  26.137  1.00  0.00    -0.459 OA
BRANCH   5   6
ATOM      6  C   UNL A   1      37.330  22.226  25.376  1.00  0.00     0.357 C 
ATOM      7  O   UNL A   1      37.541  21.631  24.317  1.00  0.00    -0.244 OA
BRANCH   6   8
ATOM      8  C   UNL A   1      35.928  21.851  25.703  1.00  0.00     0.152 A 
ATOM      9  C   UNL A   1      33.920  20.895  24.645  1.00  0.00     0.139 A 
ATOM     10  C   UNL A   1      35.303  20.888  24.856  1.00  0.00     0.084 A 
ATOM     11  C   UNL A   1      33.170  21.865  25.324  1.00  0.00     0.043 A 
ATOM     12  C   UNL A   1      33.899  22.831  26.083  1.00  0.00     0.075 A 
ATOM     13  C   UNL A   1      31.762  21.939  25.312  1.00  0.00     0.014 A 
ATOM     14  N   UNL A   1      35.222  22.826  26.292  1.00  0.00    -0.240 NA
ATOM     15  C   UNL A   1      33.219  23.886  26.647  1.00  0.00     0.029 A 
ATOM     16  C   UNL A   1      31.100  22.988  25.945  1.00  0.00     0.001 A 
ATOM     17  C   UNL A   1      31.832  23.980  26.584  1.00  0.00     0.002 A 
BRANCH   9  18
ATOM     18  O   UNL A   1      33.420  19.873  23.853  1.00  0.00    -0.457 OA
BRANCH  18  19
ATOM     19  C   UNL A   1      33.238  18.577  24.311  1.00  0.00     0.127 A 
ATOM     20  C   UNL A   1      32.904  14.388  25.431  1.00  0.00     0.044 C 
ATOM     21  C   UNL A   1      32.992  15.837  25.036  1.00  0.00    -0.051 A 
ATOM     22  C   UNL A   1      33.651  16.205  23.860  1.00  0.00     0.007 A 
ATOM     23  C   UNL A   1      32.414  16.850  25.816  1.00  0.00     0.007 A 
ATOM     24  C   UNL A   1      33.765  17.558  23.501  1.00  0.00     0.047 A 
ATOM     25  C   UNL A   1      32.528  18.209  25.453  1.00  0.00     0.047 A 
ENDBRANCH  18  19
ENDBRANCH   9  18
ENDBRANCH   6   8
ENDBRANCH   5   6
ENDBRANCH   4   5
ENDBRANCH   3   4
ENDBRANCH   2   3
ENDBRANCH   1   2
BRANCH   1  26
ATOM     26  C   UNL A   1      43.368  19.085  26.047  1.00  0.00     0.188 C 
BRANCH  26  27
ATOM     27  O   UNL A   1      43.748  18.832  24.709  1.00  0.00    -0.376 OA
BRANCH  27  28
ATOM     28  C   UNL A   1      44.726  19.706  24.174  1.00  0.00     0.202 C 
BRANCH  28  29
ATOM     29  C   UNL A   1      45.947  19.849  25.101  1.00  0.00     0.261 C 
BRANCH  29  30
ATOM     30  O   UNL A   1      46.018  21.192  25.646  1.00  0.00    -0.460 OA
BRANCH  30  31
ATOM     31  C   UNL A   1      45.482  22.219  24.907  1.00  0.00     0.338 C 
ATOM     32  O   UNL A   1      46.020  22.728  23.933  1.00  0.00    -0.246 OA
BRANCH  31  33
ATOM     33  C   UNL A   1      44.292  22.810  25.622  1.00  0.00     0.060 A 
ATOM     34  C   UNL A   1      43.430  23.805  25.133  1.00  0.00     0.016 A 
ATOM     35  C   UNL A   1      44.314  22.689  26.964  1.00  0.00     0.016 A 
ATOM     36  C   UNL A   1      42.772  24.773  26.024  1.00  0.00     0.010 A 
ATOM     37  C   UNL A   1      43.964  23.849  27.655  1.00  0.00     0.010 A 
ATOM     38  C   UNL A   1      43.088  24.903  27.381  1.00  0.00    -0.014 A 
BRANCH  38  39
ATOM     39  C   UNL A   1      42.777  26.165  28.383  1.00  0.00     0.031 A 
ATOM     40  C   UNL A   1      41.487  27.209  28.622  1.00  0.00     0.074 A 
ATOM     41  C   UNL A   1      43.813  26.516  29.180  1.00  0.00     0.049 A 
ATOM     42  N   UNL A   1      41.598  28.520  28.812  1.00  0.00    -0.248 NA
ATOM     43  C   UNL A   1      40.019  26.935  28.545  1.00  0.00     0.031 C 
ATOM     44  C   UNL A   1      43.821  27.483  30.275  1.00  0.00     0.029 A 
ATOM     45  N   UNL A   1      45.159  26.137  29.056  1.00  0.00    -0.354 N 
ATOM     46  C   UNL A   1      40.305  29.073  28.937  1.00  0.00     0.074 A 
ATOM     47  C   UNL A   1      39.435  28.108  28.441  1.00  0.00     0.031 C 
ATOM     48  C   UNL A   1      45.087  27.876  30.482  1.00  0.00     0.029 A 
ATOM     49  C   UNL A   1      45.906  27.255  29.457  1.00  0.00     0.049 A 
ATOM     50  H   UNL A   1      45.506  25.268  28.751  1.00  0.00     0.167 HD
ATOM     51  C   UNL A   1      39.946  30.195  29.624  1.00  0.00     0.037 A 
ATOM     52  C   UNL A   1      46.753  27.879  28.595  1.00  0.00     0.037 A 
ATOM     53  C   UNL A   1      41.142  30.856  30.062  1.00  0.00     0.049 A 
ATOM     54  C   UNL A   1      46.449  29.349  28.427  1.00  0.00     0.074 A 
ATOM     55  C   UNL A   1      41.870  30.814  31.234  1.00  0.00     0.029 A 
ATOM     56  N   UNL A   1      41.971  31.366  29.082  1.00  0.00    -0.354 N 
ATOM     57  N   UNL A   1      45.366  29.927  28.870  1.00  0.00    -0.248 NA
ATOM     58  C   UNL A   1      47.324  30.281  27.723  1.00  0.00     0.031 C 
ATOM     59  C   UNL A   1      43.200  31.202  30.917  1.00  0.00     0.029 A 
ATOM     60  C   UNL A   1      43.245  31.538  29.574  1.00  0.00     0.049 A 
ATOM     61  H   UNL A   1      41.691  31.577  28.162  1.00  0.00     0.167 HD
ATOM     62  C   UNL A   1      45.346  31.234  28.467  1.00  0.00     0.074 A 
ATOM     63  C   UNL A   1      46.613  31.421  27.790  1.00  0.00     0.031 C 
ATOM     64  C   UNL A   1      44.270  32.044  28.680  1.00  0.00     0.037 A 
BRANCH  51  65
ATOM     65  C   UNL A   1      38.512  30.466  30.149  1.00  0.00     0.064 A 
ATOM     66  C   UNL A   1      37.507  30.906  29.260  1.00  0.00     0.173 A 
ATOM     67  C   UNL A   1      38.067  30.411  31.496  1.00  0.00     0.173 A 
ATOM     68  F   UNL A   1      37.705  30.888  27.936  1.00  0.00    -0.203 F 
ATOM     69  C   UNL A   1      36.253  31.375  29.693  1.00  0.00     0.198 A 
ATOM     70  C   UNL A   1      36.852  30.956  31.940  1.00  0.00     0.198 A 
ATOM     71  F   UNL A   1      38.727  29.737  32.442  1.00  0.00    -0.203 F 
ATOM     72  F   UNL A   1      35.344  31.770  28.791  1.00  0.00    -0.200 F 
ATOM     73  C   UNL A   1      35.945  31.449  31.035  1.00  0.00     0.200 A 
ATOM     74  F   UNL A   1      36.566  30.973  33.251  1.00  0.00    -0.200 F 
ATOM     75  F   UNL A   1      34.769  31.943  31.451  1.00  0.00    -0.200 F 
ENDBRANCH  51  65
BRANCH  52  76
ATOM     76  C   UNL A   1      47.371  26.963  27.587  1.00  0.00     0.064 A 
ATOM     77  C   UNL A   1      46.749  26.861  26.320  1.00  0.00     0.173 A 
ATOM     78  C   UNL A   1      48.673  26.460  27.693  1.00  0.00     0.173 A 
ATOM     79  F   UNL A   1      45.501  27.327  26.147  1.00  0.00    -0.203 F 
ATOM     80  C   UNL A   1      47.434  26.399  25.197  1.00  0.00     0.198 A 
ATOM     81  C   UNL A   1      49.349  25.968  26.566  1.00  0.00     0.198 A 
ATOM     82  F   UNL A   1      49.350  26.568  28.844  1.00  0.00    -0.203 F 
ATOM     83  F   UNL A   1      46.852  26.455  23.989  1.00  0.00    -0.200 F 
ATOM     84  C   UNL A   1      48.739  25.966  25.318  1.00  0.00     0.200 A 
ATOM     85  F   UNL A   1      50.643  25.622  26.660  1.00  0.00    -0.200 F 
ATOM     86  F   UNL A   1      49.437  25.625  24.225  1.00  0.00    -0.200 F 
ENDBRANCH  52  76
BRANCH  64  87
ATOM     87  C   UNL A   1      44.036  33.390  28.045  1.00  0.00     0.064 A 
ATOM     88  C   UNL A   1      43.778  33.571  26.678  1.00  0.00     0.173 A 
ATOM     89  C   UNL A   1      43.856  34.533  28.864  1.00  0.00     0.173 A 
ATOM     90  F   UNL A   1      43.810  32.543  25.820  1.00  0.00    -0.203 F 
ATOM     91  C   UNL A   1      43.409  34.815  26.161  1.00  0.00     0.198 A 
ATOM     92  C   UNL A   1      43.418  35.752  28.354  1.00  0.00     0.198 A 
ATOM     93  F   UNL A   1      44.058  34.481  30.190  1.00  0.00    -0.203 F 
ATOM     94  F   UNL A   1      43.208  34.949  24.842  1.00  0.00    -0.200 F 
ATOM     95  C   UNL A   1      43.210  35.897  26.999  1.00  0.00     0.200 A 
ATOM     96  F   UNL A   1      43.174  36.774  29.186  1.00  0.00    -0.200 F 
ATOM     97  F   UNL A   1      42.795  37.070  26.503  1.00  0.00    -0.200 F 
ENDBRANCH  64  87
ENDBRANCH  38  39
ENDBRANCH  31  33
ENDBRANCH  30  31
ENDBRANCH  29  30
ENDBRANCH  28  29
ENDBRANCH  27  28
ENDBRANCH  26  27
ENDBRANCH   1  26
TORSDOF 19
ENDMDL
