MODEL 1
REMARK VINA RESULT:     -12.0      0.000      0.000
REMARK SMILES CNC(=O)c1cccc(-c2cnc(O)c(C(=O)OCCOCCOCCOC(=O)c3ccc(-c4c5nc(c(-c6c(F)c(F)c(F)c(F)c6F)c6ccc([nH]6)c(-c6c(F)c(F)c(F)c(F)c6F)c6nc(c(-c7c(F)c(F)c(F)c(F)c7F)c7ccc4[nH]7)C=C6)C=C5)cc3)c2)c1
REMARK SMILES IDX 22 1 21 2 20 3 19 4 18 5 16 6 17 7 15 8 10 9 11 10 93 11
REMARK SMILES IDX 12 12 13 13 9 14 5 15 6 16 94 17 7 18 8 19 3 20 1 21 2 22
REMARK SMILES IDX 4 24 14 25 23 27 24 28 25 29 26 30 27 31 28 32 29 33 30 34
REMARK SMILES IDX 31 35 92 36 32 37 91 38 33 39 34 40 35 41 85 42 36 43 90 44
REMARK SMILES IDX 84 45 86 46 37 47 89 48 83 49 82 50 38 52 70 53 50 54 69 55
REMARK SMILES IDX 51 56 54 57 68 58 87 59 52 60 53 61 67 63 88 64 55 65 39 66
REMARK SMILES IDX 40 67 48 68 41 69 42 70 46 71 49 72 43 73 44 74 47 75 45 76
REMARK SMILES IDX 71 77 72 78 80 79 73 80 74 81 78 82 81 83 75 84 76 85 79 86
REMARK SMILES IDX 77 87 56 88 57 89 65 90 58 91 59 92 63 93 66 94 60 95 61 96
REMARK SMILES IDX 64 97 62 98
REMARK H PARENT 2 23 14 26 86 51 54 62
REMARK Flexibility Score: inf
ROOT
ATOM      1  C   UNL A   1      33.207  28.986  26.924  1.00  0.00     0.188 C 
ENDROOT
BRANCH   1   2
ATOM      2  O   UNL A   1      32.152  28.131  27.334  1.00  0.00    -0.376 OA
BRANCH   2   3
ATOM      3  C   UNL A   1      31.586  27.190  26.435  1.00  0.00     0.202 C 
BRANCH   3   4
ATOM      4  C   UNL A   1      31.607  25.687  26.751  1.00  0.00     0.261 C 
BRANCH   4   5
ATOM      5  O   UNL A   1      30.398  24.974  26.447  1.00  0.00    -0.459 OA
BRANCH   5   6
ATOM      6  C   UNL A   1      30.465  23.629  26.585  1.00  0.00     0.343 C 
ATOM      7  O   UNL A   1      29.877  22.937  27.404  1.00  0.00    -0.246 OA
BRANCH   6   8
ATOM      8  C   UNL A   1      31.162  23.023  25.441  1.00  0.00     0.122 A 
ATOM      9  C   UNL A   1      32.811  21.531  24.466  1.00  0.00     0.001 A 
ATOM     10  C   UNL A   1      32.451  22.087  23.235  1.00  0.00     0.124 A 
ATOM     11  C   UNL A   1      32.152  22.048  25.594  1.00  0.00     0.031 A 
ATOM     12  N   UNL A   1      31.519  23.055  23.061  1.00  0.00    -0.221 NA
ATOM     13  C   UNL A   1      30.875  23.484  24.161  1.00  0.00     0.225 A 
BRANCH   9  14
ATOM     14  C   UNL A   1      33.774  20.418  24.562  1.00  0.00    -0.016 A 
ATOM     15  C   UNL A   1      34.307  18.065  24.173  1.00  0.00     0.040 A 
ATOM     16  C   UNL A   1      35.621  18.275  24.590  1.00  0.00     0.014 A 
ATOM     17  C   UNL A   1      33.386  19.118  24.196  1.00  0.00     0.022 A 
ATOM     18  C   UNL A   1      36.023  19.550  24.983  1.00  0.00     0.001 A 
ATOM     19  C   UNL A   1      35.109  20.612  24.961  1.00  0.00     0.009 A 
BRANCH  15  20
ATOM     20  C   UNL A   1      33.893  16.709  23.753  1.00  0.00     0.251 C 
ATOM     21  C   UNL A   1      32.613  16.202  25.901  1.00  0.00     0.143 C 
ATOM     22  N   UNL A   1      33.211  15.893  24.621  1.00  0.00    -0.355 N 
ATOM     23  H   UNL A   1      33.114  14.958  24.328  1.00  0.00     0.163 HD
ATOM     24  O   UNL A   1      34.159  16.319  22.621  1.00  0.00    -0.269 OA
ENDBRANCH  15  20
ENDBRANCH   9  14
BRANCH  13  25
ATOM     25  O   UNL A   1      29.954  24.462  23.909  1.00  0.00    -0.493 OA
ATOM     26  H   UNL A   1      29.838  24.783  23.036  1.00  0.00     0.295 HD
ENDBRANCH  13  25
ENDBRANCH   6   8
ENDBRANCH   5   6
ENDBRANCH   4   5
ENDBRANCH   3   4
ENDBRANCH   2   3
ENDBRANCH   1   2
BRANCH   1  27
ATOM     27  C   UNL A   1      33.140  30.508  27.173  1.00  0.00     0.188 C 
BRANCH  27  28
ATOM     28  O   UNL A   1      31.901  31.113  26.912  1.00  0.00    -0.376 OA
BRANCH  28  29
ATOM     29  C   UNL A   1      31.786  32.525  26.871  1.00  0.00     0.202 C 
BRANCH  29  30
ATOM     30  C   UNL A   1      32.773  33.535  27.492  1.00  0.00     0.261 C 
BRANCH  30  31
ATOM     31  O   UNL A   1      32.261  34.587  28.312  1.00  0.00    -0.460 OA
BRANCH  31  32
ATOM     32  C   UNL A   1      33.173  35.416  28.869  1.00  0.00     0.338 C 
ATOM     33  O   UNL A   1      33.066  36.623  29.052  1.00  0.00    -0.246 OA
BRANCH  32  34
ATOM     34  C   UNL A   1      34.290  34.608  29.389  1.00  0.00     0.060 A 
ATOM     35  C   UNL A   1      34.082  33.804  30.518  1.00  0.00     0.016 A 
ATOM     36  C   UNL A   1      35.543  34.658  28.775  1.00  0.00     0.016 A 
ATOM     37  C   UNL A   1      35.136  33.061  31.051  1.00  0.00     0.010 A 
ATOM     38  C   UNL A   1      36.602  33.929  29.323  1.00  0.00     0.010 A 
ATOM     39  C   UNL A   1      36.412  33.149  30.480  1.00  0.00    -0.014 A 
BRANCH  39  40
ATOM     40  C   UNL A   1      37.586  32.563  31.174  1.00  0.00     0.031 A 
ATOM     41  C   UNL A   1      38.328  31.436  30.510  1.00  0.00     0.074 A 
ATOM     42  C   UNL A   1      37.985  33.015  32.376  1.00  0.00     0.049 A 
ATOM     43  N   UNL A   1      39.321  30.712  30.959  1.00  0.00    -0.248 NA
ATOM     44  C   UNL A   1      37.884  31.076  29.154  1.00  0.00     0.031 C 
ATOM     45  C   UNL A   1      37.380  34.127  33.104  1.00  0.00     0.029 A 
ATOM     46  N   UNL A   1      38.990  32.574  33.203  1.00  0.00    -0.354 N 
ATOM     47  C   UNL A   1      39.612  29.805  29.949  1.00  0.00     0.074 A 
ATOM     48  C   UNL A   1      38.674  30.049  28.875  1.00  0.00     0.031 C 
ATOM     49  C   UNL A   1      38.014  34.271  34.281  1.00  0.00     0.029 A 
ATOM     50  C   UNL A   1      39.043  33.238  34.403  1.00  0.00     0.049 A 
ATOM     51  H   UNL A   1      39.612  31.852  32.958  1.00  0.00     0.167 HD
ATOM     52  C   UNL A   1      40.580  28.858  29.917  1.00  0.00     0.037 A 
ATOM     53  C   UNL A   1      39.816  33.018  35.486  1.00  0.00     0.037 A 
ATOM     54  C   UNL A   1      41.513  28.616  30.986  1.00  0.00     0.049 A 
ATOM     55  C   UNL A   1      40.834  31.906  35.457  1.00  0.00     0.074 A 
ATOM     56  C   UNL A   1      42.545  27.696  31.038  1.00  0.00     0.029 A 
ATOM     57  N   UNL A   1      41.519  29.292  32.197  1.00  0.00    -0.354 N 
ATOM     58  N   UNL A   1      41.125  31.070  34.489  1.00  0.00    -0.248 NA
ATOM     59  C   UNL A   1      41.637  31.709  36.673  1.00  0.00     0.031 C 
ATOM     60  C   UNL A   1      43.136  27.771  32.303  1.00  0.00     0.029 A 
ATOM     61  C   UNL A   1      42.517  28.786  33.015  1.00  0.00     0.049 A 
ATOM     62  H   UNL A   1      40.906  30.023  32.440  1.00  0.00     0.167 HD
ATOM     63  C   UNL A   1      42.160  30.274  34.965  1.00  0.00     0.074 A 
ATOM     64  C   UNL A   1      42.456  30.734  36.305  1.00  0.00     0.031 C 
ATOM     65  C   UNL A   1      42.810  29.258  34.346  1.00  0.00     0.037 A 
BRANCH  52  66
ATOM     66  C   UNL A   1      40.658  27.986  28.696  1.00  0.00     0.064 A 
ATOM     67  C   UNL A   1      39.939  26.785  28.597  1.00  0.00     0.173 A 
ATOM     68  C   UNL A   1      41.437  28.378  27.597  1.00  0.00     0.173 A 
ATOM     69  F   UNL A   1      39.190  26.358  29.625  1.00  0.00    -0.203 F 
ATOM     70  C   UNL A   1      40.019  25.996  27.452  1.00  0.00     0.198 A 
ATOM     71  C   UNL A   1      41.488  27.602  26.442  1.00  0.00     0.198 A 
ATOM     72  F   UNL A   1      42.140  29.519  27.637  1.00  0.00    -0.203 F 
ATOM     73  F   UNL A   1      39.363  24.828  27.399  1.00  0.00    -0.200 F 
ATOM     74  C   UNL A   1      40.787  26.409  26.373  1.00  0.00     0.200 A 
ATOM     75  F   UNL A   1      42.218  28.011  25.395  1.00  0.00    -0.200 F 
ATOM     76  F   UNL A   1      40.855  25.652  25.269  1.00  0.00    -0.200 F 
ENDBRANCH  52  66
BRANCH  53  77
ATOM     77  C   UNL A   1      39.647  33.857  36.703  1.00  0.00     0.064 A 
ATOM     78  C   UNL A   1      38.837  33.436  37.766  1.00  0.00     0.173 A 
ATOM     79  C   UNL A   1      40.270  35.109  36.814  1.00  0.00     0.173 A 
ATOM     80  F   UNL A   1      38.193  32.263  37.694  1.00  0.00    -0.203 F 
ATOM     81  C   UNL A   1      38.640  34.244  38.885  1.00  0.00     0.198 A 
ATOM     82  C   UNL A   1      40.098  35.901  37.947  1.00  0.00     0.198 A 
ATOM     83  F   UNL A   1      41.049  35.563  35.822  1.00  0.00    -0.203 F 
ATOM     84  F   UNL A   1      37.817  33.842  39.863  1.00  0.00    -0.200 F 
ATOM     85  C   UNL A   1      39.277  35.473  38.977  1.00  0.00     0.200 A 
ATOM     86  F   UNL A   1      40.722  37.085  38.036  1.00  0.00    -0.200 F 
ATOM     87  F   UNL A   1      39.087  36.248  40.054  1.00  0.00    -0.200 F 
ENDBRANCH  53  77
BRANCH  65  88
ATOM     88  C   UNL A   1      43.938  28.597  35.087  1.00  0.00     0.064 A 
ATOM     89  C   UNL A   1      45.255  29.073  35.009  1.00  0.00     0.173 A 
ATOM     90  C   UNL A   1      43.687  27.502  35.929  1.00  0.00     0.173 A 
ATOM     91  F   UNL A   1      45.553  30.110  34.212  1.00  0.00    -0.203 F 
ATOM     92  C   UNL A   1      46.282  28.462  35.726  1.00  0.00     0.198 A 
ATOM     93  C   UNL A   1      44.710  26.915  36.670  1.00  0.00     0.198 A 
ATOM     94  F   UNL A   1      42.445  27.010  36.049  1.00  0.00    -0.203 F 
ATOM     95  F   UNL A   1      47.541  28.905  35.598  1.00  0.00    -0.200 F 
ATOM     96  C   UNL A   1      46.007  27.390  36.561  1.00  0.00     0.200 A 
ATOM     97  F   UNL A   1      44.439  25.890  37.490  1.00  0.00    -0.200 F 
ATOM     98  F   UNL A   1      46.995  26.810  37.258  1.00  0.00    -0.200 F 
ENDBRANCH  65  88
ENDBRANCH  39  40
ENDBRANCH  32  34
ENDBRANCH  31  32
ENDBRANCH  30  31
ENDBRANCH  29  30
ENDBRANCH  28  29
ENDBRANCH  27  28
ENDBRANCH   1  27
TORSDOF 20
ENDMDL
MODEL 2
REMARK VINA RESULT:     -11.8      0.621      7.299
REMARK SMILES CNC(=O)c1cccc(-c2cnc(O)c(C(=O)OCCOCCOCCOC(=O)c3ccc(-c4c5nc(c(-c6c(F)c(F)c(F)c(F)c6F)c6ccc([nH]6)c(-c6c(F)c(F)c(F)c(F)c6F)c6nc(c(-c7c(F)c(F)c(F)c(F)c7F)c7ccc4[nH]7)C=C6)C=C5)cc3)c2)c1
REMARK SMILES IDX 22 1 21 2 20 3 19 4 18 5 16 6 17 7 15 8 10 9 11 10 93 11
REMARK SMILES IDX 12 12 13 13 9 14 5 15 6 16 94 17 7 18 8 19 3 20 1 21 2 22
REMARK SMILES IDX 4 24 14 25 23 27 24 28 25 29 26 30 27 31 28 32 29 33 30 34
REMARK SMILES IDX 31 35 92 36 32 37 91 38 33 39 34 40 35 41 85 42 36 43 90 44
REMARK SMILES IDX 84 45 86 46 37 47 89 48 83 49 82 50 38 52 70 53 50 54 69 55
REMARK SMILES IDX 51 56 54 57 68 58 87 59 52 60 53 61 67 63 88 64 55 65 39 66
REMARK SMILES IDX 40 67 48 68 41 69 42 70 46 71 49 72 43 73 44 74 47 75 45 76
REMARK SMILES IDX 71 77 72 78 80 79 73 80 74 81 78 82 81 83 75 84 76 85 79 86
REMARK SMILES IDX 77 87 56 88 57 89 65 90 58 91 59 92 63 93 66 94 60 95 61 96
REMARK SMILES IDX 64 97 62 98
REMARK H PARENT 2 23 14 26 86 51 54 62
REMARK Flexibility Score: inf
ROOT
ATOM      1  C   UNL A   1      33.327  29.008  27.068  1.00  0.00     0.188 C 
ENDROOT
BRANCH   1   2
ATOM      2  O   UNL A   1      32.272  28.207  27.577  1.00  0.00    -0.376 OA
BRANCH   2   3
ATOM      3  C   UNL A   1      31.494  27.394  26.713  1.00  0.00     0.202 C 
BRANCH   3   4
ATOM      4  C   UNL A   1      31.658  25.866  26.708  1.00  0.00     0.261 C 
BRANCH   4   5
ATOM      5  O   UNL A   1      30.491  25.119  26.332  1.00  0.00    -0.459 OA
BRANCH   5   6
ATOM      6  C   UNL A   1      30.563  23.784  26.538  1.00  0.00     0.343 C 
ATOM      7  O   UNL A   1      30.017  23.139  27.422  1.00  0.00    -0.246 OA
BRANCH   6   8
ATOM      8  C   UNL A   1      31.201  23.114  25.395  1.00  0.00     0.122 A 
ATOM      9  C   UNL A   1      32.784  21.552  24.420  1.00  0.00     0.001 A 
ATOM     10  C   UNL A   1      32.377  22.056  23.182  1.00  0.00     0.124 A 
ATOM     11  C   UNL A   1      32.183  22.131  25.550  1.00  0.00     0.031 A 
ATOM     12  N   UNL A   1      31.452  23.030  23.003  1.00  0.00    -0.221 NA
ATOM     13  C   UNL A   1      30.864  23.520  24.108  1.00  0.00     0.225 A 
BRANCH   9  14
ATOM     14  C   UNL A   1      33.734  20.430  24.527  1.00  0.00    -0.016 A 
ATOM     15  C   UNL A   1      34.238  18.066  24.168  1.00  0.00     0.040 A 
ATOM     16  C   UNL A   1      35.557  18.266  24.575  1.00  0.00     0.014 A 
ATOM     17  C   UNL A   1      33.329  19.129  24.181  1.00  0.00     0.022 A 
ATOM     18  C   UNL A   1      35.975  19.542  24.947  1.00  0.00     0.001 A 
ATOM     19  C   UNL A   1      35.074  20.614  24.915  1.00  0.00     0.009 A 
BRANCH  15  20
ATOM     20  C   UNL A   1      33.806  16.708  23.770  1.00  0.00     0.251 C 
ATOM     21  C   UNL A   1      32.257  16.382  25.771  1.00  0.00     0.143 C 
ATOM     22  N   UNL A   1      32.984  15.974  24.589  1.00  0.00    -0.355 N 
ATOM     23  H   UNL A   1      32.874  15.030  24.334  1.00  0.00     0.163 HD
ATOM     24  O   UNL A   1      34.183  16.244  22.699  1.00  0.00    -0.269 OA
ENDBRANCH  15  20
ENDBRANCH   9  14
BRANCH  13  25
ATOM     25  O   UNL A   1      29.946  24.499  23.851  1.00  0.00    -0.493 OA
ATOM     26  H   UNL A   1      29.436  24.859  24.551  1.00  0.00     0.295 HD
ENDBRANCH  13  25
ENDBRANCH   6   8
ENDBRANCH   5   6
ENDBRANCH   4   5
ENDBRANCH   3   4
ENDBRANCH   2   3
ENDBRANCH   1   2
BRANCH   1  27
ATOM     27  C   UNL A   1      33.281  30.547  27.175  1.00  0.00     0.188 C 
BRANCH  27  28
ATOM     28  O   UNL A   1      32.025  31.134  26.960  1.00  0.00    -0.376 OA
BRANCH  28  29
ATOM     29  C   UNL A   1      31.896  32.542  26.874  1.00  0.00     0.202 C 
BRANCH  29  30
ATOM     30  C   UNL A   1      32.875  33.581  27.460  1.00  0.00     0.261 C 
BRANCH  30  31
ATOM     31  O   UNL A   1      32.362  34.618  28.299  1.00  0.00    -0.460 OA
BRANCH  31  32
ATOM     32  C   UNL A   1      33.265  35.295  29.044  1.00  0.00     0.338 C 
ATOM     33  O   UNL A   1      33.171  36.441  29.465  1.00  0.00    -0.246 OA
BRANCH  32  34
ATOM     34  C   UNL A   1      34.347  34.371  29.427  1.00  0.00     0.060 A 
ATOM     35  C   UNL A   1      34.073  33.337  30.332  1.00  0.00     0.016 A 
ATOM     36  C   UNL A   1      35.633  34.536  28.907  1.00  0.00     0.016 A 
ATOM     37  C   UNL A   1      35.092  32.475  30.739  1.00  0.00     0.010 A 
ATOM     38  C   UNL A   1      36.657  33.684  29.332  1.00  0.00     0.010 A 
ATOM     39  C   UNL A   1      36.399  32.667  30.271  1.00  0.00    -0.014 A 
BRANCH  39  40
ATOM     40  C   UNL A   1      37.529  31.920  30.877  1.00  0.00     0.031 A 
ATOM     41  C   UNL A   1      37.992  32.307  32.255  1.00  0.00     0.074 A 
ATOM     42  C   UNL A   1      38.140  30.920  30.218  1.00  0.00     0.049 A 
ATOM     43  N   UNL A   1      39.008  31.863  32.949  1.00  0.00    -0.248 NA
ATOM     44  C   UNL A   1      37.201  33.342  32.939  1.00  0.00     0.031 C 
ATOM     45  C   UNL A   1      37.760  30.420  28.900  1.00  0.00     0.029 A 
ATOM     46  N   UNL A   1      39.228  30.158  30.569  1.00  0.00    -0.354 N 
ATOM     47  C   UNL A   1      38.986  32.570  34.143  1.00  0.00     0.074 A 
ATOM     48  C   UNL A   1      37.874  33.493  34.070  1.00  0.00     0.031 C 
ATOM     49  C   UNL A   1      38.615  29.445  28.543  1.00  0.00     0.029 A 
ATOM     50  C   UNL A   1      39.621  29.280  29.591  1.00  0.00     0.049 A 
ATOM     51  H   UNL A   1      39.682  30.235  31.440  1.00  0.00     0.167 HD
ATOM     52  C   UNL A   1      39.814  32.454  35.209  1.00  0.00     0.037 A 
ATOM     53  C   UNL A   1      40.688  28.457  29.538  1.00  0.00     0.037 A 
ATOM     54  C   UNL A   1      40.920  31.535  35.281  1.00  0.00     0.049 A 
ATOM     55  C   UNL A   1      41.642  28.402  30.705  1.00  0.00     0.074 A 
ATOM     56  C   UNL A   1      41.801  31.327  36.327  1.00  0.00     0.029 A 
ATOM     57  N   UNL A   1      41.302  30.679  34.259  1.00  0.00    -0.354 N 
ATOM     58  N   UNL A   1      41.600  29.051  31.844  1.00  0.00    -0.248 NA
ATOM     59  C   UNL A   1      42.792  27.495  30.581  1.00  0.00     0.031 C 
ATOM     60  C   UNL A   1      42.755  30.390  35.915  1.00  0.00     0.029 A 
ATOM     61  C   UNL A   1      42.427  29.964  34.639  1.00  0.00     0.049 A 
ATOM     62  H   UNL A   1      40.843  30.592  33.393  1.00  0.00     0.167 HD
ATOM     63  C   UNL A   1      42.692  28.609  32.580  1.00  0.00     0.074 A 
ATOM     64  C   UNL A   1      43.374  27.626  31.764  1.00  0.00     0.031 C 
ATOM     65  C   UNL A   1      43.093  28.980  33.821  1.00  0.00     0.037 A 
BRANCH  52  66
ATOM     66  C   UNL A   1      39.577  33.371  36.375  1.00  0.00     0.064 A 
ATOM     67  C   UNL A   1      40.187  34.631  36.464  1.00  0.00     0.173 A 
ATOM     68  C   UNL A   1      38.696  32.995  37.401  1.00  0.00     0.173 A 
ATOM     69  F   UNL A   1      41.048  35.033  35.516  1.00  0.00    -0.203 F 
ATOM     70  C   UNL A   1      39.947  35.468  37.549  1.00  0.00     0.198 A 
ATOM     71  C   UNL A   1      38.433  33.848  38.469  1.00  0.00     0.198 A 
ATOM     72  F   UNL A   1      38.081  31.803  37.363  1.00  0.00    -0.203 F 
ATOM     73  F   UNL A   1      40.579  36.646  37.638  1.00  0.00    -0.200 F 
ATOM     74  C   UNL A   1      39.063  35.080  38.547  1.00  0.00     0.200 A 
ATOM     75  F   UNL A   1      37.568  33.478  39.423  1.00  0.00    -0.200 F 
ATOM     76  F   UNL A   1      38.826  35.892  39.587  1.00  0.00    -0.200 F 
ENDBRANCH  52  66
BRANCH  53  77
ATOM     77  C   UNL A   1      40.927  27.626  28.328  1.00  0.00     0.064 A 
ATOM     78  C   UNL A   1      41.734  28.089  27.279  1.00  0.00     0.173 A 
ATOM     79  C   UNL A   1      40.329  26.365  28.182  1.00  0.00     0.173 A 
ATOM     80  F   UNL A   1      42.300  29.301  27.355  1.00  0.00    -0.203 F 
ATOM     81  C   UNL A   1      41.918  27.331  26.124  1.00  0.00     0.198 A 
ATOM     82  C   UNL A   1      40.540  25.595  27.040  1.00  0.00     0.198 A 
ATOM     83  F   UNL A   1      39.541  25.878  29.151  1.00  0.00    -0.203 F 
ATOM     84  F   UNL A   1      42.649  27.820  25.113  1.00  0.00    -0.200 F 
ATOM     85  C   UNL A   1      41.327  26.081  26.009  1.00  0.00     0.200 A 
ATOM     86  F   UNL A   1      39.973  24.384  26.936  1.00  0.00    -0.200 F 
ATOM     87  F   UNL A   1      41.505  25.354  24.897  1.00  0.00    -0.200 F 
ENDBRANCH  53  77
BRANCH  65  88
ATOM     88  C   UNL A   1      44.298  28.292  34.401  1.00  0.00     0.064 A 
ATOM     89  C   UNL A   1      44.189  27.106  35.141  1.00  0.00     0.173 A 
ATOM     90  C   UNL A   1      45.585  28.801  34.166  1.00  0.00     0.173 A 
ATOM     91  F   UNL A   1      42.982  26.581  35.403  1.00  0.00    -0.203 F 
ATOM     92  C   UNL A   1      45.321  26.470  35.646  1.00  0.00     0.198 A 
ATOM     93  C   UNL A   1      46.716  28.145  34.644  1.00  0.00     0.198 A 
ATOM     94  F   UNL A   1      45.748  29.928  33.457  1.00  0.00    -0.203 F 
ATOM     95  F   UNL A   1      45.189  25.364  36.392  1.00  0.00    -0.200 F 
ATOM     96  C   UNL A   1      46.583  26.985  35.390  1.00  0.00     0.200 A 
ATOM     97  F   UNL A   1      47.935  28.635  34.380  1.00  0.00    -0.200 F 
ATOM     98  F   UNL A   1      47.671  26.366  35.868  1.00  0.00    -0.200 F 
ENDBRANCH  65  88
ENDBRANCH  39  40
ENDBRANCH  32  34
ENDBRANCH  31  32
ENDBRANCH  30  31
ENDBRANCH  29  30
ENDBRANCH  28  29
ENDBRANCH  27  28
ENDBRANCH   1  27
TORSDOF 20
ENDMDL
MODEL 3
REMARK VINA RESULT:     -11.7      3.710      9.470
REMARK SMILES CNC(=O)c1cccc(-c2cnc(O)c(C(=O)OCCOCCOCCOC(=O)c3ccc(-c4c5nc(c(-c6c(F)c(F)c(F)c(F)c6F)c6ccc([nH]6)c(-c6c(F)c(F)c(F)c(F)c6F)c6nc(c(-c7c(F)c(F)c(F)c(F)c7F)c7ccc4[nH]7)C=C6)C=C5)cc3)c2)c1
REMARK SMILES IDX 22 1 21 2 20 3 19 4 18 5 16 6 17 7 15 8 10 9 11 10 93 11
REMARK SMILES IDX 12 12 13 13 9 14 5 15 6 16 94 17 7 18 8 19 3 20 1 21 2 22
REMARK SMILES IDX 4 24 14 25 23 27 24 28 25 29 26 30 27 31 28 32 29 33 30 34
REMARK SMILES IDX 31 35 92 36 32 37 91 38 33 39 34 40 35 41 85 42 36 43 90 44
REMARK SMILES IDX 84 45 86 46 37 47 89 48 83 49 82 50 38 52 70 53 50 54 69 55
REMARK SMILES IDX 51 56 54 57 68 58 87 59 52 60 53 61 67 63 88 64 55 65 39 66
REMARK SMILES IDX 40 67 48 68 41 69 42 70 46 71 49 72 43 73 44 74 47 75 45 76
REMARK SMILES IDX 71 77 72 78 80 79 73 80 74 81 78 82 81 83 75 84 76 85 79 86
REMARK SMILES IDX 77 87 56 88 57 89 65 90 58 91 59 92 63 93 66 94 60 95 61 96
REMARK SMILES IDX 64 97 62 98
REMARK H PARENT 2 23 14 26 86 51 54 62
REMARK Flexibility Score: inf
ROOT
ATOM      1  C   UNL A   1      40.841  20.306  26.436  1.00  0.00     0.188 C 
ENDROOT
BRANCH   1   2
ATOM      2  O   UNL A   1      39.782  21.211  26.706  1.00  0.00    -0.376 OA
BRANCH   2   3
ATOM      3  C   UNL A   1      38.832  21.540  25.704  1.00  0.00     0.202 C 
BRANCH   3   4
ATOM      4  C   UNL A   1      37.468  22.139  26.076  1.00  0.00     0.261 C 
BRANCH   4   5
ATOM      5  O   UNL A   1      36.522  22.241  25.000  1.00  0.00    -0.459 OA
BRANCH   5   6
ATOM      6  C   UNL A   1      35.387  21.520  25.153  1.00  0.00     0.343 C 
ATOM      7  O   UNL A   1      35.251  20.313  25.014  1.00  0.00    -0.246 OA
BRANCH   6   8
ATOM      8  C   UNL A   1      34.330  22.335  25.770  1.00  0.00     0.122 A 
ATOM      9  C   UNL A   1      33.139  24.424  26.108  1.00  0.00     0.001 A 
ATOM     10  C   UNL A   1      32.413  23.745  27.089  1.00  0.00     0.124 A 
ATOM     11  C   UNL A   1      34.142  23.685  25.458  1.00  0.00     0.031 A 
ATOM     12  N   UNL A   1      32.595  22.447  27.434  1.00  0.00    -0.221 NA
ATOM     13  C   UNL A   1      33.529  21.762  26.753  1.00  0.00     0.225 A 
BRANCH   9  14
ATOM     14  C   UNL A   1      32.821  25.814  25.729  1.00  0.00    -0.016 A 
ATOM     15  C   UNL A   1      32.931  27.618  24.086  1.00  0.00     0.040 A 
ATOM     16  C   UNL A   1      32.121  28.423  24.888  1.00  0.00     0.014 A 
ATOM     17  C   UNL A   1      33.306  26.343  24.522  1.00  0.00     0.022 A 
ATOM     18  C   UNL A   1      31.650  27.930  26.102  1.00  0.00     0.001 A 
ATOM     19  C   UNL A   1      31.990  26.635  26.514  1.00  0.00     0.009 A 
BRANCH  15  20
ATOM     20  C   UNL A   1      33.421  28.150  22.796  1.00  0.00     0.251 C 
ATOM     21  C   UNL A   1      32.352  26.310  21.388  1.00  0.00     0.143 C 
ATOM     22  N   UNL A   1      33.199  27.456  21.632  1.00  0.00    -0.355 N 
ATOM     23  H   UNL A   1      33.691  27.789  20.846  1.00  0.00     0.163 HD
ATOM     24  O   UNL A   1      34.023  29.219  22.771  1.00  0.00    -0.269 OA
ENDBRANCH  15  20
ENDBRANCH   9  14
BRANCH  13  25
ATOM     25  O   UNL A   1      33.660  20.464  27.157  1.00  0.00    -0.493 OA
ATOM     26  H   UNL A   1      32.897  19.940  27.309  1.00  0.00     0.295 HD
ENDBRANCH  13  25
ENDBRANCH   6   8
ENDBRANCH   5   6
ENDBRANCH   4   5
ENDBRANCH   3   4
ENDBRANCH   2   3
ENDBRANCH   1   2
BRANCH   1  27
ATOM     27  C   UNL A   1      42.314  20.738  26.588  1.00  0.00     0.188 C 
BRANCH  27  28
ATOM     28  O   UNL A   1      43.190  20.271  25.596  1.00  0.00    -0.376 OA
BRANCH  28  29
ATOM     29  C   UNL A   1      44.419  20.933  25.352  1.00  0.00     0.202 C 
BRANCH  29  30
ATOM     30  C   UNL A   1      44.973  22.137  26.143  1.00  0.00     0.261 C 
BRANCH  30  31
ATOM     31  O   UNL A   1      44.848  23.447  25.586  1.00  0.00    -0.460 OA
BRANCH  31  32
ATOM     32  C   UNL A   1      43.629  23.788  25.112  1.00  0.00     0.338 C 
ATOM     33  O   UNL A   1      43.034  23.289  24.164  1.00  0.00    -0.246 OA
BRANCH  32  34
ATOM     34  C   UNL A   1      43.025  24.772  26.027  1.00  0.00     0.060 A 
ATOM     35  C   UNL A   1      43.547  26.071  26.072  1.00  0.00     0.016 A 
ATOM     36  C   UNL A   1      41.958  24.408  26.851  1.00  0.00     0.016 A 
ATOM     37  C   UNL A   1      43.016  27.008  26.960  1.00  0.00     0.010 A 
ATOM     38  C   UNL A   1      41.442  25.342  27.754  1.00  0.00     0.010 A 
ATOM     39  C   UNL A   1      41.986  26.637  27.834  1.00  0.00    -0.014 A 
BRANCH  39  40
ATOM     40  C   UNL A   1      41.582  27.539  28.941  1.00  0.00     0.031 A 
ATOM     41  C   UNL A   1      42.349  27.482  30.234  1.00  0.00     0.074 A 
ATOM     42  C   UNL A   1      40.550  28.391  28.809  1.00  0.00     0.049 A 
ATOM     43  N   UNL A   1      42.128  28.104  31.363  1.00  0.00    -0.248 NA
ATOM     44  C   UNL A   1      43.522  26.594  30.254  1.00  0.00     0.031 C 
ATOM     45  C   UNL A   1      39.757  28.576  27.597  1.00  0.00     0.029 A 
ATOM     46  N   UNL A   1      39.983  29.250  29.719  1.00  0.00    -0.354 N 
ATOM     47  C   UNL A   1      43.125  27.677  32.230  1.00  0.00     0.074 A 
ATOM     48  C   UNL A   1      43.935  26.721  31.506  1.00  0.00     0.031 C 
ATOM     49  C   UNL A   1      38.791  29.478  27.844  1.00  0.00     0.029 A 
ATOM     50  C   UNL A   1      38.877  29.906  29.240  1.00  0.00     0.049 A 
ATOM     51  H   UNL A   1      40.338  29.383  30.628  1.00  0.00     0.167 HD
ATOM     52  C   UNL A   1      43.349  28.053  33.511  1.00  0.00     0.037 A 
ATOM     53  C   UNL A   1      38.017  30.734  29.866  1.00  0.00     0.037 A 
ATOM     54  C   UNL A   1      42.542  29.004  34.230  1.00  0.00     0.049 A 
ATOM     55  C   UNL A   1      38.242  31.078  31.318  1.00  0.00     0.074 A 
ATOM     56  C   UNL A   1      42.704  29.469  35.523  1.00  0.00     0.029 A 
ATOM     57  N   UNL A   1      41.414  29.628  33.719  1.00  0.00    -0.354 N 
ATOM     58  N   UNL A   1      39.203  30.694  32.124  1.00  0.00    -0.248 NA
ATOM     59  C   UNL A   1      37.263  31.977  31.947  1.00  0.00     0.031 C 
ATOM     60  C   UNL A   1      41.638  30.326  35.816  1.00  0.00     0.029 A 
ATOM     61  C   UNL A   1      40.851  30.448  34.683  1.00  0.00     0.049 A 
ATOM     62  H   UNL A   1      41.065  29.506  32.807  1.00  0.00     0.167 HD
ATOM     63  C   UNL A   1      38.963  31.326  33.338  1.00  0.00     0.074 A 
ATOM     64  C   UNL A   1      37.772  32.130  33.161  1.00  0.00     0.031 C 
ATOM     65  C   UNL A   1      39.668  31.252  34.493  1.00  0.00     0.037 A 
BRANCH  52  66
ATOM     66  C   UNL A   1      44.497  27.408  34.234  1.00  0.00     0.064 A 
ATOM     67  C   UNL A   1      45.760  28.015  34.310  1.00  0.00     0.173 A 
ATOM     68  C   UNL A   1      44.319  26.179  34.889  1.00  0.00     0.173 A 
ATOM     69  F   UNL A   1      45.987  29.183  33.690  1.00  0.00    -0.203 F 
ATOM     70  C   UNL A   1      46.808  27.404  34.993  1.00  0.00     0.198 A 
ATOM     71  C   UNL A   1      45.361  25.587  35.597  1.00  0.00     0.198 A 
ATOM     72  F   UNL A   1      43.131  25.558  34.851  1.00  0.00    -0.203 F 
ATOM     73  F   UNL A   1      48.018  27.978  35.011  1.00  0.00    -0.200 F 
ATOM     74  C   UNL A   1      46.605  26.195  35.643  1.00  0.00     0.200 A 
ATOM     75  F   UNL A   1      45.158  24.427  36.237  1.00  0.00    -0.200 F 
ATOM     76  F   UNL A   1      47.613  25.612  36.307  1.00  0.00    -0.200 F 
ENDBRANCH  52  66
BRANCH  53  77
ATOM     77  C   UNL A   1      36.848  31.287  29.131  1.00  0.00     0.064 A 
ATOM     78  C   UNL A   1      36.808  32.632  28.739  1.00  0.00     0.173 A 
ATOM     79  C   UNL A   1      35.735  30.488  28.832  1.00  0.00     0.173 A 
ATOM     80  F   UNL A   1      37.833  33.445  29.031  1.00  0.00    -0.203 F 
ATOM     81  C   UNL A   1      35.692  33.160  28.094  1.00  0.00     0.198 A 
ATOM     82  C   UNL A   1      34.633  31.010  28.158  1.00  0.00     0.198 A 
ATOM     83  F   UNL A   1      35.717  29.196  29.192  1.00  0.00    -0.203 F 
ATOM     84  F   UNL A   1      35.657  34.463  27.779  1.00  0.00    -0.200 F 
ATOM     85  C   UNL A   1      34.608  32.347  27.797  1.00  0.00     0.200 A 
ATOM     86  F   UNL A   1      33.590  30.218  27.866  1.00  0.00    -0.200 F 
ATOM     87  F   UNL A   1      33.535  32.857  27.176  1.00  0.00    -0.200 F 
ENDBRANCH  53  77
BRANCH  65  88
ATOM     88  C   UNL A   1      39.204  32.093  35.650  1.00  0.00     0.064 A 
ATOM     89  C   UNL A   1      38.357  31.582  36.644  1.00  0.00     0.173 A 
ATOM     90  C   UNL A   1      39.656  33.415  35.790  1.00  0.00     0.173 A 
ATOM     91  F   UNL A   1      37.888  30.329  36.554  1.00  0.00    -0.203 F 
ATOM     92  C   UNL A   1      37.960  32.372  37.722  1.00  0.00     0.198 A 
ATOM     93  C   UNL A   1      39.284  34.190  36.885  1.00  0.00     0.198 A 
ATOM     94  F   UNL A   1      40.474  33.952  34.873  1.00  0.00    -0.203 F 
ATOM     95  F   UNL A   1      37.112  31.877  38.635  1.00  0.00    -0.200 F 
ATOM     96  C   UNL A   1      38.430  33.670  37.846  1.00  0.00     0.200 A 
ATOM     97  F   UNL A   1      39.754  35.438  37.013  1.00  0.00    -0.200 F 
ATOM     98  F   UNL A   1      38.056  34.424  38.889  1.00  0.00    -0.200 F 
ENDBRANCH  65  88
ENDBRANCH  39  40
ENDBRANCH  32  34
ENDBRANCH  31  32
ENDBRANCH  30  31
ENDBRANCH  29  30
ENDBRANCH  28  29
ENDBRANCH  27  28
ENDBRANCH   1  27
TORSDOF 20
ENDMDL
