MODEL 1
REMARK VINA RESULT:     -10.2      0.000      0.000
REMARK SMILES CC[C@@H]([NH3+])C(=O)N1CC[C@H](C(=O)OCCOCCOCCOC(=O)c2ccc(-c3c4nc(c(-c5c(F)c(F)c(F)c(F)c5F)c5ccc([nH]5)c(-c5c(F)c(F)c(F)c(F)c5F)c5nc(c(-c6c(F)c(F)c(F)c(F)c6F)c6ccc3[nH]6)C=C5)C=C4)cc2)[C@@H]1C
REMARK SMILES IDX 17 1 16 2 15 3 14 4 13 5 11 6 12 7 10 8 7 9 8 10 88 11 9 12
REMARK SMILES IDX 89 13 5 14 6 15 3 16 2 17 1 18 4 19 18 23 19 24 20 25 21 26
REMARK SMILES IDX 22 27 23 28 24 29 25 30 26 31 87 32 27 33 86 34 28 35 29 36
REMARK SMILES IDX 30 37 80 38 31 39 85 40 79 41 81 42 32 43 84 44 78 45 77 46
REMARK SMILES IDX 33 48 65 49 45 50 64 51 46 52 49 53 63 54 82 55 47 56 48 57
REMARK SMILES IDX 62 59 83 60 50 61 34 62 35 63 43 64 36 65 37 66 41 67 44 68
REMARK SMILES IDX 38 69 39 70 42 71 40 72 66 73 67 74 75 75 68 76 69 77 73 78
REMARK SMILES IDX 76 79 70 80 71 81 74 82 72 83 51 84 52 85 60 86 53 87 54 88
REMARK SMILES IDX 58 89 61 90 55 91 56 92 59 93 57 94
REMARK H PARENT 4 20 4 21 4 22 81 47 49 58
REMARK Flexibility Score: inf
ROOT
ATOM      1  C   UNL A   1      34.055  34.686  29.135  1.00  0.00     0.188 C 
ENDROOT
BRANCH   1   2
ATOM      2  O   UNL A   1      33.476  33.643  28.379  1.00  0.00    -0.376 OA
BRANCH   2   3
ATOM      3  C   UNL A   1      34.264  32.507  28.032  1.00  0.00     0.202 C 
BRANCH   3   4
ATOM      4  C   UNL A   1      33.642  31.162  27.633  1.00  0.00     0.261 C 
BRANCH   4   5
ATOM      5  O   UNL A   1      32.601  31.265  26.649  1.00  0.00    -0.463 OA
BRANCH   5   6
ATOM      6  C   UNL A   1      32.111  30.079  26.185  1.00  0.00     0.311 C 
ATOM      7  O   UNL A   1      31.291  29.976  25.283  1.00  0.00    -0.252 OA
BRANCH   6   8
ATOM      8  C   UNL A   1      32.719  28.903  26.934  1.00  0.00     0.123 C 
ATOM      9  N   UNL A   1      32.467  26.722  25.981  1.00  0.00    -0.334 N 
ATOM     10  C   UNL A   1      31.200  27.103  26.579  1.00  0.00     0.121 C 
ATOM     11  C   UNL A   1      33.431  27.821  26.073  1.00  0.00     0.096 C 
ATOM     12  C   UNL A   1      31.596  28.132  27.625  1.00  0.00     0.039 C 
ATOM     13  C   UNL A   1      33.891  28.287  24.689  1.00  0.00     0.032 C 
BRANCH   9  14
ATOM     14  C   UNL A   1      32.636  25.421  25.555  1.00  0.00     0.280 C 
ATOM     15  O   UNL A   1      31.737  24.861  24.913  1.00  0.00    -0.268 OA
BRANCH  14  16
ATOM     16  C   UNL A   1      33.824  24.552  26.065  1.00  0.00     0.270 C 
BRANCH  16  17
ATOM     17  C   UNL A   1      33.610  23.052  26.273  1.00  0.00     0.072 C 
ATOM     18  C   UNL A   1      33.552  22.652  27.745  1.00  0.00     0.011 C 
ENDBRANCH  16  17
BRANCH  16  19
ATOM     19  N   UNL A   1      34.999  24.818  25.200  1.00  0.00    -0.347 N 
ATOM     20  H   UNL A   1      35.798  24.282  25.537  1.00  0.00     0.345 HD
ATOM     21  H   UNL A   1      35.222  25.813  25.226  1.00  0.00     0.345 HD
ATOM     22  H   UNL A   1      34.783  24.543  24.242  1.00  0.00     0.345 HD
ENDBRANCH  16  19
ENDBRANCH  14  16
ENDBRANCH   9  14
ENDBRANCH   6   8
ENDBRANCH   5   6
ENDBRANCH   4   5
ENDBRANCH   3   4
ENDBRANCH   2   3
ENDBRANCH   1   2
BRANCH   1  23
ATOM     23  C   UNL A   1      33.298  35.249  30.354  1.00  0.00     0.188 C 
BRANCH  23  24
ATOM     24  O   UNL A   1      33.978  35.927  31.388  1.00  0.00    -0.376 OA
BRANCH  24  25
ATOM     25  C   UNL A   1      34.363  35.200  32.544  1.00  0.00     0.202 C 
BRANCH  25  26
ATOM     26  C   UNL A   1      35.795  34.671  32.732  1.00  0.00     0.261 C 
BRANCH  26  27
ATOM     27  O   UNL A   1      35.903  33.301  33.151  1.00  0.00    -0.460 OA
BRANCH  27  28
ATOM     28  C   UNL A   1      35.350  32.396  32.303  1.00  0.00     0.338 C 
ATOM     29  O   UNL A   1      34.189  32.328  31.944  1.00  0.00    -0.246 OA
BRANCH  28  30
ATOM     30  C   UNL A   1      36.418  31.585  31.684  1.00  0.00     0.060 A 
ATOM     31  C   UNL A   1      37.382  31.005  32.521  1.00  0.00     0.016 A 
ATOM     32  C   UNL A   1      36.511  31.456  30.300  1.00  0.00     0.016 A 
ATOM     33  C   UNL A   1      38.459  30.307  31.974  1.00  0.00     0.010 A 
ATOM     34  C   UNL A   1      37.608  30.784  29.751  1.00  0.00     0.010 A 
ATOM     35  C   UNL A   1      38.600  30.232  30.583  1.00  0.00    -0.014 A 
BRANCH  35  36
ATOM     36  C   UNL A   1      39.874  29.750  29.998  1.00  0.00     0.031 A 
ATOM     37  C   UNL A   1      41.015  30.722  29.864  1.00  0.00     0.074 A 
ATOM     38  C   UNL A   1      40.024  28.475  29.599  1.00  0.00     0.049 A 
ATOM     39  N   UNL A   1      42.187  30.559  29.305  1.00  0.00    -0.248 NA
ATOM     40  C   UNL A   1      40.801  32.060  30.439  1.00  0.00     0.031 C 
ATOM     41  C   UNL A   1      39.017  27.424  29.724  1.00  0.00     0.029 A 
ATOM     42  N   UNL A   1      41.087  27.855  28.989  1.00  0.00    -0.354 N 
ATOM     43  C   UNL A   1      42.847  31.772  29.457  1.00  0.00     0.074 A 
ATOM     44  C   UNL A   1      41.938  32.670  30.135  1.00  0.00     0.031 C 
ATOM     45  C   UNL A   1      39.501  26.293  29.184  1.00  0.00     0.029 A 
ATOM     46  C   UNL A   1      40.837  26.550  28.644  1.00  0.00     0.049 A 
ATOM     47  H   UNL A   1      41.946  28.303  28.816  1.00  0.00     0.167 HD
ATOM     48  C   UNL A   1      44.102  32.104  29.071  1.00  0.00     0.037 A 
ATOM     49  C   UNL A   1      41.589  25.678  27.944  1.00  0.00     0.037 A 
ATOM     50  C   UNL A   1      45.004  31.215  28.390  1.00  0.00     0.049 A 
ATOM     51  C   UNL A   1      42.947  26.105  27.441  1.00  0.00     0.074 A 
ATOM     52  C   UNL A   1      46.298  31.460  27.962  1.00  0.00     0.029 A 
ATOM     53  N   UNL A   1      44.704  29.910  28.030  1.00  0.00    -0.354 N 
ATOM     54  N   UNL A   1      43.572  27.246  27.603  1.00  0.00    -0.248 NA
ATOM     55  C   UNL A   1      43.703  25.118  26.655  1.00  0.00     0.031 C 
ATOM     56  C   UNL A   1      46.761  30.319  27.299  1.00  0.00     0.029 A 
ATOM     57  C   UNL A   1      45.778  29.345  27.363  1.00  0.00     0.049 A 
ATOM     58  H   UNL A   1      43.852  29.453  28.220  1.00  0.00     0.167 HD
ATOM     59  C   UNL A   1      44.803  27.101  26.972  1.00  0.00     0.074 A 
ATOM     60  C   UNL A   1      44.842  25.758  26.435  1.00  0.00     0.031 C 
ATOM     61  C   UNL A   1      45.811  28.000  26.850  1.00  0.00     0.037 A 
BRANCH  48  62
ATOM     62  C   UNL A   1      44.566  33.502  29.356  1.00  0.00     0.064 A 
ATOM     63  C   UNL A   1      45.263  33.820  30.530  1.00  0.00     0.173 A 
ATOM     64  C   UNL A   1      44.349  34.526  28.421  1.00  0.00     0.173 A 
ATOM     65  F   UNL A   1      45.482  32.880  31.462  1.00  0.00    -0.203 F 
ATOM     66  C   UNL A   1      45.710  35.119  30.767  1.00  0.00     0.198 A 
ATOM     67  C   UNL A   1      44.822  35.815  28.648  1.00  0.00     0.198 A 
ATOM     68  F   UNL A   1      43.690  34.272  27.281  1.00  0.00    -0.203 F 
ATOM     69  F   UNL A   1      46.338  35.410  31.915  1.00  0.00    -0.200 F 
ATOM     70  C   UNL A   1      45.497  36.112  29.823  1.00  0.00     0.200 A 
ATOM     71  F   UNL A   1      44.626  36.771  27.730  1.00  0.00    -0.200 F 
ATOM     72  F   UNL A   1      45.938  37.357  30.048  1.00  0.00    -0.200 F 
ENDBRANCH  48  62
BRANCH  49  73
ATOM     73  C   UNL A   1      41.076  24.313  27.648  1.00  0.00     0.064 A 
ATOM     74  C   UNL A   1      41.654  23.179  28.237  1.00  0.00     0.173 A 
ATOM     75  C   UNL A   1      40.036  24.111  26.729  1.00  0.00     0.173 A 
ATOM     76  F   UNL A   1      42.674  23.319  29.097  1.00  0.00    -0.203 F 
ATOM     77  C   UNL A   1      41.230  21.896  27.898  1.00  0.00     0.198 A 
ATOM     78  C   UNL A   1      39.590  22.829  26.415  1.00  0.00     0.198 A 
ATOM     79  F   UNL A   1      39.453  25.161  26.133  1.00  0.00    -0.203 F 
ATOM     80  F   UNL A   1      41.842  20.829  28.428  1.00  0.00    -0.200 F 
ATOM     81  C   UNL A   1      40.195  21.722  26.991  1.00  0.00     0.200 A 
ATOM     82  F   UNL A   1      38.586  22.666  25.544  1.00  0.00    -0.200 F 
ATOM     83  F   UNL A   1      39.793  20.488  26.659  1.00  0.00    -0.200 F 
ENDBRANCH  49  73
BRANCH  61  84
ATOM     84  C   UNL A   1      47.064  27.549  26.152  1.00  0.00     0.064 A 
ATOM     85  C   UNL A   1      48.150  27.010  26.857  1.00  0.00     0.173 A 
ATOM     86  C   UNL A   1      47.158  27.615  24.753  1.00  0.00     0.173 A 
ATOM     87  F   UNL A   1      48.116  26.935  28.197  1.00  0.00    -0.203 F 
ATOM     88  C   UNL A   1      49.294  26.578  26.190  1.00  0.00     0.198 A 
ATOM     89  C   UNL A   1      48.290  27.153  24.087  1.00  0.00     0.198 A 
ATOM     90  F   UNL A   1      46.145  28.114  24.030  1.00  0.00    -0.203 F 
ATOM     91  F   UNL A   1      50.338  26.110  26.888  1.00  0.00    -0.200 F 
ATOM     92  C   UNL A   1      49.360  26.644  24.806  1.00  0.00     0.200 A 
ATOM     93  F   UNL A   1      48.345  27.203  22.749  1.00  0.00    -0.200 F 
ATOM     94  F   UNL A   1      50.457  26.219  24.165  1.00  0.00    -0.200 F 
ENDBRANCH  61  84
ENDBRANCH  35  36
ENDBRANCH  28  30
ENDBRANCH  27  28
ENDBRANCH  26  27
ENDBRANCH  25  26
ENDBRANCH  24  25
ENDBRANCH  23  24
ENDBRANCH   1  23
TORSDOF 21
ENDMDL
MODEL 2
REMARK VINA RESULT:     -10.0      4.649      9.229
REMARK SMILES CC[C@@H]([NH3+])C(=O)N1CC[C@H](C(=O)OCCOCCOCCOC(=O)c2ccc(-c3c4nc(c(-c5c(F)c(F)c(F)c(F)c5F)c5ccc([nH]5)c(-c5c(F)c(F)c(F)c(F)c5F)c5nc(c(-c6c(F)c(F)c(F)c(F)c6F)c6ccc3[nH]6)C=C5)C=C4)cc2)[C@@H]1C
REMARK SMILES IDX 17 1 16 2 15 3 14 4 13 5 11 6 12 7 10 8 7 9 8 10 88 11 9 12
REMARK SMILES IDX 89 13 5 14 6 15 3 16 2 17 1 18 4 19 18 23 19 24 20 25 21 26
REMARK SMILES IDX 22 27 23 28 24 29 25 30 26 31 87 32 27 33 86 34 28 35 29 36
REMARK SMILES IDX 30 37 80 38 31 39 85 40 79 41 81 42 32 43 84 44 78 45 77 46
REMARK SMILES IDX 33 48 65 49 45 50 64 51 46 52 49 53 63 54 82 55 47 56 48 57
REMARK SMILES IDX 62 59 83 60 50 61 34 62 35 63 43 64 36 65 37 66 41 67 44 68
REMARK SMILES IDX 38 69 39 70 42 71 40 72 66 73 67 74 75 75 68 76 69 77 73 78
REMARK SMILES IDX 76 79 70 80 71 81 74 82 72 83 51 84 52 85 60 86 53 87 54 88
REMARK SMILES IDX 58 89 61 90 55 91 56 92 59 93 57 94
REMARK H PARENT 4 20 4 21 4 22 81 47 49 58
REMARK Flexibility Score: inf
ROOT
ATOM      1  C   UNL A   1      31.282  29.480  24.627  1.00  0.00     0.188 C 
ENDROOT
BRANCH   1   2
ATOM      2  O   UNL A   1      31.635  28.867  23.406  1.00  0.00    -0.376 OA
BRANCH   2   3
ATOM      3  C   UNL A   1      30.834  27.804  22.896  1.00  0.00     0.202 C 
BRANCH   3   4
ATOM      4  C   UNL A   1      31.287  26.338  22.937  1.00  0.00     0.261 C 
BRANCH   4   5
ATOM      5  O   UNL A   1      32.505  26.119  23.666  1.00  0.00    -0.463 OA
BRANCH   5   6
ATOM      6  C   UNL A   1      33.531  25.577  22.948  1.00  0.00     0.311 C 
ATOM      7  O   UNL A   1      33.846  25.929  21.820  1.00  0.00    -0.252 OA
BRANCH   6   8
ATOM      8  C   UNL A   1      34.232  24.479  23.734  1.00  0.00     0.123 C 
ATOM      9  N   UNL A   1      32.866  22.848  24.831  1.00  0.00    -0.334 N 
ATOM     10  C   UNL A   1      32.817  24.074  25.607  1.00  0.00     0.121 C 
ATOM     11  C   UNL A   1      33.644  23.045  23.604  1.00  0.00     0.096 C 
ATOM     12  C   UNL A   1      34.102  24.789  25.224  1.00  0.00     0.039 C 
ATOM     13  C   UNL A   1      32.797  22.798  22.353  1.00  0.00     0.032 C 
BRANCH   9  14
ATOM     14  C   UNL A   1      32.332  21.697  25.371  1.00  0.00     0.280 C 
ATOM     15  O   UNL A   1      31.141  21.671  25.711  1.00  0.00    -0.268 OA
BRANCH  14  16
ATOM     16  C   UNL A   1      33.241  20.504  25.793  1.00  0.00     0.270 C 
BRANCH  16  17
ATOM     17  C   UNL A   1      33.728  19.528  24.721  1.00  0.00     0.072 C 
ATOM     18  C   UNL A   1      32.650  19.174  23.699  1.00  0.00     0.011 C 
ENDBRANCH  16  17
BRANCH  16  19
ATOM     19  N   UNL A   1      34.370  21.041  26.591  1.00  0.00    -0.347 N 
ATOM     20  H   UNL A   1      34.580  21.992  26.287  1.00  0.00     0.345 HD
ATOM     21  H   UNL A   1      35.192  20.452  26.457  1.00  0.00     0.345 HD
ATOM     22  H   UNL A   1      34.115  21.048  27.579  1.00  0.00     0.345 HD
ENDBRANCH  16  19
ENDBRANCH  14  16
ENDBRANCH   9  14
ENDBRANCH   6   8
ENDBRANCH   5   6
ENDBRANCH   4   5
ENDBRANCH   3   4
ENDBRANCH   2   3
ENDBRANCH   1   2
BRANCH   1  23
ATOM     23  C   UNL A   1      31.790  28.877  25.953  1.00  0.00     0.188 C 
BRANCH  23  24
ATOM     24  O   UNL A   1      31.942  29.674  27.108  1.00  0.00    -0.376 OA
BRANCH  24  25
ATOM     25  C   UNL A   1      32.806  30.799  27.052  1.00  0.00     0.202 C 
BRANCH  25  26
ATOM     26  C   UNL A   1      32.295  32.230  27.290  1.00  0.00     0.261 C 
BRANCH  26  27
ATOM     27  O   UNL A   1      33.286  33.267  27.213  1.00  0.00    -0.460 OA
BRANCH  27  28
ATOM     28  C   UNL A   1      33.296  34.129  28.261  1.00  0.00     0.338 C 
ATOM     29  O   UNL A   1      32.448  34.950  28.555  1.00  0.00    -0.246 OA
BRANCH  28  30
ATOM     30  C   UNL A   1      34.423  33.801  29.158  1.00  0.00     0.060 A 
ATOM     31  C   UNL A   1      35.702  34.261  28.814  1.00  0.00     0.016 A 
ATOM     32  C   UNL A   1      34.238  32.994  30.278  1.00  0.00     0.016 A 
ATOM     33  C   UNL A   1      36.809  33.899  29.582  1.00  0.00     0.010 A 
ATOM     34  C   UNL A   1      35.351  32.605  31.029  1.00  0.00     0.010 A 
ATOM     35  C   UNL A   1      36.643  33.032  30.668  1.00  0.00    -0.014 A 
BRANCH  35  36
ATOM     36  C   UNL A   1      37.832  32.417  31.307  1.00  0.00     0.031 A 
ATOM     37  C   UNL A   1      38.546  31.311  30.579  1.00  0.00     0.074 A 
ATOM     38  C   UNL A   1      38.279  32.835  32.504  1.00  0.00     0.049 A 
ATOM     39  N   UNL A   1      39.547  30.564  30.973  1.00  0.00    -0.248 NA
ATOM     40  C   UNL A   1      38.062  31.005  29.223  1.00  0.00     0.031 C 
ATOM     41  C   UNL A   1      37.711  33.932  33.285  1.00  0.00     0.029 A 
ATOM     42  N   UNL A   1      39.311  32.366  33.280  1.00  0.00    -0.354 N 
ATOM     43  C   UNL A   1      39.807  29.700  29.917  1.00  0.00     0.074 A 
ATOM     44  C   UNL A   1      38.845  29.994  28.877  1.00  0.00     0.031 C 
ATOM     45  C   UNL A   1      38.388  34.036  34.442  1.00  0.00     0.029 A 
ATOM     46  C   UNL A   1      39.411  32.992  34.497  1.00  0.00     0.049 A 
ATOM     47  H   UNL A   1      39.920  31.649  32.990  1.00  0.00     0.167 HD
ATOM     48  C   UNL A   1      40.768  28.750  29.821  1.00  0.00     0.037 A 
ATOM     49  C   UNL A   1      40.216  32.727  35.545  1.00  0.00     0.037 A 
ATOM     50  C   UNL A   1      41.720  28.452  30.857  1.00  0.00     0.049 A 
ATOM     51  C   UNL A   1      41.214  31.598  35.449  1.00  0.00     0.074 A 
ATOM     52  C   UNL A   1      42.735  27.510  30.851  1.00  0.00     0.029 A 
ATOM     53  N   UNL A   1      41.771  29.086  32.089  1.00  0.00    -0.354 N 
ATOM     54  N   UNL A   1      41.469  30.797  34.443  1.00  0.00    -0.248 NA
ATOM     55  C   UNL A   1      42.038  31.339  36.640  1.00  0.00     0.031 C 
ATOM     56  C   UNL A   1      43.367  27.541  32.098  1.00  0.00     0.029 A 
ATOM     57  C   UNL A   1      42.783  28.540  32.860  1.00  0.00     0.049 A 
ATOM     58  H   UNL A   1      41.175  29.817  32.373  1.00  0.00     0.167 HD
ATOM     59  C   UNL A   1      42.501  29.967  34.866  1.00  0.00     0.074 A 
ATOM     60  C   UNL A   1      42.834  30.369  36.215  1.00  0.00     0.031 C 
ATOM     61  C   UNL A   1      43.117  28.962  34.196  1.00  0.00     0.037 A 
BRANCH  48  62
ATOM     62  C   UNL A   1      40.822  27.945  28.557  1.00  0.00     0.064 A 
ATOM     63  C   UNL A   1      41.606  28.343  27.464  1.00  0.00     0.173 A 
ATOM     64  C   UNL A   1      40.115  26.737  28.454  1.00  0.00     0.173 A 
ATOM     65  F   UNL A   1      42.288  29.497  27.507  1.00  0.00    -0.203 F 
ATOM     66  C   UNL A   1      41.664  27.570  26.307  1.00  0.00     0.198 A 
ATOM     67  C   UNL A   1      40.199  25.953  27.307  1.00  0.00     0.198 A 
ATOM     68  F   UNL A   1      39.354  26.311  29.473  1.00  0.00    -0.203 F 
ATOM     69  F   UNL A   1      42.387  27.990  25.259  1.00  0.00    -0.200 F 
ATOM     70  C   UNL A   1      40.969  26.373  26.232  1.00  0.00     0.200 A 
ATOM     71  F   UNL A   1      39.537  24.790  27.242  1.00  0.00    -0.200 F 
ATOM     72  F   UNL A   1      41.037  25.625  25.123  1.00  0.00    -0.200 F 
ENDBRANCH  48  62
BRANCH  49  73
ATOM     73  C   UNL A   1      40.103  33.522  36.797  1.00  0.00     0.064 A 
ATOM     74  C   UNL A   1      39.148  33.203  37.774  1.00  0.00     0.173 A 
ATOM     75  C   UNL A   1      40.909  34.649  37.018  1.00  0.00     0.173 A 
ATOM     76  F   UNL A   1      38.332  32.155  37.593  1.00  0.00    -0.203 F 
ATOM     77  C   UNL A   1      38.986  33.997  38.908  1.00  0.00     0.198 A 
ATOM     78  C   UNL A   1      40.767  35.422  38.168  1.00  0.00     0.198 A 
ATOM     79  F   UNL A   1      41.834  35.002  36.113  1.00  0.00    -0.203 F 
ATOM     80  F   UNL A   1      38.023  33.705  39.793  1.00  0.00    -0.200 F 
ATOM     81  C   UNL A   1      39.798  35.102  39.107  1.00  0.00     0.200 A 
ATOM     82  F   UNL A   1      41.559  36.486  38.359  1.00  0.00    -0.200 F 
ATOM     83  F   UNL A   1      39.636  35.869  40.193  1.00  0.00    -0.200 F 
ENDBRANCH  49  73
BRANCH  61  84
ATOM     84  C   UNL A   1      44.251  28.258  34.888  1.00  0.00     0.064 A 
ATOM     85  C   UNL A   1      44.048  27.091  35.640  1.00  0.00     0.173 A 
ATOM     86  C   UNL A   1      45.565  28.733  34.757  1.00  0.00     0.173 A 
ATOM     87  F   UNL A   1      42.810  26.601  35.806  1.00  0.00    -0.203 F 
ATOM     88  C   UNL A   1      45.115  26.442  36.257  1.00  0.00     0.198 A 
ATOM     89  C   UNL A   1      46.633  28.064  35.348  1.00  0.00     0.198 A 
ATOM     90  F   UNL A   1      45.816  29.840  34.042  1.00  0.00    -0.203 F 
ATOM     91  F   UNL A   1      44.891  25.356  37.009  1.00  0.00    -0.200 F 
ATOM     92  C   UNL A   1      46.406  26.925  36.104  1.00  0.00     0.200 A 
ATOM     93  F   UNL A   1      47.882  28.523  35.186  1.00  0.00    -0.200 F 
ATOM     94  F   UNL A   1      47.432  26.293  36.690  1.00  0.00    -0.200 F 
ENDBRANCH  61  84
ENDBRANCH  35  36
ENDBRANCH  28  30
ENDBRANCH  27  28
ENDBRANCH  26  27
ENDBRANCH  25  26
ENDBRANCH  24  25
ENDBRANCH  23  24
ENDBRANCH   1  23
TORSDOF 21
ENDMDL
MODEL 3
REMARK VINA RESULT:      -9.8      4.599      7.187
REMARK SMILES CC[C@@H]([NH3+])C(=O)N1CC[C@H](C(=O)OCCOCCOCCOC(=O)c2ccc(-c3c4nc(c(-c5c(F)c(F)c(F)c(F)c5F)c5ccc([nH]5)c(-c5c(F)c(F)c(F)c(F)c5F)c5nc(c(-c6c(F)c(F)c(F)c(F)c6F)c6ccc3[nH]6)C=C5)C=C4)cc2)[C@@H]1C
REMARK SMILES IDX 17 1 16 2 15 3 14 4 13 5 11 6 12 7 10 8 7 9 8 10 88 11 9 12
REMARK SMILES IDX 89 13 5 14 6 15 3 16 2 17 1 18 4 19 18 23 19 24 20 25 21 26
REMARK SMILES IDX 22 27 23 28 24 29 25 30 26 31 87 32 27 33 86 34 28 35 29 36
REMARK SMILES IDX 30 37 80 38 31 39 85 40 79 41 81 42 32 43 84 44 78 45 77 46
REMARK SMILES IDX 33 48 65 49 45 50 64 51 46 52 49 53 63 54 82 55 47 56 48 57
REMARK SMILES IDX 62 59 83 60 50 61 34 62 35 63 43 64 36 65 37 66 41 67 44 68
REMARK SMILES IDX 38 69 39 70 42 71 40 72 66 73 67 74 75 75 68 76 69 77 73 78
REMARK SMILES IDX 76 79 70 80 71 81 74 82 72 83 51 84 52 85 60 86 53 87 54 88
REMARK SMILES IDX 58 89 61 90 55 91 56 92 59 93 57 94
REMARK H PARENT 4 20 4 21 4 22 81 47 49 58
REMARK Flexibility Score: inf
ROOT
ATOM      1  C   UNL A   1      31.357  29.588  24.803  1.00  0.00     0.188 C 
ENDROOT
BRANCH   1   2
ATOM      2  O   UNL A   1      31.942  29.005  23.657  1.00  0.00    -0.376 OA
BRANCH   2   3
ATOM      3  C   UNL A   1      31.235  27.993  22.946  1.00  0.00     0.202 C 
BRANCH   3   4
ATOM      4  C   UNL A   1      31.469  26.495  23.192  1.00  0.00     0.261 C 
BRANCH   4   5
ATOM      5  O   UNL A   1      32.776  26.180  23.697  1.00  0.00    -0.463 OA
BRANCH   5   6
ATOM      6  C   UNL A   1      33.605  25.538  22.823  1.00  0.00     0.311 C 
ATOM      7  O   UNL A   1      33.733  25.838  21.645  1.00  0.00    -0.252 OA
BRANCH   6   8
ATOM      8  C   UNL A   1      34.348  24.400  23.508  1.00  0.00     0.123 C 
ATOM      9  N   UNL A   1      33.055  22.802  24.733  1.00  0.00    -0.334 N 
ATOM     10  C   UNL A   1      33.144  24.014  25.526  1.00  0.00     0.121 C 
ATOM     11  C   UNL A   1      33.693  22.992  23.427  1.00  0.00     0.096 C 
ATOM     12  C   UNL A   1      34.404  24.687  25.007  1.00  0.00     0.039 C 
ATOM     13  C   UNL A   1      32.698  22.800  22.280  1.00  0.00     0.032 C 
BRANCH   9  14
ATOM     14  C   UNL A   1      32.542  21.662  25.316  1.00  0.00     0.280 C 
ATOM     15  O   UNL A   1      31.383  21.661  25.754  1.00  0.00    -0.268 OA
BRANCH  14  16
ATOM     16  C   UNL A   1      33.457  20.448  25.661  1.00  0.00     0.270 C 
BRANCH  16  17
ATOM     17  C   UNL A   1      33.635  19.338  24.624  1.00  0.00     0.072 C 
ATOM     18  C   UNL A   1      32.528  19.315  23.572  1.00  0.00     0.011 C 
ENDBRANCH  16  17
BRANCH  16  19
ATOM     19  N   UNL A   1      34.763  20.970  26.128  1.00  0.00    -0.347 N 
ATOM     20  H   UNL A   1      34.627  21.516  26.978  1.00  0.00     0.345 HD
ATOM     21  H   UNL A   1      35.171  21.562  25.405  1.00  0.00     0.345 HD
ATOM     22  H   UNL A   1      35.391  20.189  26.323  1.00  0.00     0.345 HD
ENDBRANCH  16  19
ENDBRANCH  14  16
ENDBRANCH   9  14
ENDBRANCH   6   8
ENDBRANCH   5   6
ENDBRANCH   4   5
ENDBRANCH   3   4
ENDBRANCH   2   3
ENDBRANCH   1   2
BRANCH   1  23
ATOM     23  C   UNL A   1      31.822  29.139  26.203  1.00  0.00     0.188 C 
BRANCH  23  24
ATOM     24  O   UNL A   1      31.994  30.071  27.249  1.00  0.00    -0.376 OA
BRANCH  24  25
ATOM     25  C   UNL A   1      32.770  31.234  27.006  1.00  0.00     0.202 C 
BRANCH  25  26
ATOM     26  C   UNL A   1      32.229  32.646  27.289  1.00  0.00     0.261 C 
BRANCH  26  27
ATOM     27  O   UNL A   1      33.197  33.706  27.240  1.00  0.00    -0.460 OA
BRANCH  27  28
ATOM     28  C   UNL A   1      33.289  34.451  28.371  1.00  0.00     0.338 C 
ATOM     29  O   UNL A   1      32.527  35.321  28.751  1.00  0.00    -0.246 OA
BRANCH  28  30
ATOM     30  C   UNL A   1      34.371  33.921  29.225  1.00  0.00     0.060 A 
ATOM     31  C   UNL A   1      35.698  34.209  28.873  1.00  0.00     0.016 A 
ATOM     32  C   UNL A   1      34.089  33.093  30.310  1.00  0.00     0.016 A 
ATOM     33  C   UNL A   1      36.753  33.654  29.597  1.00  0.00     0.010 A 
ATOM     34  C   UNL A   1      35.147  32.511  31.016  1.00  0.00     0.010 A 
ATOM     35  C   UNL A   1      36.481  32.766  30.645  1.00  0.00    -0.014 A 
BRANCH  35  36
ATOM     36  C   UNL A   1      37.579  31.956  31.226  1.00  0.00     0.031 A 
ATOM     37  C   UNL A   1      38.039  32.269  32.623  1.00  0.00     0.074 A 
ATOM     38  C   UNL A   1      38.153  30.956  30.535  1.00  0.00     0.049 A 
ATOM     39  N   UNL A   1      39.034  31.762  33.306  1.00  0.00    -0.248 NA
ATOM     40  C   UNL A   1      37.272  33.296  33.347  1.00  0.00     0.031 C 
ATOM     41  C   UNL A   1      37.763  30.518  29.196  1.00  0.00     0.029 A 
ATOM     42  N   UNL A   1      39.206  30.137  30.866  1.00  0.00    -0.354 N 
ATOM     43  C   UNL A   1      39.015  32.410  34.534  1.00  0.00     0.074 A 
ATOM     44  C   UNL A   1      37.929  33.365  34.495  1.00  0.00     0.031 C 
ATOM     45  C   UNL A   1      38.583  29.524  28.810  1.00  0.00     0.029 A 
ATOM     46  C   UNL A   1      39.575  29.282  29.857  1.00  0.00     0.049 A 
ATOM     47  H   UNL A   1      39.652  30.162  31.743  1.00  0.00     0.167 HD
ATOM     48  C   UNL A   1      39.826  32.221  35.602  1.00  0.00     0.037 A 
ATOM     49  C   UNL A   1      40.615  28.429  29.781  1.00  0.00     0.037 A 
ATOM     50  C   UNL A   1      40.911  31.277  35.639  1.00  0.00     0.049 A 
ATOM     51  C   UNL A   1      41.563  28.307  30.949  1.00  0.00     0.074 A 
ATOM     52  C   UNL A   1      41.787  31.010  36.678  1.00  0.00     0.029 A 
ATOM     53  N   UNL A   1      41.274  30.451  34.587  1.00  0.00    -0.354 N 
ATOM     54  N   UNL A   1      41.529  28.908  32.114  1.00  0.00    -0.248 NA
ATOM     55  C   UNL A   1      42.697  27.384  30.789  1.00  0.00     0.031 C 
ATOM     56  C   UNL A   1      42.710  30.057  36.236  1.00  0.00     0.029 A 
ATOM     57  C   UNL A   1      42.376  29.690  34.943  1.00  0.00     0.049 A 
ATOM     58  H   UNL A   1      40.816  30.410  33.716  1.00  0.00     0.167 HD
ATOM     59  C   UNL A   1      42.610  28.412  32.834  1.00  0.00     0.074 A 
ATOM     60  C   UNL A   1      43.274  27.450  31.980  1.00  0.00     0.031 C 
ATOM     61  C   UNL A   1      43.016  28.723  34.089  1.00  0.00     0.037 A 
BRANCH  48  62
ATOM     62  C   UNL A   1      39.585  33.071  36.814  1.00  0.00     0.064 A 
ATOM     63  C   UNL A   1      38.653  32.706  37.796  1.00  0.00     0.173 A 
ATOM     64  C   UNL A   1      40.330  34.243  37.017  1.00  0.00     0.173 A 
ATOM     65  F   UNL A   1      37.906  31.602  37.640  1.00  0.00    -0.203 F 
ATOM     66  C   UNL A   1      38.461  33.494  38.928  1.00  0.00     0.198 A 
ATOM     67  C   UNL A   1      40.155  35.013  38.164  1.00  0.00     0.198 A 
ATOM     68  F   UNL A   1      41.236  34.635  36.109  1.00  0.00    -0.203 F 
ATOM     69  F   UNL A   1      37.535  33.148  39.834  1.00  0.00    -0.200 F 
ATOM     70  C   UNL A   1      39.217  34.641  39.115  1.00  0.00     0.200 A 
ATOM     71  F   UNL A   1      40.896  36.114  38.349  1.00  0.00    -0.200 F 
ATOM     72  F   UNL A   1      39.039  35.391  40.211  1.00  0.00    -0.200 F 
ENDBRANCH  48  62
BRANCH  49  73
ATOM     73  C   UNL A   1      40.843  27.633  28.545  1.00  0.00     0.064 A 
ATOM     74  C   UNL A   1      41.675  28.109  27.521  1.00  0.00     0.173 A 
ATOM     75  C   UNL A   1      40.192  26.408  28.338  1.00  0.00     0.173 A 
ATOM     76  F   UNL A   1      42.293  29.291  27.658  1.00  0.00    -0.203 F 
ATOM     77  C   UNL A   1      41.824  27.404  26.329  1.00  0.00     0.198 A 
ATOM     78  C   UNL A   1      40.367  25.689  27.158  1.00  0.00     0.198 A 
ATOM     79  F   UNL A   1      39.380  25.911  29.283  1.00  0.00    -0.203 F 
ATOM     80  F   UNL A   1      42.574  27.913  25.342  1.00  0.00    -0.200 F 
ATOM     81  C   UNL A   1      41.174  26.193  26.150  1.00  0.00     0.200 A 
ATOM     82  F   UNL A   1      39.743  24.515  26.993  1.00  0.00    -0.200 F 
ATOM     83  F   UNL A   1      41.311  25.520  25.000  1.00  0.00    -0.200 F 
ENDBRANCH  49  73
BRANCH  61  84
ATOM     84  C   UNL A   1      44.204  27.984  34.640  1.00  0.00     0.064 A 
ATOM     85  C   UNL A   1      45.504  28.501  34.550  1.00  0.00     0.173 A 
ATOM     86  C   UNL A   1      44.030  26.762  35.308  1.00  0.00     0.173 A 
ATOM     87  F   UNL A   1      45.728  29.660  33.911  1.00  0.00    -0.203 F 
ATOM     88  C   UNL A   1      46.589  27.810  35.084  1.00  0.00     0.198 A 
ATOM     89  C   UNL A   1      45.111  26.089  35.869  1.00  0.00     0.198 A 
ATOM     90  F   UNL A   1      42.805  26.226  35.430  1.00  0.00    -0.203 F 
ATOM     91  F   UNL A   1      47.828  28.300  34.945  1.00  0.00    -0.200 F 
ATOM     92  C   UNL A   1      46.390  26.609  35.750  1.00  0.00     0.200 A 
ATOM     93  F   UNL A   1      44.915  24.937  36.525  1.00  0.00    -0.200 F 
ATOM     94  F   UNL A   1      47.434  25.950  36.272  1.00  0.00    -0.200 F 
ENDBRANCH  61  84
ENDBRANCH  35  36
ENDBRANCH  28  30
ENDBRANCH  27  28
ENDBRANCH  26  27
ENDBRANCH  25  26
ENDBRANCH  24  25
ENDBRANCH  23  24
ENDBRANCH   1  23
TORSDOF 21
ENDMDL
