MODEL 1
REMARK VINA RESULT:     -10.1      0.000      0.000
REMARK SMILES CCOc1cc(C(=O)OCCOCCOCCOC(=O)c2ccc(-c3c4nc(c(-c5c(F)c(F)c(F)c(F)c5F)c5ccc([nH]5)c(-c5c(F)c(F)c(F)c(F)c5F)c5nc(c(-c6c(F)c(F)c(F)c(F)c6F)c6ccc3[nH]6)C=C5)C=C4)cc2)ccc1OCc1ccc(Cl)c(Cl)c1
REMARK SMILES IDX 13 1 12 2 11 3 10 4 9 5 7 6 8 7 6 8 4 9 5 10 86 11 85 12
REMARK SMILES IDX 84 13 3 14 2 15 1 16 87 17 88 18 89 19 90 20 96 21 91 22
REMARK SMILES IDX 94 23 92 24 95 25 93 26 14 27 15 28 16 29 17 30 18 31 19 32
REMARK SMILES IDX 20 33 21 34 22 35 83 36 23 37 82 38 24 39 25 40 26 41 76 42
REMARK SMILES IDX 27 43 81 44 75 45 77 46 28 47 80 48 74 49 73 50 29 52 61 53
REMARK SMILES IDX 41 54 60 55 42 56 45 57 59 58 78 59 43 60 44 61 58 63 79 64
REMARK SMILES IDX 46 65 30 66 31 67 39 68 32 69 33 70 37 71 40 72 34 73 35 74
REMARK SMILES IDX 38 75 36 76 62 77 63 78 71 79 64 80 65 81 69 82 72 83 66 84
REMARK SMILES IDX 67 85 70 86 68 87 47 88 48 89 56 90 49 91 50 92 54 93 57 94
REMARK SMILES IDX 51 95 52 96 55 97 53 98
REMARK H PARENT 77 51 45 62
REMARK Flexibility Score: inf
ROOT
ATOM      1  C   UNL A   1      35.840  32.604  28.239  1.00  0.00     0.188 C 
ENDROOT
BRANCH   1   2
ATOM      2  O   UNL A   1      34.847  31.628  28.539  1.00  0.00    -0.376 OA
BRANCH   2   3
ATOM      3  C   UNL A   1      34.597  30.567  27.625  1.00  0.00     0.202 C 
BRANCH   3   4
ATOM      4  C   UNL A   1      33.281  30.609  26.845  1.00  0.00     0.261 C 
BRANCH   4   5
ATOM      5  O   UNL A   1      33.204  29.620  25.806  1.00  0.00    -0.460 OA
BRANCH   5   6
ATOM      6  C   UNL A   1      31.965  29.277  25.380  1.00  0.00     0.338 C 
ATOM      7  O   UNL A   1      31.072  30.018  25.004  1.00  0.00    -0.246 OA
BRANCH   6   8
ATOM      8  C   UNL A   1      31.864  27.803  25.317  1.00  0.00     0.064 A 
ATOM      9  C   UNL A   1      31.697  25.755  24.033  1.00  0.00     0.162 A 
ATOM     10  C   UNL A   1      31.947  27.128  24.078  1.00  0.00     0.066 A 
ATOM     11  C   UNL A   1      31.232  25.126  25.199  1.00  0.00     0.161 A 
ATOM     12  C   UNL A   1      31.333  25.755  26.440  1.00  0.00     0.051 A 
ATOM     13  C   UNL A   1      31.660  27.099  26.506  1.00  0.00     0.020 A 
BRANCH   9  14
ATOM     14  O   UNL A   1      31.893  24.944  22.954  1.00  0.00    -0.490 OA
BRANCH  14  15
ATOM     15  C   UNL A   1      33.093  25.010  22.191  1.00  0.00     0.226 C 
ATOM     16  C   UNL A   1      34.167  24.286  23.000  1.00  0.00     0.049 C 
ENDBRANCH  14  15
ENDBRANCH   9  14
BRANCH  11  17
ATOM     17  O   UNL A   1      30.570  23.930  25.250  1.00  0.00    -0.485 OA
BRANCH  17  18
ATOM     18  C   UNL A   1      31.023  22.954  26.200  1.00  0.00     0.265 C 
BRANCH  18  19
ATOM     19  C   UNL A   1      32.371  22.244  26.015  1.00  0.00    -0.009 A 
ATOM     20  C   UNL A   1      32.513  20.995  25.392  1.00  0.00     0.009 A 
ATOM     21  C   UNL A   1      33.556  22.927  26.330  1.00  0.00     0.029 A 
ATOM     22  C   UNL A   1      33.760  20.466  25.044  1.00  0.00     0.022 A 
ATOM     23  C   UNL A   1      34.817  22.402  25.991  1.00  0.00     0.060 A 
ATOM     24  C   UNL A   1      34.918  21.176  25.329  1.00  0.00     0.059 A 
ATOM     25  Cl  UNL A   1      36.209  23.344  26.389  1.00  0.00    -0.083 Cl
ATOM     26  Cl  UNL A   1      36.420  20.501  24.814  1.00  0.00    -0.083 Cl
ENDBRANCH  18  19
ENDBRANCH  17  18
ENDBRANCH  11  17
ENDBRANCH   6   8
ENDBRANCH   5   6
ENDBRANCH   4   5
ENDBRANCH   3   4
ENDBRANCH   2   3
ENDBRANCH   1   2
BRANCH   1  27
ATOM     27  C   UNL A   1      35.644  34.060  28.716  1.00  0.00     0.188 C 
BRANCH  27  28
ATOM     28  O   UNL A   1      34.542  34.682  28.100  1.00  0.00    -0.376 OA
BRANCH  28  29
ATOM     29  C   UNL A   1      34.121  35.954  28.542  1.00  0.00     0.202 C 
BRANCH  29  30
ATOM     30  C   UNL A   1      32.812  36.151  29.327  1.00  0.00     0.261 C 
BRANCH  30  31
ATOM     31  O   UNL A   1      32.517  35.235  30.388  1.00  0.00    -0.460 OA
BRANCH  31  32
ATOM     32  C   UNL A   1      32.653  35.676  31.659  1.00  0.00     0.338 C 
ATOM     33  O   UNL A   1      31.893  36.400  32.272  1.00  0.00    -0.246 OA
BRANCH  32  34
ATOM     34  C   UNL A   1      33.818  34.985  32.262  1.00  0.00     0.060 A 
ATOM     35  C   UNL A   1      35.072  35.604  32.217  1.00  0.00     0.016 A 
ATOM     36  C   UNL A   1      33.674  33.731  32.868  1.00  0.00     0.016 A 
ATOM     37  C   UNL A   1      36.190  34.953  32.748  1.00  0.00     0.010 A 
ATOM     38  C   UNL A   1      34.799  33.079  33.388  1.00  0.00     0.010 A 
ATOM     39  C   UNL A   1      36.069  33.675  33.307  1.00  0.00    -0.014 A 
BRANCH  39  40
ATOM     40  C   UNL A   1      37.288  32.890  33.629  1.00  0.00     0.031 A 
ATOM     41  C   UNL A   1      37.996  33.170  34.927  1.00  0.00     0.074 A 
ATOM     42  C   UNL A   1      37.757  31.937  32.804  1.00  0.00     0.049 A 
ATOM     43  N   UNL A   1      39.109  32.666  35.396  1.00  0.00    -0.248 NA
ATOM     44  C   UNL A   1      37.357  34.153  35.816  1.00  0.00     0.031 C 
ATOM     45  C   UNL A   1      37.143  31.531  31.542  1.00  0.00     0.029 A 
ATOM     46  N   UNL A   1      38.876  31.146  32.905  1.00  0.00    -0.354 N 
ATOM     47  C   UNL A   1      39.309  33.277  36.627  1.00  0.00     0.074 A 
ATOM     48  C   UNL A   1      38.215  34.204  36.824  1.00  0.00     0.031 C 
ATOM     49  C   UNL A   1      37.906  30.581  30.973  1.00  0.00     0.029 A 
ATOM     50  C   UNL A   1      39.078  30.335  31.814  1.00  0.00     0.049 A 
ATOM     51  H   UNL A   1      39.476  31.158  33.685  1.00  0.00     0.167 HD
ATOM     52  C   UNL A   1      40.310  33.081  37.519  1.00  0.00     0.037 A 
ATOM     53  C   UNL A   1      40.106  29.515  31.517  1.00  0.00     0.037 A 
ATOM     54  C   UNL A   1      41.402  32.166  37.324  1.00  0.00     0.049 A 
ATOM     55  C   UNL A   1      41.255  29.377  32.486  1.00  0.00     0.074 A 
ATOM     56  C   UNL A   1      42.457  31.889  38.177  1.00  0.00     0.029 A 
ATOM     57  N   UNL A   1      41.588  31.387  36.193  1.00  0.00    -0.354 N 
ATOM     58  N   UNL A   1      41.426  29.939  33.659  1.00  0.00    -0.248 NA
ATOM     59  C   UNL A   1      42.358  28.487  32.089  1.00  0.00     0.031 C 
ATOM     60  C   UNL A   1      43.308  30.981  37.540  1.00  0.00     0.029 A 
ATOM     61  C   UNL A   1      42.754  30.648  36.314  1.00  0.00     0.049 A 
ATOM     62  H   UNL A   1      40.982  31.362  35.418  1.00  0.00     0.167 HD
ATOM     63  C   UNL A   1      42.629  29.450  34.150  1.00  0.00     0.074 A 
ATOM     64  C   UNL A   1      43.146  28.535  33.153  1.00  0.00     0.031 C 
ATOM     65  C   UNL A   1      43.252  29.730  35.321  1.00  0.00     0.037 A 
BRANCH  52  66
ATOM     66  C   UNL A   1      40.282  33.897  38.777  1.00  0.00     0.064 A 
ATOM     67  C   UNL A   1      39.586  33.470  39.917  1.00  0.00     0.173 A 
ATOM     68  C   UNL A   1      40.984  35.109  38.851  1.00  0.00     0.173 A 
ATOM     69  F   UNL A   1      38.885  32.326  39.892  1.00  0.00    -0.203 F 
ATOM     70  C   UNL A   1      39.573  34.239  41.078  1.00  0.00     0.198 A 
ATOM     71  C   UNL A   1      40.993  35.861  40.022  1.00  0.00     0.198 A 
ATOM     72  F   UNL A   1      41.667  35.561  37.788  1.00  0.00    -0.203 F 
ATOM     73  F   UNL A   1      38.862  33.836  42.139  1.00  0.00    -0.200 F 
ATOM     74  C   UNL A   1      40.281  35.430  41.131  1.00  0.00     0.200 A 
ATOM     75  F   UNL A   1      41.688  37.006  40.076  1.00  0.00    -0.200 F 
ATOM     76  F   UNL A   1      40.273  36.166  42.251  1.00  0.00    -0.200 F 
ENDBRANCH  52  66
BRANCH  53  77
ATOM     77  C   UNL A   1      40.118  28.767  30.232  1.00  0.00     0.064 A 
ATOM     78  C   UNL A   1      40.727  29.303  29.088  1.00  0.00     0.173 A 
ATOM     79  C   UNL A   1      39.489  27.519  30.109  1.00  0.00     0.173 A 
ATOM     80  F   UNL A   1      41.312  30.509  29.145  1.00  0.00    -0.203 F 
ATOM     81  C   UNL A   1      40.688  28.631  27.868  1.00  0.00     0.198 A 
ATOM     82  C   UNL A   1      39.476  26.834  28.896  1.00  0.00     0.198 A 
ATOM     83  F   UNL A   1      38.884  26.966  31.170  1.00  0.00    -0.203 F 
ATOM     84  F   UNL A   1      41.230  29.192  26.778  1.00  0.00    -0.200 F 
ATOM     85  C   UNL A   1      40.068  27.394  27.774  1.00  0.00     0.200 A 
ATOM     86  F   UNL A   1      38.880  25.636  28.812  1.00  0.00    -0.200 F 
ATOM     87  F   UNL A   1      40.029  26.748  26.600  1.00  0.00    -0.200 F 
ENDBRANCH  53  77
BRANCH  65  88
ATOM     88  C   UNL A   1      44.536  29.010  35.619  1.00  0.00     0.064 A 
ATOM     89  C   UNL A   1      45.782  29.535  35.244  1.00  0.00     0.173 A 
ATOM     90  C   UNL A   1      44.523  27.801  36.333  1.00  0.00     0.173 A 
ATOM     91  F   UNL A   1      45.851  30.680  34.549  1.00  0.00    -0.203 F 
ATOM     92  C   UNL A   1      46.964  28.864  35.552  1.00  0.00     0.198 A 
ATOM     93  C   UNL A   1      45.707  27.150  36.666  1.00  0.00     0.198 A 
ATOM     94  F   UNL A   1      43.359  27.260  36.723  1.00  0.00    -0.203 F 
ATOM     95  F   UNL A   1      48.140  29.361  35.145  1.00  0.00    -0.200 F 
ATOM     96  C   UNL A   1      46.925  27.676  36.269  1.00  0.00     0.200 A 
ATOM     97  F   UNL A   1      45.668  26.011  37.372  1.00  0.00    -0.200 F 
ATOM     98  F   UNL A   1      48.064  27.038  36.572  1.00  0.00    -0.200 F 
ENDBRANCH  65  88
ENDBRANCH  39  40
ENDBRANCH  32  34
ENDBRANCH  31  32
ENDBRANCH  30  31
ENDBRANCH  29  30
ENDBRANCH  28  29
ENDBRANCH  27  28
ENDBRANCH   1  27
TORSDOF 22
ENDMDL
MODEL 2
REMARK VINA RESULT:     -10.0      0.773      2.051
REMARK SMILES CCOc1cc(C(=O)OCCOCCOCCOC(=O)c2ccc(-c3c4nc(c(-c5c(F)c(F)c(F)c(F)c5F)c5ccc([nH]5)c(-c5c(F)c(F)c(F)c(F)c5F)c5nc(c(-c6c(F)c(F)c(F)c(F)c6F)c6ccc3[nH]6)C=C5)C=C4)cc2)ccc1OCc1ccc(Cl)c(Cl)c1
REMARK SMILES IDX 13 1 12 2 11 3 10 4 9 5 7 6 8 7 6 8 4 9 5 10 86 11 85 12
REMARK SMILES IDX 84 13 3 14 2 15 1 16 87 17 88 18 89 19 90 20 96 21 91 22
REMARK SMILES IDX 94 23 92 24 95 25 93 26 14 27 15 28 16 29 17 30 18 31 19 32
REMARK SMILES IDX 20 33 21 34 22 35 83 36 23 37 82 38 24 39 25 40 26 41 76 42
REMARK SMILES IDX 27 43 81 44 75 45 77 46 28 47 80 48 74 49 73 50 29 52 61 53
REMARK SMILES IDX 41 54 60 55 42 56 45 57 59 58 78 59 43 60 44 61 58 63 79 64
REMARK SMILES IDX 46 65 30 66 31 67 39 68 32 69 33 70 37 71 40 72 34 73 35 74
REMARK SMILES IDX 38 75 36 76 62 77 63 78 71 79 64 80 65 81 69 82 72 83 66 84
REMARK SMILES IDX 67 85 70 86 68 87 47 88 48 89 56 90 49 91 50 92 54 93 57 94
REMARK SMILES IDX 51 95 52 96 55 97 53 98
REMARK H PARENT 77 51 45 62
REMARK Flexibility Score: inf
ROOT
ATOM      1  C   UNL A   1      34.869  31.927  28.028  1.00  0.00     0.188 C 
ENDROOT
BRANCH   1   2
ATOM      2  O   UNL A   1      33.599  31.294  27.904  1.00  0.00    -0.376 OA
BRANCH   2   3
ATOM      3  C   UNL A   1      33.392  30.309  26.898  1.00  0.00     0.202 C 
BRANCH   3   4
ATOM      4  C   UNL A   1      32.168  30.475  25.995  1.00  0.00     0.261 C 
BRANCH   4   5
ATOM      5  O   UNL A   1      31.377  29.281  25.885  1.00  0.00    -0.460 OA
BRANCH   5   6
ATOM      6  C   UNL A   1      31.437  28.616  24.707  1.00  0.00     0.338 C 
ATOM      7  O   UNL A   1      31.431  29.087  23.581  1.00  0.00    -0.246 OA
BRANCH   6   8
ATOM      8  C   UNL A   1      31.637  27.175  24.973  1.00  0.00     0.064 A 
ATOM      9  C   UNL A   1      31.595  24.869  24.230  1.00  0.00     0.162 A 
ATOM     10  C   UNL A   1      31.553  26.231  23.925  1.00  0.00     0.066 A 
ATOM     11  C   UNL A   1      31.576  24.491  25.582  1.00  0.00     0.161 A 
ATOM     12  C   UNL A   1      31.844  25.419  26.589  1.00  0.00     0.051 A 
ATOM     13  C   UNL A   1      31.885  26.770  26.286  1.00  0.00     0.020 A 
BRANCH   9  14
ATOM     14  O   UNL A   1      31.686  23.852  23.326  1.00  0.00    -0.490 OA
BRANCH  14  15
ATOM     15  C   UNL A   1      32.934  23.230  23.040  1.00  0.00     0.226 C 
ATOM     16  C   UNL A   1      33.261  23.550  21.584  1.00  0.00     0.049 C 
ENDBRANCH  14  15
ENDBRANCH   9  14
BRANCH  11  17
ATOM     17  O   UNL A   1      31.214  23.262  26.061  1.00  0.00    -0.485 OA
BRANCH  17  18
ATOM     18  C   UNL A   1      32.111  22.607  26.971  1.00  0.00     0.265 C 
BRANCH  18  19
ATOM     19  C   UNL A   1      33.489  22.123  26.502  1.00  0.00    -0.009 A 
ATOM     20  C   UNL A   1      33.695  20.923  25.804  1.00  0.00     0.009 A 
ATOM     21  C   UNL A   1      34.597  22.976  26.623  1.00  0.00     0.029 A 
ATOM     22  C   UNL A   1      34.917  20.604  25.202  1.00  0.00     0.022 A 
ATOM     23  C   UNL A   1      35.833  22.663  26.029  1.00  0.00     0.060 A 
ATOM     24  C   UNL A   1      35.987  21.481  25.301  1.00  0.00     0.059 A 
ATOM     25  Cl  UNL A   1      37.118  23.804  26.205  1.00  0.00    -0.083 Cl
ATOM     26  Cl  UNL A   1      37.447  21.061  24.482  1.00  0.00    -0.083 Cl
ENDBRANCH  18  19
ENDBRANCH  17  18
ENDBRANCH  11  17
ENDBRANCH   6   8
ENDBRANCH   5   6
ENDBRANCH   4   5
ENDBRANCH   3   4
ENDBRANCH   2   3
ENDBRANCH   1   2
BRANCH   1  27
ATOM     27  C   UNL A   1      35.058  33.055  29.066  1.00  0.00     0.188 C 
BRANCH  27  28
ATOM     28  O   UNL A   1      34.569  34.293  28.609  1.00  0.00    -0.376 OA
BRANCH  28  29
ATOM     29  C   UNL A   1      33.214  34.626  28.813  1.00  0.00     0.202 C 
BRANCH  29  30
ATOM     30  C   UNL A   1      32.789  35.978  29.413  1.00  0.00     0.261 C 
BRANCH  30  31
ATOM     31  O   UNL A   1      33.319  36.344  30.693  1.00  0.00    -0.460 OA
BRANCH  31  32
ATOM     32  C   UNL A   1      32.905  35.642  31.771  1.00  0.00     0.338 C 
ATOM     33  O   UNL A   1      31.762  35.495  32.158  1.00  0.00    -0.246 OA
BRANCH  32  34
ATOM     34  C   UNL A   1      34.075  34.919  32.325  1.00  0.00     0.060 A 
ATOM     35  C   UNL A   1      35.346  35.491  32.201  1.00  0.00     0.016 A 
ATOM     36  C   UNL A   1      33.919  33.683  32.962  1.00  0.00     0.016 A 
ATOM     37  C   UNL A   1      36.467  34.810  32.684  1.00  0.00     0.010 A 
ATOM     38  C   UNL A   1      35.047  32.999  33.434  1.00  0.00     0.010 A 
ATOM     39  C   UNL A   1      36.331  33.547  33.274  1.00  0.00    -0.014 A 
BRANCH  39  40
ATOM     40  C   UNL A   1      37.537  32.724  33.545  1.00  0.00     0.031 A 
ATOM     41  C   UNL A   1      38.306  32.979  34.813  1.00  0.00     0.074 A 
ATOM     42  C   UNL A   1      37.943  31.758  32.701  1.00  0.00     0.049 A 
ATOM     43  N   UNL A   1      39.420  32.439  35.237  1.00  0.00    -0.248 NA
ATOM     44  C   UNL A   1      37.734  33.979  35.728  1.00  0.00     0.031 C 
ATOM     45  C   UNL A   1      37.266  31.374  31.465  1.00  0.00     0.029 A 
ATOM     46  N   UNL A   1      39.039  30.932  32.756  1.00  0.00    -0.354 N 
ATOM     47  C   UNL A   1      39.689  33.042  36.459  1.00  0.00     0.074 A 
ATOM     48  C   UNL A   1      38.634  34.002  36.700  1.00  0.00     0.031 C 
ATOM     49  C   UNL A   1      37.975  30.401  30.865  1.00  0.00     0.029 A 
ATOM     50  C   UNL A   1      39.171  30.117  31.657  1.00  0.00     0.049 A 
ATOM     51  H   UNL A   1      39.671  30.923  33.511  1.00  0.00     0.167 HD
ATOM     52  C   UNL A   1      40.718  32.812  37.309  1.00  0.00     0.037 A 
ATOM     53  C   UNL A   1      40.161  29.266  31.318  1.00  0.00     0.037 A 
ATOM     54  C   UNL A   1      41.773  31.864  37.070  1.00  0.00     0.049 A 
ATOM     55  C   UNL A   1      41.343  29.091  32.240  1.00  0.00     0.074 A 
ATOM     56  C   UNL A   1      42.853  31.553  37.879  1.00  0.00     0.029 A 
ATOM     57  N   UNL A   1      41.889  31.082  35.932  1.00  0.00    -0.354 N 
ATOM     58  N   UNL A   1      41.578  29.645  33.405  1.00  0.00    -0.248 NA
ATOM     59  C   UNL A   1      42.400  28.167  31.798  1.00  0.00     0.031 C 
ATOM     60  C   UNL A   1      43.648  30.619  37.207  1.00  0.00     0.029 A 
ATOM     61  C   UNL A   1      43.035  30.307  36.005  1.00  0.00     0.049 A 
ATOM     62  H   UNL A   1      41.251  31.078  35.182  1.00  0.00     0.167 HD
ATOM     63  C   UNL A   1      42.785  29.117  33.846  1.00  0.00     0.074 A 
ATOM     64  C   UNL A   1      43.231  28.189  32.829  1.00  0.00     0.031 C 
ATOM     65  C   UNL A   1      43.463  29.375  34.992  1.00  0.00     0.037 A 
BRANCH  52  66
ATOM     66  C   UNL A   1      40.767  33.627  38.568  1.00  0.00     0.064 A 
ATOM     67  C   UNL A   1      41.597  34.752  38.685  1.00  0.00     0.173 A 
ATOM     68  C   UNL A   1      39.954  33.293  39.661  1.00  0.00     0.173 A 
ATOM     69  F   UNL A   1      42.407  35.103  37.674  1.00  0.00    -0.203 F 
ATOM     70  C   UNL A   1      41.628  35.499  39.860  1.00  0.00     0.198 A 
ATOM     71  C   UNL A   1      39.966  34.059  40.822  1.00  0.00     0.198 A 
ATOM     72  F   UNL A   1      39.141  32.227  39.598  1.00  0.00    -0.203 F 
ATOM     73  F   UNL A   1      42.463  36.541  39.968  1.00  0.00    -0.200 F 
ATOM     74  C   UNL A   1      40.808  35.156  40.925  1.00  0.00     0.200 A 
ATOM     75  F   UNL A   1      39.164  33.733  41.846  1.00  0.00    -0.200 F 
ATOM     76  F   UNL A   1      40.834  35.879  42.052  1.00  0.00    -0.200 F 
ENDBRANCH  52  66
BRANCH  53  77
ATOM     77  C   UNL A   1      40.097  28.520  30.033  1.00  0.00     0.064 A 
ATOM     78  C   UNL A   1      39.479  27.264  29.956  1.00  0.00     0.173 A 
ATOM     79  C   UNL A   1      40.685  29.029  28.866  1.00  0.00     0.173 A 
ATOM     80  F   UNL A   1      38.931  26.719  31.052  1.00  0.00    -0.203 F 
ATOM     81  C   UNL A   1      39.470  26.537  28.767  1.00  0.00     0.198 A 
ATOM     82  C   UNL A   1      40.649  28.315  27.670  1.00  0.00     0.198 A 
ATOM     83  F   UNL A   1      41.297  30.222  28.888  1.00  0.00    -0.203 F 
ATOM     84  F   UNL A   1      38.919  25.315  28.735  1.00  0.00    -0.200 F 
ATOM     85  C   UNL A   1      40.049  27.066  27.623  1.00  0.00     0.200 A 
ATOM     86  F   UNL A   1      41.206  28.833  26.566  1.00  0.00    -0.200 F 
ATOM     87  F   UNL A   1      40.041  26.366  26.480  1.00  0.00    -0.200 F 
ENDBRANCH  53  77
BRANCH  65  88
ATOM     88  C   UNL A   1      44.735  28.615  35.236  1.00  0.00     0.064 A 
ATOM     89  C   UNL A   1      44.744  27.387  35.914  1.00  0.00     0.173 A 
ATOM     90  C   UNL A   1      45.957  29.100  34.741  1.00  0.00     0.173 A 
ATOM     91  F   UNL A   1      43.608  26.886  36.419  1.00  0.00    -0.203 F 
ATOM     92  C   UNL A   1      45.932  26.686  36.109  1.00  0.00     0.198 A 
ATOM     93  C   UNL A   1      47.136  28.380  34.910  1.00  0.00     0.198 A 
ATOM     94  F   UNL A   1      46.003  30.265  34.077  1.00  0.00    -0.203 F 
ATOM     95  F   UNL A   1      45.925  25.537  36.799  1.00  0.00    -0.200 F 
ATOM     96  C   UNL A   1      47.125  27.179  35.600  1.00  0.00     0.200 A 
ATOM     97  F   UNL A   1      48.285  28.851  34.404  1.00  0.00    -0.200 F 
ATOM     98  F   UNL A   1      48.265  26.497  35.780  1.00  0.00    -0.200 F 
ENDBRANCH  65  88
ENDBRANCH  39  40
ENDBRANCH  32  34
ENDBRANCH  31  32
ENDBRANCH  30  31
ENDBRANCH  29  30
ENDBRANCH  28  29
ENDBRANCH  27  28
ENDBRANCH   1  27
TORSDOF 22
ENDMDL
MODEL 3
REMARK VINA RESULT:     -10.0      6.491     11.120
REMARK SMILES CCOc1cc(C(=O)OCCOCCOCCOC(=O)c2ccc(-c3c4nc(c(-c5c(F)c(F)c(F)c(F)c5F)c5ccc([nH]5)c(-c5c(F)c(F)c(F)c(F)c5F)c5nc(c(-c6c(F)c(F)c(F)c(F)c6F)c6ccc3[nH]6)C=C5)C=C4)cc2)ccc1OCc1ccc(Cl)c(Cl)c1
REMARK SMILES IDX 13 1 12 2 11 3 10 4 9 5 7 6 8 7 6 8 4 9 5 10 86 11 85 12
REMARK SMILES IDX 84 13 3 14 2 15 1 16 87 17 88 18 89 19 90 20 96 21 91 22
REMARK SMILES IDX 94 23 92 24 95 25 93 26 14 27 15 28 16 29 17 30 18 31 19 32
REMARK SMILES IDX 20 33 21 34 22 35 83 36 23 37 82 38 24 39 25 40 26 41 76 42
REMARK SMILES IDX 27 43 81 44 75 45 77 46 28 47 80 48 74 49 73 50 29 52 61 53
REMARK SMILES IDX 41 54 60 55 42 56 45 57 59 58 78 59 43 60 44 61 58 63 79 64
REMARK SMILES IDX 46 65 30 66 31 67 39 68 32 69 33 70 37 71 40 72 34 73 35 74
REMARK SMILES IDX 38 75 36 76 62 77 63 78 71 79 64 80 65 81 69 82 72 83 66 84
REMARK SMILES IDX 67 85 70 86 68 87 47 88 48 89 56 90 49 91 50 92 54 93 57 94
REMARK SMILES IDX 51 95 52 96 55 97 53 98
REMARK H PARENT 77 51 45 62
REMARK Flexibility Score: inf
ROOT
ATOM      1  C   UNL A   1      36.547  23.242  24.635  1.00  0.00     0.188 C 
ENDROOT
BRANCH   1   2
ATOM      2  O   UNL A   1      35.455  23.462  25.522  1.00  0.00    -0.376 OA
BRANCH   2   3
ATOM      3  C   UNL A   1      35.145  22.497  26.520  1.00  0.00     0.202 C 
BRANCH   3   4
ATOM      4  C   UNL A   1      34.488  21.195  26.055  1.00  0.00     0.261 C 
BRANCH   4   5
ATOM      5  O   UNL A   1      33.079  21.138  26.332  1.00  0.00    -0.460 OA
BRANCH   5   6
ATOM      6  C   UNL A   1      32.249  21.099  25.262  1.00  0.00     0.338 C 
ATOM      7  O   UNL A   1      31.859  20.115  24.654  1.00  0.00    -0.246 OA
BRANCH   6   8
ATOM      8  C   UNL A   1      31.757  22.464  24.980  1.00  0.00     0.064 A 
ATOM      9  C   UNL A   1      31.612  24.392  23.520  1.00  0.00     0.162 A 
ATOM     10  C   UNL A   1      31.950  23.051  23.709  1.00  0.00     0.066 A 
ATOM     11  C   UNL A   1      31.225  25.144  24.641  1.00  0.00     0.161 A 
ATOM     12  C   UNL A   1      30.865  24.517  25.833  1.00  0.00     0.051 A 
ATOM     13  C   UNL A   1      31.121  23.167  26.006  1.00  0.00     0.020 A 
BRANCH   9  14
ATOM     14  O   UNL A   1      31.590  25.047  22.324  1.00  0.00    -0.490 OA
BRANCH  14  15
ATOM     15  C   UNL A   1      32.782  25.250  21.572  1.00  0.00     0.226 C 
ATOM     16  C   UNL A   1      33.649  26.215  22.377  1.00  0.00     0.049 C 
ENDBRANCH  14  15
ENDBRANCH   9  14
BRANCH  11  17
ATOM     17  O   UNL A   1      31.249  26.509  24.732  1.00  0.00    -0.485 OA
BRANCH  17  18
ATOM     18  C   UNL A   1      30.967  27.100  26.009  1.00  0.00     0.265 C 
BRANCH  18  19
ATOM     19  C   UNL A   1      31.867  28.204  26.579  1.00  0.00    -0.009 A 
ATOM     20  C   UNL A   1      33.207  28.003  26.942  1.00  0.00     0.009 A 
ATOM     21  C   UNL A   1      31.403  29.528  26.600  1.00  0.00     0.029 A 
ATOM     22  C   UNL A   1      34.067  29.061  27.256  1.00  0.00     0.022 A 
ATOM     23  C   UNL A   1      32.255  30.599  26.921  1.00  0.00     0.060 A 
ATOM     24  C   UNL A   1      33.597  30.366  27.232  1.00  0.00     0.059 A 
ATOM     25  Cl  UNL A   1      31.590  32.193  26.876  1.00  0.00    -0.083 Cl
ATOM     26  Cl  UNL A   1      34.723  31.631  27.564  1.00  0.00    -0.083 Cl
ENDBRANCH  18  19
ENDBRANCH  17  18
ENDBRANCH  11  17
ENDBRANCH   6   8
ENDBRANCH   5   6
ENDBRANCH   4   5
ENDBRANCH   3   4
ENDBRANCH   2   3
ENDBRANCH   1   2
BRANCH   1  27
ATOM     27  C   UNL A   1      37.695  22.301  25.061  1.00  0.00     0.188 C 
BRANCH  27  28
ATOM     28  O   UNL A   1      37.683  21.085  24.351  1.00  0.00    -0.376 OA
BRANCH  28  29
ATOM     29  C   UNL A   1      38.021  19.887  25.015  1.00  0.00     0.202 C 
BRANCH  29  30
ATOM     30  C   UNL A   1      39.278  19.770  25.894  1.00  0.00     0.261 C 
BRANCH  30  31
ATOM     31  O   UNL A   1      40.557  19.782  25.249  1.00  0.00    -0.460 OA
BRANCH  31  32
ATOM     32  C   UNL A   1      41.639  19.444  25.986  1.00  0.00     0.338 C 
ATOM     33  O   UNL A   1      42.045  18.323  26.224  1.00  0.00    -0.246 OA
BRANCH  32  34
ATOM     34  C   UNL A   1      42.370  20.688  26.325  1.00  0.00     0.060 A 
ATOM     35  C   UNL A   1      42.269  21.201  27.624  1.00  0.00     0.016 A 
ATOM     36  C   UNL A   1      43.151  21.346  25.368  1.00  0.00     0.016 A 
ATOM     37  C   UNL A   1      42.921  22.392  27.955  1.00  0.00     0.010 A 
ATOM     38  C   UNL A   1      43.793  22.545  25.702  1.00  0.00     0.010 A 
ATOM     39  C   UNL A   1      43.660  23.089  26.991  1.00  0.00    -0.014 A 
BRANCH  39  40
ATOM     40  C   UNL A   1      44.128  24.470  27.274  1.00  0.00     0.031 A 
ATOM     41  C   UNL A   1      43.110  25.499  27.687  1.00  0.00     0.074 A 
ATOM     42  C   UNL A   1      45.426  24.813  27.186  1.00  0.00     0.049 A 
ATOM     43  N   UNL A   1      43.263  26.777  27.922  1.00  0.00    -0.248 NA
ATOM     44  C   UNL A   1      41.732  25.014  27.860  1.00  0.00     0.031 C 
ATOM     45  C   UNL A   1      46.520  23.907  26.845  1.00  0.00     0.029 A 
ATOM     46  N   UNL A   1      46.038  26.029  27.364  1.00  0.00    -0.354 N 
ATOM     47  C   UNL A   1      42.001  27.251  28.259  1.00  0.00     0.074 A 
ATOM     48  C   UNL A   1      41.091  26.129  28.177  1.00  0.00     0.031 C 
ATOM     49  C   UNL A   1      47.669  24.605  26.817  1.00  0.00     0.029 A 
ATOM     50  C   UNL A   1      47.387  26.011  27.105  1.00  0.00     0.049 A 
ATOM     51  H   UNL A   1      45.557  26.839  27.652  1.00  0.00     0.167 HD
ATOM     52  C   UNL A   1      41.633  28.506  28.611  1.00  0.00     0.037 A 
ATOM     53  C   UNL A   1      48.282  27.019  27.074  1.00  0.00     0.037 A 
ATOM     54  C   UNL A   1      42.534  29.626  28.686  1.00  0.00     0.049 A 
ATOM     55  C   UNL A   1      47.832  28.426  27.384  1.00  0.00     0.074 A 
ATOM     56  C   UNL A   1      42.256  30.934  29.045  1.00  0.00     0.029 A 
ATOM     57  N   UNL A   1      43.885  29.573  28.384  1.00  0.00    -0.354 N 
ATOM     58  N   UNL A   1      46.643  28.863  27.725  1.00  0.00    -0.248 NA
ATOM     59  C   UNL A   1      48.853  29.484  27.306  1.00  0.00     0.031 C 
ATOM     60  C   UNL A   1      43.429  31.683  28.911  1.00  0.00     0.029 A 
ATOM     61  C   UNL A   1      44.450  30.830  28.524  1.00  0.00     0.049 A 
ATOM     62  H   UNL A   1      44.372  28.762  28.111  1.00  0.00     0.167 HD
ATOM     63  C   UNL A   1      46.780  30.230  27.931  1.00  0.00     0.074 A 
ATOM     64  C   UNL A   1      48.170  30.553  27.687  1.00  0.00     0.031 C 
ATOM     65  C   UNL A   1      45.839  31.138  28.292  1.00  0.00     0.037 A 
BRANCH  52  66
ATOM     66  C   UNL A   1      40.183  28.740  28.913  1.00  0.00     0.064 A 
ATOM     67  C   UNL A   1      39.275  29.122  27.914  1.00  0.00     0.173 A 
ATOM     68  C   UNL A   1      39.690  28.553  30.213  1.00  0.00     0.173 A 
ATOM     69  F   UNL A   1      39.700  29.330  26.658  1.00  0.00    -0.203 F 
ATOM     70  C   UNL A   1      37.930  29.332  28.212  1.00  0.00     0.198 A 
ATOM     71  C   UNL A   1      38.341  28.735  30.500  1.00  0.00     0.198 A 
ATOM     72  F   UNL A   1      40.518  28.186  31.203  1.00  0.00    -0.203 F 
ATOM     73  F   UNL A   1      37.090  29.743  27.253  1.00  0.00    -0.200 F 
ATOM     74  C   UNL A   1      37.464  29.132  29.502  1.00  0.00     0.200 A 
ATOM     75  F   UNL A   1      37.889  28.531  31.746  1.00  0.00    -0.200 F 
ATOM     76  F   UNL A   1      36.169  29.329  29.786  1.00  0.00    -0.200 F 
ENDBRANCH  52  66
BRANCH  53  77
ATOM     77  C   UNL A   1      49.700  26.749  26.715  1.00  0.00     0.064 A 
ATOM     78  C   UNL A   1      50.113  26.717  25.375  1.00  0.00     0.173 A 
ATOM     79  C   UNL A   1      50.662  26.480  27.698  1.00  0.00     0.173 A 
ATOM     80  F   UNL A   1      49.223  26.935  24.395  1.00  0.00    -0.203 F 
ATOM     81  C   UNL A   1      51.427  26.406  25.033  1.00  0.00     0.198 A 
ATOM     82  C   UNL A   1      51.983  26.198  27.357  1.00  0.00     0.198 A 
ATOM     83  F   UNL A   1      50.317  26.488  28.994  1.00  0.00    -0.203 F 
ATOM     84  F   UNL A   1      51.782  26.329  23.743  1.00  0.00    -0.200 F 
ATOM     85  C   UNL A   1      52.363  26.153  26.025  1.00  0.00     0.200 A 
ATOM     86  F   UNL A   1      52.885  25.959  28.320  1.00  0.00    -0.200 F 
ATOM     87  F   UNL A   1      53.627  25.852  25.696  1.00  0.00    -0.200 F 
ENDBRANCH  53  77
BRANCH  65  88
ATOM     88  C   UNL A   1      46.282  32.559  28.493  1.00  0.00     0.064 A 
ATOM     89  C   UNL A   1      46.250  33.498  27.451  1.00  0.00     0.173 A 
ATOM     90  C   UNL A   1      46.697  33.000  29.760  1.00  0.00     0.173 A 
ATOM     91  F   UNL A   1      45.875  33.126  26.218  1.00  0.00    -0.203 F 
ATOM     92  C   UNL A   1      46.641  34.818  27.664  1.00  0.00     0.198 A 
ATOM     93  C   UNL A   1      47.056  34.327  29.977  1.00  0.00     0.198 A 
ATOM     94  F   UNL A   1      46.736  32.146  30.794  1.00  0.00    -0.203 F 
ATOM     95  F   UNL A   1      46.647  35.687  26.644  1.00  0.00    -0.200 F 
ATOM     96  C   UNL A   1      47.036  35.233  28.928  1.00  0.00     0.200 A 
ATOM     97  F   UNL A   1      47.422  34.730  31.202  1.00  0.00    -0.200 F 
ATOM     98  F   UNL A   1      47.402  36.506  29.133  1.00  0.00    -0.200 F 
ENDBRANCH  65  88
ENDBRANCH  39  40
ENDBRANCH  32  34
ENDBRANCH  31  32
ENDBRANCH  30  31
ENDBRANCH  29  30
ENDBRANCH  28  29
ENDBRANCH  27  28
ENDBRANCH   1  27
TORSDOF 22
ENDMDL
