MODEL 1
REMARK VINA RESULT:     -11.3      0.000      0.000
REMARK SMILES CNC(=O)c1cccc(-c2ccc(C(=O)OCCOCCOCCOC(=O)c3ccc(-c4c5nc(c(-c6c(F)c(F)c(F)c(F)c6F)c6ccc([nH]6)c(-c6c(F)c(F)c(F)c(F)c6F)c6nc(c(-c7c(F)c(F)c(F)c(F)c7F)c7ccc4[nH]7)C=C6)C=C5)cc3)cc2O)c1
REMARK SMILES IDX 20 1 19 2 18 3 17 4 16 5 14 6 15 7 13 8 10 9 11 10 92 11
REMARK SMILES IDX 12 12 91 13 9 14 5 15 6 16 94 17 7 18 8 19 3 20 1 21 2 22
REMARK SMILES IDX 4 24 93 25 21 27 22 28 23 29 24 30 25 31 26 32 27 33 28 34
REMARK SMILES IDX 29 35 90 36 30 37 89 38 31 39 32 40 33 41 83 42 34 43 88 44
REMARK SMILES IDX 82 45 84 46 35 47 87 48 81 49 80 50 36 52 68 53 48 54 67 55
REMARK SMILES IDX 49 56 52 57 66 58 85 59 50 60 51 61 65 63 86 64 53 65 37 66
REMARK SMILES IDX 38 67 46 68 39 69 40 70 44 71 47 72 41 73 42 74 45 75 43 76
REMARK SMILES IDX 69 77 70 78 78 79 71 80 72 81 76 82 79 83 73 84 74 85 77 86
REMARK SMILES IDX 75 87 54 88 55 89 63 90 56 91 57 92 61 93 64 94 58 95 59 96
REMARK SMILES IDX 62 97 60 98
REMARK H PARENT 2 23 93 26 84 51 52 62
REMARK Flexibility Score: inf
ROOT
ATOM      1  C   UNL A   1      34.349  31.301  27.927  1.00  0.00     0.188 C 
ENDROOT
BRANCH   1   2
ATOM      2  O   UNL A   1      33.631  30.674  26.868  1.00  0.00    -0.376 OA
BRANCH   2   3
ATOM      3  C   UNL A   1      32.208  30.648  26.889  1.00  0.00     0.202 C 
BRANCH   3   4
ATOM      4  C   UNL A   1      31.449  30.397  25.579  1.00  0.00     0.261 C 
BRANCH   4   5
ATOM      5  O   UNL A   1      32.104  29.491  24.679  1.00  0.00    -0.460 OA
BRANCH   5   6
ATOM      6  C   UNL A   1      31.309  28.953  23.717  1.00  0.00     0.338 C 
ATOM      7  O   UNL A   1      30.583  29.545  22.949  1.00  0.00    -0.246 OA
BRANCH   6   8
ATOM      8  C   UNL A   1      31.585  27.502  23.591  1.00  0.00     0.063 A 
ATOM      9  C   UNL A   1      32.115  24.730  23.521  1.00  0.00     0.024 A 
ATOM     10  C   UNL A   1      31.287  25.281  24.515  1.00  0.00     0.013 A 
ATOM     11  C   UNL A   1      32.608  25.600  22.527  1.00  0.00     0.124 A 
ATOM     12  C   UNL A   1      31.031  26.653  24.555  1.00  0.00     0.016 A 
ATOM     13  C   UNL A   1      32.357  26.973  22.558  1.00  0.00     0.062 A 
BRANCH   9  14
ATOM     14  C   UNL A   1      32.532  23.322  23.631  1.00  0.00    -0.014 A 
ATOM     15  C   UNL A   1      34.003  21.657  24.648  1.00  0.00     0.040 A 
ATOM     16  C   UNL A   1      33.324  20.640  23.973  1.00  0.00     0.014 A 
ATOM     17  C   UNL A   1      33.621  22.987  24.456  1.00  0.00     0.022 A 
ATOM     18  C   UNL A   1      32.244  20.952  23.146  1.00  0.00     0.001 A 
ATOM     19  C   UNL A   1      31.847  22.282  22.982  1.00  0.00     0.009 A 
BRANCH  15  20
ATOM     20  C   UNL A   1      35.176  21.305  25.482  1.00  0.00     0.251 C 
ATOM     21  C   UNL A   1      34.029  21.711  27.723  1.00  0.00     0.143 C 
ATOM     22  N   UNL A   1      35.147  21.446  26.846  1.00  0.00    -0.355 N 
ATOM     23  H   UNL A   1      36.018  21.353  27.294  1.00  0.00     0.163 HD
ATOM     24  O   UNL A   1      36.193  20.885  24.936  1.00  0.00    -0.269 OA
ENDBRANCH  15  20
ENDBRANCH   9  14
BRANCH  11  25
ATOM     25  O   UNL A   1      33.373  25.159  21.479  1.00  0.00    -0.507 OA
ATOM     26  H   UNL A   1      33.651  24.266  21.445  1.00  0.00     0.293 HD
ENDBRANCH  11  25
ENDBRANCH   6   8
ENDBRANCH   5   6
ENDBRANCH   4   5
ENDBRANCH   3   4
ENDBRANCH   2   3
ENDBRANCH   1   2
BRANCH   1  27
ATOM     27  C   UNL A   1      34.424  32.840  28.010  1.00  0.00     0.188 C 
BRANCH  27  28
ATOM     28  O   UNL A   1      33.636  33.384  29.045  1.00  0.00    -0.376 OA
BRANCH  28  29
ATOM     29  C   UNL A   1      34.257  34.218  30.006  1.00  0.00     0.202 C 
BRANCH  29  30
ATOM     30  C   UNL A   1      34.374  33.784  31.479  1.00  0.00     0.261 C 
BRANCH  30  31
ATOM     31  O   UNL A   1      34.733  32.421  31.740  1.00  0.00    -0.460 OA
BRANCH  31  32
ATOM     32  C   UNL A   1      35.717  32.198  32.639  1.00  0.00     0.338 C 
ATOM     33  O   UNL A   1      35.682  32.401  33.838  1.00  0.00    -0.246 OA
BRANCH  32  34
ATOM     34  C   UNL A   1      36.821  31.507  31.940  1.00  0.00     0.060 A 
ATOM     35  C   UNL A   1      37.845  30.928  32.701  1.00  0.00     0.016 A 
ATOM     36  C   UNL A   1      36.851  31.438  30.546  1.00  0.00     0.016 A 
ATOM     37  C   UNL A   1      38.916  30.297  32.062  1.00  0.00     0.010 A 
ATOM     38  C   UNL A   1      37.932  30.820  29.908  1.00  0.00     0.010 A 
ATOM     39  C   UNL A   1      38.982  30.268  30.662  1.00  0.00    -0.014 A 
BRANCH  39  40
ATOM     40  C   UNL A   1      40.216  29.791  29.987  1.00  0.00     0.031 A 
ATOM     41  C   UNL A   1      41.353  30.754  29.784  1.00  0.00     0.074 A 
ATOM     42  C   UNL A   1      40.330  28.519  29.565  1.00  0.00     0.049 A 
ATOM     43  N   UNL A   1      42.505  30.570  29.193  1.00  0.00    -0.248 NA
ATOM     44  C   UNL A   1      41.161  32.111  30.322  1.00  0.00     0.031 C 
ATOM     45  C   UNL A   1      39.312  27.483  29.719  1.00  0.00     0.029 A 
ATOM     46  N   UNL A   1      41.357  27.888  28.904  1.00  0.00    -0.354 N 
ATOM     47  C   UNL A   1      43.173  31.785  29.282  1.00  0.00     0.074 A 
ATOM     48  C   UNL A   1      42.287  32.707  29.961  1.00  0.00     0.031 C 
ATOM     49  C   UNL A   1      39.757  26.347  29.152  1.00  0.00     0.029 A 
ATOM     50  C   UNL A   1      41.079  26.585  28.572  1.00  0.00     0.049 A 
ATOM     51  H   UNL A   1      42.211  28.329  28.689  1.00  0.00     0.167 HD
ATOM     52  C   UNL A   1      44.414  32.102  28.844  1.00  0.00     0.037 A 
ATOM     53  C   UNL A   1      41.800  25.696  27.859  1.00  0.00     0.037 A 
ATOM     54  C   UNL A   1      45.295  31.188  28.166  1.00  0.00     0.049 A 
ATOM     55  C   UNL A   1      43.155  26.093  27.327  1.00  0.00     0.074 A 
ATOM     56  C   UNL A   1      46.585  31.407  27.715  1.00  0.00     0.029 A 
ATOM     57  N   UNL A   1      44.970  29.882  27.828  1.00  0.00    -0.354 N 
ATOM     58  N   UNL A   1      43.797  27.228  27.458  1.00  0.00    -0.248 NA
ATOM     59  C   UNL A   1      43.885  25.080  26.550  1.00  0.00     0.031 C 
ATOM     60  C   UNL A   1      47.021  30.252  27.057  1.00  0.00     0.029 A 
ATOM     61  C   UNL A   1      46.025  29.294  27.147  1.00  0.00     0.049 A 
ATOM     62  H   UNL A   1      44.117  29.439  28.042  1.00  0.00     0.167 HD
ATOM     63  C   UNL A   1      45.013  27.058  26.806  1.00  0.00     0.074 A 
ATOM     64  C   UNL A   1      45.026  25.705  26.294  1.00  0.00     0.031 C 
ATOM     65  C   UNL A   1      46.027  27.943  26.647  1.00  0.00     0.037 A 
BRANCH  52  66
ATOM     66  C   UNL A   1      44.888  33.509  29.060  1.00  0.00     0.064 A 
ATOM     67  C   UNL A   1      45.676  33.861  30.166  1.00  0.00     0.173 A 
ATOM     68  C   UNL A   1      44.584  34.510  28.125  1.00  0.00     0.173 A 
ATOM     69  F   UNL A   1      45.982  32.943  31.096  1.00  0.00    -0.203 F 
ATOM     70  C   UNL A   1      46.123  35.168  30.339  1.00  0.00     0.198 A 
ATOM     71  C   UNL A   1      45.057  35.810  28.287  1.00  0.00     0.198 A 
ATOM     72  F   UNL A   1      43.837  34.226  27.048  1.00  0.00    -0.203 F 
ATOM     73  F   UNL A   1      46.839  35.491  31.425  1.00  0.00    -0.200 F 
ATOM     74  C   UNL A   1      45.820  36.139  29.396  1.00  0.00     0.200 A 
ATOM     75  F   UNL A   1      44.773  36.744  27.368  1.00  0.00    -0.200 F 
ATOM     76  F   UNL A   1      46.260  37.394  29.561  1.00  0.00    -0.200 F 
ENDBRANCH  52  66
BRANCH  53  77
ATOM     77  C   UNL A   1      41.251  24.341  27.587  1.00  0.00     0.064 A 
ATOM     78  C   UNL A   1      41.821  23.199  28.164  1.00  0.00     0.173 A 
ATOM     79  C   UNL A   1      40.164  24.160  26.718  1.00  0.00     0.173 A 
ATOM     80  F   UNL A   1      42.880  23.317  28.978  1.00  0.00    -0.203 F 
ATOM     81  C   UNL A   1      41.339  21.924  27.866  1.00  0.00     0.198 A 
ATOM     82  C   UNL A   1      39.664  22.889  26.443  1.00  0.00     0.198 A 
ATOM     83  F   UNL A   1      39.587  25.221  26.135  1.00  0.00    -0.203 F 
ATOM     84  F   UNL A   1      41.936  20.846  28.390  1.00  0.00    -0.200 F 
ATOM     85  C   UNL A   1      40.257  21.771  27.011  1.00  0.00     0.200 A 
ATOM     86  F   UNL A   1      38.615  22.747  25.623  1.00  0.00    -0.200 F 
ATOM     87  F   UNL A   1      39.796  20.547  26.725  1.00  0.00    -0.200 F 
ENDBRANCH  53  77
BRANCH  65  88
ATOM     88  C   UNL A   1      47.252  27.470  25.918  1.00  0.00     0.064 A 
ATOM     89  C   UNL A   1      48.325  26.865  26.590  1.00  0.00     0.173 A 
ATOM     90  C   UNL A   1      47.337  27.586  24.521  1.00  0.00     0.173 A 
ATOM     91  F   UNL A   1      48.300  26.742  27.926  1.00  0.00    -0.203 F 
ATOM     92  C   UNL A   1      49.446  26.419  25.896  1.00  0.00     0.198 A 
ATOM     93  C   UNL A   1      48.446  27.111  23.827  1.00  0.00     0.198 A 
ATOM     94  F   UNL A   1      46.336  28.150  23.828  1.00  0.00    -0.203 F 
ATOM     95  F   UNL A   1      50.479  25.888  26.564  1.00  0.00    -0.200 F 
ATOM     96  C   UNL A   1      49.503  26.536  24.515  1.00  0.00     0.200 A 
ATOM     97  F   UNL A   1      48.492  27.211  22.491  1.00  0.00    -0.200 F 
ATOM     98  F   UNL A   1      50.579  26.097  23.847  1.00  0.00    -0.200 F 
ENDBRANCH  65  88
ENDBRANCH  39  40
ENDBRANCH  32  34
ENDBRANCH  31  32
ENDBRANCH  30  31
ENDBRANCH  29  30
ENDBRANCH  28  29
ENDBRANCH  27  28
ENDBRANCH   1  27
TORSDOF 20
ENDMDL
MODEL 2
REMARK VINA RESULT:     -10.8      0.631      2.014
REMARK SMILES CNC(=O)c1cccc(-c2ccc(C(=O)OCCOCCOCCOC(=O)c3ccc(-c4c5nc(c(-c6c(F)c(F)c(F)c(F)c6F)c6ccc([nH]6)c(-c6c(F)c(F)c(F)c(F)c6F)c6nc(c(-c7c(F)c(F)c(F)c(F)c7F)c7ccc4[nH]7)C=C6)C=C5)cc3)cc2O)c1
REMARK SMILES IDX 20 1 19 2 18 3 17 4 16 5 14 6 15 7 13 8 10 9 11 10 92 11
REMARK SMILES IDX 12 12 91 13 9 14 5 15 6 16 94 17 7 18 8 19 3 20 1 21 2 22
REMARK SMILES IDX 4 24 93 25 21 27 22 28 23 29 24 30 25 31 26 32 27 33 28 34
REMARK SMILES IDX 29 35 90 36 30 37 89 38 31 39 32 40 33 41 83 42 34 43 88 44
REMARK SMILES IDX 82 45 84 46 35 47 87 48 81 49 80 50 36 52 68 53 48 54 67 55
REMARK SMILES IDX 49 56 52 57 66 58 85 59 50 60 51 61 65 63 86 64 53 65 37 66
REMARK SMILES IDX 38 67 46 68 39 69 40 70 44 71 47 72 41 73 42 74 45 75 43 76
REMARK SMILES IDX 69 77 70 78 78 79 71 80 72 81 76 82 79 83 73 84 74 85 77 86
REMARK SMILES IDX 75 87 54 88 55 89 63 90 56 91 57 92 61 93 64 94 58 95 59 96
REMARK SMILES IDX 62 97 60 98
REMARK H PARENT 2 23 93 26 84 51 52 62
REMARK Flexibility Score: inf
ROOT
ATOM      1  C   UNL A   1      34.265  30.943  27.989  1.00  0.00     0.188 C 
ENDROOT
BRANCH   1   2
ATOM      2  O   UNL A   1      33.530  30.285  26.961  1.00  0.00    -0.376 OA
BRANCH   2   3
ATOM      3  C   UNL A   1      32.129  30.495  26.839  1.00  0.00     0.202 C 
BRANCH   3   4
ATOM      4  C   UNL A   1      31.445  30.195  25.499  1.00  0.00     0.261 C 
BRANCH   4   5
ATOM      5  O   UNL A   1      31.772  28.914  24.942  1.00  0.00    -0.460 OA
BRANCH   5   6
ATOM      6  C   UNL A   1      30.915  28.460  23.988  1.00  0.00     0.338 C 
ATOM      7  O   UNL A   1      30.131  29.114  23.336  1.00  0.00    -0.246 OA
BRANCH   6   8
ATOM      8  C   UNL A   1      31.196  27.034  23.697  1.00  0.00     0.063 A 
ATOM      9  C   UNL A   1      31.661  24.279  23.295  1.00  0.00     0.024 A 
ATOM     10  C   UNL A   1      30.500  24.726  23.950  1.00  0.00     0.013 A 
ATOM     11  C   UNL A   1      32.542  25.257  22.789  1.00  0.00     0.124 A 
ATOM     12  C   UNL A   1      30.273  26.088  24.157  1.00  0.00     0.016 A 
ATOM     13  C   UNL A   1      32.323  26.621  22.989  1.00  0.00     0.062 A 
BRANCH   9  14
ATOM     14  C   UNL A   1      31.970  22.839  23.282  1.00  0.00    -0.014 A 
ATOM     15  C   UNL A   1      32.669  20.846  24.509  1.00  0.00     0.040 A 
ATOM     16  C   UNL A   1      32.484  20.071  23.362  1.00  0.00     0.014 A 
ATOM     17  C   UNL A   1      32.436  22.222  24.457  1.00  0.00     0.022 A 
ATOM     18  C   UNL A   1      32.028  20.665  22.184  1.00  0.00     0.001 A 
ATOM     19  C   UNL A   1      31.767  22.038  22.147  1.00  0.00     0.009 A 
BRANCH  15  20
ATOM     20  C   UNL A   1      33.201  20.200  25.732  1.00  0.00     0.251 C 
ATOM     21  C   UNL A   1      35.005  21.946  26.180  1.00  0.00     0.143 C 
ATOM     22  N   UNL A   1      34.309  20.694  26.372  1.00  0.00    -0.355 N 
ATOM     23  H   UNL A   1      34.687  20.107  27.067  1.00  0.00     0.163 HD
ATOM     24  O   UNL A   1      32.639  19.200  26.173  1.00  0.00    -0.269 OA
ENDBRANCH  15  20
ENDBRANCH   9  14
BRANCH  11  25
ATOM     25  O   UNL A   1      33.671  24.933  22.083  1.00  0.00    -0.507 OA
ATOM     26  H   UNL A   1      34.391  25.530  22.051  1.00  0.00     0.293 HD
ENDBRANCH  11  25
ENDBRANCH   6   8
ENDBRANCH   5   6
ENDBRANCH   4   5
ENDBRANCH   3   4
ENDBRANCH   2   3
ENDBRANCH   1   2
BRANCH   1  27
ATOM     27  C   UNL A   1      34.451  32.475  27.952  1.00  0.00     0.188 C 
BRANCH  27  28
ATOM     28  O   UNL A   1      33.639  33.160  28.878  1.00  0.00    -0.376 OA
BRANCH  28  29
ATOM     29  C   UNL A   1      34.251  34.063  29.781  1.00  0.00     0.202 C 
BRANCH  29  30
ATOM     30  C   UNL A   1      34.402  33.716  31.273  1.00  0.00     0.261 C 
BRANCH  30  31
ATOM     31  O   UNL A   1      34.697  32.354  31.608  1.00  0.00    -0.460 OA
BRANCH  31  32
ATOM     32  C   UNL A   1      35.676  32.134  32.514  1.00  0.00     0.338 C 
ATOM     33  O   UNL A   1      35.633  32.339  33.713  1.00  0.00    -0.246 OA
BRANCH  32  34
ATOM     34  C   UNL A   1      36.785  31.444  31.823  1.00  0.00     0.060 A 
ATOM     35  C   UNL A   1      37.809  30.874  32.590  1.00  0.00     0.016 A 
ATOM     36  C   UNL A   1      36.819  31.366  30.429  1.00  0.00     0.016 A 
ATOM     37  C   UNL A   1      38.886  30.245  31.959  1.00  0.00     0.010 A 
ATOM     38  C   UNL A   1      37.906  30.749  29.798  1.00  0.00     0.010 A 
ATOM     39  C   UNL A   1      38.956  30.207  30.559  1.00  0.00    -0.014 A 
BRANCH  39  40
ATOM     40  C   UNL A   1      40.194  29.732  29.890  1.00  0.00     0.031 A 
ATOM     41  C   UNL A   1      41.335  30.693  29.705  1.00  0.00     0.074 A 
ATOM     42  C   UNL A   1      40.308  28.462  29.459  1.00  0.00     0.049 A 
ATOM     43  N   UNL A   1      42.493  30.510  29.122  1.00  0.00    -0.248 NA
ATOM     44  C   UNL A   1      41.143  32.046  30.252  1.00  0.00     0.031 C 
ATOM     45  C   UNL A   1      39.286  27.429  29.596  1.00  0.00     0.029 A 
ATOM     46  N   UNL A   1      41.339  27.834  28.802  1.00  0.00    -0.354 N 
ATOM     47  C   UNL A   1      43.163  31.722  29.227  1.00  0.00     0.074 A 
ATOM     48  C   UNL A   1      42.274  32.641  29.906  1.00  0.00     0.031 C 
ATOM     49  C   UNL A   1      39.733  26.296  29.025  1.00  0.00     0.029 A 
ATOM     50  C   UNL A   1      41.059  26.535  28.458  1.00  0.00     0.049 A 
ATOM     51  H   UNL A   1      42.195  28.274  28.598  1.00  0.00     0.167 HD
ATOM     52  C   UNL A   1      44.408  32.039  28.802  1.00  0.00     0.037 A 
ATOM     53  C   UNL A   1      41.784  25.649  27.743  1.00  0.00     0.037 A 
ATOM     54  C   UNL A   1      45.292  31.127  28.124  1.00  0.00     0.049 A 
ATOM     55  C   UNL A   1      43.144  26.046  27.226  1.00  0.00     0.074 A 
ATOM     56  C   UNL A   1      46.587  31.346  27.686  1.00  0.00     0.029 A 
ATOM     57  N   UNL A   1      44.967  29.826  27.773  1.00  0.00    -0.354 N 
ATOM     58  N   UNL A   1      43.789  27.178  27.372  1.00  0.00    -0.248 NA
ATOM     59  C   UNL A   1      43.878  25.038  26.448  1.00  0.00     0.031 C 
ATOM     60  C   UNL A   1      47.025  30.195  27.022  1.00  0.00     0.029 A 
ATOM     61  C   UNL A   1      46.025  29.240  27.097  1.00  0.00     0.049 A 
ATOM     62  H   UNL A   1      44.111  29.384  27.976  1.00  0.00     0.167 HD
ATOM     63  C   UNL A   1      45.010  27.009  26.729  1.00  0.00     0.074 A 
ATOM     64  C   UNL A   1      45.023  25.660  26.206  1.00  0.00     0.031 C 
ATOM     65  C   UNL A   1      46.028  27.893  26.586  1.00  0.00     0.037 A 
BRANCH  52  66
ATOM     66  C   UNL A   1      44.885  33.443  29.033  1.00  0.00     0.064 A 
ATOM     67  C   UNL A   1      44.627  34.471  28.114  1.00  0.00     0.173 A 
ATOM     68  C   UNL A   1      45.576  33.772  30.210  1.00  0.00     0.173 A 
ATOM     69  F   UNL A   1      43.983  34.204  26.967  1.00  0.00    -0.203 F 
ATOM     70  C   UNL A   1      45.061  35.772  28.355  1.00  0.00     0.198 A 
ATOM     71  C   UNL A   1      45.983  35.079  30.460  1.00  0.00     0.198 A 
ATOM     72  F   UNL A   1      45.846  32.826  31.122  1.00  0.00    -0.203 F 
ATOM     73  F   UNL A   1      44.839  36.730  27.445  1.00  0.00    -0.200 F 
ATOM     74  C   UNL A   1      45.731  36.076  29.531  1.00  0.00     0.200 A 
ATOM     75  F   UNL A   1      46.621  35.373  31.602  1.00  0.00    -0.200 F 
ATOM     76  F   UNL A   1      46.139  37.331  29.765  1.00  0.00    -0.200 F 
ENDBRANCH  52  66
BRANCH  53  77
ATOM     77  C   UNL A   1      41.233  24.298  27.456  1.00  0.00     0.064 A 
ATOM     78  C   UNL A   1      40.162  24.125  26.571  1.00  0.00     0.173 A 
ATOM     79  C   UNL A   1      41.748  23.156  28.089  1.00  0.00     0.173 A 
ATOM     80  F   UNL A   1      39.616  25.189  25.964  1.00  0.00    -0.203 F 
ATOM     81  C   UNL A   1      39.612  22.863  26.343  1.00  0.00     0.198 A 
ATOM     82  C   UNL A   1      41.217  21.892  27.840  1.00  0.00     0.198 A 
ATOM     83  F   UNL A   1      42.770  23.269  28.951  1.00  0.00    -0.203 F 
ATOM     84  F   UNL A   1      38.554  22.733  25.532  1.00  0.00    -0.200 F 
ATOM     85  C   UNL A   1      40.144  21.748  26.974  1.00  0.00     0.200 A 
ATOM     86  F   UNL A   1      41.739  20.817  28.445  1.00  0.00    -0.200 F 
ATOM     87  F   UNL A   1      39.615  20.537  26.755  1.00  0.00    -0.200 F 
ENDBRANCH  53  77
BRANCH  65  88
ATOM     88  C   UNL A   1      47.258  27.422  25.863  1.00  0.00     0.064 A 
ATOM     89  C   UNL A   1      47.416  27.598  24.481  1.00  0.00     0.173 A 
ATOM     90  C   UNL A   1      48.312  26.824  26.572  1.00  0.00     0.173 A 
ATOM     91  F   UNL A   1      46.432  28.152  23.755  1.00  0.00    -0.203 F 
ATOM     92  C   UNL A   1      48.570  27.169  23.831  1.00  0.00     0.198 A 
ATOM     93  C   UNL A   1      49.478  26.424  25.924  1.00  0.00     0.198 A 
ATOM     94  F   UNL A   1      48.218  26.639  27.897  1.00  0.00    -0.203 F 
ATOM     95  F   UNL A   1      48.678  27.304  22.502  1.00  0.00    -0.200 F 
ATOM     96  C   UNL A   1      49.603  26.589  24.553  1.00  0.00     0.200 A 
ATOM     97  F   UNL A   1      50.481  25.879  26.626  1.00  0.00    -0.200 F 
ATOM     98  F   UNL A   1      50.717  26.185  23.927  1.00  0.00    -0.200 F 
ENDBRANCH  65  88
ENDBRANCH  39  40
ENDBRANCH  32  34
ENDBRANCH  31  32
ENDBRANCH  30  31
ENDBRANCH  29  30
ENDBRANCH  28  29
ENDBRANCH  27  28
ENDBRANCH   1  27
TORSDOF 20
ENDMDL
MODEL 3
REMARK VINA RESULT:     -10.5      6.009     11.106
REMARK SMILES CNC(=O)c1cccc(-c2ccc(C(=O)OCCOCCOCCOC(=O)c3ccc(-c4c5nc(c(-c6c(F)c(F)c(F)c(F)c6F)c6ccc([nH]6)c(-c6c(F)c(F)c(F)c(F)c6F)c6nc(c(-c7c(F)c(F)c(F)c(F)c7F)c7ccc4[nH]7)C=C6)C=C5)cc3)cc2O)c1
REMARK SMILES IDX 20 1 19 2 18 3 17 4 16 5 14 6 15 7 13 8 10 9 11 10 92 11
REMARK SMILES IDX 12 12 91 13 9 14 5 15 6 16 94 17 7 18 8 19 3 20 1 21 2 22
REMARK SMILES IDX 4 24 93 25 21 27 22 28 23 29 24 30 25 31 26 32 27 33 28 34
REMARK SMILES IDX 29 35 90 36 30 37 89 38 31 39 32 40 33 41 83 42 34 43 88 44
REMARK SMILES IDX 82 45 84 46 35 47 87 48 81 49 80 50 36 52 68 53 48 54 67 55
REMARK SMILES IDX 49 56 52 57 66 58 85 59 50 60 51 61 65 63 86 64 53 65 37 66
REMARK SMILES IDX 38 67 46 68 39 69 40 70 44 71 47 72 41 73 42 74 45 75 43 76
REMARK SMILES IDX 69 77 70 78 78 79 71 80 72 81 76 82 79 83 73 84 74 85 77 86
REMARK SMILES IDX 75 87 54 88 55 89 63 90 56 91 57 92 61 93 64 94 58 95 59 96
REMARK SMILES IDX 62 97 60 98
REMARK H PARENT 2 23 93 26 84 51 52 62
REMARK Flexibility Score: inf
ROOT
ATOM      1  C   UNL A   1      44.923  24.123  28.403  1.00  0.00     0.188 C 
ENDROOT
BRANCH   1   2
ATOM      2  O   UNL A   1      43.796  24.992  28.456  1.00  0.00    -0.376 OA
BRANCH   2   3
ATOM      3  C   UNL A   1      42.486  24.474  28.262  1.00  0.00     0.202 C 
BRANCH   3   4
ATOM      4  C   UNL A   1      41.345  25.441  27.920  1.00  0.00     0.261 C 
BRANCH   4   5
ATOM      5  O   UNL A   1      41.157  26.496  28.875  1.00  0.00    -0.460 OA
BRANCH   5   6
ATOM      6  C   UNL A   1      39.970  27.153  28.789  1.00  0.00     0.338 C 
ATOM      7  O   UNL A   1      39.103  26.994  27.958  1.00  0.00    -0.246 OA
BRANCH   6   8
ATOM      8  C   UNL A   1      39.773  27.996  29.992  1.00  0.00     0.063 A 
ATOM      9  C   UNL A   1      39.231  29.558  32.279  1.00  0.00     0.024 A 
ATOM     10  C   UNL A   1      38.574  28.332  32.072  1.00  0.00     0.013 A 
ATOM     11  C   UNL A   1      40.215  29.938  31.343  1.00  0.00     0.124 A 
ATOM     12  C   UNL A   1      38.835  27.563  30.936  1.00  0.00     0.016 A 
ATOM     13  C   UNL A   1      40.484  29.175  30.206  1.00  0.00     0.062 A 
BRANCH   9  14
ATOM     14  C   UNL A   1      38.781  30.439  33.371  1.00  0.00    -0.014 A 
ATOM     15  C   UNL A   1      37.291  32.219  34.132  1.00  0.00     0.040 A 
ATOM     16  C   UNL A   1      37.797  32.092  35.428  1.00  0.00     0.014 A 
ATOM     17  C   UNL A   1      37.800  31.413  33.111  1.00  0.00     0.022 A 
ATOM     18  C   UNL A   1      38.775  31.136  35.705  1.00  0.00     0.001 A 
ATOM     19  C   UNL A   1      39.258  30.311  34.685  1.00  0.00     0.009 A 
BRANCH  15  20
ATOM     20  C   UNL A   1      36.289  33.274  33.855  1.00  0.00     0.251 C 
ATOM     21  C   UNL A   1      37.798  34.667  32.342  1.00  0.00     0.143 C 
ATOM     22  N   UNL A   1      36.615  34.390  33.125  1.00  0.00    -0.355 N 
ATOM     23  H   UNL A   1      35.943  35.108  33.138  1.00  0.00     0.163 HD
ATOM     24  O   UNL A   1      35.148  33.146  34.292  1.00  0.00    -0.269 OA
ENDBRANCH  15  20
ENDBRANCH   9  14
BRANCH  11  25
ATOM     25  O   UNL A   1      40.957  31.081  31.482  1.00  0.00    -0.507 OA
ATOM     26  H   UNL A   1      41.307  31.314  32.318  1.00  0.00     0.293 HD
ENDBRANCH  11  25
ENDBRANCH   6   8
ENDBRANCH   5   6
ENDBRANCH   4   5
ENDBRANCH   3   4
ENDBRANCH   2   3
ENDBRANCH   1   2
BRANCH   1  27
ATOM     27  C   UNL A   1      44.966  22.967  27.380  1.00  0.00     0.188 C 
BRANCH  27  28
ATOM     28  O   UNL A   1      46.175  22.905  26.657  1.00  0.00    -0.376 OA
BRANCH  28  29
ATOM     29  C   UNL A   1      46.152  23.192  25.270  1.00  0.00     0.202 C 
BRANCH  29  30
ATOM     30  C   UNL A   1      44.886  23.747  24.593  1.00  0.00     0.261 C 
BRANCH  30  31
ATOM     31  O   UNL A   1      44.635  25.153  24.714  1.00  0.00    -0.460 OA
BRANCH  31  32
ATOM     32  C   UNL A   1      45.698  25.959  24.931  1.00  0.00     0.338 C 
ATOM     33  O   UNL A   1      46.751  25.975  24.320  1.00  0.00    -0.246 OA
BRANCH  32  34
ATOM     34  C   UNL A   1      45.313  26.950  25.957  1.00  0.00     0.060 A 
ATOM     35  C   UNL A   1      46.290  27.420  26.844  1.00  0.00     0.016 A 
ATOM     36  C   UNL A   1      43.996  27.407  26.049  1.00  0.00     0.016 A 
ATOM     37  C   UNL A   1      45.943  28.332  27.845  1.00  0.00     0.010 A 
ATOM     38  C   UNL A   1      43.647  28.309  27.061  1.00  0.00     0.010 A 
ATOM     39  C   UNL A   1      44.614  28.756  27.979  1.00  0.00    -0.014 A 
BRANCH  39  40
ATOM     40  C   UNL A   1      44.204  29.554  29.164  1.00  0.00     0.031 A 
ATOM     41  C   UNL A   1      44.094  31.047  29.032  1.00  0.00     0.074 A 
ATOM     42  C   UNL A   1      43.927  28.960  30.339  1.00  0.00     0.049 A 
ATOM     43  N   UNL A   1      43.788  31.943  29.936  1.00  0.00    -0.248 NA
ATOM     44  C   UNL A   1      44.366  31.605  27.698  1.00  0.00     0.031 C 
ATOM     45  C   UNL A   1      43.976  27.523  30.592  1.00  0.00     0.029 A 
ATOM     46  N   UNL A   1      43.563  29.504  31.548  1.00  0.00    -0.354 N 
ATOM     47  C   UNL A   1      43.837  33.168  29.283  1.00  0.00     0.074 A 
ATOM     48  C   UNL A   1      44.226  32.904  27.914  1.00  0.00     0.031 C 
ATOM     49  C   UNL A   1      43.670  27.297  31.882  1.00  0.00     0.029 A 
ATOM     50  C   UNL A   1      43.432  28.576  32.551  1.00  0.00     0.049 A 
ATOM     51  H   UNL A   1      43.411  30.467  31.681  1.00  0.00     0.167 HD
ATOM     52  C   UNL A   1      43.575  34.400  29.778  1.00  0.00     0.037 A 
ATOM     53  C   UNL A   1      43.174  28.745  33.864  1.00  0.00     0.037 A 
ATOM     54  C   UNL A   1      43.191  34.665  31.140  1.00  0.00     0.049 A 
ATOM     55  C   UNL A   1      42.947  30.135  34.405  1.00  0.00     0.074 A 
ATOM     56  C   UNL A   1      42.870  35.877  31.726  1.00  0.00     0.029 A 
ATOM     57  N   UNL A   1      43.089  33.702  32.133  1.00  0.00    -0.354 N 
ATOM     58  N   UNL A   1      42.947  31.282  33.771  1.00  0.00    -0.248 NA
ATOM     59  C   UNL A   1      42.680  30.250  35.846  1.00  0.00     0.031 C 
ATOM     60  C   UNL A   1      42.627  35.655  33.086  1.00  0.00     0.029 A 
ATOM     61  C   UNL A   1      42.741  34.298  33.335  1.00  0.00     0.049 A 
ATOM     62  H   UNL A   1      43.241  32.738  32.002  1.00  0.00     0.167 HD
ATOM     63  C   UNL A   1      42.655  32.248  34.726  1.00  0.00     0.074 A 
ATOM     64  C   UNL A   1      42.468  31.551  35.980  1.00  0.00     0.031 C 
ATOM     65  C   UNL A   1      42.551  33.591  34.577  1.00  0.00     0.037 A 
BRANCH  52  66
ATOM     66  C   UNL A   1      43.720  35.568  28.847  1.00  0.00     0.064 A 
ATOM     67  C   UNL A   1      42.622  36.100  28.154  1.00  0.00     0.173 A 
ATOM     68  C   UNL A   1      44.967  36.189  28.678  1.00  0.00     0.173 A 
ATOM     69  F   UNL A   1      41.411  35.534  28.271  1.00  0.00    -0.203 F 
ATOM     70  C   UNL A   1      42.773  37.196  27.309  1.00  0.00     0.198 A 
ATOM     71  C   UNL A   1      45.108  37.302  27.854  1.00  0.00     0.198 A 
ATOM     72  F   UNL A   1      46.048  35.721  29.320  1.00  0.00    -0.203 F 
ATOM     73  F   UNL A   1      41.719  37.662  26.625  1.00  0.00    -0.200 F 
ATOM     74  C   UNL A   1      44.013  37.801  27.166  1.00  0.00     0.200 A 
ATOM     75  F   UNL A   1      46.305  37.891  27.726  1.00  0.00    -0.200 F 
ATOM     76  F   UNL A   1      44.153  38.862  26.360  1.00  0.00    -0.200 F 
ENDBRANCH  52  66
BRANCH  53  77
ATOM     77  C   UNL A   1      43.133  27.567  34.771  1.00  0.00     0.064 A 
ATOM     78  C   UNL A   1      44.257  27.183  35.512  1.00  0.00     0.173 A 
ATOM     79  C   UNL A   1      41.975  26.783  34.887  1.00  0.00     0.173 A 
ATOM     80  F   UNL A   1      45.396  27.883  35.412  1.00  0.00    -0.203 F 
ATOM     81  C   UNL A   1      44.232  26.047  36.322  1.00  0.00     0.198 A 
ATOM     82  C   UNL A   1      41.942  25.665  35.718  1.00  0.00     0.198 A 
ATOM     83  F   UNL A   1      40.873  27.104  34.193  1.00  0.00    -0.203 F 
ATOM     84  F   UNL A   1      45.338  25.673  36.979  1.00  0.00    -0.200 F 
ATOM     85  C   UNL A   1      43.073  25.292  36.428  1.00  0.00     0.200 A 
ATOM     86  F   UNL A   1      40.818  24.944  35.823  1.00  0.00    -0.200 F 
ATOM     87  F   UNL A   1      43.051  24.202  37.204  1.00  0.00    -0.200 F 
ENDBRANCH  53  77
BRANCH  65  88
ATOM     88  C   UNL A   1      42.187  34.398  35.790  1.00  0.00     0.064 A 
ATOM     89  C   UNL A   1      40.860  34.759  36.066  1.00  0.00     0.173 A 
ATOM     90  C   UNL A   1      43.175  34.780  36.712  1.00  0.00     0.173 A 
ATOM     91  F   UNL A   1      39.880  34.430  35.211  1.00  0.00    -0.203 F 
ATOM     92  C   UNL A   1      40.539  35.493  37.205  1.00  0.00     0.198 A 
ATOM     93  C   UNL A   1      42.847  35.487  37.865  1.00  0.00     0.198 A 
ATOM     94  F   UNL A   1      44.459  34.454  36.501  1.00  0.00    -0.203 F 
ATOM     95  F   UNL A   1      39.271  35.868  37.424  1.00  0.00    -0.200 F 
ATOM     96  C   UNL A   1      41.531  35.851  38.107  1.00  0.00     0.200 A 
ATOM     97  F   UNL A   1      43.804  35.818  38.743  1.00  0.00    -0.200 F 
ATOM     98  F   UNL A   1      41.219  36.550  39.207  1.00  0.00    -0.200 F 
ENDBRANCH  65  88
ENDBRANCH  39  40
ENDBRANCH  32  34
ENDBRANCH  31  32
ENDBRANCH  30  31
ENDBRANCH  29  30
ENDBRANCH  28  29
ENDBRANCH  27  28
ENDBRANCH   1  27
TORSDOF 20
ENDMDL
