MODEL 1
REMARK VINA RESULT:     -10.8      0.000      0.000
REMARK SMILES Cc1ccc(S(=O)(=O)n2cc(C(=O)C(=O)N[C@@H](Cc3c[nH]c4ccccc34)C(=O)NCC(=O)OCCOCCOCCOC(=O)c3ccc(-c4c5nc(c(-c6c(F)c(F)c(F)c(F)c6F)c6ccc([nH]6)c(-c6c(F)c(F)c(F)c(F)c6F)c6nc(c(-c7c(F)c(F)c(F)c(F)c7F)c7ccc4[nH]7)C=C6)C=C5)cc3)c3ccccc32)cc1
REMARK SMILES IDX 36 1 35 2 34 3 32 4 33 5 31 6 30 7 28 8 29 9 17 11 16 12
REMARK SMILES IDX 14 13 15 14 12 16 13 17 11 18 9 19 10 20 114 21 109 22
REMARK SMILES IDX 113 23 110 24 112 25 111 26 6 27 7 28 8 29 5 30 1 31 2 32
REMARK SMILES IDX 3 33 116 34 4 35 115 36 18 37 19 38 20 39 27 40 21 41 22 42
REMARK SMILES IDX 26 43 23 45 25 46 24 47 37 48 38 49 39 50 40 51 41 52 42 53
REMARK SMILES IDX 43 54 44 55 45 56 46 57 47 58 108 59 48 60 107 61 49 62
REMARK SMILES IDX 50 63 51 64 101 65 52 66 106 67 100 68 102 69 53 70 105 71
REMARK SMILES IDX 99 72 98 73 54 75 86 76 66 77 85 78 67 79 70 80 84 81 103 82
REMARK SMILES IDX 68 83 69 84 83 86 104 87 71 88 55 89 56 90 64 91 57 92 58 93
REMARK SMILES IDX 62 94 65 95 59 96 60 97 63 98 61 99 87 100 88 101 96 102
REMARK SMILES IDX 89 103 90 104 94 105 97 106 91 107 92 108 95 109 93 110
REMARK SMILES IDX 72 111 73 112 81 113 74 114 75 115 79 116 82 117 76 118
REMARK SMILES IDX 77 119 80 120 78 121
REMARK H PARENT 30 10 16 15 21 44 102 74 70 85
REMARK Flexibility Score: inf
ROOT
ATOM      1  C   UNL A   1      37.326  33.984  33.320  1.00  0.00     0.202 C 
ENDROOT
BRANCH   1   2
ATOM      2  C   UNL A   1      38.548  34.814  32.942  1.00  0.00     0.261 C 
BRANCH   2   3
ATOM      3  O   UNL A   1      38.830  34.903  31.370  1.00  0.00    -0.462 OA
BRANCH   3   4
ATOM      4  C   UNL A   1      39.250  34.508  30.114  1.00  0.00     0.325 C 
ATOM      5  O   UNL A   1      38.348  34.349  29.281  1.00  0.00    -0.250 OA
BRANCH   4   6
ATOM      6  C   UNL A   1      40.783  34.129  29.588  1.00  0.00     0.238 C 
BRANCH   6   7
ATOM      7  N   UNL A   1      41.779  35.303  29.624  1.00  0.00    -0.343 N 
ATOM      8  C   UNL A   1      42.585  36.082  28.818  1.00  0.00     0.243 C 
ATOM      9  O   UNL A   1      43.455  36.680  29.484  1.00  0.00    -0.273 OA
ATOM     10  H   UNL A   1      41.877  35.605  30.556  1.00  0.00     0.164 HD
BRANCH   8  11
ATOM     11  C   UNL A   1      42.563  36.451  27.215  1.00  0.00     0.176 C 
BRANCH  11  12
ATOM     12  N   UNL A   1      41.720  37.626  26.730  1.00  0.00    -0.337 N 
ATOM     13  C   UNL A   1      41.734  39.034  26.640  1.00  0.00     0.293 C 
ATOM     14  O   UNL A   1      40.804  39.590  26.054  1.00  0.00    -0.265 OA
ATOM     15  H   UNL A   1      40.877  37.285  26.351  1.00  0.00     0.164 HD
BRANCH  13  16
ATOM     16  C   UNL A   1      42.822  39.930  27.211  1.00  0.00     0.252 C 
ATOM     17  O   UNL A   1      43.652  40.285  26.368  1.00  0.00    -0.283 OA
BRANCH  16  18
ATOM     18  C   UNL A   1      42.936  40.487  28.612  1.00  0.00     0.054 A 
ATOM     19  N   UNL A   1      42.718  40.766  30.873  1.00  0.00    -0.240 N 
ATOM     20  C   UNL A   1      42.094  41.029  29.621  1.00  0.00     0.117 A 
ATOM     21  C   UNL A   1      43.946  40.137  30.568  1.00  0.00     0.065 A 
ATOM     22  C   UNL A   1      44.208  40.456  29.247  1.00  0.00     0.012 A 
ATOM     23  C   UNL A   1      44.949  39.589  31.392  1.00  0.00     0.028 A 
ATOM     24  C   UNL A   1      45.546  40.505  28.811  1.00  0.00     0.011 A 
ATOM     25  C   UNL A   1      46.269  39.694  30.964  1.00  0.00     0.002 A 
ATOM     26  C   UNL A   1      46.569  40.210  29.712  1.00  0.00     0.001 A 
BRANCH  19  27
ATOM     27  S   UNL A   1      42.885  41.678  32.366  1.00  0.00     0.268 S 
ATOM     28  O   UNL A   1      42.256  40.766  33.314  1.00  0.00    -0.201 OA
ATOM     29  O   UNL A   1      42.219  42.913  31.959  1.00  0.00    -0.201 OA
BRANCH  27  30
ATOM     30  C   UNL A   1      44.144  42.432  33.347  1.00  0.00     0.088 A 
ATOM     31  C   UNL A   1      46.485  43.660  36.809  1.00  0.00     0.044 C 
ATOM     32  C   UNL A   1      45.742  43.244  35.568  1.00  0.00    -0.051 A 
ATOM     33  C   UNL A   1      45.156  41.991  35.575  1.00  0.00     0.005 A 
ATOM     34  C   UNL A   1      45.553  44.068  34.433  1.00  0.00     0.005 A 
ATOM     35  C   UNL A   1      44.394  41.600  34.484  1.00  0.00     0.022 A 
ATOM     36  C   UNL A   1      44.746  43.675  33.317  1.00  0.00     0.022 A 
ENDBRANCH  27  30
ENDBRANCH  19  27
ENDBRANCH  16  18
ENDBRANCH  13  16
ENDBRANCH  11  12
BRANCH  11  37
ATOM     37  C   UNL A   1      43.959  36.204  26.547  1.00  0.00     0.072 C 
BRANCH  37  38
ATOM     38  C   UNL A   1      44.192  34.801  26.044  1.00  0.00    -0.020 A 
ATOM     39  C   UNL A   1      43.735  34.211  24.878  1.00  0.00     0.087 A 
ATOM     40  C   UNL A   1      44.795  33.764  26.797  1.00  0.00     0.003 A 
ATOM     41  N   UNL A   1      43.866  32.848  25.005  1.00  0.00    -0.361 N 
ATOM     42  C   UNL A   1      44.369  32.560  26.247  1.00  0.00     0.046 A 
ATOM     43  C   UNL A   1      45.467  33.766  28.014  1.00  0.00     0.010 A 
ATOM     44  H   UNL A   1      43.636  32.186  24.315  1.00  0.00     0.166 HD
ATOM     45  C   UNL A   1      44.409  31.366  26.953  1.00  0.00     0.026 A 
ATOM     46  C   UNL A   1      45.232  32.666  28.814  1.00  0.00     0.001 A 
ATOM     47  C   UNL A   1      44.685  31.506  28.303  1.00  0.00     0.002 A 
ENDBRANCH  37  38
ENDBRANCH  11  37
ENDBRANCH   8  11
ENDBRANCH   6   7
ENDBRANCH   4   6
ENDBRANCH   3   4
ENDBRANCH   2   3
ENDBRANCH   1   2
BRANCH   1  48
ATOM     48  O   UNL A   1      36.589  34.619  34.338  1.00  0.00    -0.376 OA
BRANCH  48  49
ATOM     49  C   UNL A   1      35.177  34.526  34.148  1.00  0.00     0.188 C 
BRANCH  49  50
ATOM     50  C   UNL A   1      34.508  35.673  33.373  1.00  0.00     0.188 C 
BRANCH  50  51
ATOM     51  O   UNL A   1      33.811  35.261  32.203  1.00  0.00    -0.376 OA
BRANCH  51  52
ATOM     52  C   UNL A   1      33.116  36.228  31.430  1.00  0.00     0.202 C 
BRANCH  52  53
ATOM     53  C   UNL A   1      32.995  35.774  29.976  1.00  0.00     0.261 C 
BRANCH  53  54
ATOM     54  O   UNL A   1      33.252  34.354  29.916  1.00  0.00    -0.460 OA
BRANCH  54  55
ATOM     55  C   UNL A   1      33.840  33.961  28.764  1.00  0.00     0.338 C 
ATOM     56  O   UNL A   1      33.513  34.345  27.643  1.00  0.00    -0.246 OA
BRANCH  55  57
ATOM     57  C   UNL A   1      34.686  32.761  29.035  1.00  0.00     0.060 A 
ATOM     58  C   UNL A   1      34.890  32.454  30.347  1.00  0.00     0.016 A 
ATOM     59  C   UNL A   1      35.498  32.091  28.105  1.00  0.00     0.016 A 
ATOM     60  C   UNL A   1      36.024  31.690  30.668  1.00  0.00     0.010 A 
ATOM     61  C   UNL A   1      36.657  31.331  28.506  1.00  0.00     0.010 A 
ATOM     62  C   UNL A   1      37.050  31.214  29.842  1.00  0.00    -0.014 A 
BRANCH  62  63
ATOM     63  C   UNL A   1      38.493  30.729  30.254  1.00  0.00     0.031 A 
ATOM     64  C   UNL A   1      39.062  29.530  29.559  1.00  0.00     0.074 A 
ATOM     65  C   UNL A   1      39.391  30.946  31.301  1.00  0.00     0.049 A 
ATOM     66  N   UNL A   1      40.144  29.417  28.848  1.00  0.00    -0.248 NA
ATOM     67  C   UNL A   1      38.480  28.260  29.945  1.00  0.00     0.031 C 
ATOM     68  C   UNL A   1      40.843  30.903  31.052  1.00  0.00     0.029 A 
ATOM     69  N   UNL A   1      39.404  31.524  32.593  1.00  0.00    -0.354 N 
ATOM     70  C   UNL A   1      40.400  28.067  28.730  1.00  0.00     0.074 A 
ATOM     71  C   UNL A   1      39.258  27.389  29.320  1.00  0.00     0.031 C 
ATOM     72  C   UNL A   1      41.532  31.310  32.120  1.00  0.00     0.029 A 
ATOM     73  C   UNL A   1      40.637  31.547  33.217  1.00  0.00     0.049 A 
ATOM     74  H   UNL A   1      38.593  31.885  33.016  1.00  0.00     0.167 HD
ATOM     75  C   UNL A   1      41.591  27.428  28.902  1.00  0.00     0.037 A 
ATOM     76  C   UNL A   1      40.966  31.678  34.530  1.00  0.00     0.037 A 
ATOM     77  C   UNL A   1      42.524  27.940  29.901  1.00  0.00     0.049 A 
ATOM     78  C   UNL A   1      42.077  30.689  34.862  1.00  0.00     0.074 A 
ATOM     79  C   UNL A   1      43.376  29.025  29.971  1.00  0.00     0.029 A 
ATOM     80  N   UNL A   1      42.654  27.310  31.145  1.00  0.00    -0.354 N 
ATOM     81  N   UNL A   1      42.827  30.124  33.947  1.00  0.00    -0.248 NA
ATOM     82  C   UNL A   1      42.302  30.086  36.175  1.00  0.00     0.031 C 
ATOM     83  C   UNL A   1      43.875  29.124  31.307  1.00  0.00     0.029 A 
ATOM     84  C   UNL A   1      43.328  28.110  32.083  1.00  0.00     0.049 A 
ATOM     85  H   UNL A   1      42.313  26.408  31.339  1.00  0.00     0.167 HD
ATOM     86  C   UNL A   1      43.221  28.894  34.405  1.00  0.00     0.074 A 
ATOM     87  C   UNL A   1      43.088  29.040  35.848  1.00  0.00     0.031 C 
ATOM     88  C   UNL A   1      43.353  27.811  33.553  1.00  0.00     0.037 A 
BRANCH  75  89
ATOM     89  C   UNL A   1      41.900  26.559  27.703  1.00  0.00     0.064 A 
ATOM     90  C   UNL A   1      41.520  25.212  27.678  1.00  0.00     0.173 A 
ATOM     91  C   UNL A   1      42.704  26.990  26.611  1.00  0.00     0.173 A 
ATOM     92  F   UNL A   1      40.737  24.701  28.638  1.00  0.00    -0.203 F 
ATOM     93  C   UNL A   1      41.974  24.343  26.680  1.00  0.00     0.198 A 
ATOM     94  C   UNL A   1      43.165  26.120  25.629  1.00  0.00     0.198 A 
ATOM     95  F   UNL A   1      43.097  28.264  26.470  1.00  0.00    -0.203 F 
ATOM     96  F   UNL A   1      41.621  23.051  26.716  1.00  0.00    -0.200 F 
ATOM     97  C   UNL A   1      42.813  24.791  25.672  1.00  0.00     0.200 A 
ATOM     98  F   UNL A   1      43.982  26.582  24.668  1.00  0.00    -0.200 F 
ATOM     99  F   UNL A   1      43.290  23.944  24.750  1.00  0.00    -0.200 F 
ENDBRANCH  75  89
BRANCH  76 100
ATOM    100  C   UNL A   1      39.941  32.277  35.443  1.00  0.00     0.064 A 
ATOM    101  C   UNL A   1      38.996  31.422  36.044  1.00  0.00     0.173 A 
ATOM    102  C   UNL A   1      40.002  33.571  35.967  1.00  0.00     0.173 A 
ATOM    103  F   UNL A   1      38.834  30.179  35.565  1.00  0.00    -0.203 F 
ATOM    104  C   UNL A   1      38.234  31.809  37.157  1.00  0.00     0.198 A 
ATOM    105  C   UNL A   1      39.254  33.963  37.089  1.00  0.00     0.198 A 
ATOM    106  F   UNL A   1      40.842  34.462  35.441  1.00  0.00    -0.203 F 
ATOM    107  F   UNL A   1      37.376  30.946  37.719  1.00  0.00    -0.200 F 
ATOM    108  C   UNL A   1      38.389  33.072  37.701  1.00  0.00     0.200 A 
ATOM    109  F   UNL A   1      39.438  35.184  37.614  1.00  0.00    -0.200 F 
ATOM    110  F   UNL A   1      37.724  33.422  38.813  1.00  0.00    -0.200 F 
ENDBRANCH  76 100
BRANCH  88 111
ATOM    111  C   UNL A   1      43.426  26.380  34.079  1.00  0.00     0.064 A 
ATOM    112  C   UNL A   1      42.395  25.716  34.783  1.00  0.00     0.173 A 
ATOM    113  C   UNL A   1      44.561  25.581  33.824  1.00  0.00     0.173 A 
ATOM    114  F   UNL A   1      41.175  26.251  34.921  1.00  0.00    -0.203 F 
ATOM    115  C   UNL A   1      42.552  24.436  35.326  1.00  0.00     0.198 A 
ATOM    116  C   UNL A   1      44.679  24.266  34.286  1.00  0.00     0.198 A 
ATOM    117  F   UNL A   1      45.583  26.046  33.092  1.00  0.00    -0.203 F 
ATOM    118  F   UNL A   1      41.575  23.909  36.079  1.00  0.00    -0.200 F 
ATOM    119  C   UNL A   1      43.695  23.710  35.076  1.00  0.00     0.200 A 
ATOM    120  F   UNL A   1      45.754  23.539  33.949  1.00  0.00    -0.200 F 
ATOM    121  F   UNL A   1      43.835  22.472  35.569  1.00  0.00    -0.200 F 
ENDBRANCH  88 111
ENDBRANCH  62  63
ENDBRANCH  55  57
ENDBRANCH  54  55
ENDBRANCH  53  54
ENDBRANCH  52  53
ENDBRANCH  51  52
ENDBRANCH  50  51
ENDBRANCH  49  50
ENDBRANCH  48  49
ENDBRANCH   1  48
TORSDOF 26
ENDMDL
MODEL 2
REMARK VINA RESULT:      -9.8      0.966      2.026
REMARK SMILES Cc1ccc(S(=O)(=O)n2cc(C(=O)C(=O)N[C@@H](Cc3c[nH]c4ccccc34)C(=O)NCC(=O)OCCOCCOCCOC(=O)c3ccc(-c4c5nc(c(-c6c(F)c(F)c(F)c(F)c6F)c6ccc([nH]6)c(-c6c(F)c(F)c(F)c(F)c6F)c6nc(c(-c7c(F)c(F)c(F)c(F)c7F)c7ccc4[nH]7)C=C6)C=C5)cc3)c3ccccc32)cc1
REMARK SMILES IDX 36 1 35 2 34 3 32 4 33 5 31 6 30 7 28 8 29 9 17 11 16 12
REMARK SMILES IDX 14 13 15 14 12 16 13 17 11 18 9 19 10 20 114 21 109 22
REMARK SMILES IDX 113 23 110 24 112 25 111 26 6 27 7 28 8 29 5 30 1 31 2 32
REMARK SMILES IDX 3 33 116 34 4 35 115 36 18 37 19 38 20 39 27 40 21 41 22 42
REMARK SMILES IDX 26 43 23 45 25 46 24 47 37 48 38 49 39 50 40 51 41 52 42 53
REMARK SMILES IDX 43 54 44 55 45 56 46 57 47 58 108 59 48 60 107 61 49 62
REMARK SMILES IDX 50 63 51 64 101 65 52 66 106 67 100 68 102 69 53 70 105 71
REMARK SMILES IDX 99 72 98 73 54 75 86 76 66 77 85 78 67 79 70 80 84 81 103 82
REMARK SMILES IDX 68 83 69 84 83 86 104 87 71 88 55 89 56 90 64 91 57 92 58 93
REMARK SMILES IDX 62 94 65 95 59 96 60 97 63 98 61 99 87 100 88 101 96 102
REMARK SMILES IDX 89 103 90 104 94 105 97 106 91 107 92 108 95 109 93 110
REMARK SMILES IDX 72 111 73 112 81 113 74 114 75 115 79 116 82 117 76 118
REMARK SMILES IDX 77 119 80 120 78 121
REMARK H PARENT 30 10 16 15 21 44 102 74 70 85
REMARK Flexibility Score: inf
ROOT
ATOM      1  C   UNL A   1      37.438  33.995  33.444  1.00  0.00     0.202 C 
ENDROOT
BRANCH   1   2
ATOM      2  C   UNL A   1      38.753  34.662  33.056  1.00  0.00     0.261 C 
BRANCH   2   3
ATOM      3  O   UNL A   1      38.981  34.815  31.480  1.00  0.00    -0.462 OA
BRANCH   3   4
ATOM      4  C   UNL A   1      39.121  34.439  30.159  1.00  0.00     0.325 C 
ATOM      5  O   UNL A   1      38.064  34.181  29.568  1.00  0.00    -0.250 OA
BRANCH   4   6
ATOM      6  C   UNL A   1      40.510  34.196  29.275  1.00  0.00     0.238 C 
BRANCH   6   7
ATOM      7  N   UNL A   1      41.579  35.290  29.452  1.00  0.00    -0.343 N 
ATOM      8  C   UNL A   1      42.499  36.049  28.754  1.00  0.00     0.243 C 
ATOM      9  O   UNL A   1      43.353  36.547  29.516  1.00  0.00    -0.273 OA
ATOM     10  H   UNL A   1      41.624  35.537  30.405  1.00  0.00     0.164 HD
BRANCH   8  11
ATOM     11  C   UNL A   1      42.629  36.499  27.178  1.00  0.00     0.176 C 
BRANCH  11  12
ATOM     12  N   UNL A   1      41.924  37.765  26.701  1.00  0.00    -0.337 N 
ATOM     13  C   UNL A   1      42.060  39.170  26.693  1.00  0.00     0.293 C 
ATOM     14  O   UNL A   1      41.226  39.832  26.074  1.00  0.00    -0.265 OA
ATOM     15  H   UNL A   1      41.088  37.517  26.243  1.00  0.00     0.164 HD
BRANCH  13  16
ATOM     16  C   UNL A   1      43.169  39.939  27.392  1.00  0.00     0.252 C 
ATOM     17  O   UNL A   1      44.170  40.100  26.686  1.00  0.00    -0.283 OA
BRANCH  16  18
ATOM     18  C   UNL A   1      43.144  40.583  28.760  1.00  0.00     0.054 A 
ATOM     19  N   UNL A   1      42.843  40.932  31.002  1.00  0.00    -0.240 N 
ATOM     20  C   UNL A   1      42.192  40.984  29.737  1.00  0.00     0.117 A 
ATOM     21  C   UNL A   1      44.182  40.568  30.733  1.00  0.00     0.065 A 
ATOM     22  C   UNL A   1      44.384  40.863  29.396  1.00  0.00     0.012 A 
ATOM     23  C   UNL A   1      45.269  40.296  31.586  1.00  0.00     0.028 A 
ATOM     24  C   UNL A   1      45.685  41.176  28.957  1.00  0.00     0.011 A 
ATOM     25  C   UNL A   1      46.541  40.660  31.153  1.00  0.00     0.002 A 
ATOM     26  C   UNL A   1      46.737  41.160  29.874  1.00  0.00     0.001 A 
BRANCH  19  27
ATOM     27  S   UNL A   1      42.791  41.939  32.441  1.00  0.00     0.268 S 
ATOM     28  O   UNL A   1      42.020  41.089  33.341  1.00  0.00    -0.201 OA
ATOM     29  O   UNL A   1      42.202  43.144  31.861  1.00  0.00    -0.201 OA
BRANCH  27  30
ATOM     30  C   UNL A   1      43.895  42.758  33.549  1.00  0.00     0.088 A 
ATOM     31  C   UNL A   1      47.378  44.890  35.065  1.00  0.00     0.044 C 
ATOM     32  C   UNL A   1      46.131  44.185  34.602  1.00  0.00    -0.051 A 
ATOM     33  C   UNL A   1      45.686  44.468  33.323  1.00  0.00     0.005 A 
ATOM     34  C   UNL A   1      45.432  43.214  35.357  1.00  0.00     0.005 A 
ATOM     35  C   UNL A   1      44.588  43.780  32.827  1.00  0.00     0.022 A 
ATOM     36  C   UNL A   1      44.315  42.485  34.836  1.00  0.00     0.022 A 
ENDBRANCH  27  30
ENDBRANCH  19  27
ENDBRANCH  16  18
ENDBRANCH  13  16
ENDBRANCH  11  12
BRANCH  11  37
ATOM     37  C   UNL A   1      44.047  36.168  26.598  1.00  0.00     0.072 C 
BRANCH  37  38
ATOM     38  C   UNL A   1      44.226  34.754  26.105  1.00  0.00    -0.020 A 
ATOM     39  C   UNL A   1      43.972  34.236  24.847  1.00  0.00     0.087 A 
ATOM     40  C   UNL A   1      44.529  33.643  26.930  1.00  0.00     0.003 A 
ATOM     41  N   UNL A   1      43.918  32.866  24.947  1.00  0.00    -0.361 N 
ATOM     42  C   UNL A   1      44.102  32.505  26.257  1.00  0.00     0.046 A 
ATOM     43  C   UNL A   1      44.915  33.551  28.263  1.00  0.00     0.010 A 
ATOM     44  H   UNL A   1      43.772  32.243  24.199  1.00  0.00     0.166 HD
ATOM     45  C   UNL A   1      43.852  31.306  26.909  1.00  0.00     0.026 A 
ATOM     46  C   UNL A   1      44.389  32.477  28.952  1.00  0.00     0.001 A 
ATOM     47  C   UNL A   1      43.840  31.395  28.291  1.00  0.00     0.002 A 
ENDBRANCH  37  38
ENDBRANCH  11  37
ENDBRANCH   8  11
ENDBRANCH   6   7
ENDBRANCH   4   6
ENDBRANCH   3   4
ENDBRANCH   2   3
ENDBRANCH   1   2
BRANCH   1  48
ATOM     48  O   UNL A   1      36.722  34.797  34.353  1.00  0.00    -0.376 OA
BRANCH  48  49
ATOM     49  C   UNL A   1      35.307  34.648  34.236  1.00  0.00     0.188 C 
BRANCH  49  50
ATOM     50  C   UNL A   1      34.610  35.500  33.163  1.00  0.00     0.188 C 
BRANCH  50  51
ATOM     51  O   UNL A   1      34.268  34.786  31.980  1.00  0.00    -0.376 OA
BRANCH  51  52
ATOM     52  C   UNL A   1      33.480  35.422  30.986  1.00  0.00     0.202 C 
BRANCH  52  53
ATOM     53  C   UNL A   1      33.818  34.881  29.598  1.00  0.00     0.261 C 
BRANCH  53  54
ATOM     54  O   UNL A   1      34.250  33.509  29.733  1.00  0.00    -0.460 OA
BRANCH  54  55
ATOM     55  C   UNL A   1      34.816  33.010  28.611  1.00  0.00     0.338 C 
ATOM     56  O   UNL A   1      34.443  33.258  27.467  1.00  0.00    -0.246 OA
BRANCH  55  57
ATOM     57  C   UNL A   1      35.709  31.872  28.983  1.00  0.00     0.060 A 
ATOM     58  C   UNL A   1      35.910  31.677  30.317  1.00  0.00     0.016 A 
ATOM     59  C   UNL A   1      36.560  31.168  28.115  1.00  0.00     0.016 A 
ATOM     60  C   UNL A   1      37.071  30.990  30.707  1.00  0.00     0.010 A 
ATOM     61  C   UNL A   1      37.745  30.492  28.585  1.00  0.00     0.010 A 
ATOM     62  C   UNL A   1      38.127  30.496  29.930  1.00  0.00    -0.014 A 
BRANCH  62  63
ATOM     63  C   UNL A   1      39.584  30.109  30.391  1.00  0.00     0.031 A 
ATOM     64  C   UNL A   1      40.255  28.952  29.716  1.00  0.00     0.074 A 
ATOM     65  C   UNL A   1      40.428  30.382  31.469  1.00  0.00     0.049 A 
ATOM     66  N   UNL A   1      41.366  28.914  29.043  1.00  0.00    -0.248 NA
ATOM     67  C   UNL A   1      39.747  27.644  30.081  1.00  0.00     0.031 C 
ATOM     68  C   UNL A   1      41.888  30.437  31.270  1.00  0.00     0.029 A 
ATOM     69  N   UNL A   1      40.359  30.956  32.760  1.00  0.00    -0.354 N 
ATOM     70  C   UNL A   1      41.717  27.584  28.933  1.00  0.00     0.074 A 
ATOM     71  C   UNL A   1      40.603  26.829  29.483  1.00  0.00     0.031 C 
ATOM     72  C   UNL A   1      42.511  30.886  32.361  1.00  0.00     0.029 A 
ATOM     73  C   UNL A   1      41.565  31.060  33.426  1.00  0.00     0.049 A 
ATOM     74  H   UNL A   1      39.511  31.261  33.156  1.00  0.00     0.167 HD
ATOM     75  C   UNL A   1      42.941  27.026  29.146  1.00  0.00     0.037 A 
ATOM     76  C   UNL A   1      41.839  31.209  34.750  1.00  0.00     0.037 A 
ATOM     77  C   UNL A   1      43.803  27.596  30.176  1.00  0.00     0.049 A 
ATOM     78  C   UNL A   1      43.002  30.295  35.120  1.00  0.00     0.074 A 
ATOM     79  C   UNL A   1      44.577  28.736  30.276  1.00  0.00     0.029 A 
ATOM     80  N   UNL A   1      43.932  26.973  31.424  1.00  0.00    -0.354 N 
ATOM     81  N   UNL A   1      43.819  29.784  34.231  1.00  0.00    -0.248 NA
ATOM     82  C   UNL A   1      43.222  29.706  36.440  1.00  0.00     0.031 C 
ATOM     83  C   UNL A   1      45.022  28.864  31.629  1.00  0.00     0.029 A 
ATOM     84  C   UNL A   1      44.518  27.814  32.385  1.00  0.00     0.049 A 
ATOM     85  H   UNL A   1      43.645  26.049  31.606  1.00  0.00     0.167 HD
ATOM     86  C   UNL A   1      44.279  28.583  34.702  1.00  0.00     0.074 A 
ATOM     87  C   UNL A   1      44.086  28.716  36.140  1.00  0.00     0.031 C 
ATOM     88  C   UNL A   1      44.512  27.513  33.855  1.00  0.00     0.037 A 
BRANCH  75  89
ATOM     89  C   UNL A   1      43.349  26.183  27.958  1.00  0.00     0.064 A 
ATOM     90  C   UNL A   1      44.105  26.732  26.916  1.00  0.00     0.173 A 
ATOM     91  C   UNL A   1      42.885  24.855  27.744  1.00  0.00     0.173 A 
ATOM     92  F   UNL A   1      44.621  27.965  27.018  1.00  0.00    -0.203 F 
ATOM     93  C   UNL A   1      44.314  26.038  25.720  1.00  0.00     0.198 A 
ATOM     94  C   UNL A   1      43.082  24.173  26.549  1.00  0.00     0.198 A 
ATOM     95  F   UNL A   1      42.197  24.179  28.675  1.00  0.00    -0.203 F 
ATOM     96  F   UNL A   1      45.010  26.617  24.731  1.00  0.00    -0.200 F 
ATOM     97  C   UNL A   1      43.785  24.772  25.528  1.00  0.00     0.200 A 
ATOM     98  F   UNL A   1      42.551  22.950  26.390  1.00  0.00    -0.200 F 
ATOM     99  F   UNL A   1      43.941  24.133  24.361  1.00  0.00    -0.200 F 
ENDBRANCH  75  89
BRANCH  76 100
ATOM    100  C   UNL A   1      40.746  31.735  35.627  1.00  0.00     0.064 A 
ATOM    101  C   UNL A   1      40.664  33.126  35.839  1.00  0.00     0.173 A 
ATOM    102  C   UNL A   1      39.632  30.997  36.040  1.00  0.00     0.173 A 
ATOM    103  F   UNL A   1      41.711  33.902  35.522  1.00  0.00    -0.203 F 
ATOM    104  C   UNL A   1      39.507  33.743  36.339  1.00  0.00     0.198 A 
ATOM    105  C   UNL A   1      38.466  31.607  36.528  1.00  0.00     0.198 A 
ATOM    106  F   UNL A   1      39.630  29.670  35.911  1.00  0.00    -0.203 F 
ATOM    107  F   UNL A   1      39.464  35.074  36.486  1.00  0.00    -0.200 F 
ATOM    108  C   UNL A   1      38.393  32.984  36.653  1.00  0.00     0.200 A 
ATOM    109  F   UNL A   1      37.389  30.853  36.803  1.00  0.00    -0.200 F 
ATOM    110  F   UNL A   1      37.258  33.573  37.055  1.00  0.00    -0.200 F 
ENDBRANCH  76 100
BRANCH  88 111
ATOM    111  C   UNL A   1      44.663  26.088  34.383  1.00  0.00     0.064 A 
ATOM    112  C   UNL A   1      45.891  25.453  34.676  1.00  0.00     0.173 A 
ATOM    113  C   UNL A   1      43.523  25.313  34.682  1.00  0.00     0.173 A 
ATOM    114  F   UNL A   1      47.054  26.117  34.655  1.00  0.00    -0.203 F 
ATOM    115  C   UNL A   1      45.975  24.112  35.067  1.00  0.00     0.198 A 
ATOM    116  C   UNL A   1      43.605  24.003  35.165  1.00  0.00     0.198 A 
ATOM    117  F   UNL A   1      42.288  25.815  34.539  1.00  0.00    -0.203 F 
ATOM    118  F   UNL A   1      47.177  23.538  35.220  1.00  0.00    -0.200 F 
ATOM    119  C   UNL A   1      44.830  23.387  35.313  1.00  0.00     0.200 A 
ATOM    120  F   UNL A   1      42.484  23.346  35.495  1.00  0.00    -0.200 F 
ATOM    121  F   UNL A   1      44.908  22.111  35.717  1.00  0.00    -0.200 F 
ENDBRANCH  88 111
ENDBRANCH  62  63
ENDBRANCH  55  57
ENDBRANCH  54  55
ENDBRANCH  53  54
ENDBRANCH  52  53
ENDBRANCH  51  52
ENDBRANCH  50  51
ENDBRANCH  49  50
ENDBRANCH  48  49
ENDBRANCH   1  48
TORSDOF 26
ENDMDL
MODEL 3
REMARK VINA RESULT:      -8.9      4.612     10.907
REMARK SMILES Cc1ccc(S(=O)(=O)n2cc(C(=O)C(=O)N[C@@H](Cc3c[nH]c4ccccc34)C(=O)NCC(=O)OCCOCCOCCOC(=O)c3ccc(-c4c5nc(c(-c6c(F)c(F)c(F)c(F)c6F)c6ccc([nH]6)c(-c6c(F)c(F)c(F)c(F)c6F)c6nc(c(-c7c(F)c(F)c(F)c(F)c7F)c7ccc4[nH]7)C=C6)C=C5)cc3)c3ccccc32)cc1
REMARK SMILES IDX 36 1 35 2 34 3 32 4 33 5 31 6 30 7 28 8 29 9 17 11 16 12
REMARK SMILES IDX 14 13 15 14 12 16 13 17 11 18 9 19 10 20 114 21 109 22
REMARK SMILES IDX 113 23 110 24 112 25 111 26 6 27 7 28 8 29 5 30 1 31 2 32
REMARK SMILES IDX 3 33 116 34 4 35 115 36 18 37 19 38 20 39 27 40 21 41 22 42
REMARK SMILES IDX 26 43 23 45 25 46 24 47 37 48 38 49 39 50 40 51 41 52 42 53
REMARK SMILES IDX 43 54 44 55 45 56 46 57 47 58 108 59 48 60 107 61 49 62
REMARK SMILES IDX 50 63 51 64 101 65 52 66 106 67 100 68 102 69 53 70 105 71
REMARK SMILES IDX 99 72 98 73 54 75 86 76 66 77 85 78 67 79 70 80 84 81 103 82
REMARK SMILES IDX 68 83 69 84 83 86 104 87 71 88 55 89 56 90 64 91 57 92 58 93
REMARK SMILES IDX 62 94 65 95 59 96 60 97 63 98 61 99 87 100 88 101 96 102
REMARK SMILES IDX 89 103 90 104 94 105 97 106 91 107 92 108 95 109 93 110
REMARK SMILES IDX 72 111 73 112 81 113 74 114 75 115 79 116 82 117 76 118
REMARK SMILES IDX 77 119 80 120 78 121
REMARK H PARENT 30 10 16 15 21 44 102 74 70 85
REMARK Flexibility Score: inf
ROOT
ATOM      1  C   UNL A   1      34.684  33.979  28.004  1.00  0.00     0.202 C 
ENDROOT
BRANCH   1   2
ATOM      2  C   UNL A   1      34.452  32.562  28.519  1.00  0.00     0.261 C 
BRANCH   2   3
ATOM      3  O   UNL A   1      35.665  31.553  28.258  1.00  0.00    -0.462 OA
BRANCH   3   4
ATOM      4  C   UNL A   1      36.372  30.366  28.252  1.00  0.00     0.325 C 
ATOM      5  O   UNL A   1      35.694  29.349  28.055  1.00  0.00    -0.250 OA
BRANCH   4   6
ATOM      6  C   UNL A   1      37.986  30.100  28.558  1.00  0.00     0.238 C 
BRANCH   6   7
ATOM      7  N   UNL A   1      38.265  29.101  29.696  1.00  0.00    -0.343 N 
ATOM      8  C   UNL A   1      39.287  28.526  30.425  1.00  0.00     0.243 C 
ATOM      9  O   UNL A   1      38.906  27.492  31.009  1.00  0.00    -0.273 OA
ATOM     10  H   UNL A   1      37.406  28.743  30.019  1.00  0.00     0.164 HD
BRANCH   8  11
ATOM     11  C   UNL A   1      40.835  28.977  30.751  1.00  0.00     0.176 C 
BRANCH  11  12
ATOM     12  N   UNL A   1      41.161  29.603  32.104  1.00  0.00    -0.337 N 
ATOM     13  C   UNL A   1      41.475  29.258  33.435  1.00  0.00     0.293 C 
ATOM     14  O   UNL A   1      41.763  30.163  34.220  1.00  0.00    -0.265 OA
ATOM     15  H   UNL A   1      41.148  30.584  32.018  1.00  0.00     0.164 HD
BRANCH  13  16
ATOM     16  C   UNL A   1      41.491  27.840  33.983  1.00  0.00     0.252 C 
ATOM     17  O   UNL A   1      40.416  27.249  33.836  1.00  0.00    -0.283 OA
BRANCH  16  18
ATOM     18  C   UNL A   1      42.656  27.077  34.573  1.00  0.00     0.054 A 
ATOM     19  N   UNL A   1      43.896  25.547  35.739  1.00  0.00    -0.240 N 
ATOM     20  C   UNL A   1      43.213  26.791  35.849  1.00  0.00     0.117 A 
ATOM     21  C   UNL A   1      43.784  25.164  34.384  1.00  0.00     0.065 A 
ATOM     22  C   UNL A   1      43.482  26.325  33.694  1.00  0.00     0.012 A 
ATOM     23  C   UNL A   1      44.197  24.004  33.701  1.00  0.00     0.028 A 
ATOM     24  C   UNL A   1      43.866  26.434  32.343  1.00  0.00     0.011 A 
ATOM     25  C   UNL A   1      44.621  24.143  32.382  1.00  0.00     0.002 A 
ATOM     26  C   UNL A   1      44.520  25.364  31.731  1.00  0.00     0.001 A 
BRANCH  19  27
ATOM     27  S   UNL A   1      45.398  24.920  36.400  1.00  0.00     0.268 S 
ATOM     28  O   UNL A   1      45.172  25.117  37.827  1.00  0.00    -0.201 OA
ATOM     29  O   UNL A   1      46.343  25.761  35.668  1.00  0.00    -0.201 OA
BRANCH  27  30
ATOM     30  C   UNL A   1      46.367  23.444  36.373  1.00  0.00     0.088 A 
ATOM     31  C   UNL A   1      48.150  19.665  37.604  1.00  0.00     0.044 C 
ATOM     32  C   UNL A   1      47.544  20.949  37.102  1.00  0.00    -0.051 A 
ATOM     33  C   UNL A   1      46.245  21.225  37.488  1.00  0.00     0.005 A 
ATOM     34  C   UNL A   1      48.233  21.909  36.325  1.00  0.00     0.005 A 
ATOM     35  C   UNL A   1      45.676  22.434  37.115  1.00  0.00     0.022 A 
ATOM     36  C   UNL A   1      47.656  23.168  35.960  1.00  0.00     0.022 A 
ENDBRANCH  27  30
ENDBRANCH  19  27
ENDBRANCH  16  18
ENDBRANCH  13  16
ENDBRANCH  11  12
BRANCH  11  37
ATOM     37  C   UNL A   1      41.871  27.988  30.114  1.00  0.00     0.072 C 
BRANCH  37  38
ATOM     38  C   UNL A   1      41.702  27.746  28.635  1.00  0.00    -0.020 A 
ATOM     39  C   UNL A   1      41.248  28.617  27.659  1.00  0.00     0.087 A 
ATOM     40  C   UNL A   1      41.820  26.482  28.005  1.00  0.00     0.003 A 
ATOM     41  N   UNL A   1      40.907  27.881  26.549  1.00  0.00    -0.361 N 
ATOM     42  C   UNL A   1      41.107  26.551  26.814  1.00  0.00     0.046 A 
ATOM     43  C   UNL A   1      42.276  25.252  28.465  1.00  0.00     0.010 A 
ATOM     44  H   UNL A   1      40.574  28.250  25.700  1.00  0.00     0.166 HD
ATOM     45  C   UNL A   1      40.654  25.418  26.153  1.00  0.00     0.026 A 
ATOM     46  C   UNL A   1      41.584  24.156  27.990  1.00  0.00     0.001 A 
ATOM     47  C   UNL A   1      40.766  24.246  26.881  1.00  0.00     0.002 A 
ENDBRANCH  37  38
ENDBRANCH  11  37
ENDBRANCH   8  11
ENDBRANCH   6   7
ENDBRANCH   4   6
ENDBRANCH   3   4
ENDBRANCH   2   3
ENDBRANCH   1   2
BRANCH   1  48
ATOM     48  O   UNL A   1      34.609  34.909  29.058  1.00  0.00    -0.376 OA
BRANCH  48  49
ATOM     49  C   UNL A   1      34.052  34.359  30.252  1.00  0.00     0.188 C 
BRANCH  49  50
ATOM     50  C   UNL A   1      33.501  35.359  31.281  1.00  0.00     0.188 C 
BRANCH  50  51
ATOM     51  O   UNL A   1      34.029  35.200  32.593  1.00  0.00    -0.376 OA
BRANCH  51  52
ATOM     52  C   UNL A   1      34.738  34.014  32.919  1.00  0.00     0.202 C 
BRANCH  52  53
ATOM     53  C   UNL A   1      35.330  34.106  34.325  1.00  0.00     0.261 C 
BRANCH  53  54
ATOM     54  O   UNL A   1      36.570  33.365  34.348  1.00  0.00    -0.460 OA
BRANCH  54  55
ATOM     55  C   UNL A   1      37.658  34.127  34.091  1.00  0.00     0.338 C 
ATOM     56  O   UNL A   1      37.747  35.328  34.337  1.00  0.00    -0.246 OA
BRANCH  55  57
ATOM     57  C   UNL A   1      38.568  33.380  33.172  1.00  0.00     0.060 A 
ATOM     58  C   UNL A   1      39.849  33.211  33.603  1.00  0.00     0.016 A 
ATOM     59  C   UNL A   1      38.319  33.078  31.823  1.00  0.00     0.016 A 
ATOM     60  C   UNL A   1      40.838  32.981  32.632  1.00  0.00     0.010 A 
ATOM     61  C   UNL A   1      39.385  32.862  30.876  1.00  0.00     0.010 A 
ATOM     62  C   UNL A   1      40.734  32.945  31.235  1.00  0.00    -0.014 A 
BRANCH  62  63
ATOM     63  C   UNL A   1      41.881  33.097  30.164  1.00  0.00     0.031 A 
ATOM     64  C   UNL A   1      42.891  31.997  30.048  1.00  0.00     0.074 A 
ATOM     65  C   UNL A   1      42.427  34.116  29.381  1.00  0.00     0.049 A 
ATOM     66  N   UNL A   1      43.192  31.250  29.028  1.00  0.00    -0.248 NA
ATOM     67  C   UNL A   1      43.853  31.926  31.129  1.00  0.00     0.031 C 
ATOM     68  C   UNL A   1      42.981  33.809  28.049  1.00  0.00     0.029 A 
ATOM     69  N   UNL A   1      42.386  35.527  29.285  1.00  0.00    -0.354 N 
ATOM     70  C   UNL A   1      44.397  30.646  29.322  1.00  0.00     0.074 A 
ATOM     71  C   UNL A   1      44.697  31.000  30.699  1.00  0.00     0.031 C 
ATOM     72  C   UNL A   1      43.287  34.923  27.382  1.00  0.00     0.029 A 
ATOM     73  C   UNL A   1      43.091  36.067  28.226  1.00  0.00     0.049 A 
ATOM     74  H   UNL A   1      41.891  36.084  29.926  1.00  0.00     0.167 HD
ATOM     75  C   UNL A   1      45.488  30.530  28.514  1.00  0.00     0.037 A 
ATOM     76  C   UNL A   1      43.565  37.326  28.024  1.00  0.00     0.037 A 
ATOM     77  C   UNL A   1      45.784  31.607  27.575  1.00  0.00     0.049 A 
ATOM     78  C   UNL A   1      44.973  37.237  27.448  1.00  0.00     0.074 A 
ATOM     79  C   UNL A   1      45.245  32.026  26.375  1.00  0.00     0.029 A 
ATOM     80  N   UNL A   1      46.794  32.537  27.851  1.00  0.00    -0.354 N 
ATOM     81  N   UNL A   1      45.448  36.151  26.888  1.00  0.00    -0.248 NA
ATOM     82  C   UNL A   1      46.024  38.237  27.634  1.00  0.00     0.031 C 
ATOM     83  C   UNL A   1      45.824  33.288  26.033  1.00  0.00     0.029 A 
ATOM     84  C   UNL A   1      46.718  33.671  27.025  1.00  0.00     0.049 A 
ATOM     85  H   UNL A   1      47.480  32.409  28.545  1.00  0.00     0.167 HD
ATOM     86  C   UNL A   1      46.805  36.122  27.074  1.00  0.00     0.074 A 
ATOM     87  C   UNL A   1      47.120  37.526  27.301  1.00  0.00     0.031 C 
ATOM     88  C   UNL A   1      47.483  34.935  27.290  1.00  0.00     0.037 A 
BRANCH  75  89
ATOM     89  C   UNL A   1      45.939  29.088  28.444  1.00  0.00     0.064 A 
ATOM     90  C   UNL A   1      45.314  28.183  27.578  1.00  0.00     0.173 A 
ATOM     91  C   UNL A   1      46.900  28.525  29.330  1.00  0.00     0.173 A 
ATOM     92  F   UNL A   1      44.415  28.604  26.678  1.00  0.00    -0.203 F 
ATOM     93  C   UNL A   1      45.572  26.810  27.646  1.00  0.00     0.198 A 
ATOM     94  C   UNL A   1      47.143  27.158  29.404  1.00  0.00     0.198 A 
ATOM     95  F   UNL A   1      47.619  29.275  30.177  1.00  0.00    -0.203 F 
ATOM     96  F   UNL A   1      44.921  25.973  26.825  1.00  0.00    -0.200 F 
ATOM     97  C   UNL A   1      46.465  26.297  28.572  1.00  0.00     0.200 A 
ATOM     98  F   UNL A   1      48.009  26.689  30.317  1.00  0.00    -0.200 F 
ATOM     99  F   UNL A   1      46.667  24.976  28.670  1.00  0.00    -0.200 F 
ENDBRANCH  75  89
BRANCH  76 100
ATOM    100  C   UNL A   1      42.947  38.433  28.821  1.00  0.00     0.064 A 
ATOM    101  C   UNL A   1      43.595  38.856  29.998  1.00  0.00     0.173 A 
ATOM    102  C   UNL A   1      41.927  39.271  28.360  1.00  0.00     0.173 A 
ATOM    103  F   UNL A   1      44.548  38.082  30.539  1.00  0.00    -0.203 F 
ATOM    104  C   UNL A   1      43.305  40.083  30.616  1.00  0.00     0.198 A 
ATOM    105  C   UNL A   1      41.641  40.506  28.963  1.00  0.00     0.198 A 
ATOM    106  F   UNL A   1      41.235  38.938  27.271  1.00  0.00    -0.203 F 
ATOM    107  F   UNL A   1      43.977  40.459  31.713  1.00  0.00    -0.200 F 
ATOM    108  C   UNL A   1      42.348  40.924  30.077  1.00  0.00     0.200 A 
ATOM    109  F   UNL A   1      40.726  41.317  28.409  1.00  0.00    -0.200 F 
ATOM    110  F   UNL A   1      42.123  42.133  30.614  1.00  0.00    -0.200 F 
ENDBRANCH  76 100
BRANCH  88 111
ATOM    111  C   UNL A   1      48.901  34.911  27.857  1.00  0.00     0.064 A 
ATOM    112  C   UNL A   1      50.083  35.100  27.105  1.00  0.00     0.173 A 
ATOM    113  C   UNL A   1      49.114  34.753  29.242  1.00  0.00     0.173 A 
ATOM    114  F   UNL A   1      50.051  35.475  25.819  1.00  0.00    -0.203 F 
ATOM    115  C   UNL A   1      51.361  34.973  27.660  1.00  0.00     0.198 A 
ATOM    116  C   UNL A   1      50.391  34.721  29.812  1.00  0.00     0.198 A 
ATOM    117  F   UNL A   1      48.083  34.651  30.093  1.00  0.00    -0.203 F 
ATOM    118  F   UNL A   1      52.440  35.053  26.868  1.00  0.00    -0.200 F 
ATOM    119  C   UNL A   1      51.515  34.785  29.015  1.00  0.00     0.200 A 
ATOM    120  F   UNL A   1      50.521  34.639  31.143  1.00  0.00    -0.200 F 
ATOM    121  F   UNL A   1      52.738  34.693  29.554  1.00  0.00    -0.200 F 
ENDBRANCH  88 111
ENDBRANCH  62  63
ENDBRANCH  55  57
ENDBRANCH  54  55
ENDBRANCH  53  54
ENDBRANCH  52  53
ENDBRANCH  51  52
ENDBRANCH  50  51
ENDBRANCH  49  50
ENDBRANCH  48  49
ENDBRANCH   1  48
TORSDOF 26
ENDMDL
