MODEL 1
REMARK VINA RESULT:     -10.2      0.000      0.000
REMARK SMILES CC(C)CCOc1ccc(C(=O)N2CCC[C@H](C(=O)OCCOCCOCCOC(=O)c3ccc(-c4c5nc(c(-c6c(F)c(F)c(F)c(F)c6F)c6ccc([nH]6)c(-c6c(F)c(F)c(F)c(F)c6F)c6nc(c(-c7c(F)c(F)c(F)c(F)c7F)c7ccc4[nH]7)C=C6)C=C5)cc3)C2)cc1
REMARK SMILES IDX 22 1 21 2 20 3 18 4 19 5 17 6 13 7 14 8 95 9 15 10 16 11
REMARK SMILES IDX 11 12 12 13 10 14 7 15 8 16 97 17 9 18 96 19 6 20 5 21 4 22
REMARK SMILES IDX 2 23 1 24 3 25 23 26 24 27 25 28 26 29 27 30 28 31 29 32
REMARK SMILES IDX 30 33 31 34 32 35 33 36 94 37 34 38 93 39 35 40 36 41 37 42
REMARK SMILES IDX 87 43 38 44 92 45 86 46 88 47 39 48 91 49 85 50 84 51 40 53
REMARK SMILES IDX 72 54 52 55 71 56 53 57 56 58 70 59 89 60 54 61 55 62 69 64
REMARK SMILES IDX 90 65 57 66 41 67 42 68 50 69 43 70 44 71 48 72 51 73 45 74
REMARK SMILES IDX 46 75 49 76 47 77 73 78 74 79 82 80 75 81 76 82 80 83 83 84
REMARK SMILES IDX 77 85 78 86 81 87 79 88 58 89 59 90 67 91 60 92 61 93 65 94
REMARK SMILES IDX 68 95 62 96 63 97 66 98 64 99
REMARK H PARENT 88 52 56 63
REMARK Flexibility Score: inf
ROOT
ATOM      1  C   UNL A   1      34.570  29.294  27.436  1.00  0.00     0.202 C 
ENDROOT
BRANCH   1   2
ATOM      2  C   UNL A   1      33.322  28.454  27.105  1.00  0.00     0.261 C 
BRANCH   2   3
ATOM      3  O   UNL A   1      33.159  28.109  25.708  1.00  0.00    -0.463 OA
BRANCH   3   4
ATOM      4  C   UNL A   1      32.414  28.951  24.960  1.00  0.00     0.310 C 
ATOM      5  O   UNL A   1      31.420  29.546  25.376  1.00  0.00    -0.252 OA
BRANCH   4   6
ATOM      6  C   UNL A   1      32.858  29.112  23.507  1.00  0.00     0.119 C 
ATOM      7  N   UNL A   1      31.188  27.548  22.642  1.00  0.00    -0.338 N 
ATOM      8  C   UNL A   1      32.186  26.675  22.016  1.00  0.00     0.120 C 
ATOM      9  C   UNL A   1      31.580  28.955  22.694  1.00  0.00     0.135 C 
ATOM     10  C   UNL A   1      33.549  26.795  22.691  1.00  0.00     0.022 C 
ATOM     11  C   UNL A   1      33.949  28.254  22.863  1.00  0.00     0.019 C 
BRANCH   7  12
ATOM     12  C   UNL A   1      30.203  26.943  23.432  1.00  0.00     0.253 C 
ATOM     13  O   UNL A   1      29.161  27.548  23.698  1.00  0.00    -0.269 OA
BRANCH  12  14
ATOM     14  C   UNL A   1      30.448  25.639  24.141  1.00  0.00     0.040 A 
ATOM     15  C   UNL A   1      31.583  23.477  25.496  1.00  0.00     0.119 A 
ATOM     16  C   UNL A   1      31.340  24.654  26.189  1.00  0.00     0.047 A 
ATOM     17  C   UNL A   1      31.058  23.287  24.234  1.00  0.00     0.047 A 
ATOM     18  C   UNL A   1      30.745  25.726  25.515  1.00  0.00     0.017 A 
ATOM     19  C   UNL A   1      30.574  24.387  23.536  1.00  0.00     0.017 A 
BRANCH  15  20
ATOM     20  O   UNL A   1      32.435  22.523  25.974  1.00  0.00    -0.494 OA
BRANCH  20  21
ATOM     21  C   UNL A   1      33.421  23.119  26.854  1.00  0.00     0.230 C 
BRANCH  21  22
ATOM     22  C   UNL A   1      34.892  22.772  26.511  1.00  0.00     0.044 C 
BRANCH  22  23
ATOM     23  C   UNL A   1      35.703  23.888  25.803  1.00  0.00    -0.014 C 
ATOM     24  C   UNL A   1      37.195  23.579  25.700  1.00  0.00     0.007 C 
ATOM     25  C   UNL A   1      35.129  24.179  24.412  1.00  0.00     0.007 C 
ENDBRANCH  22  23
ENDBRANCH  21  22
ENDBRANCH  20  21
ENDBRANCH  15  20
ENDBRANCH  12  14
ENDBRANCH   7  12
ENDBRANCH   4   6
ENDBRANCH   3   4
ENDBRANCH   2   3
ENDBRANCH   1   2
BRANCH   1  26
ATOM     26  O   UNL A   1      34.594  30.679  27.087  1.00  0.00    -0.376 OA
BRANCH  26  27
ATOM     27  C   UNL A   1      33.768  31.572  27.813  1.00  0.00     0.188 C 
BRANCH  27  28
ATOM     28  C   UNL A   1      34.427  32.723  28.574  1.00  0.00     0.188 C 
BRANCH  28  29
ATOM     29  O   UNL A   1      34.369  33.975  27.939  1.00  0.00    -0.376 OA
BRANCH  29  30
ATOM     30  C   UNL A   1      34.174  35.165  28.685  1.00  0.00     0.202 C 
BRANCH  30  31
ATOM     31  C   UNL A   1      32.903  35.359  29.538  1.00  0.00     0.261 C 
BRANCH  31  32
ATOM     32  O   UNL A   1      33.005  36.200  30.700  1.00  0.00    -0.460 OA
BRANCH  32  33
ATOM     33  C   UNL A   1      32.637  35.661  31.894  1.00  0.00     0.338 C 
ATOM     34  O   UNL A   1      31.514  35.555  32.328  1.00  0.00    -0.246 OA
BRANCH  33  35
ATOM     35  C   UNL A   1      33.828  34.936  32.434  1.00  0.00     0.060 A 
ATOM     36  C   UNL A   1      35.082  35.563  32.342  1.00  0.00     0.016 A 
ATOM     37  C   UNL A   1      33.708  33.717  33.105  1.00  0.00     0.016 A 
ATOM     38  C   UNL A   1      36.220  34.951  32.876  1.00  0.00     0.010 A 
ATOM     39  C   UNL A   1      34.853  33.093  33.617  1.00  0.00     0.010 A 
ATOM     40  C   UNL A   1      36.121  33.687  33.471  1.00  0.00    -0.014 A 
BRANCH  40  41
ATOM     41  C   UNL A   1      37.350  32.887  33.715  1.00  0.00     0.031 A 
ATOM     42  C   UNL A   1      38.110  33.140  34.991  1.00  0.00     0.074 A 
ATOM     43  C   UNL A   1      37.782  31.942  32.860  1.00  0.00     0.049 A 
ATOM     44  N   UNL A   1      39.231  32.616  35.418  1.00  0.00    -0.248 NA
ATOM     45  C   UNL A   1      37.519  34.124  35.912  1.00  0.00     0.031 C 
ATOM     46  C   UNL A   1      37.124  31.558  31.614  1.00  0.00     0.029 A 
ATOM     47  N   UNL A   1      38.895  31.135  32.916  1.00  0.00    -0.354 N 
ATOM     48  C   UNL A   1      39.482  33.213  36.645  1.00  0.00     0.074 A 
ATOM     49  C   UNL A   1      38.417  34.163  36.882  1.00  0.00     0.031 C 
ATOM     50  C   UNL A   1      37.853  30.598  31.015  1.00  0.00     0.029 A 
ATOM     51  C   UNL A   1      39.045  30.323  31.817  1.00  0.00     0.049 A 
ATOM     52  H   UNL A   1      39.525  31.138  33.672  1.00  0.00     0.167 HD
ATOM     53  C   UNL A   1      40.502  32.987  37.507  1.00  0.00     0.037 A 
ATOM     54  C   UNL A   1      40.043  29.478  31.488  1.00  0.00     0.037 A 
ATOM     55  C   UNL A   1      41.566  32.046  37.277  1.00  0.00     0.049 A 
ATOM     56  C   UNL A   1      41.215  29.304  32.427  1.00  0.00     0.074 A 
ATOM     57  C   UNL A   1      42.635  31.737  38.098  1.00  0.00     0.029 A 
ATOM     58  N   UNL A   1      41.701  31.271  36.135  1.00  0.00    -0.354 N 
ATOM     59  N   UNL A   1      41.432  29.852  33.597  1.00  0.00    -0.248 NA
ATOM     60  C   UNL A   1      42.280  28.385  31.994  1.00  0.00     0.031 C 
ATOM     61  C   UNL A   1      43.452  30.821  37.427  1.00  0.00     0.029 A 
ATOM     62  C   UNL A   1      42.854  30.506  36.218  1.00  0.00     0.049 A 
ATOM     63  H   UNL A   1      41.073  31.265  35.378  1.00  0.00     0.167 HD
ATOM     64  C   UNL A   1      42.635  29.321  34.054  1.00  0.00     0.074 A 
ATOM     65  C   UNL A   1      43.092  28.394  33.042  1.00  0.00     0.031 C 
ATOM     66  C   UNL A   1      43.298  29.578  35.209  1.00  0.00     0.037 A 
BRANCH  53  67
ATOM     67  C   UNL A   1      40.533  33.799  38.769  1.00  0.00     0.064 A 
ATOM     68  C   UNL A   1      39.815  33.419  39.914  1.00  0.00     0.173 A 
ATOM     69  C   UNL A   1      41.314  34.963  38.843  1.00  0.00     0.173 A 
ATOM     70  F   UNL A   1      39.039  32.325  39.891  1.00  0.00    -0.203 F 
ATOM     71  C   UNL A   1      39.854  34.189  41.074  1.00  0.00     0.198 A 
ATOM     72  C   UNL A   1      41.379  35.711  40.015  1.00  0.00     0.198 A 
ATOM     73  F   UNL A   1      42.022  35.371  37.779  1.00  0.00    -0.203 F 
ATOM     74  F   UNL A   1      39.117  33.836  42.135  1.00  0.00    -0.200 F 
ATOM     75  C   UNL A   1      40.643  35.329  41.125  1.00  0.00     0.200 A 
ATOM     76  F   UNL A   1      42.153  36.804  40.068  1.00  0.00    -0.200 F 
ATOM     77  F   UNL A   1      40.686  36.064  42.245  1.00  0.00    -0.200 F 
ENDBRANCH  53  67
BRANCH  54  78
ATOM     78  C   UNL A   1      39.999  28.733  30.200  1.00  0.00     0.064 A 
ATOM     79  C   UNL A   1      39.391  27.471  30.110  1.00  0.00     0.173 A 
ATOM     80  C   UNL A   1      40.605  29.243  29.042  1.00  0.00     0.173 A 
ATOM     81  F   UNL A   1      38.827  26.922  31.197  1.00  0.00    -0.203 F 
ATOM     82  C   UNL A   1      39.409  26.743  28.923  1.00  0.00     0.198 A 
ATOM     83  C   UNL A   1      40.594  28.529  27.846  1.00  0.00     0.198 A 
ATOM     84  F   UNL A   1      41.211  30.440  29.074  1.00  0.00    -0.203 F 
ATOM     85  F   UNL A   1      38.872  25.517  28.883  1.00  0.00    -0.200 F 
ATOM     86  C   UNL A   1      40.004  27.275  27.789  1.00  0.00     0.200 A 
ATOM     87  F   UNL A   1      41.163  29.052  26.751  1.00  0.00    -0.200 F 
ATOM     88  F   UNL A   1      40.022  26.575  26.646  1.00  0.00    -0.200 F 
ENDBRANCH  54  78
BRANCH  66  89
ATOM     89  C   UNL A   1      44.566  28.811  35.471  1.00  0.00     0.064 A 
ATOM     90  C   UNL A   1      45.824  29.297  35.080  1.00  0.00     0.173 A 
ATOM     91  C   UNL A   1      44.525  27.586  36.157  1.00  0.00     0.173 A 
ATOM     92  F   UNL A   1      45.921  30.456  34.412  1.00  0.00    -0.203 F 
ATOM     93  C   UNL A   1      46.984  28.570  35.334  1.00  0.00     0.198 A 
ATOM     94  C   UNL A   1      45.692  26.881  36.442  1.00  0.00     0.198 A 
ATOM     95  F   UNL A   1      43.352  27.078  36.566  1.00  0.00    -0.203 F 
ATOM     96  F   UNL A   1      48.167  29.027  34.898  1.00  0.00    -0.200 F 
ATOM     97  C   UNL A   1      46.919  27.367  36.021  1.00  0.00     0.200 A 
ATOM     98  F   UNL A   1      45.626  25.728  37.123  1.00  0.00    -0.200 F 
ATOM     99  F   UNL A   1      48.038  26.673  36.269  1.00  0.00    -0.200 F 
ENDBRANCH  66  89
ENDBRANCH  40  41
ENDBRANCH  33  35
ENDBRANCH  32  33
ENDBRANCH  31  32
ENDBRANCH  30  31
ENDBRANCH  29  30
ENDBRANCH  28  29
ENDBRANCH  27  28
ENDBRANCH  26  27
ENDBRANCH   1  26
TORSDOF 23
ENDMDL
MODEL 2
REMARK VINA RESULT:     -10.1      5.166      9.637
REMARK SMILES CC(C)CCOc1ccc(C(=O)N2CCC[C@H](C(=O)OCCOCCOCCOC(=O)c3ccc(-c4c5nc(c(-c6c(F)c(F)c(F)c(F)c6F)c6ccc([nH]6)c(-c6c(F)c(F)c(F)c(F)c6F)c6nc(c(-c7c(F)c(F)c(F)c(F)c7F)c7ccc4[nH]7)C=C6)C=C5)cc3)C2)cc1
REMARK SMILES IDX 22 1 21 2 20 3 18 4 19 5 17 6 13 7 14 8 95 9 15 10 16 11
REMARK SMILES IDX 11 12 12 13 10 14 7 15 8 16 97 17 9 18 96 19 6 20 5 21 4 22
REMARK SMILES IDX 2 23 1 24 3 25 23 26 24 27 25 28 26 29 27 30 28 31 29 32
REMARK SMILES IDX 30 33 31 34 32 35 33 36 94 37 34 38 93 39 35 40 36 41 37 42
REMARK SMILES IDX 87 43 38 44 92 45 86 46 88 47 39 48 91 49 85 50 84 51 40 53
REMARK SMILES IDX 72 54 52 55 71 56 53 57 56 58 70 59 89 60 54 61 55 62 69 64
REMARK SMILES IDX 90 65 57 66 41 67 42 68 50 69 43 70 44 71 48 72 51 73 45 74
REMARK SMILES IDX 46 75 49 76 47 77 73 78 74 79 82 80 75 81 76 82 80 83 83 84
REMARK SMILES IDX 77 85 78 86 81 87 79 88 58 89 59 90 67 91 60 92 61 93 65 94
REMARK SMILES IDX 68 95 62 96 63 97 66 98 64 99
REMARK H PARENT 88 52 56 63
REMARK Flexibility Score: inf
ROOT
ATOM      1  C   UNL A   1      33.465  30.528  26.945  1.00  0.00     0.202 C 
ENDROOT
BRANCH   1   2
ATOM      2  C   UNL A   1      32.059  29.982  26.633  1.00  0.00     0.261 C 
BRANCH   2   3
ATOM      3  O   UNL A   1      31.934  28.540  26.655  1.00  0.00    -0.463 OA
BRANCH   3   4
ATOM      4  C   UNL A   1      32.694  27.853  25.775  1.00  0.00     0.310 C 
ATOM      5  O   UNL A   1      33.687  27.197  26.086  1.00  0.00    -0.252 OA
BRANCH   4   6
ATOM      6  C   UNL A   1      32.266  27.956  24.311  1.00  0.00     0.119 C 
ATOM      7  N   UNL A   1      30.848  25.965  24.405  1.00  0.00    -0.338 N 
ATOM      8  C   UNL A   1      31.562  25.285  23.321  1.00  0.00     0.120 C 
ATOM      9  C   UNL A   1      30.841  27.422  24.288  1.00  0.00     0.135 C 
ATOM     10  C   UNL A   1      32.995  25.788  23.181  1.00  0.00     0.022 C 
ATOM     11  C   UNL A   1      33.044  27.310  23.162  1.00  0.00     0.019 C 
BRANCH   7  12
ATOM     12  C   UNL A   1      30.602  25.238  25.576  1.00  0.00     0.253 C 
ATOM     13  O   UNL A   1      29.930  25.731  26.485  1.00  0.00    -0.269 OA
BRANCH  12  14
ATOM     14  C   UNL A   1      31.296  23.933  25.856  1.00  0.00     0.040 A 
ATOM     15  C   UNL A   1      33.102  21.804  25.956  1.00  0.00     0.119 A 
ATOM     16  C   UNL A   1      33.369  22.950  26.692  1.00  0.00     0.047 A 
ATOM     17  C   UNL A   1      31.861  21.615  25.382  1.00  0.00     0.047 A 
ATOM     18  C   UNL A   1      32.449  24.004  26.663  1.00  0.00     0.017 A 
ATOM     19  C   UNL A   1      31.005  22.704  25.261  1.00  0.00     0.017 A 
BRANCH  15  20
ATOM     20  O   UNL A   1      34.073  20.887  25.674  1.00  0.00    -0.494 OA
BRANCH  20  21
ATOM     21  C   UNL A   1      33.498  19.721  25.030  1.00  0.00     0.230 C 
BRANCH  21  22
ATOM     22  C   UNL A   1      34.522  18.637  24.612  1.00  0.00     0.044 C 
BRANCH  22  23
ATOM     23  C   UNL A   1      33.994  17.180  24.586  1.00  0.00    -0.014 C 
ATOM     24  C   UNL A   1      32.573  17.042  25.128  1.00  0.00     0.007 C 
ATOM     25  C   UNL A   1      34.074  16.599  23.170  1.00  0.00     0.007 C 
ENDBRANCH  22  23
ENDBRANCH  21  22
ENDBRANCH  20  21
ENDBRANCH  15  20
ENDBRANCH  12  14
ENDBRANCH   7  12
ENDBRANCH   4   6
ENDBRANCH   3   4
ENDBRANCH   2   3
ENDBRANCH   1   2
BRANCH   1  26
ATOM     26  O   UNL A   1      33.613  31.569  27.911  1.00  0.00    -0.376 OA
BRANCH  26  27
ATOM     27  C   UNL A   1      34.914  32.061  28.179  1.00  0.00     0.188 C 
BRANCH  27  28
ATOM     28  C   UNL A   1      35.076  33.172  29.216  1.00  0.00     0.188 C 
BRANCH  28  29
ATOM     29  O   UNL A   1      34.255  33.060  30.351  1.00  0.00    -0.376 OA
BRANCH  29  30
ATOM     30  C   UNL A   1      34.486  33.856  31.502  1.00  0.00     0.202 C 
BRANCH  30  31
ATOM     31  C   UNL A   1      35.061  33.228  32.789  1.00  0.00     0.261 C 
BRANCH  31  32
ATOM     32  O   UNL A   1      35.726  31.958  32.667  1.00  0.00    -0.460 OA
BRANCH  32  33
ATOM     33  C   UNL A   1      36.881  31.789  33.366  1.00  0.00     0.338 C 
ATOM     34  O   UNL A   1      37.014  31.814  34.567  1.00  0.00    -0.246 OA
BRANCH  33  35
ATOM     35  C   UNL A   1      37.897  31.251  32.411  1.00  0.00     0.060 A 
ATOM     36  C   UNL A   1      38.975  30.518  32.935  1.00  0.00     0.016 A 
ATOM     37  C   UNL A   1      37.746  31.373  31.028  1.00  0.00     0.016 A 
ATOM     38  C   UNL A   1      39.926  29.950  32.081  1.00  0.00     0.010 A 
ATOM     39  C   UNL A   1      38.713  30.824  30.175  1.00  0.00     0.010 A 
ATOM     40  C   UNL A   1      39.830  30.144  30.698  1.00  0.00    -0.014 A 
BRANCH  40  41
ATOM     41  C   UNL A   1      41.001  29.857  29.828  1.00  0.00     0.031 A 
ATOM     42  C   UNL A   1      41.092  28.489  29.204  1.00  0.00     0.074 A 
ATOM     43  C   UNL A   1      41.949  30.774  29.562  1.00  0.00     0.049 A 
ATOM     44  N   UNL A   1      42.030  27.972  28.451  1.00  0.00    -0.248 NA
ATOM     45  C   UNL A   1      39.968  27.579  29.472  1.00  0.00     0.031 C 
ATOM     46  C   UNL A   1      41.965  32.148  30.057  1.00  0.00     0.029 A 
ATOM     47  N   UNL A   1      43.095  30.674  28.809  1.00  0.00    -0.354 N 
ATOM     48  C   UNL A   1      41.613  26.679  28.166  1.00  0.00     0.074 A 
ATOM     49  C   UNL A   1      40.356  26.476  28.854  1.00  0.00     0.031 C 
ATOM     50  C   UNL A   1      43.074  32.761  29.604  1.00  0.00     0.029 A 
ATOM     51  C   UNL A   1      43.864  31.813  28.817  1.00  0.00     0.049 A 
ATOM     52  H   UNL A   1      43.343  29.862  28.311  1.00  0.00     0.167 HD
ATOM     53  C   UNL A   1      42.215  25.743  27.395  1.00  0.00     0.037 A 
ATOM     54  C   UNL A   1      45.076  32.052  28.273  1.00  0.00     0.037 A 
ATOM     55  C   UNL A   1      43.466  25.936  26.711  1.00  0.00     0.049 A 
ATOM     56  C   UNL A   1      45.768  30.963  27.485  1.00  0.00     0.074 A 
ATOM     57  C   UNL A   1      44.146  25.052  25.893  1.00  0.00     0.029 A 
ATOM     58  N   UNL A   1      44.230  27.092  26.775  1.00  0.00    -0.354 N 
ATOM     59  N   UNL A   1      45.355  29.752  27.198  1.00  0.00    -0.248 NA
ATOM     60  C   UNL A   1      47.097  31.282  26.941  1.00  0.00     0.031 C 
ATOM     61  C   UNL A   1      45.353  25.648  25.513  1.00  0.00     0.029 A 
ATOM     62  C   UNL A   1      45.391  26.930  26.035  1.00  0.00     0.049 A 
ATOM     63  H   UNL A   1      43.985  27.905  27.272  1.00  0.00     0.167 HD
ATOM     64  C   UNL A   1      46.354  29.180  26.416  1.00  0.00     0.074 A 
ATOM     65  C   UNL A   1      47.385  30.183  26.259  1.00  0.00     0.031 C 
ATOM     66  C   UNL A   1      46.409  27.938  25.875  1.00  0.00     0.037 A 
BRANCH  53  67
ATOM     67  C   UNL A   1      41.539  24.407  27.275  1.00  0.00     0.064 A 
ATOM     68  C   UNL A   1      42.045  23.261  27.908  1.00  0.00     0.173 A 
ATOM     69  C   UNL A   1      40.353  24.278  26.537  1.00  0.00     0.173 A 
ATOM     70  F   UNL A   1      43.186  23.325  28.610  1.00  0.00    -0.203 F 
ATOM     71  C   UNL A   1      41.405  22.030  27.781  1.00  0.00     0.198 A 
ATOM     72  C   UNL A   1      39.696  23.055  26.442  1.00  0.00     0.198 A 
ATOM     73  F   UNL A   1      39.824  25.343  25.914  1.00  0.00    -0.203 F 
ATOM     74  F   UNL A   1      41.936  20.939  28.348  1.00  0.00    -0.200 F 
ATOM     75  C   UNL A   1      40.226  21.931  27.056  1.00  0.00     0.200 A 
ATOM     76  F   UNL A   1      38.550  22.964  25.753  1.00  0.00    -0.200 F 
ATOM     77  F   UNL A   1      39.607  20.748  26.942  1.00  0.00    -0.200 F 
ENDBRANCH  53  67
BRANCH  54  78
ATOM     78  C   UNL A   1      45.734  33.373  28.462  1.00  0.00     0.064 A 
ATOM     79  C   UNL A   1      46.442  33.671  29.636  1.00  0.00     0.173 A 
ATOM     80  C   UNL A   1      45.632  34.383  27.493  1.00  0.00     0.173 A 
ATOM     81  F   UNL A   1      46.541  32.752  30.609  1.00  0.00    -0.203 F 
ATOM     82  C   UNL A   1      47.001  34.931  29.842  1.00  0.00     0.198 A 
ATOM     83  C   UNL A   1      46.219  35.631  27.686  1.00  0.00     0.198 A 
ATOM     84  F   UNL A   1      44.957  34.156  26.356  1.00  0.00    -0.203 F 
ATOM     85  F   UNL A   1      47.620  35.206  30.998  1.00  0.00    -0.200 F 
ATOM     86  C   UNL A   1      46.896  35.908  28.865  1.00  0.00     0.200 A 
ATOM     87  F   UNL A   1      46.122  36.569  26.734  1.00  0.00    -0.200 F 
ATOM     88  F   UNL A   1      47.433  37.120  29.063  1.00  0.00    -0.200 F 
ENDBRANCH  54  78
BRANCH  66  89
ATOM     89  C   UNL A   1      47.600  27.602  25.018  1.00  0.00     0.064 A 
ATOM     90  C   UNL A   1      48.768  27.039  25.556  1.00  0.00     0.173 A 
ATOM     91  C   UNL A   1      47.557  27.814  23.630  1.00  0.00     0.173 A 
ATOM     92  F   UNL A   1      48.868  26.825  26.876  1.00  0.00    -0.203 F 
ATOM     93  C   UNL A   1      49.857  26.735  24.743  1.00  0.00     0.198 A 
ATOM     94  C   UNL A   1      48.634  27.473  22.816  1.00  0.00     0.198 A 
ATOM     95  F   UNL A   1      46.461  28.338  23.060  1.00  0.00    -0.203 F 
ATOM     96  F   UNL A   1      50.983  26.253  25.287  1.00  0.00    -0.200 F 
ATOM     97  C   UNL A   1      49.787  26.945  23.374  1.00  0.00     0.200 A 
ATOM     98  F   UNL A   1      48.555  27.661  21.491  1.00  0.00    -0.200 F 
ATOM     99  F   UNL A   1      50.835  26.646  22.593  1.00  0.00    -0.200 F 
ENDBRANCH  66  89
ENDBRANCH  40  41
ENDBRANCH  33  35
ENDBRANCH  32  33
ENDBRANCH  31  32
ENDBRANCH  30  31
ENDBRANCH  29  30
ENDBRANCH  28  29
ENDBRANCH  27  28
ENDBRANCH  26  27
ENDBRANCH   1  26
TORSDOF 23
ENDMDL
MODEL 3
REMARK VINA RESULT:     -10.1      2.817      4.913
REMARK SMILES CC(C)CCOc1ccc(C(=O)N2CCC[C@H](C(=O)OCCOCCOCCOC(=O)c3ccc(-c4c5nc(c(-c6c(F)c(F)c(F)c(F)c6F)c6ccc([nH]6)c(-c6c(F)c(F)c(F)c(F)c6F)c6nc(c(-c7c(F)c(F)c(F)c(F)c7F)c7ccc4[nH]7)C=C6)C=C5)cc3)C2)cc1
REMARK SMILES IDX 22 1 21 2 20 3 18 4 19 5 17 6 13 7 14 8 95 9 15 10 16 11
REMARK SMILES IDX 11 12 12 13 10 14 7 15 8 16 97 17 9 18 96 19 6 20 5 21 4 22
REMARK SMILES IDX 2 23 1 24 3 25 23 26 24 27 25 28 26 29 27 30 28 31 29 32
REMARK SMILES IDX 30 33 31 34 32 35 33 36 94 37 34 38 93 39 35 40 36 41 37 42
REMARK SMILES IDX 87 43 38 44 92 45 86 46 88 47 39 48 91 49 85 50 84 51 40 53
REMARK SMILES IDX 72 54 52 55 71 56 53 57 56 58 70 59 89 60 54 61 55 62 69 64
REMARK SMILES IDX 90 65 57 66 41 67 42 68 50 69 43 70 44 71 48 72 51 73 45 74
REMARK SMILES IDX 46 75 49 76 47 77 73 78 74 79 82 80 75 81 76 82 80 83 83 84
REMARK SMILES IDX 77 85 78 86 81 87 79 88 58 89 59 90 67 91 60 92 61 93 65 94
REMARK SMILES IDX 68 95 62 96 63 97 66 98 64 99
REMARK H PARENT 88 52 56 63
REMARK Flexibility Score: inf
ROOT
ATOM      1  C   UNL A   1      28.742  27.886  23.695  1.00  0.00     0.202 C 
ENDROOT
BRANCH   1   2
ATOM      2  C   UNL A   1      28.991  26.370  23.590  1.00  0.00     0.261 C 
BRANCH   2   3
ATOM      3  O   UNL A   1      30.336  25.938  23.906  1.00  0.00    -0.463 OA
BRANCH   3   4
ATOM      4  C   UNL A   1      31.338  26.528  23.218  1.00  0.00     0.310 C 
ATOM      5  O   UNL A   1      31.534  26.371  22.014  1.00  0.00    -0.252 OA
BRANCH   4   6
ATOM      6  C   UNL A   1      32.274  27.411  24.043  1.00  0.00     0.119 C 
ATOM      7  N   UNL A   1      34.021  25.706  24.204  1.00  0.00    -0.338 N 
ATOM      8  C   UNL A   1      34.023  25.706  25.669  1.00  0.00     0.120 C 
ATOM      9  C   UNL A   1      33.674  26.996  23.611  1.00  0.00     0.135 C 
ATOM     10  C   UNL A   1      32.691  26.182  26.240  1.00  0.00     0.022 C 
ATOM     11  C   UNL A   1      32.238  27.473  25.572  1.00  0.00     0.019 C 
BRANCH   7  12
ATOM     12  C   UNL A   1      33.962  24.466  23.556  1.00  0.00     0.253 C 
ATOM     13  O   UNL A   1      34.187  24.385  22.345  1.00  0.00    -0.269 OA
BRANCH  12  14
ATOM     14  C   UNL A   1      33.439  23.237  24.247  1.00  0.00     0.040 A 
ATOM     15  C   UNL A   1      32.564  20.658  24.871  1.00  0.00     0.119 A 
ATOM     16  C   UNL A   1      33.923  20.888  24.711  1.00  0.00     0.047 A 
ATOM     17  C   UNL A   1      31.682  21.716  24.964  1.00  0.00     0.047 A 
ATOM     18  C   UNL A   1      34.362  22.187  24.427  1.00  0.00     0.017 A 
ATOM     19  C   UNL A   1      32.105  22.979  24.569  1.00  0.00     0.017 A 
BRANCH  15  20
ATOM     20  O   UNL A   1      32.036  19.400  24.826  1.00  0.00    -0.494 OA
BRANCH  20  21
ATOM     21  C   UNL A   1      33.033  18.418  25.208  1.00  0.00     0.230 C 
BRANCH  21  22
ATOM     22  C   UNL A   1      33.366  17.371  24.116  1.00  0.00     0.044 C 
BRANCH  22  23
ATOM     23  C   UNL A   1      33.635  15.929  24.620  1.00  0.00    -0.014 C 
ATOM     24  C   UNL A   1      35.011  15.758  25.257  1.00  0.00     0.007 C 
ATOM     25  C   UNL A   1      32.543  15.484  25.599  1.00  0.00     0.007 C 
ENDBRANCH  22  23
ENDBRANCH  21  22
ENDBRANCH  20  21
ENDBRANCH  15  20
ENDBRANCH  12  14
ENDBRANCH   7  12
ENDBRANCH   4   6
ENDBRANCH   3   4
ENDBRANCH   2   3
ENDBRANCH   1   2
BRANCH   1  26
ATOM     26  O   UNL A   1      28.803  28.689  22.515  1.00  0.00    -0.376 OA
BRANCH  26  27
ATOM     27  C   UNL A   1      29.754  29.737  22.461  1.00  0.00     0.188 C 
BRANCH  27  28
ATOM     28  C   UNL A   1      29.402  31.078  23.105  1.00  0.00     0.188 C 
BRANCH  28  29
ATOM     29  O   UNL A   1      29.614  31.153  24.492  1.00  0.00    -0.376 OA
BRANCH  29  30
ATOM     30  C   UNL A   1      30.899  30.930  25.049  1.00  0.00     0.202 C 
BRANCH  30  31
ATOM     31  C   UNL A   1      31.310  31.607  26.374  1.00  0.00     0.261 C 
BRANCH  31  32
ATOM     32  O   UNL A   1      32.624  31.322  26.884  1.00  0.00    -0.460 OA
BRANCH  32  33
ATOM     33  C   UNL A   1      33.300  32.346  27.473  1.00  0.00     0.338 C 
ATOM     34  O   UNL A   1      32.852  33.421  27.798  1.00  0.00    -0.246 OA
BRANCH  33  35
ATOM     35  C   UNL A   1      34.611  31.797  27.937  1.00  0.00     0.060 A 
ATOM     36  C   UNL A   1      34.708  30.412  28.153  1.00  0.00     0.016 A 
ATOM     37  C   UNL A   1      35.745  32.601  28.061  1.00  0.00     0.016 A 
ATOM     38  C   UNL A   1      35.925  29.840  28.539  1.00  0.00     0.010 A 
ATOM     39  C   UNL A   1      36.957  32.031  28.472  1.00  0.00     0.010 A 
ATOM     40  C   UNL A   1      37.044  30.653  28.752  1.00  0.00    -0.014 A 
BRANCH  40  41
ATOM     41  C   UNL A   1      38.218  30.117  29.491  1.00  0.00     0.031 A 
ATOM     42  C   UNL A   1      38.435  30.594  30.903  1.00  0.00     0.074 A 
ATOM     43  C   UNL A   1      39.060  29.213  28.957  1.00  0.00     0.049 A 
ATOM     44  N   UNL A   1      39.403  30.321  31.741  1.00  0.00    -0.248 NA
ATOM     45  C   UNL A   1      37.417  31.510  31.440  1.00  0.00     0.031 C 
ATOM     46  C   UNL A   1      38.945  28.629  27.623  1.00  0.00     0.029 A 
ATOM     47  N   UNL A   1      40.192  28.636  29.482  1.00  0.00    -0.354 N 
ATOM     48  C   UNL A   1      39.115  31.037  32.895  1.00  0.00     0.074 A 
ATOM     49  C   UNL A   1      37.902  31.784  32.641  1.00  0.00     0.031 C 
ATOM     50  C   UNL A   1      39.975  27.785  27.429  1.00  0.00     0.029 A 
ATOM     51  C   UNL A   1      40.840  27.794  28.609  1.00  0.00     0.049 A 
ATOM     52  H   UNL A   1      40.510  28.809  30.397  1.00  0.00     0.167 HD
ATOM     53  C   UNL A   1      39.791  31.066  34.068  1.00  0.00     0.037 A 
ATOM     54  C   UNL A   1      42.007  27.131  28.742  1.00  0.00     0.037 A 
ATOM     55  C   UNL A   1      40.999  30.328  34.327  1.00  0.00     0.049 A 
ATOM     56  C   UNL A   1      42.788  27.245  30.030  1.00  0.00     0.074 A 
ATOM     57  C   UNL A   1      41.748  30.282  35.489  1.00  0.00     0.029 A 
ATOM     58  N   UNL A   1      41.642  29.517  33.404  1.00  0.00    -0.354 N 
ATOM     59  N   UNL A   1      42.497  27.902  31.126  1.00  0.00    -0.248 NA
ATOM     60  C   UNL A   1      44.065  26.515  30.098  1.00  0.00     0.031 C 
ATOM     61  C   UNL A   1      42.878  29.493  35.250  1.00  0.00     0.029 A 
ATOM     62  C   UNL A   1      42.796  28.989  33.963  1.00  0.00     0.049 A 
ATOM     63  H   UNL A   1      41.326  29.341  32.488  1.00  0.00     0.167 HD
ATOM     64  C   UNL A   1      43.530  27.640  32.020  1.00  0.00     0.074 A 
ATOM     65  C   UNL A   1      44.448  26.749  31.345  1.00  0.00     0.031 C 
ATOM     66  C   UNL A   1      43.700  28.094  33.287  1.00  0.00     0.037 A 
BRANCH  53  67
ATOM     67  C   UNL A   1      39.254  31.954  35.153  1.00  0.00     0.064 A 
ATOM     68  C   UNL A   1      39.498  33.336  35.170  1.00  0.00     0.173 A 
ATOM     69  C   UNL A   1      38.462  31.416  36.179  1.00  0.00     0.173 A 
ATOM     70  F   UNL A   1      40.264  33.898  34.223  1.00  0.00    -0.203 F 
ATOM     71  C   UNL A   1      38.994  34.141  36.188  1.00  0.00     0.198 A 
ATOM     72  C   UNL A   1      37.930  32.229  37.176  1.00  0.00     0.198 A 
ATOM     73  F   UNL A   1      38.196  30.101  36.210  1.00  0.00    -0.203 F 
ATOM     74  F   UNL A   1      39.285  35.448  36.213  1.00  0.00    -0.200 F 
ATOM     75  C   UNL A   1      38.203  33.587  37.185  1.00  0.00     0.200 A 
ATOM     76  F   UNL A   1      37.154  31.695  38.129  1.00  0.00    -0.200 F 
ATOM     77  F   UNL A   1      37.711  34.364  38.159  1.00  0.00    -0.200 F 
ENDBRANCH  53  67
BRANCH  54  78
ATOM     78  C   UNL A   1      42.530  26.305  27.620  1.00  0.00     0.064 A 
ATOM     79  C   UNL A   1      42.190  24.949  27.494  1.00  0.00     0.173 A 
ATOM     80  C   UNL A   1      43.419  26.840  26.675  1.00  0.00     0.173 A 
ATOM     81  F   UNL A   1      41.370  24.380  28.392  1.00  0.00    -0.203 F 
ATOM     82  C   UNL A   1      42.733  24.159  26.484  1.00  0.00     0.198 A 
ATOM     83  C   UNL A   1      43.936  26.056  25.645  1.00  0.00     0.198 A 
ATOM     84  F   UNL A   1      43.787  28.127  26.753  1.00  0.00    -0.203 F 
ATOM     85  F   UNL A   1      42.436  22.853  26.425  1.00  0.00    -0.200 F 
ATOM     86  C   UNL A   1      43.600  24.714  25.556  1.00  0.00     0.200 A 
ATOM     87  F   UNL A   1      44.767  26.600  24.745  1.00  0.00    -0.200 F 
ATOM     88  F   UNL A   1      44.123  23.953  24.584  1.00  0.00    -0.200 F 
ENDBRANCH  54  78
BRANCH  66  89
ATOM     89  C   UNL A   1      44.899  27.599  34.050  1.00  0.00     0.064 A 
ATOM     90  C   UNL A   1      44.838  26.466  34.877  1.00  0.00     0.173 A 
ATOM     91  C   UNL A   1      46.138  28.248  33.924  1.00  0.00     0.173 A 
ATOM     92  F   UNL A   1      43.677  25.814  35.043  1.00  0.00    -0.203 F 
ATOM     93  C   UNL A   1      45.960  26.024  35.573  1.00  0.00     0.198 A 
ATOM     94  C   UNL A   1      47.267  27.780  34.592  1.00  0.00     0.198 A 
ATOM     95  F   UNL A   1      46.259  29.329  33.138  1.00  0.00    -0.203 F 
ATOM     96  F   UNL A   1      45.862  24.976  36.402  1.00  0.00    -0.200 F 
ATOM     97  C   UNL A   1      47.175  26.677  35.425  1.00  0.00     0.200 A 
ATOM     98  F   UNL A   1      48.443  28.403  34.431  1.00  0.00    -0.200 F 
ATOM     99  F   UNL A   1      48.255  26.247  36.091  1.00  0.00    -0.200 F 
ENDBRANCH  66  89
ENDBRANCH  40  41
ENDBRANCH  33  35
ENDBRANCH  32  33
ENDBRANCH  31  32
ENDBRANCH  30  31
ENDBRANCH  29  30
ENDBRANCH  28  29
ENDBRANCH  27  28
ENDBRANCH  26  27
ENDBRANCH   1  26
TORSDOF 23
ENDMDL
